data_PCOD8009064
_publ_section_title
;
Structure prediction by ZEFSAII (Michael W. Deem and Ramdas Pophale) SiO2 
 PCOD8009064
Probable space group: P -1
;
_chemical_formula_sum "Si O2"
_cell_formula_units_Z 10
_cell_length_a 13.118546
_cell_length_b 6.249803
_cell_length_c 8.428255
_cell_angle_alpha 52.471728
_cell_angle_beta 107.769342
_cell_angle_gamma 74.528692
_cell_volume 417.739687
_symmetry_space_group_name_H-M "P -1"
_symmetry_group_IT_number 2
_symmetry_cell_setting 'triclinic'
loop_
_space_group_symop_operation_xyz
x,y,z
-x,-y,-z
loop_
_atom_site_type_symbol
_atom_site_label
_atom_site_fract_x
_atom_site_fract_y
_atom_site_fract_z
Si Si1 0.765322 0.162169 0.135402
Si Si2 0.723345 0.328781 0.401831
Si Si3 0.047635 0.671015 0.568403
Si Si4 0.770974 0.740281 0.904672
Si Si5 0.451740 0.773579 0.218752
O O1 0.719958 0.231644 0.264393
O O2 0.910168 0.774652 0.364556
O O3 0.795985 0.420564 0.969815
O O4 0.647969 0.221522 0.950996
O O5 0.834928 0.388451 0.462925
O O6 0.582053 0.682794 0.226317
O O7 0.752515 0.017233 0.656611
O O8 0.000000 0.000000 0.500000
O O9 0.108840 0.371278 0.863798
O O10 0.637411 0.872140 0.889519
O O11 0.500000 0.500000 0.500000
#
# Coordination Sequence:
#
# PCOD8009064 Si02
#       5
#     2   2   2   2   2
#     4  10  21  36  55  80 106 138 179 214 258 317
#     4   9  18  35  57  79 105 139 176 213 261 316
#     4   8  18  33  54  81 105 134 177 215 256 316
#     4   9  19  36  56  77 110 138 167 223 266 298
#     4  10  21  36  54  80 108 137 179 218 256 314
#
# _framework density 23.938354
#
# number of rings (size 3 to 8) (size 9 to 14) (size 15 to 20)
#    0.000    3.200    0.000    0.600    0.000   14.400 
#    0.000   12.000    0.000    0.000    0.000    1.400 
#    0.000    0.000    0.000    0.000    0.000    0.000 
#
# Total GULP energy -123885.733675 kJ/mol
# GULP energy per Si atom -12388.573367 kJ/mol
# Density = 2.388387 g / cm^3
# Si number density = 23.938354 Si / 1000 Ang^3
#
#
#
# Elastic Constant Matrix: (Units=GPa)
#
#
# Indices 1 2 3 4 5 6 
#
# 1 129.7827 34.7265 69.6058 12.6426 28.3306 -1.4936
# 2 34.7265 44.5806 48.9708 -5.3104 9.5852 -2.6773
# 3 69.6058 48.9708 153.8053 -1.4646 24.3078 -3.8051
# 4 12.6426 -5.3104 -1.4646 35.1071 -1.5931 7.1567
# 5 28.3306 9.5852 24.3078 -1.5931 47.0820 -4.2819
# 6 -1.4936 -2.6773 -3.8051 7.1567 -4.2819 34.2888
#
#
#
# Elastic Compliance Matrix: (Units=1/GPa)
#
#
# Indices 1 2 3 4 5 6 
#
# 1 0.012629 -0.006126 -0.003029 -0.005897 -0.004956 0.000347
# 2 -0.006126 0.038367 -0.009536 0.007617 0.001076 0.000215
# 3 -0.003029 -0.009536 0.011231 0.000001 -0.002024 0.000117
# 4 -0.005897 0.007617 0.000001 0.033152 0.002549 -0.006263
# 5 -0.004956 0.001076 -0.002024 0.002549 0.025341 0.002276
# 6 0.000347 0.000215 0.000117 -0.006263 0.002276 0.030800
#
#
# Mechanical properties :
#
#
# Convention : Reuss Voigt Hill
#
# Bulk Modulus (GPa) = 40.24818 70.53051 55.38935
# Shear Modulus (GPa) = 25.35688 34.95327 30.15507
#
# Velocity S-wave (km/s) = 3.25815 3.82532 3.55307
# Velocity P-wave (km/s) = 5.56811 7.00272 6.32621
#
# Compressibility (1/GPa) = 0.02484584
#
# Stress axis : x y z
#
# Youngs Moduli (GPa) = 79.18042 26.06422 89.03553
#
# Poissons Ratio (x) = 0.15967 0.26971
# Poissons Ratio (y) = 0.48507 0.84900
# Poissons Ratio (z) = 0.23986 0.24854
#
# Static dielectric constant tensor:
#      x y z
#    x 4.790650 -0.443670 0.647000 
#    y -0.443670 4.837490 -0.427710 
#    z 0.647000 -0.427710 5.076170 
# 
# 
# High freq. dielectric constant tensor:
#      x y z
#    x 1.939030 -0.018510 0.012250 
#    y -0.018510 1.961310 -0.028230 
#    z 0.012250 -0.028230 1.980950 
# 
# From -- ./inp_files/286209.got.cif
#   From: 2010.06.25/outbox.cif.g09.slc.cpg/sg2_144_cif.got.tgz:286209.got - 2010.06.27 13:26:56.
