data_PCOD8009772
_publ_section_title
;
Structure prediction by ZEFSAII (Michael W. Deem and Ramdas Pophale) SiO2 
 PCOD8009772
Probable space group: P -1
;
_chemical_formula_sum "Si O2"
_cell_formula_units_Z 16
_cell_length_a 9.307806
_cell_length_b 12.173213
_cell_length_c 17.021662
_cell_angle_alpha 134.423180
_cell_angle_beta 141.164460
_cell_angle_gamma 37.522965
_cell_volume 719.396656
_symmetry_space_group_name_H-M "P -1"
_symmetry_group_IT_number 2
_symmetry_cell_setting 'triclinic'
loop_
_space_group_symop_operation_xyz
x,y,z
-x,-y,-z
loop_
_atom_site_type_symbol
_atom_site_label
_atom_site_fract_x
_atom_site_fract_y
_atom_site_fract_z
Si Si1 0.333974 0.194130 0.619908
Si Si2 0.410462 0.807869 0.045035
Si Si3 0.858324 0.183966 0.814835
Si Si4 0.019640 0.412161 0.740155
Si Si5 0.295109 0.223336 0.437334
Si Si6 0.401210 0.583192 0.328831
Si Si7 0.982554 0.772975 0.934258
Si Si8 0.215921 0.762464 0.778735
O O1 0.562997 0.240995 0.750753
O O2 0.084205 0.323912 0.636924
O O3 0.224808 0.232048 0.504038
O O4 0.463871 0.980488 0.589802
O O5 0.724783 0.706338 0.152157
O O6 0.264682 0.741199 0.007066
O O7 0.399827 0.750014 0.923074
O O8 0.270092 0.027434 0.101964
O O9 0.815663 0.285014 0.764764
O O10 0.997126 0.240801 0.968538
O O11 0.046665 0.965153 0.769556
O O12 0.933399 0.622469 0.804000
O O13 0.764082 0.409733 0.662114
O O14 0.393238 0.357830 0.526250
O O15 0.001389 0.285942 0.304751
O O16 0.582137 0.375584 0.270400
#
# Coordination Sequence:
#
# PCOD8009772 Si02
#       8
#     2   2   2   2   2   2   2   2
#     4   9  19  38  65  88 114 161 205 254 299 344
#     4  10  22  38  64  96 119 159 200 248 307 356
#     4   9  19  39  62  85 123 158 203 251 288 358
#     4  12  24  38  61  96 130 153 193 254 313 363
#     4   9  20  41  64  85 115 162 215 249 287 353
#     4  11  24  38  60  94 122 166 200 241 312 357
#     4  10  21  37  60  94 124 157 201 246 301 361
#     4  10  21  39  66  88 119 159 213 249 286 359
#
# _framework density 22.240860999999999
#
# number of rings (size 3 to 8) (size 9 to 14) (size 15 to 20)
#    0.000    2.000    1.250    2.250    5.250    3.500 
#    0.000    3.125    0.000    0.000    0.000    0.000 
#    0.000    0.000    0.000    0.000    0.000    0.000 
#
# Total GULP energy -198439.453030 kJ/mol
# GULP energy per Si atom -12402.465814 kJ/mol
# Density = 2.219024 g / cm^3
# Si number density = 22.240861 Si / 1000 Ang^3
#
#
#
# Elastic Constant Matrix: (Units=GPa)
#
#
# Indices 1 2 3 4 5 6 
#
# 1 108.0564 36.6539 29.5889 25.9082 2.5528 -15.3933
# 2 36.6539 74.9008 27.5626 20.1379 6.8231 -7.7986
# 3 29.5889 27.5626 60.6641 24.6671 -8.8558 -15.9060
# 4 25.9082 20.1379 24.6671 32.7269 -8.9789 -4.9974
# 5 2.5528 6.8231 -8.8558 -8.9789 16.1362 -1.2110
# 6 -15.3933 -7.7986 -15.9060 -4.9974 -1.2110 23.8588
#
#
#
# Elastic Compliance Matrix: (Units=1/GPa)
#
#
# Indices 1 2 3 4 5 6 
#
# 1 0.013531 -0.002532 -0.001472 -0.009147 -0.006617 0.004669
# 2 -0.002532 0.022076 -0.007759 -0.011658 -0.019908 -0.003043
# 3 -0.001472 -0.007759 0.031880 -0.011227 0.015980 0.016227
# 4 -0.009147 -0.011658 -0.011227 0.062659 0.034909 -0.002301
# 5 -0.006617 -0.019908 0.015980 0.034909 0.100554 0.012293
# 6 0.004669 -0.003043 0.016227 -0.002301 0.012293 0.054892
#
#
# Mechanical properties :
#
#
# Convention : Reuss Voigt Hill
#
# Bulk Modulus (GPa) = 22.74662 47.91468 35.33065
# Shear Modulus (GPa) = 15.44299 24.53211 19.98755
#
# Velocity S-wave (km/s) = 2.63791 3.32478 3.00106
# Velocity P-wave (km/s) = 4.41902 6.02737 5.28474
#
# Compressibility (1/GPa) = 0.04396257
#
# Stress axis : x y z
#
# Youngs Moduli (GPa) = 73.90505 45.29737 31.36755
#
# Poissons Ratio (x) = 0.11468 0.04616
# Poissons Ratio (y) = 0.18711 0.24338
# Poissons Ratio (z) = 0.10877 0.35146
#
# Static dielectric constant tensor:
#      x y z
#    x 3.630880 -0.011690 -0.161560 
#    y -0.011690 4.051810 0.086310 
#    z -0.161560 0.086310 4.067890 
# 
# 
# High freq. dielectric constant tensor:
#      x y z
#    x 1.843380 -0.004120 -0.015940 
#    y -0.004120 1.883310 0.008250 
#    z -0.015940 0.008250 1.875460 
# 
# From -- ./inp_files/283300.got.cif
#   From: 2010.06.25/outbox.cif.g09.slc.cpg/sg2_142_cif.got.tgz:283300.got - 2010.06.27 13:26:56.
