data_PCOD8009398
_publ_section_title
;
Structure prediction by ZEFSAII (Michael W. Deem and Ramdas Pophale) SiO2 
 PCOD8009398
Probable space group: P -1
;
_chemical_formula_sum "Si O2"
_cell_formula_units_Z 16
_cell_length_a 11.787052
_cell_length_b 12.390005
_cell_length_c 10.435424
_cell_angle_alpha 86.407886
_cell_angle_beta 74.150395
_cell_angle_gamma 142.171595
_cell_volume 792.758963
_symmetry_space_group_name_H-M "P -1"
_symmetry_group_IT_number 2
_symmetry_cell_setting 'triclinic'
loop_
_space_group_symop_operation_xyz
x,y,z
-x,-y,-z
loop_
_atom_site_type_symbol
_atom_site_label
_atom_site_fract_x
_atom_site_fract_y
_atom_site_fract_z
Si Si1 0.334448 0.068786 0.782146
Si Si2 0.391415 0.769766 0.668690
Si Si3 0.724085 0.453608 0.765927
Si Si4 0.211547 0.828904 0.596115
Si Si5 0.276657 0.453211 0.646381
Si Si6 0.192930 0.855306 0.094414
Si Si7 0.532015 0.604599 0.307821
Si Si8 0.656930 0.255924 0.025151
O O1 0.592908 0.263016 0.732750
O O2 0.291806 0.161067 0.745100
O O3 0.280005 0.946667 0.693898
O O4 0.191249 0.924988 0.959952
O O5 0.235082 0.720163 0.629083
O O6 0.413430 0.666880 0.613410
O O7 0.290848 0.685017 0.847183
O O8 0.628500 0.009595 0.578726
O O9 0.596305 0.469582 0.781529
O O10 0.970667 0.662167 0.630201
O O11 0.726031 0.417651 0.915777
O O12 0.343956 0.460976 0.485994
O O13 0.344765 0.414418 0.732783
O O14 0.020790 0.280412 0.748214
O O15 0.400235 0.039564 0.104663
O O16 0.196495 0.730991 0.068852
#
# Coordination Sequence:
#
# PCOD8009398 Si02
#       8
#     2   2   2   2   2   2   2   2
#     4   9  19  41  59  87 120 153 202 246 289 366
#     4  11  23  36  58  95 122 149 205 250 294 371
#     4   9  21  39  61  83 122 163 191 249 302 344
#     4  11  21  38  62  92 120 159 194 249 315 348
#     4  11  22  40  64  85 118 164 200 248 304 343
#     4  10  21  36  63  88 117 165 190 244 312 353
#     4   9  22  44  59  83 122 157 212 248 279 368
#     4  10  21  38  56  93 128 145 203 247 292 379
#
# _framework density 20.182680999999999
#
# number of rings (size 3 to 8) (size 9 to 14) (size 15 to 20)
#    0.750    1.250    2.500    0.750    3.500    1.500 
#    0.000    5.000    0.000    0.000    0.000    0.000 
#    0.000    0.000    0.000    0.000    0.000    0.000 
#
# Total GULP energy -198256.835933 kJ/mol
# GULP energy per Si atom -12391.052246 kJ/mol
# Density = 2.013674 g / cm^3
# Si number density = 20.182681 Si / 1000 Ang^3
#
#
#
# Elastic Constant Matrix: (Units=GPa)
#
#
# Indices 1 2 3 4 5 6 
#
# 1 137.3402 32.4055 34.9096 -14.4780 6.8789 -16.8652
# 2 32.4055 52.0970 6.7995 -10.3154 -6.4782 -2.6290
# 3 34.9096 6.7995 53.3761 -9.0983 0.2728 0.5372
# 4 -14.4780 -10.3154 -9.0983 24.0722 -1.3310 -2.2040
# 5 6.8789 -6.4782 0.2728 -1.3310 33.2799 -9.1377
# 6 -16.8652 -2.6290 0.5372 -2.2040 -9.1377 26.8987
#
#
#
# Elastic Compliance Matrix: (Units=1/GPa)
#
#
# Indices 1 2 3 4 5 6 
#
# 1 0.011335 -0.005592 -0.006326 0.002529 -0.001528 0.006374
# 2 -0.005592 0.025103 0.001882 0.008668 0.006914 0.001969
# 3 -0.006326 0.001882 0.023627 0.005648 0.000734 -0.003542
# 4 0.002529 0.008668 0.005648 0.049963 0.005379 0.008241
# 5 -0.001528 0.006914 0.000734 0.005379 0.035246 0.012117
# 6 0.006374 0.001969 -0.003542 0.008241 0.012117 0.046228
#
#
# Mechanical properties :
#
#
# Convention : Reuss Voigt Hill
#
# Bulk Modulus (GPa) = 25.00480 43.44915 34.22697
# Shear Modulus (GPa) = 22.23148 28.09675 25.16412
#
# Velocity S-wave (km/s) = 3.32251 3.73516 3.53486
# Velocity P-wave (km/s) = 5.20911 6.33850 5.80136
#
# Compressibility (1/GPa) = 0.03999233
#
# Stress axis : x y z
#
# Youngs Moduli (GPa) = 88.22557 39.83547 42.32394
#
# Poissons Ratio (x) = 0.22277 0.26774
# Poissons Ratio (y) = 0.49339 -0.07965
# Poissons Ratio (z) = 0.55812 -0.07497
#
# Static dielectric constant tensor:
#      x y z
#    x 3.722830 -0.084370 0.265760 
#    y -0.084370 3.411060 -0.238340 
#    z 0.265760 -0.238340 3.603640 
# 
# 
# High freq. dielectric constant tensor:
#      x y z
#    x 1.781060 -0.000880 0.022620 
#    y -0.000880 1.765180 -0.021840 
#    z 0.022620 -0.021840 1.785780 
# 
# From -- ./inp_files/425954.got.cif
#   From: 2010.06.25/outbox.cif.g09.slc.cpg/sg2_213_cif.got.tgz:425954.got - 2010.06.27 13:26:56.
