data_PCOD8009472
_publ_section_title
;
Structure prediction by ZEFSAII (Michael W. Deem and Ramdas Pophale) SiO2 
 PCOD8009472
Probable space group: P -1
;
_chemical_formula_sum "Si O2"
_cell_formula_units_Z 16
_cell_length_a 12.379380
_cell_length_b 8.910269
_cell_length_c 13.966184
_cell_angle_alpha 94.165606
_cell_angle_beta 96.311934
_cell_angle_gamma 149.057102
_cell_volume 744.124188
_symmetry_space_group_name_H-M "P -1"
_symmetry_group_IT_number 2
_symmetry_cell_setting 'triclinic'
loop_
_space_group_symop_operation_xyz
x,y,z
-x,-y,-z
loop_
_atom_site_type_symbol
_atom_site_label
_atom_site_fract_x
_atom_site_fract_y
_atom_site_fract_z
Si Si1 0.738551 0.225080 0.738802
Si Si2 0.030763 0.034075 0.171426
Si Si3 0.475036 0.260662 0.440497
Si Si4 0.866840 0.635639 0.634922
Si Si5 0.456063 0.609394 0.959234
Si Si6 0.245241 0.539976 0.089033
Si Si7 0.130799 0.839788 0.100845
Si Si8 0.186974 0.097379 0.536506
O O1 0.869431 0.483242 0.686286
O O2 0.632238 0.212283 0.805851
O O3 0.559722 0.909382 0.650202
O O4 0.898671 0.310754 0.820320
O O5 0.113913 0.194088 0.289019
O O6 0.077365 0.213755 0.102511
O O7 0.162414 0.043328 0.157936
O O8 0.771485 0.676716 0.136217
O O9 0.640949 0.387534 0.540890
O O10 0.243292 0.042127 0.455735
O O11 0.583499 0.534162 0.408249
O O12 0.094431 0.891938 0.607569
O O13 0.642923 0.911007 0.925311
O O14 0.500000 0.500000 0.000000
O O15 0.437518 0.696596 0.052999
O O16 0.085153 0.445778 0.000510
O O17 0.000000 0.000000 0.500000
#
# Coordination Sequence:
#
# PCOD8009472 Si02
#       8
#     2   2   2   2   2   2   2   2
#     4  11  25  40  63  92 133 168 201 259 324 368
#     4  10  21  36  65  93 121 162 214 255 304 375
#     4  10  22  43  67  92 127 165 207 265 308 364
#     4  10  23  43  63  93 130 166 207 254 316 379
#     4  11  19  37  67  90 119 164 215 258 303 365
#     4  10  21  43  57  91 128 163 205 260 310 375
#     4  11  22  38  63  90 127 164 208 260 312 366
#     4   9  21  41  69  93 121 158 217 263 303 364
#
# _framework density 21.501788999999999
#
# number of rings (size 3 to 8) (size 9 to 14) (size 15 to 20)
#    0.000    1.750    2.500    1.500    7.000    1.000 
#    0.000    5.000    0.000    0.000    0.000    0.000 
#    0.000    0.000    0.000    0.000    0.000    0.000 
#
# Total GULP energy -198278.693751 kJ/mol
# GULP energy per Si atom -12392.418359 kJ/mol
# Density = 2.145285 g / cm^3
# Si number density = 21.501789 Si / 1000 Ang^3
#
#
#
# Elastic Constant Matrix: (Units=GPa)
#
#
# Indices 1 2 3 4 5 6 
#
# 1 110.8977 54.9770 64.7262 -9.8167 -11.5892 1.1656
# 2 54.9770 99.1715 55.0143 -18.8162 -6.5083 7.2853
# 3 64.7262 55.0143 141.5481 2.0038 -22.0233 -3.1231
# 4 -9.8167 -18.8162 2.0038 27.7373 -17.7377 -1.5222
# 5 -11.5892 -6.5083 -22.0233 -17.7377 41.6947 -5.1916
# 6 1.1656 7.2853 -3.1231 -1.5222 -5.1916 37.1993
#
#
#
# Elastic Compliance Matrix: (Units=1/GPa)
#
#
# Indices 1 2 3 4 5 6 
#
# 1 0.014602 -0.004702 -0.004457 0.004133 0.002810 0.000650
# 2 -0.004702 0.018357 -0.004485 0.014079 0.004859 -0.002570
# 3 -0.004457 -0.004485 0.011392 -0.003481 0.002875 0.002233
# 4 0.004133 0.014079 -0.003481 0.067031 0.030500 0.003820
# 5 0.002810 0.004859 0.002875 0.030500 0.040782 0.006141
# 6 0.000650 -0.002570 0.002233 0.003820 0.006141 0.028566
#
#
# Mechanical properties :
#
#
# Convention : Reuss Voigt Hill
#
# Bulk Modulus (GPa) = 58.60160 77.89470 68.24815
# Shear Modulus (GPa) = 23.39685 33.11957 28.25821
#
# Velocity S-wave (km/s) = 3.30227 3.92895 3.62916
# Velocity P-wave (km/s) = 6.46942 7.54240 7.02642
#
# Compressibility (1/GPa) = 0.01706438
#
# Stress axis : x y z
#
# Youngs Moduli (GPa) = 68.48362 54.47612 87.78416
#
# Poissons Ratio (x) = 0.25613 0.39123
# Poissons Ratio (y) = 0.32199 0.39367
# Poissons Ratio (z) = 0.30521 0.24430
#
# Static dielectric constant tensor:
#      x y z
#    x 4.024850 -0.043590 -0.198010 
#    y -0.043590 4.065020 -0.273940 
#    z -0.198010 -0.273940 3.959080 
# 
# 
# High freq. dielectric constant tensor:
#      x y z
#    x 1.848780 -0.013100 -0.013170 
#    y -0.013100 1.833170 -0.012470 
#    z -0.013170 -0.012470 1.843370 
# 
# From -- ./inp_files/480346.got.cif
#   From: 2010.06.25/outbox.cif.g09.slc.cpg/sg2_241_cif.got.tgz:480346.got - 2010.06.27 13:26:56.
