data_PCOD8009191
_publ_section_title
;
Structure prediction by ZEFSAII (Michael W. Deem and Ramdas Pophale) SiO2 
 PCOD8009191
Probable space group: P -1
;
_chemical_formula_sum "Si O2"
_cell_formula_units_Z 16
_cell_length_a 11.752343
_cell_length_b 19.379989
_cell_length_c 6.271035
_cell_angle_alpha 88.909411
_cell_angle_beta 91.525028
_cell_angle_gamma 148.776771
_cell_volume 740.108053
_symmetry_space_group_name_H-M "P -1"
_symmetry_group_IT_number 2
_symmetry_cell_setting 'triclinic'
loop_
_space_group_symop_operation_xyz
x,y,z
-x,-y,-z
loop_
_atom_site_type_symbol
_atom_site_label
_atom_site_fract_x
_atom_site_fract_y
_atom_site_fract_z
Si Si1 0.462678 0.206876 0.247032
Si Si2 0.608572 0.402112 0.544129
Si Si3 0.310411 0.238317 0.924291
Si Si4 0.666477 0.092988 0.695054
Si Si5 0.751117 0.703552 0.700251
Si Si6 0.044416 0.947142 0.429959
Si Si7 0.987654 0.693625 0.617163
Si Si8 0.378514 0.844633 0.921104
O O1 0.600255 0.330612 0.395084
O O2 0.621448 0.237213 0.123332
O O3 0.304888 0.076324 0.391722
O O4 0.308931 0.170379 0.080521
O O5 0.525185 0.341168 0.780893
O O6 0.453204 0.383691 0.455963
O O7 0.859954 0.557358 0.556027
O O8 0.088636 0.132220 0.788849
O O9 0.318060 0.310872 0.064533
O O10 0.909975 0.218993 0.597838
O O11 0.500000 0.000000 0.500000
O O12 0.612606 0.000663 0.853427
O O13 0.644406 0.152775 0.827052
O O14 0.806584 0.651419 0.708635
O O15 0.970474 0.856614 0.617550
O O16 0.000000 0.000000 0.500000
O O17 0.174749 0.774139 0.793421
#
# Coordination Sequence:
#
# PCOD8009191 Si02
#       8
#     2   2   2   2   2   2   2   2
#     4  11  22  38  60  88 125 155 198 246 296 353
#     4  10  23  40  58  88 120 160 203 244 292 354
#     4  10  21  36  58  89 119 155 197 245 304 346
#     4   9  21  43  61  85 117 151 197 244 296 347
#     4  10  22  37  61  90 117 158 198 249 301 348
#     4  11  19  37  59  92 118 148 196 244 304 355
#     4  11  23  41  62  84 124 160 199 245 295 351
#     4  10  23  40  63  93 116 154 200 245 297 359
#
# _framework density 21.618466999999999
#
# number of rings (size 3 to 8) (size 9 to 14) (size 15 to 20)
#    0.000    1.750    3.750    1.500    0.000   10.000 
#    0.000    1.250    0.000    0.000    0.000    0.000 
#    0.000    0.000    0.000    0.000    0.000    0.000 
#
# Total GULP energy -198332.418459 kJ/mol
# GULP energy per Si atom -12395.776154 kJ/mol
# Density = 2.156926 g / cm^3
# Si number density = 21.618467 Si / 1000 Ang^3
#
#
#
# Elastic Constant Matrix: (Units=GPa)
#
#
# Indices 1 2 3 4 5 6 
#
# 1 94.9548 8.9325 39.7557 11.4079 -34.0119 -3.6476
# 2 8.9325 103.9619 31.4682 10.0137 -8.2302 -4.8698
# 3 39.7557 31.4682 124.3518 11.5800 -28.1616 -3.7473
# 4 11.4079 10.0137 11.5800 20.5361 -2.3635 -4.5778
# 5 -34.0119 -8.2302 -28.1616 -2.3635 33.7247 2.9515
# 6 -3.6476 -4.8698 -3.7473 -4.5778 2.9515 17.9139
#
#
#
# Elastic Compliance Matrix: (Units=1/GPa)
#
#
# Indices 1 2 3 4 5 6 
#
# 1 0.017924 0.000938 -0.001508 -0.007914 0.016594 -0.001167
# 2 0.000938 0.010795 -0.002339 -0.004011 0.001223 0.001410
# 3 -0.001508 -0.002339 0.010990 -0.003580 0.006895 -0.000695
# 4 -0.007914 -0.004011 -0.003580 0.058952 -0.008965 0.013091
# 5 0.016594 0.001223 0.006895 -0.008965 0.052319 -0.005757
# 6 -0.001167 0.001410 -0.000695 0.013091 -0.005757 0.060117
#
#
# Mechanical properties :
#
#
# Convention : Reuss Voigt Hill
#
# Bulk Modulus (GPa) = 29.50590 53.73125 41.61858
# Shear Modulus (GPa) = 21.90938 30.64242 26.27590
#
# Velocity S-wave (km/s) = 3.18694 3.76895 3.49009
# Velocity P-wave (km/s) = 5.21730 6.62180 5.96106
#
# Compressibility (1/GPa) = 0.03389152
#
# Stress axis : x y z
#
# Youngs Moduli (GPa) = 55.79015 92.63171 90.99496
#
# Poissons Ratio (x) = -0.08686 0.13721
# Poissons Ratio (y) = -0.05231 0.21281
# Poissons Ratio (z) = 0.08412 0.21664
#
# Static dielectric constant tensor:
#      x y z
#    x 3.494250 -0.312560 -0.202010 
#    y -0.312560 3.937350 -0.546950 
#    z -0.202010 -0.546950 4.515890 
# 
# 
# High freq. dielectric constant tensor:
#      x y z
#    x 1.828420 -0.008030 -0.019440 
#    y -0.008030 1.835250 0.002170 
#    z -0.019440 0.002170 1.858870 
# 
# From -- ./inp_files/69870.got.cif
#   From: 2010.06.25/outbox.cif.g09.slc.cpg/sg2_35_cif.got.tgz:69870.got - 2010.06.27 13:26:56.
