data_PCOD8009113
_publ_section_title
;
Structure prediction by ZEFSAII (Michael W. Deem and Ramdas Pophale) SiO2 
 PCOD8009113
Probable space group: P -1
;
_chemical_formula_sum "Si O2"
_cell_formula_units_Z 16
_cell_length_a 12.956284
_cell_length_b 9.487248
_cell_length_c 11.206495
_cell_angle_alpha 56.053912
_cell_angle_beta 44.807722
_cell_angle_gamma 80.689969
_cell_volume 737.743250
_symmetry_space_group_name_H-M "P -1"
_symmetry_group_IT_number 2
_symmetry_cell_setting 'triclinic'
loop_
_space_group_symop_operation_xyz
x,y,z
-x,-y,-z
loop_
_atom_site_type_symbol
_atom_site_label
_atom_site_fract_x
_atom_site_fract_y
_atom_site_fract_z
Si Si1 0.142374 0.834754 0.611578
Si Si2 0.148933 0.390581 0.600065
Si Si3 0.689318 0.423852 0.385897
Si Si4 0.642392 0.732081 0.150940
Si Si5 0.355891 0.543774 0.141229
Si Si6 0.428548 0.109294 0.090441
Si Si7 0.031341 0.952558 0.225165
Si Si8 0.035115 0.351781 0.376026
O O1 0.210024 0.693644 0.683325
O O2 0.992126 0.719603 0.704126
O O3 0.279753 0.980016 0.349941
O O4 0.081830 0.934794 0.715234
O O5 0.215618 0.425067 0.662476
O O6 0.291243 0.429754 0.370322
O O7 0.026087 0.175696 0.785562
O O8 0.069955 0.532665 0.561832
O O9 0.667474 0.541135 0.237557
O O10 0.518989 0.282135 0.643278
O O11 0.630097 0.761531 0.005842
O O12 0.786601 0.905846 0.009035
O O13 0.220005 0.486600 0.178525
O O14 0.500000 0.500000 0.000000
O O15 0.426385 0.764347 0.003215
O O16 0.500000 0.000000 0.000000
O O17 0.018990 0.824936 0.409992
#
# Coordination Sequence:
#
# PCOD8009113 Si02
#       8
#     2   2   2   2   2   2   2   2
#     4  11  22  38  61  90 120 147 197 244 294 343
#     4  10  21  39  58  83 122 155 190 237 292 348
#     4  10  23  43  60  83 115 162 197 238 285 352
#     4  11  23  38  64  85 115 156 204 235 286 349
#     4  11  22  33  54  89 123 146 183 239 300 339
#     4  12  21  36  63  92 112 153 197 243 282 346
#     4  11  22  34  61  89 120 149 191 248 294 339
#     4  10  21  36  56  86 121 154 185 235 292 348
#
# _framework density 21.687760999999998
#
# number of rings (size 3 to 8) (size 9 to 14) (size 15 to 20)
#    0.000    1.250    3.750    4.125    3.500    1.000 
#    0.000    0.000    0.000    3.000    0.000    0.000 
#    0.000    0.000    0.000    0.000    0.000    0.000 
#
# Total GULP energy -198419.850216 kJ/mol
# GULP energy per Si atom -12401.240639 kJ/mol
# Density = 2.163840 g / cm^3
# Si number density = 21.687761 Si / 1000 Ang^3
#
#
#
# Elastic Constant Matrix: (Units=GPa)
#
#
# Indices 1 2 3 4 5 6 
#
# 1 87.0902 34.6802 30.4655 -12.4277 -15.0116 -16.3429
# 2 34.6802 116.5806 23.2937 -15.1157 -14.9630 -2.8031
# 3 30.4655 23.2937 59.4337 -13.2385 -28.3427 4.3541
# 4 -12.4277 -15.1157 -13.2385 24.7189 4.7395 -7.2703
# 5 -15.0116 -14.9630 -28.3427 4.7395 38.6260 -12.5610
# 6 -16.3429 -2.8031 4.3541 -7.2703 -12.5610 31.8890
#
#
#
# Elastic Compliance Matrix: (Units=1/GPa)
#
#
# Indices 1 2 3 4 5 6 
#
# 1 0.019434 -0.002417 -0.004883 0.008809 0.006872 0.015129
# 2 -0.002417 0.010447 -0.000634 0.004890 0.002671 0.001933
# 3 -0.004883 -0.000634 0.031922 0.011374 0.021193 0.004024
# 4 0.008809 0.004890 0.011374 0.057797 0.013717 0.021972
# 5 0.006872 0.002671 0.021193 0.013717 0.051336 0.024211
# 6 0.015129 0.001933 0.004024 0.021972 0.024211 0.053279
#
#
# Mechanical properties :
#
#
# Convention : Reuss Voigt Hill
#
# Bulk Modulus (GPa) = 21.77057 48.88703 35.32880
# Shear Modulus (GPa) = 19.57739 30.69113 25.13426
#
# Velocity S-wave (km/s) = 3.00774 3.76591 3.40798
# Velocity P-wave (km/s) = 4.70340 6.44202 5.64011
#
# Compressibility (1/GPa) = 0.04593357
#
# Stress axis : x y z
#
# Youngs Moduli (GPa) = 51.45629 95.72287 31.32600
#
# Poissons Ratio (x) = 0.23141 0.15297
# Poissons Ratio (y) = 0.12439 0.01986
# Poissons Ratio (z) = 0.25127 0.06070
#
# Static dielectric constant tensor:
#      x y z
#    x 4.114400 0.052250 -0.308280 
#    y 0.052250 4.182850 -0.229140 
#    z -0.308280 -0.229140 3.800830 
# 
# 
# High freq. dielectric constant tensor:
#      x y z
#    x 1.845690 -0.006640 -0.027550 
#    y -0.006640 1.853320 -0.013240 
#    z -0.027550 -0.013240 1.843920 
# 
# From -- ./inp_files/445614.got.cif
#   From: 2010.06.25/outbox.cif.g09.slc.cpg/sg2_223_cif.got.tgz:445614.got - 2010.06.27 13:26:56.
