data_PCOD8009363
_publ_section_title
;
Structure prediction by ZEFSAII (Michael W. Deem and Ramdas Pophale) SiO2 
 PCOD8009363
Probable space group: P -1
;
_chemical_formula_sum "Si O2"
_cell_formula_units_Z 16
_cell_length_a 6.260150
_cell_length_b 24.216096
_cell_length_c 17.217285
_cell_angle_alpha 19.848745
_cell_angle_beta 111.450040
_cell_angle_gamma 100.701405
_cell_volume 713.933334
_symmetry_space_group_name_H-M "P -1"
_symmetry_group_IT_number 2
_symmetry_cell_setting 'triclinic'
loop_
_space_group_symop_operation_xyz
x,y,z
-x,-y,-z
loop_
_atom_site_type_symbol
_atom_site_label
_atom_site_fract_x
_atom_site_fract_y
_atom_site_fract_z
Si Si1 0.585448 0.786836 0.287171
Si Si2 0.296346 0.329903 0.171135
Si Si3 0.625238 0.630256 0.340942
Si Si4 0.188101 0.305458 0.868454
Si Si5 0.561061 0.284781 0.480762
Si Si6 0.074471 0.274871 0.358039
Si Si7 0.838718 0.058818 0.673282
Si Si8 0.807292 0.536888 0.182717
O O1 0.493442 0.771316 0.208797
O O2 0.408700 0.756073 0.368839
O O3 0.897381 0.641147 0.533625
O O4 0.500000 0.000000 0.000000
O O5 0.150316 0.243167 0.319002
O O6 0.607324 0.196518 0.401970
O O7 0.214595 0.336181 0.062325
O O8 0.212615 0.539861 0.912579
O O9 0.500000 0.500000 0.500000
O O10 0.587559 0.735478 0.113472
O O11 0.939540 0.511371 0.551532
O O12 0.294864 0.316247 0.953453
O O13 0.090794 0.153393 0.052042
O O14 0.272091 0.326774 0.361106
O O15 0.771514 0.108436 0.689811
O O16 0.603336 0.461534 0.240114
O O17 0.083129 0.090058 0.640035
#
# Coordination Sequence:
#
# PCOD8009363 Si02
#       8
#     2   2   2   2   2   2   2   2
#     4  11  23  38  60  90 117 148 201 254 297 352
#     4  10  21  36  62  86 125 159 197 245 298 353
#     4  10  22  43  64  83 119 162 196 244 304 358
#     4  10  24  42  61  88 122 159 200 242 300 364
#     4  11  21  37  64  88 118 157 197 251 295 350
#     4  10  21  37  60  92 122 157 201 243 300 350
#     4  11  22  37  62  92 123 160 200 245 292 357
#     4  11  23  41  60  88 121 159 198 244 304 354
#
# _framework density 22.411055000000001
#
# number of rings (size 3 to 8) (size 9 to 14) (size 15 to 20)
#    0.000    1.500    2.500    1.875    3.500    5.000 
#    0.000    0.625    0.000    0.000    0.000    0.000 
#    0.000    0.000    0.000    0.000    0.000    0.000 
#
# Total GULP energy -198310.044299 kJ/mol
# GULP energy per Si atom -12394.377769 kJ/mol
# Density = 2.236005 g / cm^3
# Si number density = 22.411055 Si / 1000 Ang^3
#
#
#
# Elastic Constant Matrix: (Units=GPa)
#
#
# Indices 1 2 3 4 5 6 
#
# 1 109.9134 65.8635 25.7407 -4.8444 -32.0438 -20.8040
# 2 65.8635 187.3126 39.8636 -13.5475 -20.6790 -43.8539
# 3 25.7407 39.8636 48.1323 -15.1952 -17.7770 -15.3983
# 4 -4.8444 -13.5475 -15.1952 35.2651 4.2195 -10.3173
# 5 -32.0438 -20.6790 -17.7770 4.2195 34.7764 3.6645
# 6 -20.8040 -43.8539 -15.3983 -10.3173 3.6645 42.9321
#
#
#
# Elastic Compliance Matrix: (Units=1/GPa)
#
#
# Indices 1 2 3 4 5 6 
#
# 1 0.015005 -0.003276 0.000010 0.000311 0.011527 0.003019
# 2 -0.003276 0.009138 -0.001590 0.004791 0.000145 0.008316
# 3 0.000010 -0.001590 0.038340 0.018632 0.014785 0.015347
# 4 0.000311 0.004791 0.018632 0.044074 0.005005 0.021891
# 5 0.011527 0.000145 0.014785 0.005005 0.045533 0.008353
# 6 0.003019 0.008316 0.015347 0.021891 0.008353 0.043302
#
#
# Mechanical properties :
#
#
# Convention : Reuss Voigt Hill
#
# Bulk Modulus (GPa) = 18.94988 67.58820 43.26904
# Shear Modulus (GPa) = 22.45235 36.85409 29.65322
#
# Velocity S-wave (km/s) = 3.16862 4.05959 3.64146
# Velocity P-wave (km/s) = 4.67556 7.22479 6.08517
#
# Compressibility (1/GPa) = 0.05277080
#
# Stress axis : x y z
#
# Youngs Moduli (GPa) = 66.64667 109.42722 26.08245
#
# Poissons Ratio (x) = 0.35852 -0.00027
# Poissons Ratio (y) = 0.21836 0.04148
# Poissons Ratio (z) = -0.00070 0.17401
#
# Static dielectric constant tensor:
#      x y z
#    x 4.295910 -0.447910 -0.109250 
#    y -0.447910 4.178080 0.124150 
#    z -0.109250 0.124150 3.802570 
# 
# 
# High freq. dielectric constant tensor:
#      x y z
#    x 1.888260 -0.022140 -0.008550 
#    y -0.022140 1.883060 0.006440 
#    z -0.008550 0.006440 1.861720 
# 
# From -- ./inp_files/551235.got.cif
#   From: 2010.06.25/outbox.cif.g09.slc.cpg/sg2_276_cif.got.tgz:551235.got - 2010.06.27 13:26:56.
