data_PCOD8009414
_publ_section_title
;
Structure prediction by ZEFSAII (Michael W. Deem and Ramdas Pophale) SiO2 
 PCOD8009414
Probable space group: P -1
;
_chemical_formula_sum "Si O2"
_cell_formula_units_Z 16
_cell_length_a 7.511916
_cell_length_b 9.190700
_cell_length_c 12.995424
_cell_angle_alpha 53.523773
_cell_angle_beta 58.664296
_cell_angle_gamma 75.389010
_cell_volume 614.090229
_symmetry_space_group_name_H-M "P -1"
_symmetry_group_IT_number 2
_symmetry_cell_setting 'triclinic'
loop_
_space_group_symop_operation_xyz
x,y,z
-x,-y,-z
loop_
_atom_site_type_symbol
_atom_site_label
_atom_site_fract_x
_atom_site_fract_y
_atom_site_fract_z
Si Si1 0.459694 0.771855 0.334508
Si Si2 0.424455 0.316701 0.874406
Si Si3 0.390907 0.960889 0.658452
Si Si4 0.048648 0.195778 0.596923
Si Si5 0.232129 0.405624 0.261217
Si Si6 0.807478 0.842671 0.796388
Si Si7 0.844136 0.547216 0.373990
Si Si8 0.157979 0.615547 0.831220
O O1 0.489603 0.810682 0.186668
O O2 0.652877 0.657558 0.355399
O O3 0.241740 0.648947 0.469332
O O4 0.470534 0.957027 0.320509
O O5 0.604062 0.423875 0.841348
O O6 0.288155 0.467655 0.794696
O O7 0.284529 0.192582 0.047688
O O8 0.338312 0.744495 0.783318
O O9 0.500000 0.000000 0.500000
O O10 0.175508 0.056438 0.682835
O O11 0.190180 0.279343 0.426706
O O12 0.007099 0.352447 0.625260
O O13 0.838884 0.064401 0.678776
O O14 0.322889 0.270963 0.205409
O O15 0.012195 0.495292 0.257972
O O16 0.032275 0.757896 0.745196
O O17 0.000000 0.500000 0.000000
#
# Coordination Sequence:
#
# PCOD8009414 Si02
#       8
#     2   2   2   2   2   2   2   2
#     4  10  22  39  64  91 120 156 200 251 302 352
#     4  11  22  41  62  89 124 160 202 243 301 365
#     4  10  21  36  63  94 119 146 202 257 295 347
#     4  10  21  39  59  90 121 156 202 250 296 354
#     4  12  22  38  63  89 121 162 205 245 300 352
#     4  10  23  40  61  88 125 162 199 249 297 352
#     4  10  22  39  62  91 117 159 202 249 301 357
#     4   9  20  40  62  86 119 160 197 242 298 356
#
# _framework density 26.054804000000001
#
# number of rings (size 3 to 8) (size 9 to 14) (size 15 to 20)
#    0.000    1.750    1.250    2.625    7.000    0.000 
#    2.250   13.125    0.000    0.000    0.000    0.000 
#    0.000    0.000    0.000    0.000    0.000    0.000 
#
# Total GULP energy -198256.716436 kJ/mol
# GULP energy per Si atom -12391.044777 kJ/mol
# Density = 2.599550 g / cm^3
# Si number density = 26.054804 Si / 1000 Ang^3
#
#
#
# Elastic Constant Matrix: (Units=GPa)
#
#
# Indices 1 2 3 4 5 6 
#
# 1 45.6598 15.4709 8.6650 -11.2333 -20.0170 9.4418
# 2 15.4709 174.7279 55.7583 -3.5107 -8.1752 33.6418
# 3 8.6650 55.7583 102.1342 -15.2425 -18.2668 18.0472
# 4 -11.2333 -3.5107 -15.2425 47.5794 2.2723 -0.1538
# 5 -20.0170 -8.1752 -18.2668 2.2723 28.8640 -7.7027
# 6 9.4418 33.6418 18.0472 -0.1538 -7.7027 49.7366
#
#
#
# Elastic Compliance Matrix: (Units=1/GPa)
#
#
# Indices 1 2 3 4 5 6 
#
# 1 0.035909 -0.002846 0.004869 0.008587 0.025798 -0.002637
# 2 -0.002846 0.007848 -0.004155 -0.001279 -0.003287 -0.003774
# 3 0.004869 -0.004155 0.014595 0.005008 0.010573 -0.001757
# 4 0.008587 -0.001279 0.005008 0.024242 0.006451 -0.001508
# 5 0.025798 -0.003287 0.010573 0.006451 0.058473 0.002565
# 6 -0.002637 -0.003774 -0.001757 -0.001508 0.002565 0.024189
#
#
# Mechanical properties :
#
#
# Convention : Reuss Voigt Hill
#
# Bulk Modulus (GPa) = 18.48851 53.59003 36.03927
# Shear Modulus (GPa) = 26.65957 41.41120 34.03539
#
# Velocity S-wave (km/s) = 3.20224 3.99104 3.61820
# Velocity P-wave (km/s) = 4.55893 6.46921 5.59618
#
# Compressibility (1/GPa) = 0.05408764
#
# Stress axis : x y z
#
# Youngs Moduli (GPa) = 27.84818 127.41807 68.51573
#
# Poissons Ratio (x) = 0.36262 -0.33358
# Poissons Ratio (y) = 0.07925 0.28469
# Poissons Ratio (z) = -0.13558 0.52943
#
# Static dielectric constant tensor:
#      x y z
#    x 4.798130 0.099730 -0.278110 
#    y 0.099730 5.397090 -0.245620 
#    z -0.278110 -0.245620 4.182890 
# 
# 
# High freq. dielectric constant tensor:
#      x y z
#    x 2.077970 -0.011610 -0.012890 
#    y -0.011610 2.072870 -0.014370 
#    z -0.012890 -0.014370 2.007650 
# 
# From -- ./inp_files/492263.got.cif
#   From: 2010.06.25/outbox.cif.g09.slc.cpg/sg2_247_cif.got.tgz:492263.got - 2010.06.27 13:26:56.
