data_PCOD8009042
_publ_section_title
;
Structure prediction by ZEFSAII (Michael W. Deem and Ramdas Pophale) SiO2 
 PCOD8009042
Probable space group: P -1
;
_chemical_formula_sum "Si O2"
_cell_formula_units_Z 16
_cell_length_a 11.350467
_cell_length_b 8.853337
_cell_length_c 20.769055
_cell_angle_alpha 62.264039
_cell_angle_beta 35.035226
_cell_angle_gamma 90.378478
_cell_volume 685.547724
_symmetry_space_group_name_H-M "P -1"
_symmetry_group_IT_number 2
_symmetry_cell_setting 'triclinic'
loop_
_space_group_symop_operation_xyz
x,y,z
-x,-y,-z
loop_
_atom_site_type_symbol
_atom_site_label
_atom_site_fract_x
_atom_site_fract_y
_atom_site_fract_z
Si Si1 0.574500 0.209722 0.691121
Si Si2 0.366074 0.499348 0.837040
Si Si3 0.417053 0.159355 0.911818
Si Si4 0.091374 0.454425 0.745672
Si Si5 0.277182 0.695270 0.941403
Si Si6 0.031349 0.001632 0.398041
Si Si7 0.545099 0.578574 0.607072
Si Si8 0.032881 0.396053 0.343489
O O1 0.638888 0.264055 0.728614
O O2 0.511111 0.353238 0.659623
O O3 0.850590 0.286475 0.514536
O O4 0.267604 0.889131 0.885376
O O5 0.255112 0.241098 0.957867
O O6 0.173374 0.511116 0.964509
O O7 0.306991 0.493594 0.788332
O O8 0.756310 0.770291 0.619727
O O9 0.626171 0.300878 0.855048
O O10 0.145019 0.849053 0.105750
O O11 0.151567 0.609783 0.626250
O O12 0.431055 0.593454 0.589010
O O13 0.947154 0.479746 0.862278
O O14 0.637798 0.882132 0.763967
O O15 0.072147 0.230868 0.332458
O O16 0.900922 0.858653 0.413509
#
# Coordination Sequence:
#
# PCOD8009042 Si02
#       8
#     2   2   2   2   2   2   2   2
#     4  10  21  35  71  87 115 155 212 251 294 348
#     4   9  18  37  66  90 118 147 211 255 292 341
#     4  10  21  38  62  92 118 153 199 260 296 347
#     4  11  27  40  56  90 137 161 191 238 319 368
#     4  11  20  38  66  96 114 159 203 255 304 349
#     4  10  21  38  66  91 119 151 210 257 287 350
#     4   9  23  41  57  95 121 162 196 257 293 361
#     4  12  22  40  63  91 123 160 203 251 294 362
#
# _framework density 23.339003999999999
#
# number of rings (size 3 to 8) (size 9 to 14) (size 15 to 20)
#    0.750    1.000    2.500    1.875    3.500    6.500 
#    0.000    1.250    0.000    0.000    0.000    0.000 
#    0.000    0.000    0.000    0.000    0.000    0.000 
#
# Total GULP energy -198280.157513 kJ/mol
# GULP energy per Si atom -12392.509845 kJ/mol
# Density = 2.328588 g / cm^3
# Si number density = 23.339004 Si / 1000 Ang^3
#
#
#
# Elastic Constant Matrix: (Units=GPa)
#
#
# Indices 1 2 3 4 5 6 
#
# 1 87.4933 20.4910 -4.0075 -2.5474 -2.7421 -15.3368
# 2 20.4910 129.6905 2.3704 -0.9020 9.2214 6.0702
# 3 -4.0075 2.3704 30.5994 -2.9138 -1.2094 2.3641
# 4 -2.5474 -0.9020 -2.9138 15.0008 0.1807 6.4737
# 5 -2.7421 9.2214 -1.2094 0.1807 19.8505 -0.5366
# 6 -15.3368 6.0702 2.3641 6.4737 -0.5366 25.3643
#
#
#
# Elastic Compliance Matrix: (Units=1/GPa)
#
#
# Indices 1 2 3 4 5 6 
#
# 1 0.013907 -0.002936 0.001296 -0.001708 0.003636 0.009504
# 2 -0.002936 0.008735 -0.000734 0.001822 -0.004643 -0.004361
# 3 0.001296 -0.000734 0.034167 0.008678 0.002404 -0.004389
# 4 -0.001708 0.001822 0.008678 0.077755 -0.001860 -0.022162
# 5 0.003636 -0.004643 0.002404 -0.001860 0.053326 0.004689
# 6 0.009504 -0.004361 -0.004389 -0.022162 0.004689 0.052380
#
#
# Mechanical properties :
#
#
# Convention : Reuss Voigt Hill
#
# Bulk Modulus (GPa) = 19.20898 31.72121 25.46510
# Shear Modulus (GPa) = 19.05686 27.30507 23.18097
#
# Velocity S-wave (km/s) = 2.86059 3.42414 3.15497
# Velocity P-wave (km/s) = 4.37709 5.40869 4.92000
#
# Compressibility (1/GPa) = 0.05205898
#
# Stress axis : x y z
#
# Youngs Moduli (GPa) = 71.90841 114.48380 29.26765
#
# Poissons Ratio (x) = 0.33614 -0.03792
# Poissons Ratio (y) = 0.21114 0.02149
# Poissons Ratio (z) = -0.09316 0.08407
#
# Static dielectric constant tensor:
#      x y z
#    x 4.002530 0.251290 -0.067270 
#    y 0.251290 4.466000 -0.052870 
#    z -0.067270 -0.052870 3.673550 
# 
# 
# High freq. dielectric constant tensor:
#      x y z
#    x 1.915280 0.009120 -0.013890 
#    y 0.009120 1.943180 -0.002270 
#    z -0.013890 -0.002270 1.878350 
# 
# From -- ./inp_files/381358.got.cif
#   From: 2010.06.25/outbox.cif.g09.slc.cpg/sg2_191_cif.got.tgz:381358.got - 2010.06.27 13:26:56.
