data_PCOD8009321
_publ_section_title
;
Structure prediction by ZEFSAII (Michael W. Deem and Ramdas Pophale) SiO2 
 PCOD8009321
Probable space group: P -1
;
_chemical_formula_sum "Si O2"
_cell_formula_units_Z 14
_cell_length_a 8.033138
_cell_length_b 14.576743
_cell_length_c 14.563702
_cell_angle_alpha 37.885771
_cell_angle_beta 44.758505
_cell_angle_gamma 43.221778
_cell_volume 679.247325
_symmetry_space_group_name_H-M "P -1"
_symmetry_group_IT_number 2
_symmetry_cell_setting 'triclinic'
loop_
_space_group_symop_operation_xyz
x,y,z
-x,-y,-z
loop_
_atom_site_type_symbol
_atom_site_label
_atom_site_fract_x
_atom_site_fract_y
_atom_site_fract_z
Si Si1 0.793540 0.228757 0.194295
Si Si2 0.231645 0.342953 0.936699
Si Si3 0.128822 0.937131 0.401882
Si Si4 0.537354 0.504720 0.769167
Si Si5 0.360102 0.565811 0.596741
Si Si6 0.854611 0.200026 0.984517
Si Si7 0.605898 0.018480 0.101687
O O1 0.535053 0.331241 0.271672
O O2 0.734228 0.243086 0.098854
O O3 0.926603 0.041920 0.321109
O O4 0.975570 0.320736 0.079408
O O5 0.314892 0.429711 0.920851
O O6 0.200574 0.453139 0.770618
O O7 0.461471 0.165161 0.972117
O O8 0.165675 0.751965 0.518003
O O9 0.405017 0.949607 0.276842
O O10 0.000000 0.000000 0.500000
O O11 0.561962 0.544200 0.619949
O O12 0.793051 0.364154 0.819679
O O13 0.500000 0.500000 0.500000
O O14 0.737701 0.077040 0.086788
O O15 0.164580 0.119022 0.934942
#
# Coordination Sequence:
#
# PCOD8009321 Si02
#       7
#     2   2   2   2   2   2   2
#     4  11  20  34  65  88 111 158 205 249 288 351
#     4   8  19  35  58  84 112 150 203 245 285 342
#     4  11  22  40  63  88 120 156 199 255 298 345
#     4   9  19  37  55  83 123 152 193 243 297 351
#     4  10  22  35  60  87 123 148 195 248 302 348
#     4  10  21  36  61  87 120 155 202 243 290 359
#     4   9  21  38  61  84 116 160 201 243 294 349
#
# _framework density 20.611049000000001
#
# number of rings (size 3 to 8) (size 9 to 14) (size 15 to 20)
#    0.857    1.429    1.429    0.857    4.000    2.286 
#    0.000    1.429    3.143    0.000    0.000    0.000 
#    0.000    0.000    0.000    0.000    0.000    0.000 
#
# Total GULP energy -173454.761812 kJ/mol
# GULP energy per Si atom -12389.625844 kJ/mol
# Density = 2.056414 g / cm^3
# Si number density = 20.611049 Si / 1000 Ang^3
#
#
#
# Elastic Constant Matrix: (Units=GPa)
#
#
# Indices 1 2 3 4 5 6 
#
# 1 44.8913 28.1302 13.6398 -2.3971 19.0898 -1.5263
# 2 28.1302 144.4812 48.9768 -12.4554 26.7924 1.8216
# 3 13.6398 48.9768 86.2560 -15.4819 20.7620 -4.6580
# 4 -2.3971 -12.4554 -15.4819 37.3606 0.2894 14.7638
# 5 19.0898 26.7924 20.7620 0.2894 37.2430 4.7566
# 6 -1.5263 1.8216 -4.6580 14.7638 4.7566 22.7489
#
#
#
# Elastic Compliance Matrix: (Units=1/GPa)
#
#
# Indices 1 2 3 4 5 6 
#
# 1 0.030596 -0.003805 0.000845 -0.001372 -0.014222 0.006395
# 2 -0.003805 0.009743 -0.004052 0.002528 -0.002437 -0.002996
# 3 0.000845 -0.004052 0.016399 0.004706 -0.006970 0.002142
# 4 -0.001372 0.002528 0.004706 0.039190 -0.000905 -0.024575
# 5 -0.014222 -0.002437 -0.006970 -0.000905 0.041088 -0.010190
# 6 0.006395 -0.002996 0.002142 -0.024575 -0.010190 0.063145
#
#
# Mechanical properties :
#
#
# Convention : Reuss Voigt Hill
#
# Bulk Modulus (GPa) = 23.41200 50.79136 37.10168
# Shear Modulus (GPa) = 21.88921 31.79595 26.84258
#
# Velocity S-wave (km/s) = 3.26239 3.93194 3.61271
# Velocity P-wave (km/s) = 5.05713 6.73126 5.95333
#
# Compressibility (1/GPa) = 0.04271313
#
# Stress axis : x y z
#
# Youngs Moduli (GPa) = 32.68428 102.63426 60.98038
#
# Poissons Ratio (x) = 0.39050 -0.05150
# Poissons Ratio (y) = 0.12436 0.24710
# Poissons Ratio (z) = -0.02761 0.41589
#
# Static dielectric constant tensor:
#      x y z
#    x 3.412060 0.012330 0.092020 
#    y 0.012330 2.978800 0.241020 
#    z 0.092020 0.241020 3.300290 
# 
# 
# High freq. dielectric constant tensor:
#      x y z
#    x 1.780030 0.000080 0.020280 
#    y 0.000080 1.822220 -0.015960 
#    z 0.020280 -0.015960 1.783890 
# 
# From -- ./inp_files/413755.got.cif
#   From: 2010.06.25/outbox.cif.g09.slc.cpg/sg2_207_cif.got.tgz:413755.got - 2010.06.27 13:26:56.
