data_PCOD8009499
_publ_section_title
;
Structure prediction by ZEFSAII (Michael W. Deem and Ramdas Pophale) SiO2 
 PCOD8009499
Probable space group: P -1
;
_chemical_formula_sum "Si O2"
_cell_formula_units_Z 14
_cell_length_a 15.470592
_cell_length_b 9.152338
_cell_length_c 8.871729
_cell_angle_alpha 114.382007
_cell_angle_beta 37.892761
_cell_angle_gamma 98.959127
_cell_volume 669.456063
_symmetry_space_group_name_H-M "P -1"
_symmetry_group_IT_number 2
_symmetry_cell_setting 'triclinic'
loop_
_space_group_symop_operation_xyz
x,y,z
-x,-y,-z
loop_
_atom_site_type_symbol
_atom_site_label
_atom_site_fract_x
_atom_site_fract_y
_atom_site_fract_z
Si Si1 0.549806 0.126204 0.095253
Si Si2 0.018561 0.952730 0.209634
Si Si3 0.149773 0.133482 0.346153
Si Si4 0.207675 0.910446 0.677629
Si Si5 0.177041 0.423992 0.251628
Si Si6 0.375206 0.145290 0.641523
Si Si7 0.617593 0.362529 0.869596
O O1 0.446137 0.190068 0.409799
O O2 0.554825 0.295498 0.075269
O O3 0.500000 0.000000 0.000000
O O4 0.712323 0.029797 0.888181
O O5 0.950604 0.832006 0.350248
O O6 0.058287 0.091520 0.316364
O O7 0.154768 0.838409 0.873555
O O8 0.907609 0.063298 0.287597
O O9 0.195954 0.299376 0.316544
O O10 0.353701 0.780554 0.358166
O O11 0.240162 0.080536 0.751050
O O12 0.238530 0.579386 0.268091
O O13 0.000000 0.500000 0.500000
O O14 0.288554 0.315335 0.923319
O O15 0.500000 0.000000 0.500000
O O16 0.500000 0.500000 0.000000
#
# Coordination Sequence:
#
# PCOD8009499 Si02
#       7
#     2   2   2   2   2   2   2
#     4  12  23  43  74 100 128 185 248 278 329 429
#     4  10  21  36  71  95 121 169 243 269 323 399
#     4  11  21  42  67  96 131 178 231 281 331 424
#     4  11  21  41  68  98 127 177 232 276 330 424
#     4  12  27  44  66 105 149 176 218 301 362 391
#     4  12  23  44  73  99 135 188 240 278 337 430
#     4  12  26  44  68 101 147 177 221 300 362 396
#
# _framework density 20.912502
#
# number of rings (size 3 to 8) (size 9 to 14) (size 15 to 20)
#    0.000    0.571    5.714    2.571    4.000    0.571 
#    2.571    0.714    0.000    0.000    0.000    0.000 
#    0.000    0.000    0.000    0.000    0.000    0.000 
#
# Total GULP energy -173468.644926 kJ/mol
# GULP energy per Si atom -12390.617495 kJ/mol
# Density = 2.086490 g / cm^3
# Si number density = 20.912502 Si / 1000 Ang^3
#
#
#
# Elastic Constant Matrix: (Units=GPa)
#
#
# Indices 1 2 3 4 5 6 
#
# 1 89.3524 39.3110 32.9315 -16.0439 -2.4416 -4.4221
# 2 39.3110 138.0977 45.2585 -36.1135 12.0875 -17.8844
# 3 32.9315 45.2585 125.1847 -31.9757 19.1597 -23.1682
# 4 -16.0439 -36.1135 -31.9757 45.0918 -10.8365 6.2394
# 5 -2.4416 12.0875 19.1597 -10.8365 40.5581 -5.9202
# 6 -4.4221 -17.8844 -23.1682 6.2394 -5.9202 40.3881
#
#
#
# Elastic Compliance Matrix: (Units=1/GPa)
#
#
# Indices 1 2 3 4 5 6 
#
# 1 0.013908 -0.003095 -0.002933 0.001363 0.003326 -0.001253
# 2 -0.003095 0.010397 -0.000735 0.006104 -0.000903 0.002768
# 3 -0.002933 -0.000735 0.011773 0.005230 -0.003421 0.004797
# 4 0.001363 0.006104 0.005230 0.032152 0.004610 0.001561
# 5 0.003326 -0.000903 -0.003421 0.004610 0.028181 0.001420
# 6 -0.001253 0.002768 0.004797 0.001561 0.001420 0.028567
#
#
# Mechanical properties :
#
#
# Convention : Reuss Voigt Hill
#
# Bulk Modulus (GPa) = 44.34068 65.29298 54.81683
# Shear Modulus (GPa) = 34.24205 40.88319 37.56262
#
# Velocity S-wave (km/s) = 4.05086 4.42629 4.24273
# Velocity P-wave (km/s) = 6.56722 7.57711 7.09016
#
# Compressibility (1/GPa) = 0.02255266
#
# Stress axis : x y z
#
# Youngs Moduli (GPa) = 71.90285 96.18179 84.94153
#
# Poissons Ratio (x) = 0.29767 0.24909
# Poissons Ratio (y) = 0.22253 0.06243
# Poissons Ratio (z) = 0.21086 0.07069
#
# Static dielectric constant tensor:
#      x y z
#    x 3.744330 -0.122670 -0.146110 
#    y -0.122670 3.808450 -0.549480 
#    z -0.146110 -0.549480 4.007630 
# 
# 
# High freq. dielectric constant tensor:
#      x y z
#    x 1.830710 0.000980 -0.000670 
#    y 0.000980 1.809350 -0.028070 
#    z -0.000670 -0.028070 1.829160 
# 
# From -- ./inp_files/185508.got.cif
#   From: 2010.06.25/outbox.cif.g09.slc.cpg/sg2_93_cif.got.tgz:185508.got - 2010.06.27 13:26:56.
