data_PCOD8009453
_publ_section_title
;
Structure prediction by ZEFSAII (Michael W. Deem and Ramdas Pophale) SiO2 
 PCOD8009453
Probable space group: P -1
;
_chemical_formula_sum "Si O2"
_cell_formula_units_Z 14
_cell_length_a 10.350105
_cell_length_b 12.857364
_cell_length_c 13.021927
_cell_angle_alpha 97.315409
_cell_angle_beta 158.620504
_cell_angle_gamma 83.421166
_cell_volume 626.534961
_symmetry_space_group_name_H-M "P -1"
_symmetry_group_IT_number 2
_symmetry_cell_setting 'triclinic'
loop_
_space_group_symop_operation_xyz
x,y,z
-x,-y,-z
loop_
_atom_site_type_symbol
_atom_site_label
_atom_site_fract_x
_atom_site_fract_y
_atom_site_fract_z
Si Si1 0.295010 0.803050 0.936821
Si Si2 0.752096 0.729510 0.686897
Si Si3 0.846844 0.940348 0.477312
Si Si4 0.747411 0.404485 0.829707
Si Si5 0.612306 0.953014 0.683438
Si Si6 0.567044 0.462881 0.217589
Si Si7 0.191006 0.385285 0.758462
O O1 0.941289 0.761060 0.724418
O O2 0.167581 0.873665 0.755687
O O3 0.518872 0.867829 0.193009
O O4 0.541917 0.708812 0.071965
O O5 0.457519 0.641929 0.426911
O O6 0.590667 0.828062 0.638536
O O7 0.027662 0.687350 0.967269
O O8 0.684268 0.021762 0.447987
O O9 0.000000 0.000000 0.500000
O O10 0.479436 0.444986 0.723277
O O11 0.000000 0.500000 0.000000
O O12 0.500000 0.000000 0.500000
O O13 0.000000 0.000000 0.000000
O O14 0.742260 0.510685 0.249505
O O15 0.782428 0.365731 0.418625
O O16 0.204678 0.413423 0.894527
#
# Coordination Sequence:
#
# PCOD8009453 Si02
#       7
#     2   2   2   2   2   2   2
#     4  12  23  43  73  98 132 179 236 280 344 426
#     4  12  24  43  73  98 129 184 240 280 335 422
#     4  12  26  46  69 104 145 177 218 300 362 409
#     4  12  26  45  65  95 142 180 228 290 345 398
#     4  12  23  45  74 106 137 178 239 287 341 430
#     4  10  21  38  61  90 130 165 212 274 330 382
#     4  10  21  36  64  95 120 164 219 275 314 391
#
# _framework density 22.345123000000001
#
# number of rings (size 3 to 8) (size 9 to 14) (size 15 to 20)
#    0.000    0.571    4.286    4.286    4.000    0.000 
#    7.714    0.000    0.000    0.000    0.000    0.000 
#    0.000    0.000    0.000    0.000    0.000    0.000 
#
# Total GULP energy -173520.765248 kJ/mol
# GULP energy per Si atom -12394.340375 kJ/mol
# Density = 2.229426 g / cm^3
# Si number density = 22.345123 Si / 1000 Ang^3
#
#
#
# Elastic Constant Matrix: (Units=GPa)
#
#
# Indices 1 2 3 4 5 6 
#
# 1 92.0899 48.2359 40.4565 -11.9974 -6.5809 -17.5206
# 2 48.2359 125.5047 55.7735 -21.9171 -1.1901 -26.3138
# 3 40.4565 55.7735 151.4457 -19.5258 -29.6723 -19.0113
# 4 -11.9974 -21.9171 -19.5258 57.2873 1.9800 -4.5446
# 5 -6.5809 -1.1901 -29.6723 1.9800 32.9341 2.9973
# 6 -17.5206 -26.3138 -19.0113 -4.5446 2.9973 33.3599
#
#
#
# Elastic Compliance Matrix: (Units=1/GPa)
#
#
# Indices 1 2 3 4 5 6 
#
# 1 0.014540 -0.003823 -0.001674 0.001282 0.000839 0.003766
# 2 -0.003823 0.013001 -0.003140 0.003824 -0.004021 0.007340
# 3 -0.001674 -0.003140 0.010390 0.001854 0.008616 0.002044
# 4 0.001282 0.003824 0.001854 0.020410 0.000154 0.007513
# 5 0.000839 -0.004021 0.008616 0.000154 0.038252 -0.001237
# 6 0.003766 0.007340 0.002044 0.007513 -0.001237 0.040043
#
#
# Mechanical properties :
#
#
# Convention : Reuss Voigt Hill
#
# Bulk Modulus (GPa) = 48.40764 73.10802 60.75783
# Shear Modulus (GPa) = 31.09513 39.68790 35.39151
#
# Velocity S-wave (km/s) = 3.73444 4.21899 3.98409
# Velocity P-wave (km/s) = 6.34865 7.51810 6.95799
#
# Compressibility (1/GPa) = 0.02065790
#
# Stress axis : x y z
#
# Youngs Moduli (GPa) = 68.77433 76.91523 96.24449
#
# Poissons Ratio (x) = 0.29405 0.16109
# Poissons Ratio (y) = 0.26293 0.30222
# Poissons Ratio (z) = 0.11511 0.24152
#
# Static dielectric constant tensor:
#      x y z
#    x 3.938540 -0.056530 -0.352820 
#    y -0.056530 3.673720 -0.072590 
#    z -0.352820 -0.072590 4.616580 
# 
# 
# High freq. dielectric constant tensor:
#      x y z
#    x 1.869490 -0.016810 -0.024050 
#    y -0.016810 1.877690 -0.014800 
#    z -0.024050 -0.014800 1.904270 
# 
# From -- ./inp_files/518985.got.cif
#   From: 2010.06.25/outbox.cif.g09.slc.cpg/sg2_260_cif.got.tgz:518985.got - 2010.06.27 13:26:56.
