data_PCOD8009417
_publ_section_title
;
Structure prediction by ZEFSAII (Michael W. Deem and Ramdas Pophale) SiO2 
 PCOD8009417
Probable space group: P -1
;
_chemical_formula_sum "Si O2"
_cell_formula_units_Z 16
_cell_length_a 8.278730
_cell_length_b 10.826950
_cell_length_c 13.185995
_cell_angle_alpha 133.018960
_cell_angle_beta 118.706560
_cell_angle_gamma 55.990452
_cell_volume 706.743246
_symmetry_space_group_name_H-M "P -1"
_symmetry_group_IT_number 2
_symmetry_cell_setting 'triclinic'
loop_
_space_group_symop_operation_xyz
x,y,z
-x,-y,-z
loop_
_atom_site_type_symbol
_atom_site_label
_atom_site_fract_x
_atom_site_fract_y
_atom_site_fract_z
Si Si1 0.718535 0.443166 0.492152
Si Si2 0.656777 0.996169 0.768060
Si Si3 0.666458 0.883986 0.411674
Si Si4 0.977887 0.940213 0.660397
Si Si5 0.422961 0.794179 0.953599
Si Si6 0.891341 0.672856 0.778761
Si Si7 0.719073 0.501422 0.301493
Si Si8 0.199253 0.131538 0.939218
O O1 0.500000 0.500000 0.500000
O O2 0.819605 0.233328 0.376015
O O3 0.852102 0.486871 0.643797
O O4 0.719757 0.553385 0.449532
O O5 0.429378 0.057360 0.695041
O O6 0.671564 0.157130 0.934827
O O7 0.695286 0.826640 0.760106
O O8 0.823831 0.940698 0.701851
O O9 0.699450 0.673780 0.323444
O O10 0.861039 0.937514 0.518002
O O11 0.500000 0.000000 0.500000
O O12 0.044310 0.112759 0.796508
O O13 0.639313 0.805566 0.030105
O O14 0.447672 0.587417 0.816907
O O15 0.290278 0.935021 0.909584
O O16 0.083212 0.662212 0.766386
O O17 0.915564 0.713551 0.926545
#
# Coordination Sequence:
#
# PCOD8009417 Si02
#       8
#     2   2   2   2   2   2   2   2
#     4  12  23  34  59  98 127 155 201 264 313 353
#     4  10  21  39  64  89 126 163 208 249 309 364
#     4  10  23  40  63  89 125 165 209 257 304 363
#     4  11  20  40  61  90 125 162 202 252 307 368
#     4  10  21  36  63  94 125 163 201 258 314 367
#     4  11  21  37  66  96 121 161 206 263 303 368
#     4  12  21  39  65  95 120 160 217 258 303 364
#     4  10  21  38  60  95 133 154 201 258 321 362
#
# _framework density 22.639057000000001
#
# number of rings (size 3 to 8) (size 9 to 14) (size 15 to 20)
#    0.000    1.250    3.750    3.375    3.500    2.500 
#    0.000    0.625    2.750    3.750    0.000    0.000 
#    0.000    0.000    0.000    0.000    0.000    0.000 
#
# Total GULP energy -198257.109660 kJ/mol
# GULP energy per Si atom -12391.069354 kJ/mol
# Density = 2.258753 g / cm^3
# Si number density = 22.639057 Si / 1000 Ang^3
#
#
#
# Elastic Constant Matrix: (Units=GPa)
#
#
# Indices 1 2 3 4 5 6 
#
# 1 93.6406 20.5535 41.2761 3.0901 0.8946 -21.7174
# 2 20.5535 65.3423 35.9197 -9.3804 0.8818 -10.2276
# 3 41.2761 35.9197 170.6811 7.6426 20.4228 -9.3262
# 4 3.0901 -9.3804 7.6426 23.4094 -6.1579 3.5708
# 5 0.8946 0.8818 20.4228 -6.1579 40.2357 2.2648
# 6 -21.7174 -10.2276 -9.3262 3.5708 2.2648 18.0649
#
#
#
# Elastic Compliance Matrix: (Units=1/GPa)
#
#
# Indices 1 2 3 4 5 6 
#
# 1 0.016671 -0.001783 -0.002243 -0.005379 -0.001090 0.019074
# 2 -0.001783 0.020432 -0.004422 0.009949 0.003090 0.004787
# 3 -0.002243 -0.004422 0.008210 -0.005564 -0.004915 0.000755
# 4 -0.005379 0.009949 -0.005564 0.054843 0.012023 -0.016054
# 5 -0.001090 0.003090 -0.004915 0.012023 0.029606 -0.008187
# 6 0.019074 0.004787 0.000755 -0.016054 -0.008187 0.085586
#
#
# Mechanical properties :
#
#
# Convention : Reuss Voigt Hill
#
# Bulk Modulus (GPa) = 35.19028 58.35139 46.77083
# Shear Modulus (GPa) = 20.68548 31.80297 26.24423
#
# Velocity S-wave (km/s) = 3.02604 3.75211 3.40846
# Velocity P-wave (km/s) = 5.27134 6.67845 6.01618
#
# Compressibility (1/GPa) = 0.02841694
#
# Stress axis : x y z
#
# Youngs Moduli (GPa) = 59.98567 48.94363 121.79680
#
# Poissons Ratio (x) = 0.08726 0.27316
# Poissons Ratio (y) = 0.10694 0.53862
# Poissons Ratio (z) = 0.13454 0.21644
#
# Static dielectric constant tensor:
#      x y z
#    x 3.838270 -0.197660 -0.004980 
#    y -0.197660 3.763240 -0.535970 
#    z -0.004980 -0.535970 4.773150 
# 
# 
# High freq. dielectric constant tensor:
#      x y z
#    x 1.878460 -0.023580 -0.004900 
#    y -0.023580 1.840910 0.001380 
#    z -0.004900 0.001380 1.923690 
# 
# From -- ./inp_files/398370.got.cif
#   From: 2010.06.25/outbox.cif.g09.slc.cpg/sg2_200_cif.got.tgz:398370.got - 2010.06.27 13:26:56.
