data_PCOD8009218
_publ_section_title
;
Structure prediction by ZEFSAII (Michael W. Deem and Ramdas Pophale) SiO2 
 PCOD8009218
Probable space group: P -1
;
_chemical_formula_sum "Si O2"
_cell_formula_units_Z 16
_cell_length_a 14.853278
_cell_length_b 8.835802
_cell_length_c 27.851764
_cell_angle_alpha 44.059703
_cell_angle_beta 160.954354
_cell_angle_gamma 127.051518
_cell_volume 780.604240
_symmetry_space_group_name_H-M "P -1"
_symmetry_group_IT_number 2
_symmetry_cell_setting 'triclinic'
loop_
_space_group_symop_operation_xyz
x,y,z
-x,-y,-z
loop_
_atom_site_type_symbol
_atom_site_label
_atom_site_fract_x
_atom_site_fract_y
_atom_site_fract_z
Si Si1 0.469532 0.444526 0.921333
Si Si2 0.743220 0.242419 0.679234
Si Si3 0.901422 0.647190 0.541110
Si Si4 0.641018 0.272399 0.515238
Si Si5 0.736624 0.919933 0.493608
Si Si6 0.917346 0.760805 0.417107
Si Si7 0.101330 0.198516 0.295431
Si Si8 0.385590 0.186023 0.029546
O O1 0.490803 0.684168 0.897439
O O2 0.241111 0.485465 0.753171
O O3 0.368310 0.303296 0.942745
O O4 0.779653 0.292947 0.089495
O O5 0.500000 0.500000 0.500000
O O6 0.816237 0.182702 0.673635
O O7 0.602653 0.059340 0.673373
O O8 0.051032 0.204985 0.869930
O O9 0.684066 0.500494 0.464364
O O10 0.842115 0.806576 0.521580
O O11 0.856828 0.787323 0.437556
O O12 0.295070 0.333854 0.337216
O O13 0.750804 0.074931 0.575675
O O14 0.920631 0.759646 0.667124
O O15 0.804077 0.159606 0.473643
O O16 0.000000 0.500000 0.500000
O O17 0.615405 0.923751 0.202995
#
# Coordination Sequence:
#
# PCOD8009218 Si02
#       8
#     2   2   2   2   2   2   2   2
#     4  11  20  36  66  95 125 154 218 273 313 362
#     4  11  20  38  68  97 128 161 210 268 326 367
#     4  12  23  39  65  93 126 166 214 260 313 381
#     4  10  21  36  58  97 129 162 204 258 326 373
#     4  11  21  41  64  89 124 171 213 256 315 378
#     4  12  27  45  63  90 136 177 206 257 323 382
#     4  10  21  36  61  94 131 158 202 269 322 370
#     4  11  22  40  63 100 122 166 217 263 314 382
#
# _framework density 20.496943000000002
#
# number of rings (size 3 to 8) (size 9 to 14) (size 15 to 20)
#    0.000    1.000    5.000    3.375    0.000    1.500 
#    0.000    2.500    0.000    0.000    0.000    0.000 
#    0.000    0.000    0.000    0.000    0.000    0.000 
#
# Total GULP energy -198353.103062 kJ/mol
# GULP energy per Si atom -12397.068941 kJ/mol
# Density = 2.045029 g / cm^3
# Si number density = 20.496943 Si / 1000 Ang^3
#
#
#
# Elastic Constant Matrix: (Units=GPa)
#
#
# Indices 1 2 3 4 5 6 
#
# 1 75.4637 27.5646 32.3568 5.9894 1.7156 11.2708
# 2 27.5646 126.7373 54.1531 10.8121 15.9508 33.3546
# 3 32.3568 54.1531 80.0620 5.8564 14.9286 10.0390
# 4 5.9894 10.8121 5.8564 26.7916 1.5520 6.0194
# 5 1.7156 15.9508 14.9286 1.5520 27.9469 4.5983
# 6 11.2708 33.3546 10.0390 6.0194 4.5983 35.6540
#
#
#
# Elastic Compliance Matrix: (Units=1/GPa)
#
#
# Indices 1 2 3 4 5 6 
#
# 1 0.016761 -0.000139 -0.006748 -0.001640 0.003309 -0.003418
# 2 -0.000139 0.014551 -0.007906 -0.001560 -0.002211 -0.010794
# 3 -0.006748 -0.007906 0.021383 -0.000576 -0.007210 0.004536
# 4 -0.001640 -0.001560 -0.000576 0.039468 -0.000152 -0.004504
# 5 0.003309 -0.002211 -0.007210 -0.000152 0.041065 -0.002218
# 6 -0.003418 -0.010794 0.004536 -0.004504 -0.002218 0.038995
#
#
# Mechanical properties :
#
#
# Convention : Reuss Voigt Hill
#
# Bulk Modulus (GPa) = 43.27481 56.71245 49.99363
# Shear Modulus (GPa) = 23.86488 29.29105 26.57797
#
# Velocity S-wave (km/s) = 3.41591 3.78437 3.60485
# Velocity P-wave (km/s) = 6.05942 6.84281 6.46300
#
# Compressibility (1/GPa) = 0.02310813
#
# Stress axis : x y z
#
# Youngs Moduli (GPa) = 59.66185 68.72517 46.76596
#
# Poissons Ratio (x) = 0.00954 0.31560
# Poissons Ratio (y) = 0.00828 0.36974
# Poissons Ratio (z) = 0.40262 0.54335
#
# Static dielectric constant tensor:
#      x y z
#    x 3.760680 0.132180 0.126240 
#    y 0.132180 3.920740 0.299270 
#    z 0.126240 0.299270 3.592790 
# 
# 
# High freq. dielectric constant tensor:
#      x y z
#    x 1.798840 0.005500 0.015240 
#    y 0.005500 1.812600 0.023690 
#    z 0.015240 0.023690 1.769210 
# 
# From -- ./inp_files/308475.got.cif
#   From: 2010.06.25/outbox.cif.g09.slc.cpg/sg2_155_cif.got.tgz:308475.got - 2010.06.27 13:26:56.
