data_PCOD8009683
_publ_section_title
;
Structure prediction by ZEFSAII (Michael W. Deem and Ramdas Pophale) SiO2 
 PCOD8009683
Probable space group: P -1
;
_chemical_formula_sum "Si O2"
_cell_formula_units_Z 16
_cell_length_a 11.062503
_cell_length_b 18.492474
_cell_length_c 9.518431
_cell_angle_alpha 150.525204
_cell_angle_beta 57.489681
_cell_angle_gamma 123.553155
_cell_volume 790.906709
_symmetry_space_group_name_H-M "P -1"
_symmetry_group_IT_number 2
_symmetry_cell_setting 'triclinic'
loop_
_space_group_symop_operation_xyz
x,y,z
-x,-y,-z
loop_
_atom_site_type_symbol
_atom_site_label
_atom_site_fract_x
_atom_site_fract_y
_atom_site_fract_z
Si Si1 0.212333 0.706268 0.682428
Si Si2 0.904088 0.624528 0.301055
Si Si3 0.503440 0.848388 0.663319
Si Si4 0.371343 0.416853 0.778349
Si Si5 0.314623 0.418269 0.133349
Si Si6 0.777978 0.013183 0.666462
Si Si7 0.079731 0.259370 0.204812
Si Si8 0.999780 0.938393 0.624751
O O1 0.337047 0.769234 0.589574
O O2 0.246763 0.554562 0.467565
O O3 0.050038 0.672184 0.666072
O O4 0.236793 0.824636 0.993906
O O5 0.742718 0.565430 0.240599
O O6 0.880001 0.652967 0.527763
O O7 0.979924 0.783109 0.455756
O O8 0.000000 0.500000 0.000000
O O9 0.564467 0.734015 0.535741
O O10 0.620647 0.896469 0.545060
O O11 0.500000 0.000000 0.000000
O O12 0.508997 0.559186 0.918928
O O13 0.287233 0.409027 0.967255
O O14 0.219925 0.278615 0.043309
O O15 0.849414 0.039638 0.516102
O O16 0.867688 0.935692 0.593401
O O17 0.017126 0.080188 0.960322
#
# Coordination Sequence:
#
# PCOD8009683 Si02
#       8
#     2   2   2   2   2   2   2   2
#     4   9  19  31  57  91 119 149 199 250 293 354
#     4  12  26  40  61  85 128 167 199 243 298 369
#     4   9  16  32  56  90 112 147 192 254 299 337
#     4  10  21  39  61  89 119 158 202 251 298 355
#     4  10  21  37  63  89 120 152 203 257 301 344
#     4   9  17  32  62  88 113 147 202 259 295 345
#     4  11  23  38  59  89 124 163 196 245 303 366
#     4  10  21  37  59  88 117 157 202 249 302 351
#
# _framework density 20.229946999999999
#
# number of rings (size 3 to 8) (size 9 to 14) (size 15 to 20)
#    0.000    2.000    1.250    2.250    5.250    0.500 
#    0.000    0.000    0.000    1.500    0.000    0.000 
#    0.000    0.000    0.000    0.000    0.000    0.000 
#
# Total GULP energy -198249.872186 kJ/mol
# GULP energy per Si atom -12390.617012 kJ/mol
# Density = 2.018390 g / cm^3
# Si number density = 20.229947 Si / 1000 Ang^3
#
#
#
# Elastic Constant Matrix: (Units=GPa)
#
#
# Indices 1 2 3 4 5 6 
#
# 1 87.5093 31.8011 27.8001 -7.8821 6.7497 15.3792
# 2 31.8011 94.3693 19.1608 -4.6348 1.6851 21.4947
# 3 27.8001 19.1608 62.8853 0.2390 -8.9527 -2.5744
# 4 -7.8821 -4.6348 0.2390 34.6536 -2.9147 -4.4462
# 5 6.7497 1.6851 -8.9527 -2.9147 33.3891 0.6483
# 6 15.3792 21.4947 -2.5744 -4.4462 0.6483 30.5156
#
#
#
# Elastic Compliance Matrix: (Units=1/GPa)
#
#
# Indices 1 2 3 4 5 6 
#
# 1 0.016440 -0.002226 -0.007582 0.002191 -0.004918 -0.006933
# 2 -0.002226 0.014263 -0.003899 0.000152 -0.001123 -0.009208
# 3 -0.007582 -0.003899 0.021826 -0.000732 0.007360 0.008146
# 4 0.002191 0.000152 -0.000732 0.029932 0.001907 0.003048
# 5 -0.004918 -0.001123 0.007360 0.001907 0.033073 0.003466
# 6 -0.006933 -0.009208 0.008146 0.003048 0.003466 0.043808
#
#
# Mechanical properties :
#
#
# Convention : Reuss Voigt Hill
#
# Bulk Modulus (GPa) = 39.81707 44.69867 42.25787
# Shear Modulus (GPa) = 25.62407 30.77845 28.20126
#
# Velocity S-wave (km/s) = 3.56285 3.90478 3.73773
# Velocity P-wave (km/s) = 6.05394 6.51713 6.28980
#
# Compressibility (1/GPa) = 0.02511486
#
# Stress axis : x y z
#
# Youngs Moduli (GPa) = 60.82690 70.10959 45.81710
#
# Poissons Ratio (x) = 0.15606 0.34738
# Poissons Ratio (y) = 0.13540 0.17866
# Poissons Ratio (z) = 0.46118 0.27339
#
# Static dielectric constant tensor:
#      x y z
#    x 3.641290 0.547020 -0.159760 
#    y 0.547020 3.805180 0.105150 
#    z -0.159760 0.105150 3.940310 
# 
# 
# High freq. dielectric constant tensor:
#      x y z
#    x 1.761660 0.044660 -0.012540 
#    y 0.044660 1.778270 0.012910 
#    z -0.012540 0.012910 1.812030 
# 
# From -- ./inp_files/278577.got.cif
#   From: 2010.06.25/outbox.cif.g09.slc.cpg/sg2_140_cif.got.tgz:278577.got - 2010.06.27 13:26:56.
