data_PCOD8009474
_publ_section_title
;
Structure prediction by ZEFSAII (Michael W. Deem and Ramdas Pophale) SiO2 
 PCOD8009474
Probable space group: P -1
;
_chemical_formula_sum "Si O2"
_cell_formula_units_Z 14
_cell_length_a 17.015138
_cell_length_b 11.401567
_cell_length_c 19.663846
_cell_angle_alpha 21.118560
_cell_angle_beta 24.014652
_cell_angle_gamma 30.900495
_cell_volume 558.900004
_symmetry_space_group_name_H-M "P -1"
_symmetry_group_IT_number 2
_symmetry_cell_setting 'triclinic'
loop_
_space_group_symop_operation_xyz
x,y,z
-x,-y,-z
loop_
_atom_site_type_symbol
_atom_site_label
_atom_site_fract_x
_atom_site_fract_y
_atom_site_fract_z
Si Si1 0.828246 0.479411 0.812222
Si Si2 0.232610 0.142042 0.004586
Si Si3 0.159224 0.760268 0.472816
Si Si4 0.156546 0.237121 0.863682
Si Si5 0.566483 0.703702 0.023163
Si Si6 0.865470 0.787269 0.480993
Si Si7 0.267246 0.694576 0.783326
O O1 0.685393 0.591938 0.923450
O O2 0.755932 0.667083 0.699127
O O3 0.052738 0.567124 0.601274
O O4 0.824404 0.095887 0.013105
O O5 0.275395 0.210507 0.854266
O O6 0.291297 0.449946 0.833871
O O7 0.351549 0.810701 0.111968
O O8 0.005402 0.084007 0.227019
O O9 0.243386 0.513104 0.597907
O O10 0.333933 0.981805 0.189706
O O11 0.000000 0.000000 0.500000
O O12 0.932526 0.334943 0.001987
O O13 0.564504 0.407821 0.239816
O O14 0.000000 0.500000 0.500000
O O15 0.714881 0.939976 0.460567
#
# Coordination Sequence:
#
# PCOD8009474 Si02
#       7
#     2   2   2   2   2   2   2
#     4  11  22  40  71  92 129 162 223 262 308 385
#     4  11  25  41  66  92 138 163 211 268 323 375
#     4  10  21  36  65  94 122 165 216 257 306 380
#     4  11  21  40  66  99 119 170 215 265 316 368
#     4  11  25  43  64  97 131 168 210 266 329 368
#     4  11  22  41  67  95 123 168 220 251 314 385
#     4  11  22  41  66  91 130 170 215 254 313 384
#
# _framework density 25.049202000000001
#
# number of rings (size 3 to 8) (size 9 to 14) (size 15 to 20)
#    0.000    1.143    5.714    3.429    6.000    1.143 
#    0.000    0.714    0.000    0.000    0.000    0.000 
#    0.000    0.000    0.000    0.000    0.000    0.000 
#
# Total GULP energy -173581.218996 kJ/mol
# GULP energy per Si atom -12398.658500 kJ/mol
# Density = 2.499219 g / cm^3
# Si number density = 25.049202 Si / 1000 Ang^3
#
#
#
# Elastic Constant Matrix: (Units=GPa)
#
#
# Indices 1 2 3 4 5 6 
#
# 1 103.2901 38.1365 33.9372 -22.9414 47.6227 -18.6006
# 2 38.1365 75.0925 15.6845 -29.5531 9.4769 -8.9974
# 3 33.9372 15.6845 83.9606 -28.0830 42.6303 -5.3341
# 4 -22.9414 -29.5531 -28.0830 33.8297 -16.6331 2.9803
# 5 47.6227 9.4769 42.6303 -16.6331 45.6554 -19.2726
# 6 -18.6006 -8.9974 -5.3341 2.9803 -19.2726 44.6900
#
#
#
# Elastic Compliance Matrix: (Units=1/GPa)
#
#
# Indices 1 2 3 4 5 6 
#
# 1 0.027216 -0.013107 0.009390 -0.003548 -0.038496 -0.006555
# 2 -0.013107 0.027914 -0.003104 0.023360 0.022668 0.008012
# 3 0.009390 -0.003104 0.031728 0.011787 -0.038914 -0.010497
# 4 -0.003548 0.023360 0.011787 0.063492 0.013627 0.006275
# 5 -0.038496 0.022668 -0.038914 0.013627 0.111829 0.031214
# 6 -0.006555 0.008012 -0.010497 0.006275 0.031214 0.033051
#
#
# Mechanical properties :
#
#
# Convention : Reuss Voigt Hill
#
# Bulk Modulus (GPa) = 13.65792 48.65107 31.15450
# Shear Modulus (GPa) = 15.00258 36.47401 25.73830
#
# Velocity S-wave (km/s) = 2.44995 3.82002 3.20896
# Velocity P-wave (km/s) = 3.66978 6.23868 5.11803
#
# Compressibility (1/GPa) = 0.07321758
#
# Stress axis : x y z
#
# Youngs Moduli (GPa) = 36.74374 35.82398 31.51770
#
# Poissons Ratio (x) = 0.46953 -0.29596
# Poissons Ratio (y) = 0.48159 0.09783
# Poissons Ratio (z) = -0.34504 0.11120
#
# Static dielectric constant tensor:
#      x y z
#    x 5.024110 -0.226950 0.051910 
#    y -0.226950 4.463980 -0.280310 
#    z 0.051910 -0.280310 4.747660 
# 
# 
# High freq. dielectric constant tensor:
#      x y z
#    x 2.008540 0.003570 0.022330 
#    y 0.003570 1.990530 -0.030120 
#    z 0.022330 -0.030120 1.981810 
# 
# From -- ./inp_files/156684.got.cif
#   From: 2010.06.25/outbox.cif.g09.slc.cpg/sg2_79_cif.got.tgz:156684.got - 2010.06.27 13:26:56.
