data_PCOD8009890
_publ_section_title
;
Structure prediction by ZEFSAII (Michael W. Deem and Ramdas Pophale) SiO2 
 PCOD8009890
Probable space group: P -1
;
_chemical_formula_sum "Si O2"
_cell_formula_units_Z 16
_cell_length_a 18.184138
_cell_length_b 14.842161
_cell_length_c 12.082213
_cell_angle_alpha 63.509103
_cell_angle_beta 125.666737
_cell_angle_gamma 161.249064
_cell_volume 778.204178
_symmetry_space_group_name_H-M "P -1"
_symmetry_group_IT_number 2
_symmetry_cell_setting 'triclinic'
loop_
_space_group_symop_operation_xyz
x,y,z
-x,-y,-z
loop_
_atom_site_type_symbol
_atom_site_label
_atom_site_fract_x
_atom_site_fract_y
_atom_site_fract_z
Si Si1 0.110328 0.807049 0.755679
Si Si2 0.906217 0.710845 0.432985
Si Si3 0.810875 0.800463 0.693354
Si Si4 0.290134 0.627892 0.977057
Si Si5 0.913155 0.104534 0.087108
Si Si6 0.563265 0.259727 0.192899
Si Si7 0.695339 0.635638 0.448858
Si Si8 0.913725 0.399073 0.853590
O O1 0.055023 0.828699 0.793388
O O2 0.117880 0.872659 0.609105
O O3 0.877363 0.473907 0.731783
O O4 0.387791 0.035900 0.895831
O O5 0.760290 0.479348 0.350498
O O6 0.673847 0.515037 0.418573
O O7 0.060501 0.957997 0.362376
O O8 0.666973 0.587352 0.582261
O O9 0.566264 0.565036 0.698140
O O10 0.052096 0.979968 0.850637
O O11 0.150995 0.401205 0.058916
O O12 0.247621 0.555711 0.850341
O O13 0.158453 0.598768 0.894834
O O14 0.617828 0.828933 0.932411
O O15 0.371943 0.961549 0.209371
O O16 0.000000 0.000000 0.500000
O O17 0.000000 0.500000 0.000000
#
# Coordination Sequence:
#
# PCOD8009890 Si02
#       8
#     2   2   2   2   2   2   2   2
#     4  11  22  36  65  93 116 159 205 253 306 357
#     4  11  24  40  58  91 132 162 193 253 310 362
#     4  10  21  37  62  91 121 162 208 247 301 353
#     4  10  21  37  64  88 119 151 210 255 299 360
#     4  10  21  38  63  92 115 161 213 248 294 361
#     4  10  24  41  59  89 129 160 199 251 312 363
#     4   9  20  36  59  85 122 156 199 251 293 347
#     4  11  20  41  65  92 115 155 209 259 301 356
#
# _framework density 20.560158000000001
#
# number of rings (size 3 to 8) (size 9 to 14) (size 15 to 20)
#    0.000    1.750    5.000    0.375    5.250    4.000 
#    0.000    1.875    0.000    0.000    0.000    0.000 
#    0.000    0.000    0.000    0.000    0.000    0.000 
#
# Total GULP energy -198277.525795 kJ/mol
# GULP energy per Si atom -12392.345362 kJ/mol
# Density = 2.051336 g / cm^3
# Si number density = 20.560158 Si / 1000 Ang^3
#
#
#
# Elastic Constant Matrix: (Units=GPa)
#
#
# Indices 1 2 3 4 5 6 
#
# 1 86.9859 34.0559 29.7261 3.7508 -7.2352 9.7348
# 2 34.0559 80.5359 19.1736 -8.1073 -4.5116 -0.5443
# 3 29.7261 19.1736 65.5819 -4.9142 -13.2069 -4.2085
# 4 3.7508 -8.1073 -4.9142 24.5679 -8.5649 5.2222
# 5 -7.2352 -4.5116 -13.2069 -8.5649 39.1388 -1.9645
# 6 9.7348 -0.5443 -4.2085 5.2222 -1.9645 37.3463
#
#
#
# Elastic Compliance Matrix: (Units=1/GPa)
#
#
# Indices 1 2 3 4 5 6 
#
# 1 0.016876 -0.006169 -0.006813 -0.005464 -0.001315 -0.004562
# 2 -0.006169 0.016018 -0.000971 0.006480 0.001843 0.000923
# 3 -0.006813 -0.000971 0.020816 0.006669 0.007291 0.003558
# 4 -0.005464 0.006480 0.006669 0.050342 0.012798 -0.004096
# 5 -0.001315 0.001843 0.007291 0.012798 0.030832 0.001023
# 6 -0.004562 0.000923 0.003558 -0.004096 0.001023 0.029007
#
#
# Mechanical properties :
#
#
# Convention : Reuss Voigt Hill
#
# Bulk Modulus (GPa) = 38.75183 44.33499 41.54341
# Shear Modulus (GPa) = 24.95023 30.22048 27.58535
#
# Velocity S-wave (km/s) = 3.48735 3.83803 3.66688
# Velocity P-wave (km/s) = 5.92489 6.42269 6.17881
#
# Compressibility (1/GPa) = 0.02580523
#
# Stress axis : x y z
#
# Youngs Moduli (GPa) = 59.25504 62.42820 48.03916
#
# Poissons Ratio (x) = 0.38511 0.32728
# Poissons Ratio (y) = 0.36554 0.04665
# Poissons Ratio (z) = 0.40369 0.06063
#
# Static dielectric constant tensor:
#      x y z
#    x 4.234740 0.187570 0.080430 
#    y 0.187570 3.767670 -0.111750 
#    z 0.080430 -0.111750 3.505580 
# 
# 
# High freq. dielectric constant tensor:
#      x y z
#    x 1.815440 0.012870 0.007920 
#    y 0.012870 1.796520 -0.011510 
#    z 0.007920 -0.011510 1.772480 
# 
# From -- ./inp_files/465856.got.cif
#   From: 2010.06.25/outbox.cif.g09.slc.cpg/sg2_233_cif.got.tgz:465856.got - 2010.06.27 13:26:56.
