data_PCOD8009762
_publ_section_title
;
Structure prediction by ZEFSAII (Michael W. Deem and Ramdas Pophale) SiO2 
 PCOD8009762
Probable space group: P -1
;
_chemical_formula_sum "Si O2"
_cell_formula_units_Z 16
_cell_length_a 29.097214
_cell_length_b 5.210666
_cell_length_c 11.696083
_cell_angle_alpha 56.864417
_cell_angle_beta 29.599853
_cell_angle_gamma 60.778859
_cell_volume 733.111525
_symmetry_space_group_name_H-M "P -1"
_symmetry_group_IT_number 2
_symmetry_cell_setting 'triclinic'
loop_
_space_group_symop_operation_xyz
x,y,z
-x,-y,-z
loop_
_atom_site_type_symbol
_atom_site_label
_atom_site_fract_x
_atom_site_fract_y
_atom_site_fract_z
Si Si1 0.095246 0.619365 0.218603
Si Si2 0.082914 0.344174 0.069251
Si Si3 0.594292 0.894004 0.684634
Si Si4 0.498922 0.518743 0.181813
Si Si5 0.788141 0.665753 0.769565
Si Si6 0.922199 0.776633 0.265490
Si Si7 0.310152 0.733115 0.111203
Si Si8 0.220392 0.363160 0.580148
O O1 0.115636 0.447536 0.097641
O O2 0.176031 0.539762 0.153058
O O3 0.000000 0.500000 0.500000
O O4 0.089432 0.981752 0.125242
O O5 0.976522 0.447772 0.244289
O O6 0.154140 0.502110 0.788919
O O7 0.570906 0.729709 0.656000
O O8 0.705420 0.885745 0.467199
O O9 0.559268 0.248715 0.666707
O O10 0.543161 0.719787 0.938455
O O11 0.579757 0.338505 0.122343
O O12 0.872218 0.844534 0.480004
O O13 0.742926 0.440046 0.831399
O O14 0.712736 0.904329 0.929331
O O15 0.843142 0.794370 0.337367
O O16 0.000000 0.000000 0.000000
O O17 0.277198 0.632582 0.333496
#
# Coordination Sequence:
#
# PCOD8009762 Si02
#       8
#     2   2   2   2   2   2   2   2
#     4  12  26  42  61  81 113 161 214 251 283 333
#     4  12  25  41  61  83 118 164 203 244 294 340
#     4   9  18  32  52  83 119 152 181 227 283 368
#     4   9  17  32  55  82 118 151 181 222 298 354
#     4  11  23  38  60  84 117 153 202 245 290 333
#     4  11  23  39  60  87 125 160 195 240 302 357
#     4  10  21  37  60  92 120 149 188 246 295 364
#     4  10  23  36  58  90 123 152 195 238 300 356
#
# _framework density 21.824781000000002
#
# number of rings (size 3 to 8) (size 9 to 14) (size 15 to 20)
#    0.000    1.500    1.250    3.750    3.500    9.000 
#    0.000    0.000    0.000    0.000    0.000   17.500 
#    0.000    0.000    0.000    0.000    0.000    0.000 
#
# Total GULP energy -198376.698799 kJ/mol
# GULP energy per Si atom -12398.543675 kJ/mol
# Density = 2.177511 g / cm^3
# Si number density = 21.824781 Si / 1000 Ang^3
#
#
#
# Elastic Constant Matrix: (Units=GPa)
#
#
# Indices 1 2 3 4 5 6 
#
# 1 114.2098 36.2869 40.4908 9.9951 -14.9040 1.6479
# 2 36.2869 115.9256 19.1781 28.5466 -17.1891 2.8340
# 3 40.4908 19.1781 39.8123 18.1423 -18.0341 -5.9243
# 4 9.9951 28.5466 18.1423 33.6412 -9.2645 -4.5581
# 5 -14.9040 -17.1891 -18.0341 -9.2645 28.1636 11.1711
# 6 1.6479 2.8340 -5.9243 -4.5581 11.1711 41.5967
#
#
#
# Elastic Compliance Matrix: (Units=1/GPa)
#
#
# Indices 1 2 3 4 5 6 
#
# 1 0.015958 -0.004293 -0.019818 0.008428 -0.003586 -0.001276
# 2 -0.004293 0.012870 0.006036 -0.011410 0.006861 -0.002940
# 3 -0.019818 0.006036 0.067527 -0.028181 0.027340 -0.000439
# 4 0.008428 -0.011410 -0.028181 0.051166 -0.005065 0.003397
# 5 -0.003586 0.006861 0.027340 -0.005065 0.058695 -0.012749
# 6 -0.001276 -0.002940 -0.000439 0.003397 -0.012749 0.028025
#
#
# Mechanical properties :
#
#
# Convention : Reuss Voigt Hill
#
# Bulk Modulus (GPa) = 16.60941 51.31770 33.96356
# Shear Modulus (GPa) = 17.21417 32.27977 24.74697
#
# Velocity S-wave (km/s) = 2.81151 3.85000 3.37099
# Velocity P-wave (km/s) = 4.26219 6.58239 5.54501
#
# Compressibility (1/GPa) = 0.06020684
#
# Stress axis : x y z
#
# Youngs Moduli (GPa) = 62.66270 77.69842 14.80899
#
# Poissons Ratio (x) = 0.33355 0.29348
# Poissons Ratio (y) = 0.26900 -0.08939
# Poissons Ratio (z) = 1.24182 -0.46900
#
# Static dielectric constant tensor:
#      x y z
#    x 3.672560 -0.121340 0.167190 
#    y -0.121340 4.105600 0.169540 
#    z 0.167190 0.169540 3.994590 
# 
# 
# High freq. dielectric constant tensor:
#      x y z
#    x 1.860230 -0.002900 -0.012460 
#    y -0.002900 1.863080 0.024150 
#    z -0.012460 0.024150 1.828540 
# 
# From -- ./inp_files/475956.got.cif
#   From: 2010.06.25/outbox.cif.g09.slc.cpg/sg2_238_cif.got.tgz:475956.got - 2010.06.27 13:26:56.
