data_PCOD8009406
_publ_section_title
;
Structure prediction by ZEFSAII (Michael W. Deem and Ramdas Pophale) SiO2 
 PCOD8009406
Probable space group: P -1
;
_chemical_formula_sum "Si O2"
_cell_formula_units_Z 16
_cell_length_a 20.900988
_cell_length_b 25.762583
_cell_length_c 8.604952
_cell_angle_alpha 145.043198
_cell_angle_beta 40.817378
_cell_angle_gamma 163.103727
_cell_volume 761.061543
_symmetry_space_group_name_H-M "P -1"
_symmetry_group_IT_number 2
_symmetry_cell_setting 'triclinic'
loop_
_space_group_symop_operation_xyz
x,y,z
-x,-y,-z
loop_
_atom_site_type_symbol
_atom_site_label
_atom_site_fract_x
_atom_site_fract_y
_atom_site_fract_z
Si Si1 0.432381 0.478796 0.904015
Si Si2 0.508347 0.656154 0.666979
Si Si3 0.980298 0.630475 0.651826
Si Si4 0.290131 0.602857 0.719948
Si Si5 0.925602 0.092718 0.806773
Si Si6 0.336935 0.788670 0.341906
Si Si7 0.336945 0.139789 0.558681
Si Si8 0.545018 0.261810 0.760201
O O1 0.507134 0.465673 0.608325
O O2 0.167864 0.271859 0.866892
O O3 0.500000 0.500000 0.000000
O O4 0.554971 0.675141 0.133811
O O5 0.309106 0.530260 0.617090
O O6 0.748686 0.889367 0.734162
O O7 0.474014 0.661458 0.918261
O O8 0.918694 0.578455 0.455067
O O9 0.770928 0.455047 0.720565
O O10 0.126229 0.662924 0.499963
O O11 0.122819 0.840231 0.927709
O O12 0.514995 0.793851 0.673245
O O13 0.258552 0.664654 0.035421
O O14 0.898123 0.043596 0.550900
O O15 0.461049 0.830554 0.344990
O O16 0.500000 0.000000 0.500000
O O17 0.334944 0.082073 0.583583
#
# Coordination Sequence:
#
# PCOD8009406 Si02
#       8
#     2   2   2   2   2   2   2   2
#     4  12  20  38  67  94 121 164 212 253 305 356
#     4  10  21  36  63  91 122 162 207 256 298 368
#     4  11  20  39  62  87 124 164 200 253 317 365
#     4   9  18  37  57  89 121 153 200 251 302 356
#     4  11  21  39  64  92 121 164 212 249 305 363
#     4  11  22  38  65  92 117 161 214 253 299 377
#     4  10  21  39  61  87 131 163 198 259 307 360
#     4  10  22  42  57  88 130 160 197 258 318 360
#
# _framework density 21.023267000000001
#
# number of rings (size 3 to 8) (size 9 to 14) (size 15 to 20)
#    0.000    1.500    5.000    3.375    0.000    0.500 
#    0.000   13.750    0.000    0.000    0.000    0.000 
#    0.000    0.000    0.000    0.000    0.000    0.000 
#
# Total GULP energy -198304.147336 kJ/mol
# GULP energy per Si atom -12394.009209 kJ/mol
# Density = 2.097542 g / cm^3
# Si number density = 21.023267 Si / 1000 Ang^3
#
#
#
# Elastic Constant Matrix: (Units=GPa)
#
#
# Indices 1 2 3 4 5 6 
#
# 1 123.3658 36.8184 64.9233 -0.0326 26.0372 11.6913
# 2 36.8184 42.8023 53.6439 -2.0805 2.3618 12.1677
# 3 64.9233 53.6439 147.8029 -11.4916 0.0160 8.9279
# 4 -0.0326 -2.0805 -11.4916 39.6186 4.7503 1.7143
# 5 26.0372 2.3618 0.0160 4.7503 41.5876 -0.8720
# 6 11.6913 12.1677 8.9279 1.7143 -0.8720 29.4511
#
#
#
# Elastic Compliance Matrix: (Units=1/GPa)
#
#
# Indices 1 2 3 4 5 6 
#
# 1 0.013889 -0.006242 -0.003736 -0.000311 -0.008347 -0.002031
# 2 -0.006242 0.051870 -0.015319 -0.001206 0.000808 -0.014214
# 3 -0.003736 -0.015319 0.013967 0.002737 0.002964 0.003506
# 4 -0.000311 -0.001206 0.002737 0.026384 -0.002790 -0.001826
# 5 -0.008347 0.000808 0.002964 -0.002790 0.029608 0.003120
# 6 -0.002031 -0.014214 0.003506 -0.001826 0.003120 0.039769
#
#
# Mechanical properties :
#
#
# Convention : Reuss Voigt Hill
#
# Bulk Modulus (GPa) = 34.32707 69.41580 51.87143
# Shear Modulus (GPa) = 21.20507 32.70382 26.95444
#
# Velocity S-wave (km/s) = 3.17937 3.94839 3.58456
# Velocity P-wave (km/s) = 5.46273 7.34007 6.46985
#
# Compressibility (1/GPa) = 0.02913153
#
# Stress axis : x y z
#
# Youngs Moduli (GPa) = 71.99878 19.27913 71.59572
#
# Poissons Ratio (x) = 0.12035 0.26747
# Poissons Ratio (y) = 0.44945 1.09677
# Poissons Ratio (z) = 0.26898 0.29534
#
# Static dielectric constant tensor:
#      x y z
#    x 4.307050 0.357380 0.074980 
#    y 0.357380 3.524000 -0.154340 
#    z 0.074980 -0.154340 4.323340 
# 
# 
# High freq. dielectric constant tensor:
#      x y z
#    x 1.834760 0.019400 0.008100 
#    y 0.019400 1.788870 -0.010110 
#    z 0.008100 -0.010110 1.838200 
# 
# From -- ./inp_files/218767.got.cif
#   From: 2010.06.25/outbox.cif.g09.slc.cpg/sg2_110_cif.got.tgz:218767.got - 2010.06.27 13:26:56.
