data_PCOD8009864
_publ_section_title
;
Structure prediction by ZEFSAII (Michael W. Deem and Ramdas Pophale) SiO2 
 PCOD8009864
Probable space group: P -1
;
_chemical_formula_sum "Si O2"
_cell_formula_units_Z 14
_cell_length_a 5.116698
_cell_length_b 15.786199
_cell_length_c 9.397964
_cell_angle_alpha 88.753103
_cell_angle_beta 76.526412
_cell_angle_gamma 120.249060
_cell_volume 628.891943
_symmetry_space_group_name_H-M "P -1"
_symmetry_group_IT_number 2
_symmetry_cell_setting 'triclinic'
loop_
_space_group_symop_operation_xyz
x,y,z
-x,-y,-z
loop_
_atom_site_type_symbol
_atom_site_label
_atom_site_fract_x
_atom_site_fract_y
_atom_site_fract_z
Si Si1 0.791961 0.563832 0.134266
Si Si2 0.389349 0.141097 0.712075
Si Si3 0.423109 0.702841 0.532790
Si Si4 0.291903 0.268563 0.917128
Si Si5 0.251988 0.913735 0.134254
Si Si6 0.381617 0.648285 0.857937
Si Si7 0.186033 0.395385 0.564440
O O1 0.589200 0.616198 0.136023
O O2 0.562897 0.443913 0.168148
O O3 0.959599 0.601734 0.264879
O O4 0.040860 0.602203 0.973811
O O5 0.481544 0.186989 0.539728
O O6 0.496654 0.236894 0.798196
O O7 0.580347 0.091286 0.742802
O O8 0.013368 0.062794 0.780077
O O9 0.396625 0.700531 0.706013
O O10 0.704667 0.685467 0.449311
O O11 0.075358 0.623794 0.519073
O O12 0.920371 0.190096 0.930483
O O13 0.352262 0.265844 0.078227
O O14 0.500000 0.000000 0.000000
O O15 0.500000 0.500000 0.500000
#
# Coordination Sequence:
#
# PCOD8009864 Si02
#       7
#     2   2   2   2   2   2   2
#     4  11  23  40  58  88 129 173 226 254 307 353
#     4  10  21  40  66  93 123 157 203 266 307 386
#     4  12  24  41  60  90 126 170 215 257 321 359
#     4  10  21  37  62  87 128 157 213 253 317 358
#     4  10  21  40  71  99 119 152 208 267 321 376
#     4  11  25  36  59  90 133 176 211 261 305 372
#     4  12  24  40  59  84 121 175 224 266 297 357
#
# _framework density 22.261375000000001
#
# number of rings (size 3 to 8) (size 9 to 14) (size 15 to 20)
#    0.857    0.286    2.857    4.714    2.000    1.143 
#    0.000    0.000    0.000    1.714    0.000    0.000 
#    0.000    0.000    0.000    0.000    0.000    0.000 
#
# Total GULP energy -173464.842373 kJ/mol
# GULP energy per Si atom -12390.345884 kJ/mol
# Density = 2.221071 g / cm^3
# Si number density = 22.261375 Si / 1000 Ang^3
#
#
#
# Elastic Constant Matrix: (Units=GPa)
#
#
# Indices 1 2 3 4 5 6 
#
# 1 81.6979 5.6347 14.0923 2.8002 16.4045 6.6860
# 2 5.6347 31.6228 13.2546 -19.1784 10.1745 7.1836
# 3 14.0923 13.2546 142.0939 -12.4645 23.6762 5.6400
# 4 2.8002 -19.1784 -12.4645 35.2292 -1.7001 -5.3843
# 5 16.4045 10.1745 23.6762 -1.7001 34.4206 -3.3794
# 6 6.6860 7.1836 5.6400 -5.3843 -3.3794 28.6957
#
#
#
# Elastic Compliance Matrix: (Units=1/GPa)
#
#
# Indices 1 2 3 4 5 6 
#
# 1 0.014173 -0.000826 -0.000238 -0.002660 -0.006906 -0.004361
# 2 -0.000826 0.056584 0.000446 0.028621 -0.016266 -0.010606
# 3 -0.000238 0.000446 0.008286 0.002629 -0.005772 -0.001871
# 4 -0.002660 0.028621 0.002629 0.044870 -0.006729 0.000565
# 5 -0.006906 -0.016266 -0.005772 -0.006729 0.041819 0.010478
# 6 -0.004361 -0.010606 -0.001871 0.000565 0.010478 0.040227
#
#
# Mechanical properties :
#
#
# Convention : Reuss Voigt Hill
#
# Bulk Modulus (GPa) = 12.85250 35.70866 24.28058
# Shear Modulus (GPa) = 21.44709 34.49797 27.97253
#
# Velocity S-wave (km/s) = 3.10727 3.94087 3.54863
# Velocity P-wave (km/s) = 4.31966 6.06487 5.26508
#
# Compressibility (1/GPa) = 0.07780588
#
# Stress axis : x y z
#
# Youngs Moduli (GPa) = 70.55606 17.67281 120.68224
#
# Poissons Ratio (x) = 0.01460 0.02873
# Poissons Ratio (y) = 0.05831 -0.05379
# Poissons Ratio (z) = 0.01680 -0.00788
#
# Static dielectric constant tensor:
#      x y z
#    x 4.005190 -0.063690 0.135540 
#    y -0.063690 3.664060 -0.018660 
#    z 0.135540 -0.018660 4.117010 
# 
# 
# High freq. dielectric constant tensor:
#      x y z
#    x 1.883050 0.004350 0.012530 
#    y 0.004350 1.829410 -0.015280 
#    z 0.012530 -0.015280 1.876180 
# 
# From -- ./inp_files/56001.got.cif
#   From: 2010.06.25/outbox.cif.g09.slc.cpg/sg2_29_cif.got.tgz:56001.got - 2010.06.27 13:26:56.
