data_PCOD8009913
_publ_section_title
;
Structure prediction by ZEFSAII (Michael W. Deem and Ramdas Pophale) SiO2 
 PCOD8009913
Probable space group: P -1
;
_chemical_formula_sum "Si O2"
_cell_formula_units_Z 12
_cell_length_a 9.156450
_cell_length_b 9.150030
_cell_length_c 12.522754
_cell_angle_alpha 51.335522
_cell_angle_beta 109.434460
_cell_angle_gamma 138.355582
_cell_volume 525.866959
_symmetry_space_group_name_H-M "P -1"
_symmetry_group_IT_number 2
_symmetry_cell_setting 'triclinic'
loop_
_space_group_symop_operation_xyz
x,y,z
-x,-y,-z
loop_
_atom_site_type_symbol
_atom_site_label
_atom_site_fract_x
_atom_site_fract_y
_atom_site_fract_z
Si Si1 0.322029 0.103697 0.627871
Si Si2 0.799919 0.156967 0.491900
Si Si3 0.246063 0.522036 0.553739
Si Si4 0.851040 0.798444 0.731729
Si Si5 0.506700 0.808523 0.143964
Si Si6 0.077113 0.056604 0.872586
O O1 0.225661 0.858798 0.635749
O O2 0.111713 0.054755 0.630208
O O3 0.535984 0.393335 0.485207
O O4 0.426309 0.097692 0.759840
O O5 0.660104 0.201261 0.495948
O O6 0.065473 0.418865 0.466084
O O7 0.719856 0.876928 0.639478
O O8 0.129183 0.303590 0.720039
O O9 0.730111 0.514001 0.778784
O O10 0.882104 0.791091 0.870229
O O11 0.695317 0.860147 0.103983
O O12 0.500000 0.000000 0.000000
O O13 0.000000 0.000000 0.000000
#
# Coordination Sequence:
#
# PCOD8009913 Si02
#       6
#     2   2   2   2   2   2
#     4  11  22  39  65  92 125 163 207 259 308 366
#     4  10  21  37  62  94 127 159 200 256 311 366
#     4  10  22  40  64  97 127 159 205 257 313 366
#     4  10  23  41  63  94 125 160 208 260 313 366
#     4  11  26  43  62  90 126 168 210 256 310 369
#     4  10  24  43  64  91 128 167 206 253 307 374
#
# _framework density 22.819461
#
# number of rings (size 3 to 8) (size 9 to 14) (size 15 to 20)
#    0.000    1.667    0.000    3.000    0.000   19.333 
#    0.000    0.000    0.000    0.000    0.000    0.000 
#    0.000    0.000    0.000    0.000    0.000    0.000 
#
# Total GULP energy -148726.738027 kJ/mol
# GULP energy per Si atom -12393.894836 kJ/mol
# Density = 2.276752 g / cm^3
# Si number density = 22.819461 Si / 1000 Ang^3
#
#
#
# Elastic Constant Matrix: (Units=GPa)
#
#
# Indices 1 2 3 4 5 6 
#
# 1 78.2170 10.5476 55.1767 5.5345 -9.2763 -4.0867
# 2 10.5476 145.2258 71.6218 23.0681 -3.4660 -5.5044
# 3 55.1767 71.6218 137.8220 22.9336 -12.7896 0.1893
# 4 5.5345 23.0681 22.9336 45.8510 -13.6085 -0.8867
# 5 -9.2763 -3.4660 -12.7896 -13.6085 41.4880 0.1869
# 6 -4.0867 -5.5044 0.1893 -0.8867 0.1869 22.1784
#
#
#
# Elastic Compliance Matrix: (Units=1/GPa)
#
#
# Indices 1 2 3 4 5 6 
#
# 1 0.019470 0.003283 -0.009558 0.001506 0.002155 0.004526
# 2 0.003283 0.010290 -0.006330 -0.002722 -0.001265 0.003115
# 3 -0.009558 -0.006330 0.014955 -0.002912 0.001005 -0.003585
# 4 0.001506 -0.002722 -0.002912 0.026845 0.008014 0.000632
# 5 0.002155 -0.001265 0.001005 0.008014 0.027417 0.000164
# 6 0.004526 0.003115 -0.003585 0.000632 0.000164 0.046750
#
#
# Mechanical properties :
#
#
# Convention : Reuss Voigt Hill
#
# Bulk Modulus (GPa) = 51.26961 70.66187 60.96574
# Shear Modulus (GPa) = 28.17881 36.83140 32.50510
#
# Velocity S-wave (km/s) = 3.51787 4.02186 3.77828
# Velocity P-wave (km/s) = 6.24634 7.25259 6.76819
#
# Compressibility (1/GPa) = 0.01950473
#
# Stress axis : x y z
#
# Youngs Moduli (GPa) = 51.36077 97.18577 66.86831
#
# Poissons Ratio (x) = -0.31911 0.63912
# Poissons Ratio (y) = -0.16864 0.42330
# Poissons Ratio (z) = 0.49090 0.61522
#
# Static dielectric constant tensor:
#      x y z
#    x 4.274190 0.030690 0.033810 
#    y 0.030690 4.671760 0.284440 
#    z 0.033810 0.284440 3.805860 
# 
# 
# High freq. dielectric constant tensor:
#      x y z
#    x 1.904720 0.007200 -0.001120 
#    y 0.007200 1.934800 0.027280 
#    z -0.001120 0.027280 1.864470 
# 
# From -- ./inp_files/381381.got.cif
#   From: 2010.06.25/outbox.cif.g09.slc.cpg/sg2_191_cif.got.tgz:381381.got - 2010.06.27 13:26:56.
