data_PCOD8009368
_publ_section_title
;
Structure prediction by ZEFSAII (Michael W. Deem and Ramdas Pophale) SiO2 
 PCOD8009368
Probable space group: P -1
;
_chemical_formula_sum "Si O2"
_cell_formula_units_Z 16
_cell_length_a 8.784602
_cell_length_b 12.252881
_cell_length_c 17.687590
_cell_angle_alpha 30.988589
_cell_angle_beta 61.861348
_cell_angle_gamma 54.737880
_cell_volume 799.138783
_symmetry_space_group_name_H-M "P -1"
_symmetry_group_IT_number 2
_symmetry_cell_setting 'triclinic'
loop_
_space_group_symop_operation_xyz
x,y,z
-x,-y,-z
loop_
_atom_site_type_symbol
_atom_site_label
_atom_site_fract_x
_atom_site_fract_y
_atom_site_fract_z
Si Si1 0.775135 0.898246 0.353439
Si Si2 0.826414 0.870493 0.183683
Si Si3 0.564365 0.660084 0.837638
Si Si4 0.009247 0.826906 0.488277
Si Si5 0.447674 0.407716 0.384757
Si Si6 0.778866 0.346018 0.844835
Si Si7 0.391431 0.416252 0.635617
Si Si8 0.221446 0.055923 0.387337
O O1 0.845622 0.916712 0.240932
O O2 0.938194 0.855650 0.401617
O O3 0.710342 0.682924 0.495111
O O4 0.617609 0.140634 0.273647
O O5 0.643211 0.809918 0.247285
O O6 0.021833 0.674635 0.225232
O O7 0.786156 0.095545 0.010309
O O8 0.722205 0.500947 0.839677
O O9 0.671712 0.807391 0.765358
O O10 0.500000 0.500000 0.000000
O O11 0.861010 0.809958 0.594463
O O12 0.186454 0.597500 0.588790
O O13 0.065991 0.038685 0.376361
O O14 0.391328 0.524296 0.248116
O O15 0.476489 0.609999 0.306762
O O16 0.642297 0.192778 0.467525
O O17 0.500000 0.500000 0.500000
#
# Coordination Sequence:
#
# PCOD8009368 Si02
#       8
#     2   2   2   2   2   2   2   2
#     4  11  21  38  64  93 112 157 202 242 288 359
#     4  11  24  40  59  87 127 156 196 241 298 349
#     4  11  21  39  63  84 120 158 193 240 297 348
#     4  10  21  36  62  89 120 148 198 248 293 340
#     4  10  21  37  64  89 114 152 203 241 292 351
#     4  11  24  40  60  88 120 160 196 243 292 355
#     4  11  22  37  59  89 119 157 193 245 291 346
#     4   9  20  39  60  92 117 150 194 252 294 343
#
# _framework density 20.021553999999998
#
# number of rings (size 3 to 8) (size 9 to 14) (size 15 to 20)
#    0.000    1.500    2.500    3.000    1.750    3.500 
#    0.000    0.625    5.500    0.000    0.000    0.000 
#    0.000    0.000    0.000    0.000    0.000    0.000 
#
# Total GULP energy -198214.656295 kJ/mol
# GULP energy per Si atom -12388.416018 kJ/mol
# Density = 1.997598 g / cm^3
# Si number density = 20.021554 Si / 1000 Ang^3
#
#
#
# Elastic Constant Matrix: (Units=GPa)
#
#
# Indices 1 2 3 4 5 6 
#
# 1 122.3223 26.1993 56.3146 11.2063 -10.2815 9.0447
# 2 26.1993 89.9766 17.7262 5.5369 -3.1211 -0.3866
# 3 56.3146 17.7262 91.8148 13.5704 -10.3344 4.6810
# 4 11.2063 5.5369 13.5704 26.2609 -4.7836 0.2974
# 5 -10.2815 -3.1211 -10.3344 -4.7836 25.4885 1.0432
# 6 9.0447 -0.3866 4.6810 0.2974 1.0432 23.7165
#
#
#
# Elastic Compliance Matrix: (Units=1/GPa)
#
#
# Indices 1 2 3 4 5 6 
#
# 1 0.012129 -0.002141 -0.006485 -0.000977 0.001959 -0.003454
# 2 -0.002141 0.011990 -0.000893 -0.001171 -0.000027 0.001204
# 3 -0.006485 -0.000893 0.016127 -0.004834 0.002939 -0.000793
# 4 -0.000977 -0.001171 -0.004834 0.042220 0.005404 0.000541
# 5 0.001959 -0.000027 0.002939 0.005404 0.042359 -0.003259
# 6 -0.003454 0.001204 -0.000793 0.000541 -0.003259 0.043795
#
#
# Mechanical properties :
#
#
# Convention : Reuss Voigt Hill
#
# Bulk Modulus (GPa) = 47.15140 56.06598 51.60869
# Shear Modulus (GPa) = 25.67715 28.68476 27.18096
#
# Velocity S-wave (km/s) = 3.58505 3.78920 3.68854
# Velocity P-wave (km/s) = 6.38265 6.87078 6.63121
#
# Compressibility (1/GPa) = 0.02120828
#
# Stress axis : x y z
#
# Youngs Moduli (GPa) = 82.44896 83.40554 62.00778
#
# Poissons Ratio (x) = 0.17856 0.40211
# Poissons Ratio (y) = 0.17651 0.05537
# Poissons Ratio (z) = 0.53466 0.07448
#
# Static dielectric constant tensor:
#      x y z
#    x 4.304160 0.410610 -0.245040 
#    y 0.410610 4.204430 -0.078480 
#    z -0.245040 -0.078480 3.582210 
# 
# 
# High freq. dielectric constant tensor:
#      x y z
#    x 1.783780 -0.004770 -0.016920 
#    y -0.004770 1.791190 -0.005980 
#    z -0.016920 -0.005980 1.766550 
# 
# From -- ./inp_files/188527.got.cif
#   From: 2010.06.25/outbox.cif.g09.slc.cpg/sg2_95_cif.got.tgz:188527.got - 2010.06.27 13:26:56.
