data_PCOD8009389
_publ_section_title
;
Structure prediction by ZEFSAII (Michael W. Deem and Ramdas Pophale) SiO2 
 PCOD8009389
Probable space group: P -1
;
_chemical_formula_sum "Si O2"
_cell_formula_units_Z 16
_cell_length_a 7.766228
_cell_length_b 10.557709
_cell_length_c 14.519729
_cell_angle_alpha 53.820250
_cell_angle_beta 50.818347
_cell_angle_gamma 69.671100
_cell_volume 744.259741
_symmetry_space_group_name_H-M "P -1"
_symmetry_group_IT_number 2
_symmetry_cell_setting 'triclinic'
loop_
_space_group_symop_operation_xyz
x,y,z
-x,-y,-z
loop_
_atom_site_type_symbol
_atom_site_label
_atom_site_fract_x
_atom_site_fract_y
_atom_site_fract_z
Si Si1 0.930313 0.607393 0.061404
Si Si2 0.738912 0.574126 0.872441
Si Si3 0.491633 0.609412 0.315116
Si Si4 0.910257 0.201733 0.684132
Si Si5 0.946318 0.845256 0.808933
Si Si6 0.724823 0.106661 0.477609
Si Si7 0.667778 0.711739 0.401974
Si Si8 0.884335 0.772737 0.583442
O O1 0.679063 0.568089 0.195559
O O2 0.089983 0.564845 0.109906
O O3 0.966529 0.785036 0.933725
O O4 0.000000 0.500000 0.000000
O O5 0.781829 0.726844 0.857706
O O6 0.754619 0.626443 0.738088
O O7 0.500000 0.500000 0.000000
O O8 0.317376 0.708653 0.273642
O O9 0.602817 0.711945 0.316365
O O10 0.372833 0.456335 0.464645
O O11 0.070356 0.234549 0.704048
O O12 0.063309 0.271326 0.519375
O O13 0.846197 0.017351 0.771127
O O14 0.186072 0.856420 0.671896
O O15 0.474369 0.160947 0.549425
O O16 0.878653 0.202567 0.456798
O O17 0.732865 0.923186 0.577007
#
# Coordination Sequence:
#
# PCOD8009389 Si02
#       8
#     2   2   2   2   2   2   2   2
#     4  10  22  43  64  85 122 167 205 258 318 366
#     4  10  21  36  62  95 122 164 208 261 308 365
#     4  11  24  42  62  89 132 162 202 265 311 377
#     4  11  23  40  64  95 124 167 207 257 318 371
#     4   9  21  40  62  89 126 165 212 256 308 367
#     4   9  17  36  63  92 124 162 202 260 307 360
#     4  11  23  38  63  95 126 164 206 253 319 373
#     4   9  18  34  62  91 128 161 203 257 313 358
#
# _framework density 21.497872000000001
#
# number of rings (size 3 to 8) (size 9 to 14) (size 15 to 20)
#    0.000    2.000    1.250    3.375    1.750    6.500 
#    4.500    0.625    0.000    0.000    0.000    0.000 
#    0.000    0.000    0.000    0.000    0.000    0.000 
#
# Total GULP energy -198372.468562 kJ/mol
# GULP energy per Si atom -12398.279285 kJ/mol
# Density = 2.144894 g / cm^3
# Si number density = 21.497872 Si / 1000 Ang^3
#
#
#
# Elastic Constant Matrix: (Units=GPa)
#
#
# Indices 1 2 3 4 5 6 
#
# 1 93.6965 41.6355 36.4898 -6.1381 -21.4743 -19.8490
# 2 41.6355 85.5971 36.5285 6.0857 -12.8103 -27.1792
# 3 36.4898 36.5285 105.6645 -11.7230 1.4108 -12.3783
# 4 -6.1381 6.0857 -11.7230 28.5462 -12.3236 1.5853
# 5 -21.4743 -12.8103 1.4108 -12.3236 28.8236 4.5930
# 6 -19.8490 -27.1792 -12.3783 1.5853 4.5930 32.4617
#
#
#
# Elastic Compliance Matrix: (Units=1/GPa)
#
#
# Indices 1 2 3 4 5 6 
#
# 1 0.019610 -0.005226 -0.003591 0.010812 0.016548 0.003376
# 2 -0.005226 0.021007 -0.004862 -0.008283 0.000078 0.012932
# 3 -0.003591 -0.004862 0.012750 0.004022 -0.003566 -0.001097
# 4 0.010812 -0.008283 0.004022 0.053022 0.027691 -0.005298
# 5 0.016548 0.000078 -0.003566 0.027691 0.059215 -0.000907
# 6 0.003376 0.012932 -0.001097 -0.005298 -0.000907 0.043666
#
#
# Mechanical properties :
#
#
# Convention : Reuss Voigt Hill
#
# Bulk Modulus (GPa) = 38.45067 57.14063 47.79565
# Shear Modulus (GPa) = 20.38333 29.31992 24.85163
#
# Velocity S-wave (km/s) = 3.08255 3.69704 3.40369
# Velocity P-wave (km/s) = 5.53120 6.69788 6.14230
#
# Compressibility (1/GPa) = 0.02600735
#
# Stress axis : x y z
#
# Youngs Moduli (GPa) = 50.99531 47.60427 78.42941
#
# Poissons Ratio (x) = 0.24879 0.28165
# Poissons Ratio (y) = 0.26651 0.38135
# Poissons Ratio (z) = 0.18313 0.23147
#
# Static dielectric constant tensor:
#      x y z
#    x 4.067360 -0.236130 0.434510 
#    y -0.236130 3.913640 -0.179590 
#    z 0.434510 -0.179590 4.021910 
# 
# 
# High freq. dielectric constant tensor:
#      x y z
#    x 1.837910 -0.016750 0.011850 
#    y -0.016750 1.836500 -0.006710 
#    z 0.011850 -0.006710 1.830860 
# 
# From -- ./inp_files/559002.got.cif
#   From: 2010.06.25/outbox.cif.g09.slc.cpg/sg2_280_cif.got.tgz:559002.got - 2010.06.27 13:26:56.
