data_PCOD8009780
_publ_section_title
;
Structure prediction by ZEFSAII (Michael W. Deem and Ramdas Pophale) SiO2 
 PCOD8009780
Probable space group: P -1
;
_chemical_formula_sum "Si O2"
_cell_formula_units_Z 16
_cell_length_a 11.048108
_cell_length_b 7.703921
_cell_length_c 11.610066
_cell_angle_alpha 108.322461
_cell_angle_beta 127.935116
_cell_angle_gamma 57.713756
_cell_volume 658.736272
_symmetry_space_group_name_H-M "P -1"
_symmetry_group_IT_number 2
_symmetry_cell_setting 'triclinic'
loop_
_space_group_symop_operation_xyz
x,y,z
-x,-y,-z
loop_
_atom_site_type_symbol
_atom_site_label
_atom_site_fract_x
_atom_site_fract_y
_atom_site_fract_z
Si Si1 0.158444 0.340472 0.258302
Si Si2 0.720020 0.320113 0.538878
Si Si3 0.496124 0.971677 0.357312
Si Si4 0.071300 0.046883 0.745630
Si Si5 0.568272 0.380740 0.699181
Si Si6 0.948231 0.219439 0.953507
Si Si7 0.810972 0.788654 0.352518
Si Si8 0.063146 0.655566 0.667470
O O1 0.195129 0.532665 0.339526
O O2 0.107415 0.277911 0.338093
O O3 0.322290 0.161301 0.253037
O O4 0.004944 0.369942 0.087132
O O5 0.890951 0.102566 0.579675
O O6 0.603675 0.299102 0.569517
O O7 0.601488 0.395317 0.369052
O O8 0.488938 0.758610 0.286337
O O9 0.657768 0.957958 0.375584
O O10 0.500000 0.000000 0.500000
O O11 0.032231 0.175388 0.867145
O O12 0.194461 0.101365 0.748731
O O13 0.151808 0.805065 0.773045
O O14 0.741791 0.366319 0.853039
O O15 0.000000 0.000000 0.000000
O O16 0.997793 0.693120 0.504410
O O17 0.793430 0.579100 0.273342
#
# Coordination Sequence:
#
# PCOD8009780 Si02
#       8
#     2   2   2   2   2   2   2   2
#     4  12  21  41  70 100 132 181 226 285 339 402
#     4  10  21  37  65 102 135 163 234 287 333 398
#     4  12  22  39  65  97 133 173 224 283 339 393
#     4  11  23  42  66 100 137 184 227 280 344 412
#     4  10  21  37  60  97 134 168 217 287 336 384
#     4  11  22  39  71 100 137 183 232 276 342 419
#     4  11  25  40  62 103 138 180 227 285 343 411
#     4  11  22  42  67  95 142 179 225 284 348 407
#
# _framework density 24.288931999999999
#
# number of rings (size 3 to 8) (size 9 to 14) (size 15 to 20)
#    0.000    1.000    6.250    1.125    1.750    2.000 
#    2.250    0.625    0.000    3.000    0.000    0.000 
#    0.000    0.000    0.000    0.000    0.000    0.000 
#
# Total GULP energy -198250.725789 kJ/mol
# GULP energy per Si atom -12390.670362 kJ/mol
# Density = 2.423365 g / cm^3
# Si number density = 24.288932 Si / 1000 Ang^3
#
#
#
# Elastic Constant Matrix: (Units=GPa)
#
#
# Indices 1 2 3 4 5 6 
#
# 1 118.7660 28.4821 32.4942 4.9469 -20.8242 5.6880
# 2 28.4821 85.0989 12.6799 -6.5797 -4.1879 0.9893
# 3 32.4942 12.6799 95.7906 -10.3790 9.1802 -7.0851
# 4 4.9469 -6.5797 -10.3790 29.7416 -3.7696 1.9849
# 5 -20.8242 -4.1879 9.1802 -3.7696 36.7301 -3.1777
# 6 5.6880 0.9893 -7.0851 1.9849 -3.1777 40.1765
#
#
#
# Elastic Compliance Matrix: (Units=1/GPa)
#
#
# Indices 1 2 3 4 5 6 
#
# 1 0.011974 -0.003178 -0.004817 -0.003355 0.007136 -0.001736
# 2 -0.003178 0.013126 -0.000314 0.003342 0.000109 -0.000085
# 3 -0.004817 -0.000314 0.013301 0.004527 -0.005421 0.002383
# 4 -0.003355 0.003342 0.004527 0.036671 0.001064 -0.000536
# 5 0.007136 0.000109 -0.005421 0.001064 0.032797 0.000573
# 6 -0.001736 -0.000085 0.002383 -0.000536 0.000573 0.025630
#
#
# Mechanical properties :
#
#
# Convention : Reuss Voigt Hill
#
# Bulk Modulus (GPa) = 45.90638 49.66309 47.78473
# Shear Modulus (GPa) = 31.77030 36.39626 34.08328
#
# Velocity S-wave (km/s) = 3.62057 3.87521 3.75005
# Velocity P-wave (km/s) = 6.03483 6.36507 6.20215
#
# Compressibility (1/GPa) = 0.02178347
#
# Stress axis : x y z
#
# Youngs Moduli (GPa) = 83.51367 76.18309 75.18027
#
# Poissons Ratio (x) = 0.24211 0.36215
# Poissons Ratio (y) = 0.26541 0.02361
# Poissons Ratio (z) = 0.40229 0.02393
#
# Static dielectric constant tensor:
#      x y z
#    x 4.478250 0.234590 -0.143950 
#    y 0.234590 5.007230 -0.417870 
#    z -0.143950 -0.417870 4.242450 
# 
# 
# High freq. dielectric constant tensor:
#      x y z
#    x 1.967290 0.020250 -0.007980 
#    y 0.020250 1.970560 -0.005180 
#    z -0.007980 -0.005180 1.916920 
# 
# From -- ./inp_files/419608.got.cif
#   From: 2010.06.25/outbox.cif.g09.slc.cpg/sg2_210_cif.got.tgz:419608.got - 2010.06.27 13:26:56.
