data_PCOD8009125
_publ_section_title
;
Structure prediction by ZEFSAII (Michael W. Deem and Ramdas Pophale) SiO2 
 PCOD8009125
Probable space group: P -1
;
_chemical_formula_sum "Si O2"
_cell_formula_units_Z 16
_cell_length_a 7.835978
_cell_length_b 8.332835
_cell_length_c 12.661340
_cell_angle_alpha 115.314060
_cell_angle_beta 98.095178
_cell_angle_gamma 93.137694
_cell_volume 733.773835
_symmetry_space_group_name_H-M "P -1"
_symmetry_group_IT_number 2
_symmetry_cell_setting 'triclinic'
loop_
_space_group_symop_operation_xyz
x,y,z
-x,-y,-z
loop_
_atom_site_type_symbol
_atom_site_label
_atom_site_fract_x
_atom_site_fract_y
_atom_site_fract_z
Si Si1 0.188095 0.209442 0.649593
Si Si2 0.434839 0.865121 0.268548
Si Si3 0.685672 0.446868 0.972259
Si Si4 0.800918 0.374819 0.183707
Si Si5 0.143885 0.034010 0.377341
Si Si6 0.439494 0.943895 0.863114
Si Si7 0.179795 0.176043 0.971024
Si Si8 0.901932 0.865109 0.825991
O O1 0.373443 0.147820 0.675597
O O2 0.185984 0.419056 0.725491
O O3 0.036563 0.100350 0.676114
O O4 0.147112 0.171268 0.512522
O O5 0.337876 0.676171 0.167392
O O6 0.312050 0.926271 0.367799
O O7 0.432072 0.008278 0.211031
O O8 0.500000 0.500000 0.000000
O O9 0.757792 0.345254 0.048110
O O10 0.822135 0.620355 0.007020
O O11 0.645648 0.263154 0.206628
O O12 0.976306 0.291035 0.195233
O O13 0.164882 0.148532 0.303322
O O14 0.295225 0.079982 0.871886
O O15 0.500000 0.000000 0.000000
O O16 0.241745 0.171718 0.101142
O O17 0.987686 0.068948 0.914755
#
# Coordination Sequence:
#
# PCOD8009125 Si02
#       8
#     2   2   2   2   2   2   2   2
#     4  11  25  48  68  94 128 169 231 273 319 377
#     4  12  24  42  70  97 131 173 219 265 326 394
#     4  12  21  36  61  99 134 166 213 262 328 393
#     4  11  22  38  64 100 131 175 211 271 324 390
#     4  11  26  47  70  90 127 181 220 274 321 377
#     4  11  19  35  60  92 135 171 200 252 332 388
#     4  10  21  36  56  92 137 169 203 255 327 392
#     4  10  23  39  61  93 136 169 217 263 324 397
#
# _framework density 21.805085999999999
#
# number of rings (size 3 to 8) (size 9 to 14) (size 15 to 20)
#    0.000    1.000    3.750    3.375    5.250    1.000 
#    0.000    0.625    0.000    0.000    0.000    0.000 
#    0.000    0.000    0.000    0.000    0.000    0.000 
#
# Total GULP energy -198328.825085 kJ/mol
# GULP energy per Si atom -12395.551568 kJ/mol
# Density = 2.175546 g / cm^3
# Si number density = 21.805086 Si / 1000 Ang^3
#
#
#
# Elastic Constant Matrix: (Units=GPa)
#
#
# Indices 1 2 3 4 5 6 
#
# 1 85.6134 24.0219 25.0696 5.5271 -7.7215 -3.9007
# 2 24.0219 94.8758 21.8220 1.9400 4.4970 2.6371
# 3 25.0696 21.8220 81.5523 -1.4853 -4.1736 -0.8207
# 4 5.5271 1.9400 -1.4853 34.4672 2.3476 3.6080
# 5 -7.7215 4.4970 -4.1736 2.3476 32.9371 -1.3083
# 6 -3.9007 2.6371 -0.8207 3.6080 -1.3083 27.4161
#
#
#
# Elastic Compliance Matrix: (Units=1/GPa)
#
#
# Indices 1 2 3 4 5 6 
#
# 1 0.014140 -0.002991 -0.003385 -0.002776 0.003601 0.002735
# 2 -0.002991 0.012041 -0.002459 0.000070 -0.002733 -0.001797
# 3 -0.003385 -0.002459 0.014047 0.001194 0.001240 0.000077
# 4 -0.002776 0.000070 0.001194 0.030167 -0.002837 -0.004472
# 5 0.003601 -0.002733 0.001240 -0.002837 0.032045 0.002715
# 6 0.002735 -0.001797 0.000077 -0.004472 0.002715 0.037757
#
#
# Mechanical properties :
#
#
# Convention : Reuss Voigt Hill
#
# Bulk Modulus (GPa) = 44.33313 44.87429 44.60371
# Shear Modulus (GPa) = 30.23212 31.70594 30.96903
#
# Velocity S-wave (km/s) = 3.72757 3.81735 3.77273
# Velocity P-wave (km/s) = 6.23716 6.32882 6.28316
#
# Compressibility (1/GPa) = 0.02255649
#
# Stress axis : x y z
#
# Youngs Moduli (GPa) = 70.72345 83.04829 71.19154
#
# Poissons Ratio (x) = 0.24843 0.24098
# Poissons Ratio (y) = 0.21156 0.17507
# Poissons Ratio (z) = 0.23939 0.20423
#
# Static dielectric constant tensor:
#      x y z
#    x 4.755580 0.103060 -0.324930 
#    y 0.103060 4.229570 -0.159230 
#    z -0.324930 -0.159230 3.937780 
# 
# 
# High freq. dielectric constant tensor:
#      x y z
#    x 1.866280 -0.003090 -0.009740 
#    y -0.003090 1.860460 -0.008060 
#    z -0.009740 -0.008060 1.840670 
# 
# From -- ./inp_files/259056.got.cif
#   From: 2010.06.25/outbox.cif.g09.slc.cpg/sg2_130_cif.got.tgz:259056.got - 2010.06.27 13:26:56.
