data_PCOD8009006
_publ_section_title
;
Structure prediction by ZEFSAII (Michael W. Deem and Ramdas Pophale) SiO2 
 PCOD8009006
Probable space group: P -1
;
_chemical_formula_sum "Si O2"
_cell_formula_units_Z 14
_cell_length_a 11.577178
_cell_length_b 15.679149
_cell_length_c 8.230298
_cell_angle_alpha 53.915891
_cell_angle_beta 53.665150
_cell_angle_gamma 31.967630
_cell_volume 623.988855
_symmetry_space_group_name_H-M "P -1"
_symmetry_group_IT_number 2
_symmetry_cell_setting 'triclinic'
loop_
_space_group_symop_operation_xyz
x,y,z
-x,-y,-z
loop_
_atom_site_type_symbol
_atom_site_label
_atom_site_fract_x
_atom_site_fract_y
_atom_site_fract_z
Si Si1 0.173292 0.472209 0.291002
Si Si2 0.826675 0.355513 0.141821
Si Si3 0.940402 0.761506 0.610908
Si Si4 0.426237 0.188132 0.152400
Si Si5 0.643057 0.599399 0.272220
Si Si6 0.587645 0.289427 0.337441
Si Si7 0.157504 0.999428 0.792564
O O1 0.317941 0.309247 0.254673
O O2 0.339056 0.443720 0.301906
O O3 0.000000 0.500000 0.500000
O O4 0.059628 0.623422 0.098193
O O5 0.619019 0.529156 0.220364
O O6 0.733950 0.311616 0.162223
O O7 0.013196 0.213732 0.276916
O O8 0.683266 0.866622 0.701233
O O9 0.113228 0.564170 0.664931
O O10 0.981941 0.824188 0.364600
O O11 0.689390 0.039608 0.144983
O O12 0.370355 0.275144 0.929414
O O13 0.439608 0.707720 0.447846
O O14 0.708913 0.123565 0.335033
O O15 0.000000 0.000000 0.000000
#
# Coordination Sequence:
#
# PCOD8009006 Si02
#       7
#     2   2   2   2   2   2   2
#     4  10  21  35  62  99 125 159 211 265 312 367
#     4   9  22  37  63  95 126 161 209 256 315 365
#     4  10  22  41  68  93 129 162 214 256 322 372
#     4  10  21  42  66  91 127 169 208 263 317 374
#     4   9  21  38  72  97 121 161 216 263 314 370
#     4  11  22  40  65  90 131 164 214 255 315 375
#     4  11  27  44  62  91 132 173 210 259 321 374
#
# _framework density 22.436299000000002
#
# number of rings (size 3 to 8) (size 9 to 14) (size 15 to 20)
#    0.857    1.143    0.000    2.571    4.000    5.143 
#    0.000    0.714    0.000    0.000    0.000    0.000 
#    0.000    0.000    0.000    0.000    0.000    0.000 
#
# Total GULP energy -173460.179429 kJ/mol
# GULP energy per Si atom -12390.012816 kJ/mol
# Density = 2.238523 g / cm^3
# Si number density = 22.436299 Si / 1000 Ang^3
#
#
#
# Elastic Constant Matrix: (Units=GPa)
#
#
# Indices 1 2 3 4 5 6 
#
# 1 118.0071 21.0091 48.3145 -5.9036 -16.5286 -29.7360
# 2 21.0091 48.2495 46.7525 -9.6265 3.8945 -18.4415
# 3 48.3145 46.7525 186.0887 -20.8749 -8.0001 -22.6582
# 4 -5.9036 -9.6265 -20.8749 36.1963 -1.0859 6.1964
# 5 -16.5286 3.8945 -8.0001 -1.0859 30.8190 8.6850
# 6 -29.7360 -18.4415 -22.6582 6.1964 8.6850 35.6129
#
#
#
# Elastic Compliance Matrix: (Units=1/GPa)
#
#
# Indices 1 2 3 4 5 6 
#
# 1 0.011744 -0.001001 -0.001802 -0.000520 0.003886 0.007284
# 2 -0.001001 0.034972 -0.006900 0.002234 -0.010942 0.015163
# 3 -0.001802 -0.006900 0.007837 0.002654 0.002351 -0.001127
# 4 -0.000520 0.002234 0.002654 0.030311 0.002150 -0.003387
# 5 0.003886 -0.010942 0.002351 0.002150 0.039695 -0.010980
# 6 0.007284 0.015163 -0.001127 -0.003387 -0.010980 0.044564
#
#
# Mechanical properties :
#
#
# Convention : Reuss Voigt Hill
#
# Bulk Modulus (GPa) = 28.45221 64.94418 46.69819
# Shear Modulus (GPa) = 24.96964 36.27694 30.62329
#
# Velocity S-wave (km/s) = 3.33965 4.02541 3.69846
# Velocity P-wave (km/s) = 5.25166 7.11436 6.25276
#
# Compressibility (1/GPa) = 0.03514666
#
# Stress axis : x y z
#
# Youngs Moduli (GPa) = 85.15208 28.59449 127.60436
#
# Poissons Ratio (x) = 0.02862 0.22994
# Poissons Ratio (y) = 0.08524 0.88044
# Poissons Ratio (z) = 0.15344 0.19730
#
# Static dielectric constant tensor:
#      x y z
#    x 5.393890 -1.013400 -0.179370 
#    y -1.013400 4.227600 0.135890 
#    z -0.179370 0.135890 4.132100 
# 
# 
# High freq. dielectric constant tensor:
#      x y z
#    x 1.884040 -0.007710 0.005560 
#    y -0.007710 1.839140 -0.003380 
#    z 0.005560 -0.003380 1.894990 
# 
# From -- ./inp_files/278948.got.cif
#   From: 2010.06.25/outbox.cif.g09.slc.cpg/sg2_140_cif.got.tgz:278948.got - 2010.06.27 13:26:56.
