data_PCOD8009502
_publ_section_title
;
Structure prediction by ZEFSAII (Michael W. Deem and Ramdas Pophale) SiO2 
 PCOD8009502
Probable space group: P -1
;
_chemical_formula_sum "Si O2"
_cell_formula_units_Z 12
_cell_length_a 5.039815
_cell_length_b 23.240146
_cell_length_c 12.454697
_cell_angle_alpha 26.382651
_cell_angle_beta 116.026509
_cell_angle_gamma 118.217083
_cell_volume 570.759509
_symmetry_space_group_name_H-M "P -1"
_symmetry_group_IT_number 2
_symmetry_cell_setting 'triclinic'
loop_
_space_group_symop_operation_xyz
x,y,z
-x,-y,-z
loop_
_atom_site_type_symbol
_atom_site_label
_atom_site_fract_x
_atom_site_fract_y
_atom_site_fract_z
Si Si1 0.222463 0.580979 0.543508
Si Si2 0.151160 0.958015 0.491403
Si Si3 0.726492 0.641248 0.223176
Si Si4 0.908940 0.035885 0.096348
Si Si5 0.341057 0.160616 0.788751
Si Si6 0.077741 0.688128 0.010113
O O1 0.328453 0.513501 0.566560
O O2 0.506151 0.686035 0.463296
O O3 0.947183 0.655562 0.341898
O O4 0.097487 0.460751 0.807107
O O5 0.500000 0.000000 0.500000
O O6 0.070610 0.796619 0.735465
O O7 0.000000 0.000000 0.500000
O O8 0.062687 0.022540 0.259412
O O9 0.415198 0.686156 0.114335
O O10 0.905433 0.733800 0.006456
O O11 0.850914 0.896121 0.255624
O O12 0.592579 0.075082 0.999347
O O13 0.123755 0.146587 0.877278
#
# Coordination Sequence:
#
# PCOD8009502 Si02
#       6
#     2   2   2   2   2   2
#     4   9  21  32  62  81 117 151 197 242 302 327
#     4  12  26  39  63  85 124 164 191 243 303 361
#     4   9  20  31  55  85 118 144 192 248 283 351
#     4  10  24  41  58  91 119 153 210 236 295 358
#     4  10  22  40  65  85 118 159 196 257 285 350
#     4  10  21  37  50  89 115 151 193 242 288 358
#
# _framework density 21.024618
#
# number of rings (size 3 to 8) (size 9 to 14) (size 15 to 20)
#    1.000    1.000    0.000    2.500    9.333    0.000 
#    0.000    0.833    0.000    1.000    0.000    0.000 
#    0.000    0.000    0.000    0.000    0.000    0.000 
#
# Total GULP energy -148671.673543 kJ/mol
# GULP energy per Si atom -12389.306129 kJ/mol
# Density = 2.097677 g / cm^3
# Si number density = 21.024618 Si / 1000 Ang^3
#
#
#
# Elastic Constant Matrix: (Units=GPa)
#
#
# Indices 1 2 3 4 5 6 
#
# 1 105.1750 27.6564 12.5133 5.3266 -10.0812 13.6983
# 2 27.6564 101.7522 19.5870 -3.9019 -10.7036 9.7898
# 3 12.5133 19.5870 56.4471 -1.0088 -13.9505 3.7966
# 4 5.3266 -3.9019 -1.0088 35.8778 8.1085 -8.8687
# 5 -10.0812 -10.7036 -13.9505 8.1085 22.8405 -2.3258
# 6 13.6983 9.7898 3.7966 -8.8687 -2.3258 25.8392
#
#
#
# Elastic Compliance Matrix: (Units=1/GPa)
#
#
# Indices 1 2 3 4 5 6 
#
# 1 0.011668 -0.002152 -0.000252 -0.004710 0.004998 -0.006500
# 2 -0.002152 0.011438 -0.002735 0.000344 0.002367 -0.002460
# 3 -0.000252 -0.002735 0.021990 -0.003042 0.012920 -0.001943
# 4 -0.004710 0.000344 -0.003042 0.035247 -0.014907 0.013569
# 5 0.004998 0.002367 0.012920 -0.014907 0.059753 -0.005183
# 6 -0.006500 -0.002460 -0.001943 0.013569 -0.005183 0.047555
#
#
# Mechanical properties :
#
#
# Convention : Reuss Voigt Hill
#
# Bulk Modulus (GPa) = 28.72103 42.54308 35.63206
# Shear Modulus (GPa) = 23.86236 30.48601 27.17419
#
# Velocity S-wave (km/s) = 3.37259 3.81204 3.59903
# Velocity P-wave (km/s) = 5.37179 6.29717 5.85280
#
# Compressibility (1/GPa) = 0.03481769
#
# Stress axis : x y z
#
# Youngs Moduli (GPa) = 85.70446 87.42640 45.47511
#
# Poissons Ratio (x) = 0.18818 0.01144
# Poissons Ratio (y) = 0.18448 0.12439
# Poissons Ratio (z) = 0.02156 0.23913
#
# Static dielectric constant tensor:
#      x y z
#    x 3.866590 0.136890 -0.097590 
#    y 0.136890 3.676200 -0.351960 
#    z -0.097590 -0.351960 3.800510 
# 
# 
# High freq. dielectric constant tensor:
#      x y z
#    x 1.842280 0.013780 -0.003670 
#    y 0.013780 1.795040 -0.036570 
#    z -0.003670 -0.036570 1.804040 
# 
# From -- ./inp_files/371037.got.cif
#   From: 2010.06.25/outbox.cif.g09.slc.cpg/sg2_186_cif.got.tgz:371037.got - 2010.06.27 13:26:56.
