data_PCOD8009710
_publ_section_title
;
Structure prediction by ZEFSAII (Michael W. Deem and Ramdas Pophale) SiO2 
 PCOD8009710
Probable space group: P -1
;
_chemical_formula_sum "Si O2"
_cell_formula_units_Z 16
_cell_length_a 11.597818
_cell_length_b 14.441783
_cell_length_c 6.755722
_cell_angle_alpha 61.012139
_cell_angle_beta 97.961961
_cell_angle_gamma 63.210102
_cell_volume 785.821591
_symmetry_space_group_name_H-M "P -1"
_symmetry_group_IT_number 2
_symmetry_cell_setting 'triclinic'
loop_
_space_group_symop_operation_xyz
x,y,z
-x,-y,-z
loop_
_atom_site_type_symbol
_atom_site_label
_atom_site_fract_x
_atom_site_fract_y
_atom_site_fract_z
Si Si1 0.013240 0.735035 0.654565
Si Si2 0.679686 0.458674 0.902864
Si Si3 0.468811 0.671287 0.949296
Si Si4 0.111967 0.351648 0.607501
Si Si5 0.891147 0.837484 0.922958
Si Si6 0.090812 0.847374 0.219531
Si Si7 0.334947 0.856363 0.375292
Si Si8 0.399068 0.320485 0.634579
O O1 0.048165 0.820729 0.448496
O O2 0.955103 0.673494 0.567465
O O3 0.893765 0.830034 0.693821
O O4 0.152462 0.617108 0.927242
O O5 0.591901 0.549340 0.975212
O O6 0.641896 0.543914 0.608401
O O7 0.639985 0.357845 0.958085
O O8 0.377418 0.805770 0.662252
O O9 0.546884 0.693175 0.116956
O O10 0.260216 0.321339 0.598476
O O11 0.000000 0.500000 0.500000
O O12 0.147687 0.254855 0.899108
O O13 0.769631 0.985850 0.813110
O O14 0.051372 0.786090 0.098340
O O15 0.258792 0.792696 0.325522
O O16 0.000000 0.000000 0.000000
O O17 0.476411 0.805793 0.332130
#
# Coordination Sequence:
#
# PCOD8009710 Si02
#       8
#     2   2   2   2   2   2   2   2
#     4  11  22  40  68  90 123 165 207 257 315 358
#     4  10  21  37  59  95 119 160 208 255 309 374
#     4  10  21  38  60  89 130 157 202 256 313 375
#     4  11  25  45  63  91 125 164 217 261 298 367
#     4  10  24  40  65  93 123 167 212 256 305 368
#     4   9  20  38  60  94 129 156 202 254 306 376
#     4  10  22  40  61  96 127 160 207 253 313 381
#     4  11  24  39  63  88 127 172 201 255 317 358
#
# _framework density 20.360855000000001
#
# number of rings (size 3 to 8) (size 9 to 14) (size 15 to 20)
#    0.000    1.750    1.250    1.875    1.750   10.500 
#    0.000    1.250    0.000    0.000    0.000    0.000 
#    0.000    0.000    0.000    0.000    0.000    0.000 
#
# Total GULP energy -198434.479382 kJ/mol
# GULP energy per Si atom -12402.154961 kJ/mol
# Density = 2.031451 g / cm^3
# Si number density = 20.360855 Si / 1000 Ang^3
#
#
#
# Elastic Constant Matrix: (Units=GPa)
#
#
# Indices 1 2 3 4 5 6 
#
# 1 133.8230 50.2591 35.4725 0.1578 -2.1005 -10.0076
# 2 50.2591 89.9714 44.7454 -2.2332 -5.2622 0.0555
# 3 35.4725 44.7454 108.3447 -0.7300 0.9989 0.0114
# 4 0.1578 -2.2332 -0.7300 30.8693 2.3281 2.1417
# 5 -2.1005 -5.2622 0.9989 2.3281 34.6332 0.1741
# 6 -10.0076 0.0555 0.0114 2.1417 0.1741 22.4298
#
#
#
# Elastic Compliance Matrix: (Units=1/GPa)
#
#
# Indices 1 2 3 4 5 6 
#
# 1 0.010020 -0.005022 -0.001211 -0.000752 -0.000093 0.004556
# 2 -0.005022 0.016705 -0.005269 0.001101 0.002324 -0.002402
# 3 -0.001211 -0.005269 0.011814 0.000033 -0.001214 -0.000527
# 4 -0.000752 0.001101 0.000033 0.032875 -0.002072 -0.003461
# 5 -0.000093 0.002324 -0.001214 -0.002072 0.029396 -0.000077
# 6 0.004556 -0.002402 -0.000527 -0.003461 -0.000077 0.046954
#
#
# Mechanical properties :
#
#
# Convention : Reuss Voigt Hill
#
# Bulk Modulus (GPa) = 64.36997 65.89923 65.13460
# Shear Modulus (GPa) = 28.41801 31.03059 29.72430
#
# Velocity S-wave (km/s) = 3.73998 3.90812 3.82498
# Velocity P-wave (km/s) = 7.09459 7.26639 7.18100
#
# Compressibility (1/GPa) = 0.01553519
#
# Stress axis : x y z
#
# Youngs Moduli (GPa) = 99.80298 59.86342 84.64734
#
# Poissons Ratio (x) = 0.30061 0.10253
# Poissons Ratio (y) = 0.50117 0.44597
# Poissons Ratio (z) = 0.12089 0.31539
#
# Static dielectric constant tensor:
#      x y z
#    x 3.937440 0.063010 0.104440 
#    y 0.063010 3.507860 0.060910 
#    z 0.104440 0.060910 3.889510 
# 
# 
# High freq. dielectric constant tensor:
#      x y z
#    x 1.797450 -0.002340 0.001790 
#    y -0.002340 1.783740 0.001210 
#    z 0.001790 0.001210 1.810620 
# 
# From -- ./inp_files/70717.got.cif
#   From: 2010.06.25/outbox.cif.g09.slc.cpg/sg2_36_cif.got.tgz:70717.got - 2010.06.27 13:26:56.
