data_PCOD8009570
_publ_section_title
;
Structure prediction by ZEFSAII (Michael W. Deem and Ramdas Pophale) SiO2 
 PCOD8009570
Probable space group: P -1
;
_chemical_formula_sum "Si O2"
_cell_formula_units_Z 14
_cell_length_a 22.087916
_cell_length_b 6.369855
_cell_length_c 5.254900
_cell_angle_alpha 54.635679
_cell_angle_beta 108.190822
_cell_angle_gamma 116.303409
_cell_volume 538.930273
_symmetry_space_group_name_H-M "P -1"
_symmetry_group_IT_number 2
_symmetry_cell_setting 'triclinic'
loop_
_space_group_symop_operation_xyz
x,y,z
-x,-y,-z
loop_
_atom_site_type_symbol
_atom_site_label
_atom_site_fract_x
_atom_site_fract_y
_atom_site_fract_z
Si Si1 0.675238 0.368307 0.020502
Si Si2 0.089720 0.728971 0.356706
Si Si3 0.549059 0.019545 0.815736
Si Si4 0.160135 0.963451 0.804766
Si Si5 0.416235 0.484061 0.793062
Si Si6 0.047392 0.125997 0.711639
Si Si7 0.709279 0.862858 0.418357
O O1 0.628474 0.456894 0.088514
O O2 0.628119 0.184494 0.864958
O O3 0.713104 0.162717 0.325291
O O4 0.729229 0.658927 0.785913
O O5 0.138238 0.745104 0.162567
O O6 0.041496 0.918257 0.099341
O O7 0.134769 0.825728 0.596070
O O8 0.041112 0.418422 0.559545
O O9 0.541194 0.710849 0.929739
O O10 0.500000 0.000000 0.000000
O O11 0.533437 0.213108 0.440712
O O12 0.124559 0.186568 0.667273
O O13 0.241362 0.096236 0.791635
O O14 0.368338 0.313823 0.623706
O O15 0.000000 0.000000 0.500000
#
# Coordination Sequence:
#
# PCOD8009570 Si02
#       7
#     2   2   2   2   2   2   2
#     4  10  22  38  58  85 116 157 200 246 309 362
#     4  10  25  40  65  94 127 163 214 257 322 373
#     4  10  21  37  57  86 118 152 199 248 296 366
#     4  10  26  41  65  95 129 166 216 263 319 381
#     4  10  21  38  57  85 115 155 197 245 305 360
#     4  10  24  44  67  95 130 169 213 264 319 378
#     4  10  23  37  59  83 119 153 200 251 303 370
#
# _framework density 25.977385999999999
#
# number of rings (size 3 to 8) (size 9 to 14) (size 15 to 20)
#    0.857    1.143    0.000    1.714    6.000    3.429 
#    0.000    0.000    0.000    0.000    0.000    0.000 
#    0.000    0.000    0.000    0.000    0.000    0.000 
#
# Total GULP energy -173456.889248 kJ/mol
# GULP energy per Si atom -12389.777803 kJ/mol
# Density = 2.591826 g / cm^3
# Si number density = 25.977386 Si / 1000 Ang^3
#
#
#
# Elastic Constant Matrix: (Units=GPa)
#
#
# Indices 1 2 3 4 5 6 
#
# 1 116.3260 25.5848 62.4855 -41.7243 -3.8479 -24.3256
# 2 25.5848 88.8601 76.1740 -35.9167 2.0593 -18.8290
# 3 62.4855 76.1740 190.7954 -51.4924 -21.4790 -17.9882
# 4 -41.7243 -35.9167 -51.4924 66.8929 -3.8807 10.1863
# 5 -3.8479 2.0593 -21.4790 -3.8807 41.4350 -2.4454
# 6 -24.3256 -18.8290 -17.9882 10.1863 -2.4454 37.0485
#
#
#
# Elastic Compliance Matrix: (Units=1/GPa)
#
#
# Indices 1 2 3 4 5 6 
#
# 1 0.013441 0.002873 -0.003062 0.006529 0.000545 0.007040
# 2 0.002873 0.020691 -0.007334 0.005988 -0.003592 0.006958
# 3 -0.003062 -0.007334 0.010435 0.002672 0.005679 -0.001031
# 4 0.006529 0.005988 0.002672 0.024189 0.004092 0.002247
# 5 0.000545 -0.003592 0.005679 0.004092 0.027808 0.002000
# 6 0.007040 0.006958 -0.001031 0.002247 0.002000 0.034164
#
#
# Mechanical properties :
#
#
# Convention : Reuss Voigt Hill
#
# Bulk Modulus (GPa) = 33.87316 80.49667 57.18491
# Shear Modulus (GPa) = 32.13043 44.52443 38.32743
#
# Velocity S-wave (km/s) = 3.52072 4.14450 3.84528
# Velocity P-wave (km/s) = 5.44014 7.34554 6.46344
#
# Compressibility (1/GPa) = 0.02952190
#
# Stress axis : x y z
#
# Youngs Moduli (GPa) = 74.39668 48.32912 95.83033
#
# Poissons Ratio (x) = -0.13883 0.29341
# Poissons Ratio (y) = -0.21372 0.70282
# Poissons Ratio (z) = 0.22778 0.35445
#
# Static dielectric constant tensor:
#      x y z
#    x 4.746030 0.094590 0.038280 
#    y 0.094590 4.732490 -0.529740 
#    z 0.038280 -0.529740 5.371460 
# 
# 
# High freq. dielectric constant tensor:
#      x y z
#    x 2.055080 -0.000260 0.003630 
#    y -0.000260 2.033390 -0.019120 
#    z 0.003630 -0.019120 2.060180 
# 
# From -- ./inp_files/11211.got.cif
#   From: 2010.06.25/outbox.cif.g09.slc.cpg/sg2_6_cif.got.tgz:11211.got - 2010.06.27 13:26:56.
