data_PCOD8009387
_publ_section_title
;
Structure prediction by ZEFSAII (Michael W. Deem and Ramdas Pophale) SiO2 
 PCOD8009387
Probable space group: P -1
;
_chemical_formula_sum "Si O2"
_cell_formula_units_Z 16
_cell_length_a 11.783433
_cell_length_b 11.271314
_cell_length_c 9.470855
_cell_angle_alpha 103.124693
_cell_angle_beta 127.472017
_cell_angle_gamma 50.937757
_cell_volume 749.799825
_symmetry_space_group_name_H-M "P -1"
_symmetry_group_IT_number 2
_symmetry_cell_setting 'triclinic'
loop_
_space_group_symop_operation_xyz
x,y,z
-x,-y,-z
loop_
_atom_site_type_symbol
_atom_site_label
_atom_site_fract_x
_atom_site_fract_y
_atom_site_fract_z
Si Si1 0.042358 0.803072 0.252644
Si Si2 0.877077 0.886255 0.443741
Si Si3 0.759869 0.280767 0.151270
Si Si4 0.672747 0.143829 0.574392
Si Si5 0.400219 0.410702 0.053582
Si Si6 0.643411 0.527801 0.642978
Si Si7 0.724395 0.054463 0.898958
Si Si8 0.602152 0.847466 0.135802
O O1 0.194424 0.812305 0.311956
O O2 0.153204 0.614319 0.307888
O O3 0.949515 0.902730 0.354317
O O4 0.881582 0.879724 0.034116
O O5 0.796571 0.795909 0.326055
O O6 0.038810 0.801747 0.657338
O O7 0.706807 0.052983 0.429305
O O8 0.622588 0.310671 0.180783
O O9 0.696433 0.443812 0.086672
O O10 0.767459 0.171188 0.008194
O O11 0.453604 0.299595 0.451255
O O12 0.719079 0.042611 0.722816
O O13 0.326365 0.475988 0.169573
O O14 0.345339 0.302321 0.949082
O O15 0.500000 0.500000 0.500000
O O16 0.525718 0.118942 0.820407
O O17 0.500000 0.000000 0.000000
#
# Coordination Sequence:
#
# PCOD8009387 Si02
#       8
#     2   2   2   2   2   2   2   2
#     4  11  22  38  66  98 132 166 220 272 331 383
#     4  12  24  39  69  97 130 177 225 266 318 406
#     4  10  21  38  67  99 127 165 227 272 333 374
#     4  11  23  38  67 100 132 166 224 276 328 377
#     4  10  22  41  64  94 136 175 210 276 332 389
#     4  10  21  36  62  94 134 163 211 269 335 378
#     4  11  23  41  69  97 132 170 217 279 328 388
#     4  11  24  44  65  91 134 183 218 259 333 400
#
# _framework density 21.339029
#
# number of rings (size 3 to 8) (size 9 to 14) (size 15 to 20)
#    0.000    1.250    2.500    4.500    3.500    3.000 
#    0.000    0.625    0.000    0.000    0.000    0.000 
#    0.000    0.000    0.000    0.000    0.000    0.000 
#
# Total GULP energy -198358.003428 kJ/mol
# GULP energy per Si atom -12397.375214 kJ/mol
# Density = 2.129046 g / cm^3
# Si number density = 21.339029 Si / 1000 Ang^3
#
#
#
# Elastic Constant Matrix: (Units=GPa)
#
#
# Indices 1 2 3 4 5 6 
#
# 1 70.1484 19.1981 39.0426 1.1176 -11.2746 -7.1493
# 2 19.1981 113.6150 31.5247 -11.4370 -10.7408 -13.5600
# 3 39.0426 31.5247 74.0939 -3.7174 -13.0189 -2.0227
# 4 1.1176 -11.4370 -3.7174 27.6000 -0.2164 -3.0776
# 5 -11.2746 -10.7408 -13.0189 -0.2164 42.4087 9.5112
# 6 -7.1493 -13.5600 -2.0227 -3.0776 9.5112 29.4734
#
#
#
# Elastic Compliance Matrix: (Units=1/GPa)
#
#
# Indices 1 2 3 4 5 6 
#
# 1 0.020868 -0.000205 -0.010662 -0.001956 0.001411 0.003577
# 2 -0.000205 0.011110 -0.004186 0.004625 0.000344 0.005147
# 3 -0.010662 -0.004186 0.021479 0.001163 0.003621 -0.004085
# 4 -0.001956 0.004625 0.001163 0.039035 -0.000103 0.005842
# 5 0.001411 0.000344 0.003621 -0.000103 0.026937 -0.007955
# 6 0.003577 0.005147 -0.004085 0.005842 -0.007955 0.040061
#
#
# Mechanical properties :
#
#
# Convention : Reuss Voigt Hill
#
# Bulk Modulus (GPa) = 42.82345 48.59871 45.71108
# Shear Modulus (GPa) = 25.33208 31.10254 28.21731
#
# Velocity S-wave (km/s) = 3.44920 3.82192 3.64034
# Velocity P-wave (km/s) = 5.99787 6.50385 6.25598
#
# Compressibility (1/GPa) = 0.02335169
#
# Stress axis : x y z
#
# Youngs Moduli (GPa) = 47.92065 90.00828 46.55811
#
# Poissons Ratio (x) = 0.01841 0.49638
# Poissons Ratio (y) = 0.00980 0.19491
# Poissons Ratio (z) = 0.51091 0.37680
#
# Static dielectric constant tensor:
#      x y z
#    x 3.717240 -0.185930 0.042820 
#    y -0.185930 4.439260 -0.130560 
#    z 0.042820 -0.130560 3.775090 
# 
# 
# High freq. dielectric constant tensor:
#      x y z
#    x 1.815960 -0.014880 -0.009030 
#    y -0.014880 1.842660 -0.006680 
#    z -0.009030 -0.006680 1.835030 
# 
# From -- ./inp_files/218268.got.cif
#   From: 2010.06.25/outbox.cif.g09.slc.cpg/sg2_110_cif.got.tgz:218268.got - 2010.06.27 13:26:56.
