data_PCOD8009954
_publ_section_title
;
Structure prediction by ZEFSAII (Michael W. Deem and Ramdas Pophale) SiO2 
 PCOD8009954
Probable space group: P -1
;
_chemical_formula_sum "Si O2"
_cell_formula_units_Z 14
_cell_length_a 14.146914
_cell_length_b 25.299389
_cell_length_c 26.063508
_cell_angle_alpha 168.798587
_cell_angle_beta 23.927475
_cell_angle_gamma 158.692255
_cell_volume 658.477886
_symmetry_space_group_name_H-M "P -1"
_symmetry_group_IT_number 2
_symmetry_cell_setting 'triclinic'
loop_
_space_group_symop_operation_xyz
x,y,z
-x,-y,-z
loop_
_atom_site_type_symbol
_atom_site_label
_atom_site_fract_x
_atom_site_fract_y
_atom_site_fract_z
Si Si1 0.550345 0.396835 0.770989
Si Si2 0.434263 0.432248 0.312239
Si Si3 0.328479 0.871908 0.165737
Si Si4 0.886154 0.055339 0.269211
Si Si5 0.133132 0.472194 0.736582
Si Si6 0.812360 0.451002 0.969967
Si Si7 0.043768 0.053234 0.755300
O O1 0.667805 0.171288 0.479838
O O2 0.346654 0.242465 0.770999
O O3 0.414569 0.460317 0.849306
O O4 0.776760 0.705642 0.974661
O O5 0.580566 0.390295 0.249811
O O6 0.127593 0.251095 0.299631
O O7 0.505032 0.780059 0.598730
O O8 0.517120 0.309956 0.104369
O O9 0.294489 0.823197 0.197389
O O10 0.046157 0.749898 0.162987
O O11 0.979069 0.099306 0.323731
O O12 0.915077 0.341299 0.764811
O O13 0.101927 0.202685 0.458102
O O14 0.100980 0.732006 0.967674
#
# Coordination Sequence:
#
# PCOD8009954 Si02
#       7
#     2   2   2   2   2   2   2
#     4  11  22  39  60  86 116 154 198 240 282 345
#     4  11  23  40  57  88 123 155 192 233 292 354
#     4  10  22  40  66  89 114 148 193 249 295 339
#     4  12  25  39  58  83 125 164 189 230 287 352
#     4  10  21  37  63  90 115 144 195 253 291 337
#     4   9  21  40  66  91 113 146 195 251 297 327
#     4  11  22  39  62  88 113 152 201 246 288 330
#
# _framework density 21.261154000000001
#
# number of rings (size 3 to 8) (size 9 to 14) (size 15 to 20)
#    0.000    1.429    0.000    6.857    0.000   10.857 
#    0.000    4.286    0.000    0.000    0.000    0.000 
#    0.000    0.000    0.000    0.000    0.000    0.000 
#
# Total GULP energy -173695.159890 kJ/mol
# GULP energy per Si atom -12406.797135 kJ/mol
# Density = 2.121276 g / cm^3
# Si number density = 21.261154 Si / 1000 Ang^3
#
#
#
# Elastic Constant Matrix: (Units=GPa)
#
#
# Indices 1 2 3 4 5 6 
#
# 1 83.6498 1.8133 6.2612 -12.2743 -5.1158 -10.1391
# 2 1.8133 59.3749 13.1404 -0.4410 -3.2785 -1.1127
# 3 6.2612 13.1404 68.1451 14.0546 0.5671 0.7135
# 4 -12.2743 -0.4410 14.0546 18.6941 3.0866 -1.1716
# 5 -5.1158 -3.2785 0.5671 3.0866 27.3224 -1.9469
# 6 -10.1391 -1.1127 0.7135 -1.1716 -1.9469 17.1942
#
#
#
# Elastic Compliance Matrix: (Units=1/GPa)
#
#
# Indices 1 2 3 4 5 6 
#
# 1 0.015836 0.001000 -0.004723 0.014264 0.002344 0.010837
# 2 0.001000 0.018000 -0.004484 0.004255 0.002136 0.002472
# 3 -0.004723 -0.004484 0.019827 -0.018416 -0.000122 -0.005167
# 4 0.014264 0.004255 -0.018416 0.078408 -0.004274 0.014310
# 5 0.002344 0.002136 -0.000122 -0.004274 0.038176 0.005557
# 6 0.010837 0.002472 -0.005167 0.014310 0.005557 0.066528
#
#
# Mechanical properties :
#
#
# Convention : Reuss Voigt Hill
#
# Bulk Modulus (GPa) = 26.84618 28.17773 27.51195
# Shear Modulus (GPa) = 18.82498 25.30581 22.06540
#
# Velocity S-wave (km/s) = 2.97882 3.45372 3.22503
# Velocity P-wave (km/s) = 4.94828 5.40243 5.18033
#
# Compressibility (1/GPa) = 0.03724925
#
# Stress axis : x y z
#
# Youngs Moduli (GPa) = 63.14584 55.55613 50.43743
#
# Poissons Ratio (x) = -0.05556 0.23821
# Poissons Ratio (y) = -0.06315 0.22616
# Poissons Ratio (z) = 0.29823 0.24911
#
# Static dielectric constant tensor:
#      x y z
#    x 3.831780 -0.008410 -0.077870 
#    y -0.008410 3.759310 -0.044100 
#    z -0.077870 -0.044100 3.807210 
# 
# 
# High freq. dielectric constant tensor:
#      x y z
#    x 1.833130 0.000860 -0.005030 
#    y 0.000860 1.822270 0.001890 
#    z -0.005030 0.001890 1.842440 
# 
# From -- ./inp_files/100800.got.cif
#   From: 2010.06.25/outbox.cif.g09.slc.cpg/sg2_51_cif.got.tgz:100800.got - 2010.06.27 13:26:56.
