data_PCOD8009559
_publ_section_title
;
Structure prediction by ZEFSAII (Michael W. Deem and Ramdas Pophale) SiO2 
 PCOD8009559
Probable space group: P -1
;
_chemical_formula_sum "Si O2"
_cell_formula_units_Z 10
_cell_length_a 14.439962
_cell_length_b 15.519038
_cell_length_c 16.647263
_cell_angle_alpha 162.239109
_cell_angle_beta 154.228236
_cell_angle_gamma 25.013022
_cell_volume 460.368354
_symmetry_space_group_name_H-M "P -1"
_symmetry_group_IT_number 2
_symmetry_cell_setting 'triclinic'
loop_
_space_group_symop_operation_xyz
x,y,z
-x,-y,-z
loop_
_atom_site_type_symbol
_atom_site_label
_atom_site_fract_x
_atom_site_fract_y
_atom_site_fract_z
Si Si1 0.217424 0.531545 0.795067
Si Si2 0.285486 0.125319 0.638529
Si Si3 0.853090 0.421589 0.925284
Si Si4 0.710595 0.895005 0.669966
Si Si5 0.650266 0.650086 0.799415
O O1 0.187978 0.372396 0.712093
O O2 0.332815 0.295175 0.605244
O O3 0.964718 0.754738 0.774796
O O4 0.359217 0.757666 0.110410
O O5 0.138504 0.909133 0.334684
O O6 0.545307 0.908027 0.627566
O O7 0.279927 0.304604 0.875504
O O8 0.716514 0.495641 0.800775
O O9 0.114008 0.400271 0.107165
O O10 0.500000 0.500000 0.500000
O O11 0.500000 0.000000 0.000000
#
# Coordination Sequence:
#
# PCOD8009559 Si02
#       5
#     2   2   2   2   2
#     4  10  21  37  57  84 122 168 209 245 298 360
#     4  12  22  38  62  91 128 157 202 266 304 348
#     4  11  26  41  64 101 122 155 214 253 306 387
#     4  10  21  37  57  84 122 168 209 245 298 360
#     4  11  24  47  70  88 126 167 196 251 322 378
#
# _framework density 21.721737999999998
#
# number of rings (size 3 to 8) (size 9 to 14) (size 15 to 20)
#    0.000    1.200    0.000    6.000    0.000    8.000 
#    0.000    0.000    0.000    0.000    0.000    0.000 
#    0.000    0.000    0.000    0.000    0.000    0.000 
#
# Total GULP energy -124020.507024 kJ/mol
# GULP energy per Si atom -12402.050702 kJ/mol
# Density = 2.167230 g / cm^3
# Si number density = 21.721738 Si / 1000 Ang^3
#
#
#
# Elastic Constant Matrix: (Units=GPa)
#
#
# Indices 1 2 3 4 5 6 
#
# 1 146.5920 53.2829 88.6037 0.3648 -1.6280 -14.3180
# 2 53.2829 90.6261 63.9462 8.8671 -4.9508 -8.8156
# 3 88.6037 63.9462 182.3075 0.3650 1.2316 -10.4723
# 4 0.3648 8.8671 0.3650 39.3697 1.3146 -5.0095
# 5 -1.6280 -4.9508 1.2316 1.3146 40.4030 14.4587
# 6 -14.3180 -8.8156 -10.4723 -5.0095 14.4587 24.6082
#
#
#
# Elastic Compliance Matrix: (Units=1/GPa)
#
#
# Indices 1 2 3 4 5 6 
#
# 1 0.010778 -0.003458 -0.003751 0.001357 -0.001580 0.004641
# 2 -0.003458 0.016437 -0.004081 -0.003677 0.002052 0.000185
# 3 -0.003751 -0.004081 0.008811 0.001059 -0.001354 0.001116
# 4 0.001357 -0.003677 0.001059 0.027354 -0.004158 0.007935
# 5 -0.001580 0.002052 -0.001354 -0.004158 0.032530 -0.020720
# 6 0.004641 0.000185 0.001116 0.007935 -0.020720 0.057668
#
#
# Mechanical properties :
#
#
# Convention : Reuss Voigt Hill
#
# Bulk Modulus (GPa) = 74.36816 92.35458 83.36137
# Shear Modulus (GPa) = 27.67972 35.12237 31.40105
#
# Velocity S-wave (km/s) = 3.57359 4.02546 3.80624
# Velocity P-wave (km/s) = 7.16509 8.01344 7.60111
#
# Compressibility (1/GPa) = 0.01344661
#
# Stress axis : x y z
#
# Youngs Moduli (GPa) = 92.78226 60.83986 113.49938
#
# Poissons Ratio (x) = 0.21038 0.42571
# Poissons Ratio (y) = 0.32083 0.46314
# Poissons Ratio (z) = 0.34801 0.24826
#
# Static dielectric constant tensor:
#      x y z
#    x 3.998090 0.002120 0.036640 
#    y 0.002120 4.336940 -0.001200 
#    z 0.036640 -0.001200 4.098440 
# 
# 
# High freq. dielectric constant tensor:
#      x y z
#    x 1.854190 -0.006090 0.002280 
#    y -0.006090 1.878440 0.005520 
#    z 0.002280 0.005520 1.875510 
# 
# From -- ./inp_files/440470.got.cif
#   From: 2010.06.25/outbox.cif.g09.slc.cpg/sg2_221_cif.got.tgz:440470.got - 2010.06.27 13:26:56.
