data_PCOD8009208
_publ_section_title
;
Structure prediction by ZEFSAII (Michael W. Deem and Ramdas Pophale) SiO2 
 PCOD8009208
Probable space group: P -1
;
_chemical_formula_sum "Si O2"
_cell_formula_units_Z 16
_cell_length_a 6.601079
_cell_length_b 24.903072
_cell_length_c 15.701596
_cell_angle_alpha 161.677733
_cell_angle_beta 98.101709
_cell_angle_gamma 80.004335
_cell_volume 796.721069
_symmetry_space_group_name_H-M "P -1"
_symmetry_group_IT_number 2
_symmetry_cell_setting 'triclinic'
loop_
_space_group_symop_operation_xyz
x,y,z
-x,-y,-z
loop_
_atom_site_type_symbol
_atom_site_label
_atom_site_fract_x
_atom_site_fract_y
_atom_site_fract_z
Si Si1 0.801538 0.704995 0.333924
Si Si2 0.633389 0.074526 0.377071
Si Si3 0.090596 0.941112 0.789127
Si Si4 0.898925 0.345226 0.871607
Si Si5 0.202162 0.778610 0.722672
Si Si6 0.599420 0.562774 0.480336
Si Si7 0.975523 0.456218 0.226684
Si Si8 0.318744 0.302308 0.134310
O O1 0.589585 0.827741 0.508740
O O2 0.972180 0.782447 0.516916
O O3 0.884048 0.682729 0.208466
O O4 0.767412 0.522391 0.098214
O O5 0.744553 0.021194 0.214455
O O6 0.764818 0.191055 0.616552
O O7 0.609324 0.901212 0.166030
O O8 0.212766 0.895296 0.815207
O O9 0.929593 0.113559 0.049418
O O10 0.945764 0.345173 0.974150
O O11 0.430362 0.724555 0.690851
O O12 0.097832 0.611569 0.440756
O O13 0.754066 0.530602 0.362668
O O14 0.495999 0.389123 0.227112
O O15 0.718108 0.612313 0.646234
O O16 0.101908 0.334837 0.121059
#
# Coordination Sequence:
#
# PCOD8009208 Si02
#       8
#     2   2   2   2   2   2   2   2
#     4  10  21  41  60  85 124 154 193 242 296 350
#     4  11  23  38  63  85 118 160 197 237 296 352
#     4  10  21  36  59  92 122 152 187 246 296 352
#     4  10  23  39  59  89 115 158 197 245 290 343
#     4  10  21  36  58  93 124 146 194 243 294 351
#     4  10  22  39  64  85 117 162 195 238 295 352
#     4  11  22  40  63  85 121 158 198 241 288 349
#     4  10  23  41  58  90 117 154 201 245 286 344
#
# _framework density 20.082311000000001
#
# number of rings (size 3 to 8) (size 9 to 14) (size 15 to 20)
#    0.000    1.750    1.250    2.250    1.750    6.500 
#    0.000    4.375    0.000    0.000    0.000    0.000 
#    0.000    0.000    0.000    0.000    0.000    0.000 
#
# Total GULP energy -198497.965898 kJ/mol
# GULP energy per Si atom -12406.122869 kJ/mol
# Density = 2.003660 g / cm^3
# Si number density = 20.082311 Si / 1000 Ang^3
#
#
#
# Elastic Constant Matrix: (Units=GPa)
#
#
# Indices 1 2 3 4 5 6 
#
# 1 93.2521 56.5763 26.2470 1.2992 -23.4551 -16.0521
# 2 56.5763 117.6520 43.5201 -9.1474 -14.8226 -16.5178
# 3 26.2470 43.5201 87.5721 10.0708 -9.0898 -11.5886
# 4 1.2992 -9.1474 10.0708 36.7664 3.9881 -6.4811
# 5 -23.4551 -14.8226 -9.0898 3.9881 33.2292 5.2418
# 6 -16.0521 -16.5178 -11.5886 -6.4811 5.2418 16.9417
#
#
#
# Elastic Compliance Matrix: (Units=1/GPa)
#
#
# Indices 1 2 3 4 5 6 
#
# 1 0.018442 -0.006893 0.000029 -0.002096 0.009072 0.007164
# 2 -0.006893 0.015292 -0.005482 0.007112 -0.001637 0.007855
# 3 0.000029 -0.005482 0.015284 -0.005332 0.002005 0.002477
# 4 -0.002096 0.007112 -0.005332 0.034079 -0.006431 0.016328
# 5 0.009072 -0.001637 0.002005 -0.006431 0.038010 -0.005849
# 6 0.007164 0.007855 0.002477 0.016328 -0.005849 0.083223
#
#
# Mechanical properties :
#
#
# Convention : Reuss Voigt Hill
#
# Bulk Modulus (GPa) = 41.10894 61.24032 51.17463
# Shear Modulus (GPa) = 21.08549 28.86297 24.97423
#
# Velocity S-wave (km/s) = 3.24381 3.79520 3.53029
# Velocity P-wave (km/s) = 5.87745 7.05447 6.49269
#
# Compressibility (1/GPa) = 0.02432561
#
# Stress axis : x y z
#
# Youngs Moduli (GPa) = 54.22480 65.39479 65.42879
#
# Poissons Ratio (x) = 0.45078 -0.00190
# Poissons Ratio (y) = 0.37378 0.35866
# Poissons Ratio (z) = -0.00157 0.35847
#
# Static dielectric constant tensor:
#      x y z
#    x 3.534580 -0.004390 -0.014280 
#    y -0.004390 3.598460 0.000560 
#    z -0.014280 0.000560 3.687740 
# 
# 
# High freq. dielectric constant tensor:
#      x y z
#    x 1.779410 -0.001920 0.000270 
#    y -0.001920 1.783150 0.000740 
#    z 0.000270 0.000740 1.790940 
# 
# From -- ./inp_files/67328.got.cif
#   From: 2010.06.25/outbox.cif.g09.slc.cpg/sg2_34_cif.got.tgz:67328.got - 2010.06.27 13:26:56.
