data_PCOD8009901
_publ_section_title
;
Structure prediction by ZEFSAII (Michael W. Deem and Ramdas Pophale) SiO2 
 PCOD8009901
Probable space group: P -1
;
_chemical_formula_sum "Si O2"
_cell_formula_units_Z 16
_cell_length_a 16.802371
_cell_length_b 10.513722
_cell_length_c 10.646867
_cell_angle_alpha 72.706477
_cell_angle_beta 71.525672
_cell_angle_gamma 29.876703
_cell_volume 887.615156
_symmetry_space_group_name_H-M "P -1"
_symmetry_group_IT_number 2
_symmetry_cell_setting 'triclinic'
loop_
_space_group_symop_operation_xyz
x,y,z
-x,-y,-z
loop_
_atom_site_type_symbol
_atom_site_label
_atom_site_fract_x
_atom_site_fract_y
_atom_site_fract_z
Si Si1 0.706897 0.450129 0.389300
Si Si2 0.022544 0.898887 0.824698
Si Si3 0.979582 0.234570 0.881344
Si Si4 0.134137 0.231138 0.645484
Si Si5 0.127922 0.979332 0.391622
Si Si6 0.351009 0.885576 0.404633
Si Si7 0.799501 0.563132 0.450586
Si Si8 0.221510 0.331976 0.306224
O O1 0.831170 0.205293 0.491153
O O2 0.539118 0.600009 0.417218
O O3 0.681160 0.634394 0.402507
O O4 0.792759 0.344424 0.242326
O O5 0.902444 0.022499 0.736057
O O6 0.009060 0.802024 0.965196
O O7 0.975676 0.102748 0.846369
O O8 0.125751 0.133591 0.792492
O O9 0.808208 0.537749 0.840816
O O10 0.198183 0.287666 0.645440
O O11 0.950443 0.496626 0.608322
O O12 0.255119 0.007092 0.547861
O O13 0.281203 0.870999 0.348088
O O14 0.977765 0.259101 0.445593
O O15 0.338808 0.049671 0.300459
O O16 0.723564 0.658976 0.601190
#
# Coordination Sequence:
#
# PCOD8009901 Si02
#       8
#     2   2   2   2   2   2   2   2
#     4  11  23  29  49  80 110 126 157 212 263 289
#     4  10  20  34  54  76  99 129 170 211 238 301
#     4   9  18  34  55  77  91 130 180 204 239 285
#     4   9  17  31  57  73  97 133 168 206 235 292
#     4  11  18  33  51  72 103 134 167 203 249 294
#     4  11  19  33  51  79 104 131 160 207 257 296
#     4  10  16  32  51  77  98 130 173 206 239 291
#     4   9  16  31  55  73  97 132 167 204 234 290
#
# _framework density 18.025829999999999
#
# number of rings (size 3 to 8) (size 9 to 14) (size 15 to 20)
#    0.750    1.250    2.500    4.875    0.000    2.000 
#    0.000    6.250    0.000    8.250    0.000    0.000 
#    0.000    0.000    0.000    0.000    0.000    0.000 
#
# Total GULP energy -198274.330797 kJ/mol
# GULP energy per Si atom -12392.145675 kJ/mol
# Density = 1.798480 g / cm^3
# Si number density = 18.025830 Si / 1000 Ang^3
#
#
#
# Elastic Constant Matrix: (Units=GPa)
#
#
# Indices 1 2 3 4 5 6 
#
# 1 88.4306 17.8328 38.1434 -1.9818 5.3981 1.6846
# 2 17.8328 42.2489 33.3743 -0.2808 -5.5797 -6.6363
# 3 38.1434 33.3743 104.3072 -12.1697 -5.2228 10.8711
# 4 -1.9818 -0.2808 -12.1697 16.3980 7.6456 -6.0525
# 5 5.3981 -5.5797 -5.2228 7.6456 22.5430 -3.8141
# 6 1.6846 -6.6363 10.8711 -6.0525 -3.8141 30.8874
#
#
#
# Elastic Compliance Matrix: (Units=1/GPa)
#
#
# Indices 1 2 3 4 5 6 
#
# 1 0.014199 -0.003531 -0.004171 0.000995 -0.005674 -0.000571
# 2 -0.003531 0.039343 -0.013257 -0.011144 0.013456 0.012789
# 3 -0.004171 -0.013257 0.017194 0.010962 -0.003187 -0.006918
# 4 0.000995 -0.011144 0.010962 0.084620 -0.028003 0.006817
# 5 -0.005674 0.013456 -0.003187 -0.028003 0.058840 0.006101
# 6 -0.000571 0.012789 -0.006918 0.006817 0.006101 0.039678
#
#
# Mechanical properties :
#
#
# Convention : Reuss Voigt Hill
#
# Bulk Modulus (GPa) = 34.69845 45.96530 40.33188
# Shear Modulus (GPa) = 16.37203 23.67477 20.02340
#
# Velocity S-wave (km/s) = 3.01699 3.62799 3.33651
# Velocity P-wave (km/s) = 5.60602 6.56542 6.10460
#
# Compressibility (1/GPa) = 0.02881973
#
# Stress axis : x y z
#
# Youngs Moduli (GPa) = 70.42720 25.41733 58.15830
#
# Poissons Ratio (x) = 0.08974 0.24260
# Poissons Ratio (y) = 0.24865 0.77098
# Poissons Ratio (z) = 0.29377 0.33695
#
# Static dielectric constant tensor:
#      x y z
#    x 3.491510 0.177430 -0.018900 
#    y 0.177430 3.093180 -0.087140 
#    z -0.018900 -0.087140 3.115730 
# 
# 
# High freq. dielectric constant tensor:
#      x y z
#    x 1.708370 0.020890 -0.001140 
#    y 0.020890 1.678830 -0.007600 
#    z -0.001140 -0.007600 1.665220 
# 
# From -- ./inp_files/331933.got.cif
#   From: 2010.06.25/outbox.cif.g09.slc.cpg/sg2_166_cif.got.tgz:331933.got - 2010.06.27 13:26:56.
