data_PCOD8009730
_publ_section_title
;
Structure prediction by ZEFSAII (Michael W. Deem and Ramdas Pophale) SiO2 
 PCOD8009730
Probable space group: P -1
;
_chemical_formula_sum "Si O2"
_cell_formula_units_Z 16
_cell_length_a 6.279498
_cell_length_b 10.662644
_cell_length_c 19.310383
_cell_angle_alpha 43.949980
_cell_angle_beta 111.930924
_cell_angle_gamma 88.792716
_cell_volume 743.202060
_symmetry_space_group_name_H-M "P -1"
_symmetry_group_IT_number 2
_symmetry_cell_setting 'triclinic'
loop_
_space_group_symop_operation_xyz
x,y,z
-x,-y,-z
loop_
_atom_site_type_symbol
_atom_site_label
_atom_site_fract_x
_atom_site_fract_y
_atom_site_fract_z
Si Si1 0.392818 0.132252 0.085129
Si Si2 0.437257 0.189413 0.367106
Si Si3 0.063064 0.415701 0.819116
Si Si4 0.116654 0.293398 0.555210
Si Si5 0.743177 0.232850 0.783811
Si Si6 0.628005 0.933808 0.742609
Si Si7 0.028267 0.066280 0.752903
Si Si8 0.266584 0.563130 0.662581
O O1 0.384533 0.192990 0.141286
O O2 0.270149 0.976781 0.120392
O O3 0.233835 0.332138 0.941751
O O4 0.690921 0.035414 0.136879
O O5 0.155066 0.358981 0.283962
O O6 0.447972 0.138168 0.307927
O O7 0.649917 0.268774 0.369549
O O8 0.500000 0.000000 0.500000
O O9 0.249072 0.427242 0.777321
O O10 0.941379 0.263514 0.847146
O O11 0.000000 0.500000 0.500000
O O12 0.021825 0.154488 0.641534
O O13 0.010684 0.322284 0.452805
O O14 0.427519 0.173181 0.636577
O O15 0.842015 0.237025 0.716316
O O16 0.461862 0.417638 0.686297
O O17 0.917871 0.906188 0.787773
#
# Coordination Sequence:
#
# PCOD8009730 Si02
#       8
#     2   2   2   2   2   2   2   2
#     4  10  22  40  63  91 124 160 201 251 307 367
#     4  11  25  44  64  88 122 163 208 256 302 356
#     4  11  24  40  62  92 123 161 205 251 304 362
#     4  11  21  36  60  92 124 154 197 251 308 369
#     4  10  21  39  62  94 128 158 197 250 312 370
#     4  10  23  41  61  86 119 162 205 252 304 355
#     4  10  21  37  60  87 120 160 200 248 310 364
#     4  11  24  39  62  94 124 162 208 250 303 367
#
# _framework density 21.528466999999999
#
# number of rings (size 3 to 8) (size 9 to 14) (size 15 to 20)
#    0.000    1.500    0.000    5.625    0.000   14.500 
#    0.000    1.250    0.000    0.000    0.000    0.000 
#    0.000    0.000    0.000    0.000    0.000    0.000 
#
# Total GULP energy -198352.994885 kJ/mol
# GULP energy per Si atom -12397.062180 kJ/mol
# Density = 2.147947 g / cm^3
# Si number density = 21.528467 Si / 1000 Ang^3
#
#
#
# Elastic Constant Matrix: (Units=GPa)
#
#
# Indices 1 2 3 4 5 6 
#
# 1 107.7552 39.3808 47.9190 4.9399 -6.2324 8.6303
# 2 39.3808 101.3811 48.4593 10.4481 -0.6918 -3.7628
# 3 47.9190 48.4593 156.2406 22.9145 -8.5446 3.9395
# 4 4.9399 10.4481 22.9145 30.8127 -1.8978 -4.0002
# 5 -6.2324 -0.6918 -8.5446 -1.8978 18.7402 5.0191
# 6 8.6303 -3.7628 3.9395 -4.0002 5.0191 31.2895
#
#
#
# Elastic Compliance Matrix: (Units=1/GPa)
#
#
# Indices 1 2 3 4 5 6 
#
# 1 0.012258 -0.003840 -0.002364 0.000813 0.004034 -0.004088
# 2 -0.003840 0.012987 -0.002902 -0.001394 -0.003149 0.003313
# 3 -0.002364 -0.002902 0.009051 -0.005435 0.003232 -0.002050
# 4 0.000813 -0.001394 -0.005435 0.037506 0.000184 0.005058
# 5 0.004034 -0.003149 0.003232 0.000184 0.059121 -0.011358
# 6 -0.004088 0.003313 -0.002050 0.005058 -0.011358 0.036212
#
#
# Mechanical properties :
#
#
# Convention : Reuss Voigt Hill
#
# Bulk Modulus (GPa) = 62.16742 70.76613 66.46678
# Shear Modulus (GPa) = 26.21779 31.47632 28.84705
#
# Velocity S-wave (km/s) = 3.49351 3.82786 3.66450
# Velocity P-wave (km/s) = 6.72402 7.24424 6.98897
#
# Compressibility (1/GPa) = 0.01608560
#
# Stress axis : x y z
#
# Youngs Moduli (GPa) = 81.57635 76.99742 110.48397
#
# Poissons Ratio (x) = 0.29564 0.26121
# Poissons Ratio (y) = 0.31322 0.32061
# Poissons Ratio (z) = 0.19287 0.22344
#
# Static dielectric constant tensor:
#      x y z
#    x 4.117070 0.002860 -0.049460 
#    y 0.002860 3.852800 0.218620 
#    z -0.049460 0.218620 3.878180 
# 
# 
# High freq. dielectric constant tensor:
#      x y z
#    x 1.860120 0.003090 -0.000890 
#    y 0.003090 1.836350 0.019200 
#    z -0.000890 0.019200 1.835830 
# 
# From -- ./inp_files/583035.got.cif
#   From: 2010.06.25/outbox.cif.g09.slc.cpg/sg2_292_cif.got.tgz:583035.got - 2010.06.27 13:26:56.
