data_PCOD8009224
_publ_section_title
;
Structure prediction by ZEFSAII (Michael W. Deem and Ramdas Pophale) SiO2 
 PCOD8009224
Probable space group: P -1
;
_chemical_formula_sum "Si O2"
_cell_formula_units_Z 14
_cell_length_a 13.735544
_cell_length_b 9.113449
_cell_length_c 11.148737
_cell_angle_alpha 39.108073
_cell_angle_beta 51.976748
_cell_angle_gamma 60.480719
_cell_volume 693.168728
_symmetry_space_group_name_H-M "P -1"
_symmetry_group_IT_number 2
_symmetry_cell_setting 'triclinic'
loop_
_space_group_symop_operation_xyz
x,y,z
-x,-y,-z
loop_
_atom_site_type_symbol
_atom_site_label
_atom_site_fract_x
_atom_site_fract_y
_atom_site_fract_z
Si Si1 0.094155 0.642058 0.028586
Si Si2 0.289110 0.497817 0.313919
Si Si3 0.565551 0.385098 0.223028
Si Si4 0.811009 0.610708 0.304265
Si Si5 0.741496 0.268774 0.370591
Si Si6 0.278561 0.890044 0.895437
Si Si7 0.256592 0.259960 0.247874
O O1 0.153416 0.813665 0.972034
O O2 0.137279 0.375491 0.196740
O O3 0.947975 0.671098 0.122529
O O4 0.138635 0.712515 0.817376
O O5 0.419892 0.415358 0.322918
O O6 0.188291 0.511035 0.488536
O O7 0.296041 0.754212 0.092650
O O8 0.247961 0.313142 0.362629
O O9 0.617411 0.327717 0.352375
O O10 0.604525 0.170070 0.241673
O O11 0.622777 0.620727 0.975393
O O12 0.746684 0.452621 0.356322
O O13 0.726439 0.842599 0.236073
O O14 0.738015 0.016444 0.596507
#
# Coordination Sequence:
#
# PCOD8009224 Si02
#       7
#     2   2   2   2   2   2   2
#     4   9  21  39  57  78 109 147 184 220 263 323
#     4  10  21  36  59  83 105 141 186 228 266 313
#     4   9  20  40  59  78 106 145 187 221 264 322
#     4  12  23  34  54  87 115 140 177 223 276 321
#     4  10  22  37  56  80 111 148 179 217 272 328
#     4   9  20  37  59  81 106 141 183 229 267 311
#     4   9  19  38  60  79 103 145 187 220 266 322
#
# _framework density 20.197102999999998
#
# number of rings (size 3 to 8) (size 9 to 14) (size 15 to 20)
#    0.000    2.857    0.000    4.286    0.000   10.286 
#    0.000    1.429    0.000    0.000    0.000    0.000 
#    0.000    0.000    0.000    0.000    0.000    0.000 
#
# Total GULP energy -173583.070809 kJ/mol
# GULP energy per Si atom -12398.790772 kJ/mol
# Density = 2.015113 g / cm^3
# Si number density = 20.197103 Si / 1000 Ang^3
#
#
#
# Elastic Constant Matrix: (Units=GPa)
#
#
# Indices 1 2 3 4 5 6 
#
# 1 30.8702 31.1220 16.0958 -12.2879 6.8742 -1.6026
# 2 31.1220 98.5650 49.9686 -26.2982 2.1235 14.9712
# 3 16.0958 49.9686 62.8401 -19.6525 10.8855 -4.7616
# 4 -12.2879 -26.2982 -19.6525 24.6399 -6.8054 -5.5480
# 5 6.8742 2.1235 10.8855 -6.8054 21.8493 3.3686
# 6 -1.6026 14.9712 -4.7616 -5.5480 3.3686 19.0610
#
#
#
# Elastic Compliance Matrix: (Units=1/GPa)
#
#
# Indices 1 2 3 4 5 6 
#
# 1 0.085977 -0.050112 0.038344 0.023554 -0.044886 0.070956
# 2 -0.050112 0.059902 -0.049448 -0.004638 0.044360 -0.072804
# 3 0.038344 -0.049448 0.065806 0.023091 -0.044108 0.073017
# 4 0.023554 -0.004638 0.023091 0.072958 -0.000792 0.032767
# 5 -0.044886 0.044360 -0.044108 -0.000792 0.087376 -0.065306
# 6 0.070956 -0.072804 0.073017 0.032767 -0.065306 0.154931
#
#
# Mechanical properties :
#
#
# Convention : Reuss Voigt Hill
#
# Bulk Modulus (GPa) = 11.20412 42.96088 27.08250
# Shear Modulus (GPa) = 7.36234 19.44931 13.40582
#
# Velocity S-wave (km/s) = 1.91132 3.10655 2.57913
# Velocity P-wave (km/s) = 3.22960 5.84675 4.72307
#
# Compressibility (1/GPa) = 0.08925291
#
# Stress axis : x y z
#
# Youngs Moduli (GPa) = 11.63108 16.69398 15.19611
#
# Poissons Ratio (x) = 0.83657 -0.58268
# Poissons Ratio (y) = 0.58286 0.75141
# Poissons Ratio (z) = -0.44598 0.82548
#
# Static dielectric constant tensor:
#      x y z
#    x 3.503800 0.004700 0.168970 
#    y 0.004700 3.484400 0.017690 
#    z 0.168970 0.017690 3.689150 
# 
# 
# High freq. dielectric constant tensor:
#      x y z
#    x 1.779670 -0.001880 0.012600 
#    y -0.001880 1.771290 0.000560 
#    z 0.012600 0.000560 1.794940 
# 
# From -- ./inp_files/251453.got.cif
#   From: 2010.06.25/outbox.cif.g09.slc.cpg/sg2_126_cif.got.tgz:251453.got - 2010.06.27 13:26:56.
