data_PCOD8009436
_publ_section_title
;
Structure prediction by ZEFSAII (Michael W. Deem and Ramdas Pophale) SiO2 
 PCOD8009436
Probable space group: P -1
;
_chemical_formula_sum "Si O2"
_cell_formula_units_Z 16
_cell_length_a 9.574579
_cell_length_b 8.908212
_cell_length_c 17.790561
_cell_angle_alpha 52.721927
_cell_angle_beta 134.596874
_cell_angle_gamma 134.966457
_cell_volume 746.189215
_symmetry_space_group_name_H-M "P -1"
_symmetry_group_IT_number 2
_symmetry_cell_setting 'triclinic'
loop_
_space_group_symop_operation_xyz
x,y,z
-x,-y,-z
loop_
_atom_site_type_symbol
_atom_site_label
_atom_site_fract_x
_atom_site_fract_y
_atom_site_fract_z
Si Si1 0.497612 0.215658 0.095059
Si Si2 0.273407 0.637735 0.500072
Si Si3 0.480615 0.445622 0.249821
Si Si4 0.052099 0.834569 0.443147
Si Si5 0.252714 0.356999 0.854136
Si Si6 0.613576 0.845459 0.260911
Si Si7 0.236103 0.049328 0.189904
Si Si8 0.451350 0.130855 0.602057
O O1 0.701661 0.441553 0.135719
O O2 0.277859 0.112974 0.098246
O O3 0.592491 0.051946 0.166661
O O4 0.409801 0.257261 0.970396
O O5 0.446972 0.655160 0.624429
O O6 0.202343 0.822021 0.434795
O O7 0.384392 0.673292 0.449367
O O8 0.057955 0.399145 0.487192
O O9 0.685143 0.557208 0.233024
O O10 0.437314 0.635066 0.209408
O O11 0.253940 0.253059 0.183070
O O12 0.867237 0.893481 0.324019
O O13 0.203564 0.010111 0.508963
O O14 0.991325 0.174377 0.814851
O O15 0.561561 0.778255 0.349006
O O16 0.454918 0.035437 0.302695
#
# Coordination Sequence:
#
# PCOD8009436 Si02
#       8
#     2   2   2   2   2   2   2   2
#     4   9  21  43  62  89 118 151 201 255 295 360
#     4  10  22  36  61  84 121 163 210 236 284 358
#     4  10  22  38  57  91 123 155 201 245 295 360
#     4  10  21  37  58  86 121 161 201 244 291 354
#     4  10  21  40  68  86 112 159 205 245 301 353
#     4  10  23  40  59  89 131 155 195 254 308 346
#     4  10  21  36  64  89 115 157 205 242 291 362
#     4  11  22  37  59  87 121 164 201 244 289 351
#
# _framework density 21.442283
#
# number of rings (size 3 to 8) (size 9 to 14) (size 15 to 20)
#    0.000    2.000    1.250    1.125    5.250    2.500 
#    0.000    9.375    0.000    0.000    0.000    0.000 
#    0.000    0.000    0.000    0.000    0.000    0.000 
#
# Total GULP energy -198365.670860 kJ/mol
# GULP energy per Si atom -12397.854429 kJ/mol
# Density = 2.139348 g / cm^3
# Si number density = 21.442283 Si / 1000 Ang^3
#
#
#
# Elastic Constant Matrix: (Units=GPa)
#
#
# Indices 1 2 3 4 5 6 
#
# 1 61.7917 35.4931 19.4915 -4.3657 7.5545 -9.5994
# 2 35.4931 116.4082 9.3047 6.2280 13.5336 -7.6613
# 3 19.4915 9.3047 61.4836 -15.1400 13.6637 -10.1636
# 4 -4.3657 6.2280 -15.1400 32.1683 -3.8140 2.8527
# 5 7.5545 13.5336 13.6637 -3.8140 25.9102 -10.8769
# 6 -9.5994 -7.6613 -10.1636 2.8527 -10.8769 38.7193
#
#
#
# Elastic Compliance Matrix: (Units=1/GPa)
#
#
# Indices 1 2 3 4 5 6 
#
# 1 0.021917 -0.006277 -0.005396 0.001528 0.001221 0.003006
# 2 -0.006277 0.011191 0.000513 -0.003330 -0.004920 -0.000344
# 3 -0.005396 0.000513 0.022113 0.008434 -0.008455 0.001572
# 4 0.001528 -0.003330 0.008434 0.036171 0.002113 -0.000138
# 5 0.001221 -0.004920 -0.008455 0.002113 0.050222 0.011063
# 6 0.003006 -0.000344 0.001572 -0.000138 0.011063 0.030034
#
#
# Mechanical properties :
#
#
# Convention : Reuss Voigt Hill
#
# Bulk Modulus (GPa) = 30.39508 40.91802 35.65655
# Shear Modulus (GPa) = 24.39788 31.05250 27.72519
#
# Velocity S-wave (km/s) = 3.37685 3.80964 3.59975
# Velocity P-wave (km/s) = 5.42312 6.20285 5.82605
#
# Compressibility (1/GPa) = 0.03290006
#
# Stress axis : x y z
#
# Youngs Moduli (GPa) = 45.62725 89.35853 45.22186
#
# Poissons Ratio (x) = 0.56090 0.24403
# Poissons Ratio (y) = 0.28640 -0.02320
# Poissons Ratio (z) = 0.24622 -0.04584
#
# Static dielectric constant tensor:
#      x y z
#    x 3.806320 -0.126100 -0.193430 
#    y -0.126100 3.900990 -0.050520 
#    z -0.193430 -0.050520 3.767640 
# 
# 
# High freq. dielectric constant tensor:
#      x y z
#    x 1.822440 -0.005590 -0.017650 
#    y -0.005590 1.848410 -0.002540 
#    z -0.017650 -0.002540 1.830990 
# 
# From -- ./inp_files/493012.got.cif
#   From: 2010.06.25/outbox.cif.g09.slc.cpg/sg2_247_cif.got.tgz:493012.got - 2010.06.27 13:26:56.
