data_PCOD8009933
_publ_section_title
;
Structure prediction by ZEFSAII (Michael W. Deem and Ramdas Pophale) SiO2 
 PCOD8009933
Probable space group: P -1
;
_chemical_formula_sum "Si O2"
_cell_formula_units_Z 16
_cell_length_a 11.252862
_cell_length_b 9.648175
_cell_length_c 9.769065
_cell_angle_alpha 44.680106
_cell_angle_beta 85.018600
_cell_angle_gamma 77.913790
_cell_volume 726.268362
_symmetry_space_group_name_H-M "P -1"
_symmetry_group_IT_number 2
_symmetry_cell_setting 'triclinic'
loop_
_space_group_symop_operation_xyz
x,y,z
-x,-y,-z
loop_
_atom_site_type_symbol
_atom_site_label
_atom_site_fract_x
_atom_site_fract_y
_atom_site_fract_z
Si Si1 0.222420 0.739356 0.485793
Si Si2 0.789487 0.408633 0.704334
Si Si3 0.954215 0.798173 0.111565
Si Si4 0.369790 0.735913 0.954756
Si Si5 0.170558 0.203887 0.158157
Si Si6 0.363837 0.469451 0.881065
Si Si7 0.776520 0.839279 0.338495
Si Si8 0.967897 0.808617 0.567229
O O1 0.237554 0.711761 0.341622
O O2 0.096051 0.676679 0.591730
O O3 0.228990 0.970527 0.353647
O O4 0.329415 0.586850 0.660207
O O5 0.934970 0.388906 0.730151
O O6 0.733913 0.319018 0.901698
O O7 0.728931 0.644115 0.530828
O O8 0.832893 0.792448 0.214229
O O9 0.923255 0.788482 0.962316
O O10 0.000000 0.000000 0.000000
O O11 0.363573 0.637575 0.877338
O O12 0.502195 0.667552 0.056921
O O13 0.340285 0.977876 0.774848
O O14 0.275206 0.323039 0.033080
O O15 0.096127 0.305081 0.229805
O O16 0.880450 0.887057 0.394103
O O17 0.000000 0.000000 0.500000
#
# Coordination Sequence:
#
# PCOD8009933 Si02
#       8
#     2   2   2   2   2   2   2   2
#     4  11  23  42  64 100 138 162 214 276 328 387
#     4  12  25  41  68 102 131 177 214 266 335 394
#     4  12  21  41  69  99 142 167 209 271 334 395
#     4  11  26  48  67  92 131 179 226 272 317 382
#     4  11  23  41  67 100 132 174 213 271 331 388
#     4  11  27  46  68  94 129 178 229 269 318 386
#     4  12  23  42  66  96 133 174 216 267 333 393
#     4  10  21  37  62  97 131 168 205 269 337 381
#
# _framework density 22.030425000000001
#
# number of rings (size 3 to 8) (size 9 to 14) (size 15 to 20)
#    0.000    0.750    3.750    4.125    3.500    2.000 
#    0.000    7.500    0.000    0.000    0.000    0.000 
#    0.000    0.000    0.000    0.000    0.000    0.000 
#
# Total GULP energy -198479.786758 kJ/mol
# GULP energy per Si atom -12404.986672 kJ/mol
# Density = 2.198028 g / cm^3
# Si number density = 22.030425 Si / 1000 Ang^3
#
#
#
# Elastic Constant Matrix: (Units=GPa)
#
#
# Indices 1 2 3 4 5 6 
#
# 1 65.4517 11.6502 24.2653 -5.9589 22.1836 -10.4814
# 2 11.6502 56.0308 24.3062 -7.0693 12.7426 -23.8070
# 3 24.2653 24.3062 101.5334 -9.9583 22.6172 -10.4339
# 4 -5.9589 -7.0693 -9.9583 46.3705 1.4756 0.6499
# 5 22.1836 12.7426 22.6172 1.4756 39.2265 -8.3825
# 6 -10.4814 -23.8070 -10.4339 0.6499 -8.3825 26.0103
#
#
#
# Elastic Compliance Matrix: (Units=1/GPa)
#
#
# Indices 1 2 3 4 5 6 
#
# 1 0.020194 0.001668 -0.002267 0.002588 -0.009553 0.005611
# 2 0.001668 0.032136 -0.004169 0.003942 -0.003304 0.027250
# 3 -0.002267 -0.004169 0.012546 0.001944 -0.004957 -0.001343
# 4 0.002588 0.003942 0.001944 0.022992 -0.003965 0.003578
# 5 -0.009553 -0.003304 -0.004957 -0.003965 0.035552 0.002694
# 6 0.005611 0.027250 -0.001343 0.003578 0.002694 0.065890
#
#
# Mechanical properties :
#
#
# Convention : Reuss Voigt Hill
#
# Bulk Modulus (GPa) = 18.07006 38.16217 28.11612
# Shear Modulus (GPa) = 23.01045 33.17441 28.09243
#
# Velocity S-wave (km/s) = 3.23536 3.88473 3.57482
# Velocity P-wave (km/s) = 4.70923 6.12222 5.46161
#
# Compressibility (1/GPa) = 0.05534015
#
# Stress axis : x y z
#
# Youngs Moduli (GPa) = 49.51946 31.11768 79.70864
#
# Poissons Ratio (x) = -0.05190 0.18069
# Poissons Ratio (y) = -0.08259 0.33229
# Poissons Ratio (z) = 0.11226 0.12972
#
# Static dielectric constant tensor:
#      x y z
#    x 3.981010 -0.212690 0.002130 
#    y -0.212690 4.373080 0.103320 
#    z 0.002130 0.103320 4.186650 
# 
# 
# High freq. dielectric constant tensor:
#      x y z
#    x 1.841360 0.001540 0.002810 
#    y 0.001540 1.879310 0.003740 
#    z 0.002810 0.003740 1.881540 
# 
# From -- ./inp_files/242058.got.cif
#   From: 2010.06.25/outbox.cif.g09.slc.cpg/sg2_122_cif.got.tgz:242058.got - 2010.06.27 13:26:56.
