data_PCOD8009889
_publ_section_title
;
Structure prediction by ZEFSAII (Michael W. Deem and Ramdas Pophale) SiO2 
 PCOD8009889
Probable space group: P -1
;
_chemical_formula_sum "Si O2"
_cell_formula_units_Z 12
_cell_length_a 8.770513
_cell_length_b 15.702059
_cell_length_c 15.844431
_cell_angle_alpha 151.548362
_cell_angle_beta 45.009253
_cell_angle_gamma 146.171513
_cell_volume 576.473139
_symmetry_space_group_name_H-M "P -1"
_symmetry_group_IT_number 2
_symmetry_cell_setting 'triclinic'
loop_
_space_group_symop_operation_xyz
x,y,z
-x,-y,-z
loop_
_atom_site_type_symbol
_atom_site_label
_atom_site_fract_x
_atom_site_fract_y
_atom_site_fract_z
Si Si1 0.809302 0.086491 0.946946
Si Si2 0.629759 0.430584 0.133506
Si Si3 0.109981 0.360530 0.225735
Si Si4 0.609141 0.607618 0.641734
Si Si5 0.653053 0.276041 0.429301
Si Si6 0.871656 0.174708 0.807248
O O1 0.924240 0.169487 0.880529
O O2 0.820088 0.882465 0.789972
O O3 0.012753 0.303202 0.116893
O O4 0.500000 0.000000 0.000000
O O5 0.316792 0.303127 0.113736
O O6 0.638829 0.456547 0.254410
O O7 0.836499 0.680787 0.228291
O O8 0.718171 0.280694 0.940202
O O9 0.268730 0.629648 0.422409
O O10 0.832641 0.206997 0.259044
O O11 0.500000 0.500000 0.500000
O O12 0.746274 0.502818 0.537802
O O13 0.328494 0.078680 0.374374
#
# Coordination Sequence:
#
# PCOD8009889 Si02
#       6
#     2   2   2   2   2   2
#     4  12  21  39  65  89 119 161 208 248 294 358
#     4  10  24  39  64  90 125 160 202 243 310 359
#     4  10  22  38  61  91 121 159 203 253 292 360
#     4  11  20  36  62  94 115 157 205 248 292 360
#     4  10  21  37  62  91 121 157 203 249 301 353
#     4  11  22  42  64  90 124 163 196 250 305 362
#
# _framework density 20.816233
#
# number of rings (size 3 to 8) (size 9 to 14) (size 15 to 20)
#    0.000    1.333    5.000    0.000    0.000   10.667 
#    0.000    0.000    0.000    3.000    0.000    0.000 
#    0.000    0.000    0.000    0.000    0.000    0.000 
#
# Total GULP energy -148683.412197 kJ/mol
# GULP energy per Si atom -12390.284350 kJ/mol
# Density = 2.076885 g / cm^3
# Si number density = 20.816233 Si / 1000 Ang^3
#
#
#
# Elastic Constant Matrix: (Units=GPa)
#
#
# Indices 1 2 3 4 5 6 
#
# 1 91.3555 39.8571 46.1284 7.8970 23.0035 5.5519
# 2 39.8571 98.0360 28.8467 2.9610 12.3211 -17.2734
# 3 46.1284 28.8467 90.4770 3.6342 31.4611 -1.2148
# 4 7.8970 2.9610 3.6342 27.5449 -0.5252 0.0564
# 5 23.0035 12.3211 31.4611 -0.5252 60.7651 -6.7889
# 6 5.5519 -17.2734 -1.2148 0.0564 -6.7889 22.8801
#
#
#
# Elastic Compliance Matrix: (Units=1/GPa)
#
#
# Indices 1 2 3 4 5 6 
#
# 1 0.019407 -0.007579 -0.006075 -0.004000 -0.004033 -0.011940
# 2 -0.007579 0.016095 -0.001867 0.000701 0.002203 0.014543
# 3 -0.006075 -0.001867 0.016895 -0.000402 -0.006169 -0.000867
# 4 -0.004000 0.000701 -0.000402 0.037465 0.002130 0.002018
# 5 -0.004033 0.002203 -0.006169 0.002130 0.021728 0.008756
# 6 -0.011940 0.014543 -0.000867 0.002018 0.008756 0.060129
#
#
# Mechanical properties :
#
#
# Convention : Reuss Voigt Hill
#
# Bulk Modulus (GPa) = 46.82518 56.61477 51.71997
# Shear Modulus (GPa) = 23.82313 33.24043 28.53178
#
# Velocity S-wave (km/s) = 3.38664 4.00040 3.70625
# Velocity P-wave (km/s) = 6.15108 6.97094 6.57381
#
# Compressibility (1/GPa) = 0.02135603
#
# Stress axis : x y z
#
# Youngs Moduli (GPa) = 51.52665 62.13099 59.18955
#
# Poissons Ratio (x) = 0.47087 0.35961
# Poissons Ratio (y) = 0.39050 0.11048
# Poissons Ratio (z) = 0.31305 0.11597
#
# Static dielectric constant tensor:
#      x y z
#    x 3.847260 -0.033320 0.061820 
#    y -0.033320 3.760520 -0.014520 
#    z 0.061820 -0.014520 4.026860 
# 
# 
# High freq. dielectric constant tensor:
#      x y z
#    x 1.807550 0.004540 0.004840 
#    y 0.004540 1.784960 -0.005760 
#    z 0.004840 -0.005760 1.831950 
# 
# From -- ./inp_files/151248.got.cif
#   From: 2010.06.25/outbox.cif.g09.slc.cpg/sg2_76_cif.got.tgz:151248.got - 2010.06.27 13:26:56.
