data_PCOD8009965
_publ_section_title
;
Structure prediction by ZEFSAII (Michael W. Deem and Ramdas Pophale) SiO2 
 PCOD8009965
Probable space group: P -1
;
_chemical_formula_sum "Si O2"
_cell_formula_units_Z 16
_cell_length_a 24.071395
_cell_length_b 10.751616
_cell_length_c 23.939743
_cell_angle_alpha 33.471381
_cell_angle_beta 168.311608
_cell_angle_gamma 145.435024
_cell_volume 691.048103
_symmetry_space_group_name_H-M "P -1"
_symmetry_group_IT_number 2
_symmetry_cell_setting 'triclinic'
loop_
_space_group_symop_operation_xyz
x,y,z
-x,-y,-z
loop_
_atom_site_type_symbol
_atom_site_label
_atom_site_fract_x
_atom_site_fract_y
_atom_site_fract_z
Si Si1 0.012603 0.666103 0.686544
Si Si2 0.769011 0.231467 0.865038
Si Si3 0.755587 0.675317 0.628626
Si Si4 0.504993 0.731572 0.953290
Si Si5 0.957462 0.836383 0.071317
Si Si6 0.556924 0.622866 0.171975
Si Si7 0.425496 0.863879 0.599112
Si Si8 0.007004 0.030093 0.342847
O O1 0.948497 0.421824 0.745866
O O2 0.757227 0.747790 0.368023
O O3 0.078826 0.860738 0.724024
O O4 0.251594 0.646108 0.884386
O O5 0.834704 0.415703 0.811748
O O6 0.571407 0.326054 0.683376
O O7 0.586577 0.021776 0.742032
O O8 0.059121 0.173163 0.200444
O O9 0.839004 0.766016 0.616077
O O10 0.595544 0.709526 0.114921
O O11 0.500000 0.500000 0.000000
O O12 0.734650 0.918030 0.085809
O O13 0.206184 0.826141 0.621615
O O14 0.141912 0.950307 0.261442
O O15 0.633395 0.823382 0.768115
O O16 0.000000 0.000000 0.000000
O O17 0.644648 0.366181 0.350866
#
# Coordination Sequence:
#
# PCOD8009965 Si02
#       8
#     2   2   2   2   2   2   2   2
#     4  10  23  43  66  99 130 172 221 259 331 386
#     4  10  21  41  61  93 128 176 215 251 323 390
#     4  10  23  39  62  93 131 167 215 264 315 388
#     4  12  28  47  68 101 127 172 221 272 343 386
#     4  10  21  38  59  96 131 166 212 261 315 378
#     4  10  23  43  67  93 132 170 220 271 313 397
#     4  10  21  37  63  91 121 176 209 257 326 374
#     4  12  26  44  69 100 132 171 215 283 330 379
#
# _framework density 23.153237000000001
#
# number of rings (size 3 to 8) (size 9 to 14) (size 15 to 20)
#    0.000    1.500    0.000    3.750    5.250    3.000 
#    2.250    0.000    0.000    0.000    0.000    0.000 
#    0.000    0.000    0.000    0.000    0.000    0.000 
#
# Total GULP energy -198335.267727 kJ/mol
# GULP energy per Si atom -12395.954233 kJ/mol
# Density = 2.310054 g / cm^3
# Si number density = 23.153237 Si / 1000 Ang^3
#
#
#
# Elastic Constant Matrix: (Units=GPa)
#
#
# Indices 1 2 3 4 5 6 
#
# 1 69.0039 23.3866 0.1962 -6.7635 -1.5944 6.4983
# 2 23.3866 60.3069 7.8886 12.0363 1.3782 -11.1095
# 3 0.1962 7.8886 87.1824 12.6899 -8.1142 4.5720
# 4 -6.7635 12.0363 12.6899 37.2909 0.1187 -4.9540
# 5 -1.5944 1.3782 -8.1142 0.1187 25.0044 8.2328
# 6 6.4983 -11.1095 4.5720 -4.9540 8.2328 42.1468
#
#
#
# Elastic Compliance Matrix: (Units=1/GPa)
#
#
# Indices 1 2 3 4 5 6 
#
# 1 0.018926 -0.009659 0.000668 0.005564 0.003780 -0.005621
# 2 -0.009659 0.023709 -0.001910 -0.007668 -0.005157 0.008052
# 3 0.000668 -0.001910 0.012952 -0.004164 0.005551 -0.003585
# 4 0.005564 -0.007668 -0.004164 0.031930 -0.001242 0.001568
# 5 0.003780 -0.005157 0.005551 -0.001242 0.046181 -0.011711
# 6 -0.005621 0.008052 -0.003585 0.001568 -0.011711 0.029576
#
#
# Mechanical properties :
#
#
# Convention : Reuss Voigt Hill
#
# Bulk Modulus (GPa) = 29.59807 31.04844 30.32326
# Shear Modulus (GPa) = 25.46636 33.22322 29.34479
#
# Velocity S-wave (km/s) = 3.32008 3.79215 3.56394
# Velocity P-wave (km/s) = 5.24486 5.71078 5.48277
#
# Compressibility (1/GPa) = 0.03378598
#
# Stress axis : x y z
#
# Youngs Moduli (GPa) = 52.83829 42.17815 77.20663
#
# Poissons Ratio (x) = 0.40740 -0.05158
# Poissons Ratio (y) = 0.51036 0.14743
# Poissons Ratio (z) = -0.03530 0.08054
#
# Static dielectric constant tensor:
#      x y z
#    x 3.869690 0.111990 0.023420 
#    y 0.111990 4.194430 0.073880 
#    z 0.023420 0.073880 4.487560 
# 
# 
# High freq. dielectric constant tensor:
#      x y z
#    x 1.893860 0.010620 0.000080 
#    y 0.010620 1.920370 0.010750 
#    z 0.000080 0.010750 1.931850 
# 
# From -- ./inp_files/621250.got.cif
#   From: 2010.06.25/outbox.cif.g09.slc.cpg/sg2_311_cif.got.tgz:621250.got - 2010.06.27 13:26:56.
