data_PCOD8009711
_publ_section_title
;
Structure prediction by ZEFSAII (Michael W. Deem and Ramdas Pophale) SiO2 
 PCOD8009711
Probable space group: P -1
;
_chemical_formula_sum "Si O2"
_cell_formula_units_Z 16
_cell_length_a 21.876617
_cell_length_b 18.759760
_cell_length_c 8.427086
_cell_angle_alpha 47.621039
_cell_angle_beta 36.211828
_cell_angle_gamma 23.243647
_cell_volume 771.975899
_symmetry_space_group_name_H-M "P -1"
_symmetry_group_IT_number 2
_symmetry_cell_setting 'triclinic'
loop_
_space_group_symop_operation_xyz
x,y,z
-x,-y,-z
loop_
_atom_site_type_symbol
_atom_site_label
_atom_site_fract_x
_atom_site_fract_y
_atom_site_fract_z
Si Si1 0.292377 0.814592 0.234518
Si Si2 0.093968 0.570738 0.717055
Si Si3 0.655596 0.918487 0.617827
Si Si4 0.824889 0.889154 0.040646
Si Si5 0.792363 0.700998 0.935985
Si Si6 0.729536 0.417170 0.873526
Si Si7 0.100884 0.901261 0.185819
Si Si8 0.074394 0.131664 0.819185
O O1 0.213094 0.821063 0.237895
O O2 0.326000 0.902111 0.999948
O O3 0.508386 0.592483 0.154266
O O4 0.137345 0.927817 0.537027
O O5 0.190885 0.425731 0.868373
O O6 0.268703 0.497043 0.386950
O O7 0.934029 0.770821 0.830491
O O8 0.983957 0.599163 0.766400
O O9 0.726717 0.961238 0.494517
O O10 0.417487 0.089684 0.867824
O O11 0.779065 0.732124 0.726638
O O12 0.711511 0.886742 0.361409
O O13 0.981467 0.807130 0.968224
O O14 0.789387 0.269531 0.886785
O O15 0.889091 0.316053 0.826393
O O16 0.120879 0.981806 0.916384
#
# Coordination Sequence:
#
# PCOD8009711 Si02
#       8
#     2   2   2   2   2   2   2   2
#     4  10  21  37  61  88 121 153 195 243 283 348
#     4  11  21  35  60  91 113 151 203 243 286 348
#     4   9  19  40  56  79 116 158 185 242 300 334
#     4   9  19  39  57  81 121 154 188 245 290 340
#     4  10  21  37  60  83 116 154 198 245 288 353
#     4  12  21  38  63  90 119 154 197 239 292 343
#     4  10  21  39  59  88 121 156 193 234 296 349
#     4   9  21  39  58  83 121 155 190 245 286 351
#
# _framework density 20.726035
#
# number of rings (size 3 to 8) (size 9 to 14) (size 15 to 20)
#    0.750    1.250    2.500    1.500    0.000    1.500 
#    0.000    3.750    0.000    0.000    0.000    0.000 
#    0.000    0.000    0.000    0.000    0.000    0.000 
#
# Total GULP energy -198245.657655 kJ/mol
# GULP energy per Si atom -12390.353603 kJ/mol
# Density = 2.067886 g / cm^3
# Si number density = 20.726035 Si / 1000 Ang^3
#
#
#
# Elastic Constant Matrix: (Units=GPa)
#
#
# Indices 1 2 3 4 5 6 
#
# 1 21.7047 12.3661 -7.7779 2.6090 -1.0700 7.9415
# 2 12.3661 97.5950 29.6187 -2.8652 -4.9517 6.6298
# 3 -7.7779 29.6187 60.3115 -5.0281 -9.1419 1.2788
# 4 2.6090 -2.8652 -5.0281 38.0379 4.9131 -0.1360
# 5 -1.0700 -4.9517 -9.1419 4.9131 21.7981 3.6432
# 6 7.9415 6.6298 1.2788 -0.1360 3.6432 23.2166
#
#
#
# Elastic Compliance Matrix: (Units=1/GPa)
#
#
# Indices 1 2 3 4 5 6 
#
# 1 0.068194 -0.011588 0.016457 -0.005084 0.012595 -0.022930
# 2 -0.011588 0.014256 -0.008621 0.000891 -0.001242 0.000568
# 3 0.016457 -0.008621 0.024619 0.000141 0.010165 -0.006118
# 4 -0.005084 0.000891 0.000141 0.027593 -0.006655 0.002683
# 5 0.012595 -0.001242 0.010165 -0.006655 0.054156 -0.013051
# 6 -0.022930 0.000568 -0.006118 0.002683 -0.013051 0.053155
#
#
# Mechanical properties :
#
#
# Convention : Reuss Voigt Hill
#
# Bulk Modulus (GPa) = 10.04377 27.55832 18.80105
# Shear Modulus (GPa) = 17.68878 26.30414 21.99646
#
# Velocity S-wave (km/s) = 2.92457 3.56636 3.26129
# Velocity P-wave (km/s) = 4.03245 5.50308 4.82413
#
# Compressibility (1/GPa) = 0.09956418
#
# Stress axis : x y z
#
# Youngs Moduli (GPa) = 14.66404 70.14749 40.61910
#
# Poissons Ratio (x) = 0.81284 -0.66845
# Poissons Ratio (y) = 0.16992 0.35019
# Poissons Ratio (z) = -0.24132 0.60476
#
# Static dielectric constant tensor:
#      x y z
#    x 3.415630 -0.067060 -0.086010 
#    y -0.067060 3.727350 -0.338530 
#    z -0.086010 -0.338530 3.813690 
# 
# 
# High freq. dielectric constant tensor:
#      x y z
#    x 1.783550 -0.005840 -0.008650 
#    y -0.005840 1.807590 -0.023590 
#    z -0.008650 -0.023590 1.807070 
# 
# From -- ./inp_files/355168.got.cif
#   From: 2010.06.25/outbox.cif.g09.slc.cpg/sg2_178_cif.got.tgz:355168.got - 2010.06.27 13:26:56.
