data_PCOD8009464
_publ_section_title
;
Structure prediction by ZEFSAII (Michael W. Deem and Ramdas Pophale) SiO2 
 PCOD8009464
Probable space group: P -1
;
_chemical_formula_sum "Si O2"
_cell_formula_units_Z 14
_cell_length_a 8.979584
_cell_length_b 8.750268
_cell_length_c 10.588670
_cell_angle_alpha 83.011686
_cell_angle_beta 52.973590
_cell_angle_gamma 85.849807
_cell_volume 659.292264
_symmetry_space_group_name_H-M "P -1"
_symmetry_group_IT_number 2
_symmetry_cell_setting 'triclinic'
loop_
_space_group_symop_operation_xyz
x,y,z
-x,-y,-z
loop_
_atom_site_type_symbol
_atom_site_label
_atom_site_fract_x
_atom_site_fract_y
_atom_site_fract_z
Si Si1 0.952937 0.152427 0.133446
Si Si2 0.928349 0.106472 0.707294
Si Si3 0.302561 0.817024 0.958952
Si Si4 0.307039 0.258046 0.797186
Si Si5 0.392665 0.967807 0.293975
Si Si6 0.688281 0.811666 0.476101
Si Si7 0.350038 0.614748 0.739602
O O1 0.842470 0.086633 0.070157
O O2 0.817295 0.285709 0.248618
O O3 0.989405 0.035150 0.239434
O O4 0.146433 0.230148 0.983825
O O5 0.104563 0.212535 0.565211
O O6 0.818650 0.047002 0.646178
O O7 0.785958 0.205516 0.856172
O O8 0.493267 0.913167 0.864878
O O9 0.342359 0.650467 0.891694
O O10 0.269256 0.164849 0.696121
O O11 0.321631 0.437861 0.742424
O O12 0.507081 0.197592 0.749810
O O13 0.396056 0.035012 0.429043
O O14 0.552555 0.666519 0.579080
#
# Coordination Sequence:
#
# PCOD8009464 Si02
#       7
#     2   2   2   2   2   2   2
#     4  10  21  36  65  87 114 147 200 241 286 334
#     4  12  21  38  62  91 118 149 195 245 290 337
#     4   9  19  38  60  88 111 150 197 238 281 339
#     4  12  21  40  63  86 119 151 196 243 287 344
#     4  11  24  36  61  91 117 153 194 241 292 339
#     4  11  23  40  61  84 119 158 196 240 279 351
#     4   9  23  38  61  89 114 152 200 234 292 342
#
# _framework density 21.234893
#
# number of rings (size 3 to 8) (size 9 to 14) (size 15 to 20)
#    0.857    0.571    2.857    3.429    2.000    0.000 
#    0.000    1.429    6.286    0.000    0.000    0.000 
#    0.000    0.000    0.000    0.000    0.000    0.000 
#
# Total GULP energy -173482.093841 kJ/mol
# GULP energy per Si atom -12391.578131 kJ/mol
# Density = 2.118656 g / cm^3
# Si number density = 21.234893 Si / 1000 Ang^3
#
#
#
# Elastic Constant Matrix: (Units=GPa)
#
#
# Indices 1 2 3 4 5 6 
#
# 1 108.7902 37.7230 25.1023 -5.0979 -23.9716 6.0905
# 2 37.7230 66.9200 32.1068 7.0091 -4.8630 2.8381
# 3 25.1023 32.1068 94.4191 4.5992 -28.4237 5.8497
# 4 -5.0979 7.0091 4.5992 21.7062 5.1571 -1.0277
# 5 -23.9716 -4.8630 -28.4237 5.1571 40.1810 0.7381
# 6 6.0905 2.8381 5.8497 -1.0277 0.7381 12.1684
#
#
#
# Elastic Compliance Matrix: (Units=1/GPa)
#
#
# Indices 1 2 3 4 5 6 
#
# 1 0.013948 -0.008206 0.001801 0.003282 0.008294 -0.006159
# 2 -0.008206 0.023271 -0.007586 -0.006138 -0.006699 0.002215
# 3 0.001801 -0.007586 0.017414 -0.004362 0.013194 -0.008672
# 4 0.003282 -0.006138 -0.004362 0.052133 -0.008687 0.006816
# 5 0.008294 -0.006699 0.013194 -0.008687 0.039694 -0.012073
# 6 -0.006159 0.002215 -0.008672 0.006816 -0.012073 0.090223
#
#
# Mechanical properties :
#
#
# Convention : Reuss Voigt Hill
#
# Bulk Modulus (GPa) = 37.52514 51.11040 44.31777
# Shear Modulus (GPa) = 18.27816 26.49093 22.38455
#
# Velocity S-wave (km/s) = 2.93706 3.53586 3.25027
# Velocity P-wave (km/s) = 5.40477 6.38678 5.91619
#
# Compressibility (1/GPa) = 0.02664880
#
# Stress axis : x y z
#
# Youngs Moduli (GPa) = 71.69368 42.97171 57.42671
#
# Poissons Ratio (x) = 0.35265 -0.10341
# Poissons Ratio (y) = 0.58835 0.43566
# Poissons Ratio (z) = -0.12910 0.32600
#
# Static dielectric constant tensor:
#      x y z
#    x 3.701410 0.111500 -0.362270 
#    y 0.111500 3.393480 0.272180 
#    z -0.362270 0.272180 4.096180 
# 
# 
# High freq. dielectric constant tensor:
#      x y z
#    x 1.815590 0.018590 -0.027410 
#    y 0.018590 1.793350 0.022520 
#    z -0.027410 0.022520 1.850820 
# 
# From -- ./inp_files/238144.got.cif
#   From: 2010.06.25/outbox.cif.g09.slc.cpg/sg2_120_cif.got.tgz:238144.got - 2010.06.27 13:26:56.
