data_PCOD8009809
_publ_section_title
;
Structure prediction by ZEFSAII (Michael W. Deem and Ramdas Pophale) SiO2 
 PCOD8009809
Probable space group: P -1
;
_chemical_formula_sum "Si O2"
_cell_formula_units_Z 16
_cell_length_a 12.848226
_cell_length_b 6.422416
_cell_length_c 10.346354
_cell_angle_alpha 110.246876
_cell_angle_beta 63.116512
_cell_angle_gamma 84.539201
_cell_volume 681.359265
_symmetry_space_group_name_H-M "P -1"
_symmetry_group_IT_number 2
_symmetry_cell_setting 'triclinic'
loop_
_space_group_symop_operation_xyz
x,y,z
-x,-y,-z
loop_
_atom_site_type_symbol
_atom_site_label
_atom_site_fract_x
_atom_site_fract_y
_atom_site_fract_z
Si Si1 0.305975 0.871311 0.153314
Si Si2 0.139949 0.337574 0.895117
Si Si3 0.608031 0.287015 0.642195
Si Si4 0.263909 0.366010 0.314555
Si Si5 0.228529 0.822591 0.719217
Si Si6 0.655471 0.460802 0.158512
Si Si7 0.873331 0.573620 0.351388
Si Si8 0.082909 0.763193 0.339926
O O1 0.355823 0.834561 0.264480
O O2 0.169831 0.845469 0.210752
O O3 0.304614 0.128237 0.158070
O O4 0.383558 0.687214 0.966307
O O5 0.232266 0.451261 0.942114
O O6 0.195704 0.309886 0.713101
O O7 0.153318 0.074706 0.874978
O O8 0.000000 0.500000 0.000000
O O9 0.620529 0.549153 0.695768
O O10 0.689936 0.154662 0.446846
O O11 0.465041 0.319323 0.702118
O O12 0.201940 0.286008 0.456923
O O13 0.163697 0.588916 0.361448
O O14 0.312309 0.684270 0.758374
O O15 0.127541 0.696507 0.703780
O O16 0.008264 0.607390 0.278409
O O17 0.000000 0.000000 0.500000
#
# Coordination Sequence:
#
# PCOD8009809 Si02
#       8
#     2   2   2   2   2   2   2   2
#     4  11  23  39  64  96 132 166 208 271 323 373
#     4  11  25  43  62  92 130 172 211 263 323 384
#     4  10  23  44  67  94 126 166 223 268 316 379
#     4  10  22  38  60  96 125 167 214 261 323 376
#     4  10  24  43  67  91 129 171 216 266 316 380
#     4  11  25  43  65  97 128 169 219 262 323 381
#     4  10  21  37  61  89 125 166 216 256 312 376
#     4  11  22  35  60  95 131 167 211 260 313 384
#
# _framework density 23.482472000000001
#
# number of rings (size 3 to 8) (size 9 to 14) (size 15 to 20)
#    0.000    1.500    1.250    2.625    3.500    8.000 
#    0.000    0.000    0.000    0.000    0.000    0.000 
#    0.000    0.000    0.000    0.000    0.000    0.000 
#
# Total GULP energy -198221.050212 kJ/mol
# GULP energy per Si atom -12388.815638 kJ/mol
# Density = 2.342902 g / cm^3
# Si number density = 23.482472 Si / 1000 Ang^3
#
#
#
# Elastic Constant Matrix: (Units=GPa)
#
#
# Indices 1 2 3 4 5 6 
#
# 1 103.6759 37.6679 25.5948 16.8768 -14.4737 2.7651
# 2 37.6679 92.0205 34.8795 27.2225 -3.3102 0.5312
# 3 25.5948 34.8795 65.2087 20.0519 -0.0666 -6.2513
# 4 16.8768 27.2225 20.0519 39.7698 -3.8370 3.4717
# 5 -14.4737 -3.3102 -0.0666 -3.8370 39.2783 -5.6859
# 6 2.7651 0.5312 -6.2513 3.4717 -5.6859 27.1829
#
#
#
# Elastic Compliance Matrix: (Units=1/GPa)
#
#
# Indices 1 2 3 4 5 6 
#
# 1 0.012364 -0.003602 -0.002710 -0.000952 0.004032 -0.000846
# 2 -0.003602 0.016394 -0.005210 -0.007100 -0.000705 -0.000393
# 3 -0.002710 -0.005210 0.021910 -0.006975 -0.001206 0.006055
# 4 -0.000952 -0.007100 -0.006975 0.034557 0.001627 -0.005442
# 5 0.004032 -0.000705 -0.001206 0.001627 0.027756 0.004924
# 6 -0.000846 -0.000393 0.006055 -0.005442 0.004924 0.039999
#
#
# Mechanical properties :
#
#
# Convention : Reuss Voigt Hill
#
# Bulk Modulus (GPa) = 36.20275 50.79883 43.50079
# Shear Modulus (GPa) = 26.99309 32.09706 29.54508
#
# Velocity S-wave (km/s) = 3.39411 3.70111 3.55093
# Velocity P-wave (km/s) = 5.55071 6.32012 5.94787
#
# Compressibility (1/GPa) = 0.02762221
#
# Stress axis : x y z
#
# Youngs Moduli (GPa) = 80.88168 60.99882 45.64068
#
# Poissons Ratio (x) = 0.21973 0.12370
# Poissons Ratio (y) = 0.29135 0.23780
# Poissons Ratio (z) = 0.21922 0.31781
#
# Static dielectric constant tensor:
#      x y z
#    x 4.284730 0.337600 0.251480 
#    y 0.337600 4.299800 -0.031720 
#    z 0.251480 -0.031720 4.194230 
# 
# 
# High freq. dielectric constant tensor:
#      x y z
#    x 1.921310 0.011180 0.009400 
#    y 0.011180 1.929000 0.003010 
#    z 0.009400 0.003010 1.928310 
# 
# From -- ./inp_files/442251.got.cif
#   From: 2010.06.25/outbox.cif.g09.slc.cpg/sg2_222_cif.got.tgz:442251.got - 2010.06.27 13:26:56.
