data_PCOD8009543
_publ_section_title
;
Structure prediction by ZEFSAII (Michael W. Deem and Ramdas Pophale) SiO2 
 PCOD8009543
Probable space group: P -1
;
_chemical_formula_sum "Si O2"
_cell_formula_units_Z 16
_cell_length_a 11.900059
_cell_length_b 11.080615
_cell_length_c 13.242146
_cell_angle_alpha 147.746168
_cell_angle_beta 50.950882
_cell_angle_gamma 121.881612
_cell_volume 723.634072
_symmetry_space_group_name_H-M "P -1"
_symmetry_group_IT_number 2
_symmetry_cell_setting 'triclinic'
loop_
_space_group_symop_operation_xyz
x,y,z
-x,-y,-z
loop_
_atom_site_type_symbol
_atom_site_label
_atom_site_fract_x
_atom_site_fract_y
_atom_site_fract_z
Si Si1 0.068968 0.721457 0.661402
Si Si2 0.812872 0.303485 0.902959
Si Si3 0.091622 0.844257 0.959004
Si Si4 0.308173 0.157922 0.303767
Si Si5 0.421987 0.893166 0.761331
Si Si6 0.462895 0.644672 0.025324
Si Si7 0.634115 0.467452 0.614667
Si Si8 0.122009 0.407327 0.753198
O O1 0.031347 0.746378 0.818452
O O2 0.240985 0.699600 0.531539
O O3 0.000000 0.500000 0.500000
O O4 0.005352 0.942730 0.797803
O O5 0.977685 0.258721 0.741592
O O6 0.765045 0.085390 0.842269
O O7 0.709074 0.331634 0.883071
O O8 0.803761 0.531566 0.138020
O O9 0.257524 0.919530 0.908446
O O10 0.069133 0.650131 0.914716
O O11 0.478230 0.122826 0.206889
O O12 0.294427 0.307573 0.316096
O O13 0.234854 0.283692 0.529484
O O14 0.450492 0.667625 0.519851
O O15 0.466759 0.111007 0.824377
O O16 0.527745 0.528385 0.807136
O O17 0.500000 0.500000 0.000000
#
# Coordination Sequence:
#
# PCOD8009543 Si02
#       8
#     2   2   2   2   2   2   2   2
#     4  10  21  37  56  94 127 167 207 257 313 381
#     4  10  26  40  65  95 131 181 210 263 328 390
#     4  10  22  37  64  94 128 166 211 263 321 371
#     4  11  22  40  68 100 128 162 217 272 323 382
#     4  10  22  40  67  99 126 163 210 277 321 382
#     4  11  26  45  64  93 132 172 219 266 325 394
#     4  11  23  39  67  98 124 170 214 267 327 376
#     4  11  22  43  64  95 135 169 216 269 322 387
#
# _framework density 22.110623
#
# number of rings (size 3 to 8) (size 9 to 14) (size 15 to 20)
#    0.000    1.500    2.500    2.250    5.250    5.500 
#    0.000    5.000    0.000    0.000    0.000    0.000 
#    0.000    0.000    0.000    0.000    0.000    0.000 
#
# Total GULP energy -198421.534299 kJ/mol
# GULP energy per Si atom -12401.345894 kJ/mol
# Density = 2.206030 g / cm^3
# Si number density = 22.110623 Si / 1000 Ang^3
#
#
#
# Elastic Constant Matrix: (Units=GPa)
#
#
# Indices 1 2 3 4 5 6 
#
# 1 89.1259 49.0430 28.8793 9.7039 -6.1202 17.7118
# 2 49.0430 103.3464 19.3526 11.2879 -4.6492 7.2769
# 3 28.8793 19.3526 79.5569 11.0709 -4.0795 9.1181
# 4 9.7039 11.2879 11.0709 32.2204 -0.4349 2.6127
# 5 -6.1202 -4.6492 -4.0795 -0.4349 32.5030 5.3236
# 6 17.7118 7.2769 9.1181 2.6127 5.3236 31.0152
#
#
#
# Elastic Compliance Matrix: (Units=1/GPa)
#
#
# Indices 1 2 3 4 5 6 
#
# 1 0.018313 -0.007169 -0.003653 -0.001041 0.003290 -0.008179
# 2 -0.007169 0.013353 -0.000432 -0.002468 0.000268 0.001250
# 3 -0.003653 -0.000432 0.014822 -0.003652 0.001406 -0.002104
# 4 -0.001041 -0.002468 -0.003652 0.033503 -0.000478 -0.000493
# 5 0.003290 0.000268 0.001406 -0.000478 0.032898 -0.007962
# 6 -0.008179 0.001250 -0.002104 -0.000493 -0.007962 0.038647
#
#
# Mechanical properties :
#
#
# Convention : Reuss Voigt Hill
#
# Bulk Modulus (GPa) = 41.69977 51.84209 46.77093
# Shear Modulus (GPa) = 27.46701 30.79801 29.13251
#
# Velocity S-wave (km/s) = 3.52839 3.73621 3.63379
# Velocity P-wave (km/s) = 5.95818 6.48922 6.22936
#
# Compressibility (1/GPa) = 0.02398095
#
# Stress axis : x y z
#
# Youngs Moduli (GPa) = 54.60533 74.89133 67.46688
#
# Poissons Ratio (x) = 0.53688 0.24645
# Poissons Ratio (y) = 0.39146 0.02913
# Poissons Ratio (z) = 0.19946 0.03234
#
# Static dielectric constant tensor:
#      x y z
#    x 4.241140 0.096930 -0.071950 
#    y 0.096930 3.823220 0.228020 
#    z -0.071950 0.228020 4.127490 
# 
# 
# High freq. dielectric constant tensor:
#      x y z
#    x 1.880460 0.012790 0.002110 
#    y 0.012790 1.847680 0.009890 
#    z 0.002110 0.009890 1.879990 
# 
# From -- ./inp_files/519340.got.cif
#   From: 2010.06.25/outbox.cif.g09.slc.cpg/sg2_260_cif.got.tgz:519340.got - 2010.06.27 13:26:56.
