data_PCOD8009373
_publ_section_title
;
Structure prediction by ZEFSAII (Michael W. Deem and Ramdas Pophale) SiO2 
 PCOD8009373
Probable space group: P -1
;
_chemical_formula_sum "Si O2"
_cell_formula_units_Z 16
_cell_length_a 8.436482
_cell_length_b 11.645720
_cell_length_c 16.008907
_cell_angle_alpha 54.601929
_cell_angle_beta 140.961311
_cell_angle_gamma 110.608906
_cell_volume 792.704519
_symmetry_space_group_name_H-M "P -1"
_symmetry_group_IT_number 2
_symmetry_cell_setting 'triclinic'
loop_
_space_group_symop_operation_xyz
x,y,z
-x,-y,-z
loop_
_atom_site_type_symbol
_atom_site_label
_atom_site_fract_x
_atom_site_fract_y
_atom_site_fract_z
Si Si1 0.140253 0.338973 0.319130
Si Si2 0.451867 0.264933 0.201136
Si Si3 0.096358 0.589196 0.073800
Si Si4 0.433908 0.291688 0.861156
Si Si5 0.124155 0.584004 0.657106
Si Si6 0.097791 0.157460 0.664610
Si Si7 0.561913 0.150891 0.479260
Si Si8 0.711045 0.154214 0.192607
O O1 0.185621 0.479255 0.230155
O O2 0.403574 0.225883 0.461779
O O3 0.093910 0.396013 0.369836
O O4 0.917821 0.258257 0.229529
O O5 0.602375 0.397801 0.197650
O O6 0.495878 0.228432 0.331293
O O7 0.580699 0.151178 0.231968
O O8 0.150559 0.296868 0.043901
O O9 0.323156 0.665467 0.103823
O O10 0.000000 0.500000 0.000000
O O11 0.191192 0.424050 0.714181
O O12 0.337896 0.175593 0.811654
O O13 0.505517 0.216226 0.011180
O O14 0.002237 0.702317 0.490702
O O15 0.857482 0.138439 0.631832
O O16 0.168254 0.012623 0.700264
O O17 0.500000 0.000000 0.500000
#
# Coordination Sequence:
#
# PCOD8009373 Si02
#       8
#     2   2   2   2   2   2   2   2
#     4  11  21  37  66  94 114 150 207 257 292 341
#     4  10  21  36  62  91 117 148 202 254 290 343
#     4  12  19  37  62  91 116 152 207 245 289 345
#     4  12  23  42  62  86 125 164 198 239 302 364
#     4  10  22  39  63  90 120 158 200 249 297 348
#     4  11  25  41  60  89 125 163 194 239 307 368
#     4  11  21  37  61  88 117 154 196 243 296 350
#     4  11  22  39  63  91 122 155 199 251 300 351
#
# _framework density 20.184063999999999
#
# number of rings (size 3 to 8) (size 9 to 14) (size 15 to 20)
#    0.000    1.000    5.000    2.250    1.750    3.500 
#    0.000    4.375    0.000    0.000    0.000    0.000 
#    0.000    0.000    0.000    0.000    0.000    0.000 
#
# Total GULP energy -198266.759783 kJ/mol
# GULP energy per Si atom -12391.672486 kJ/mol
# Density = 2.013812 g / cm^3
# Si number density = 20.184064 Si / 1000 Ang^3
#
#
#
# Elastic Constant Matrix: (Units=GPa)
#
#
# Indices 1 2 3 4 5 6 
#
# 1 117.1108 26.2671 17.9702 5.2560 31.3933 -7.6928
# 2 26.2671 63.4737 17.9705 7.6825 14.6268 -1.0279
# 3 17.9702 17.9705 59.2277 0.1290 17.1125 -2.0932
# 4 5.2560 7.6825 0.1290 35.3739 -0.9807 7.1847
# 5 31.3933 14.6268 17.1125 -0.9807 34.8610 -6.2655
# 6 -7.6928 -1.0279 -2.0932 7.1847 -6.2655 26.0288
#
#
#
# Elastic Compliance Matrix: (Units=1/GPa)
#
#
# Indices 1 2 3 4 5 6 
#
# 1 0.011785 -0.002467 -0.000080 -0.001806 -0.009294 0.001640
# 2 -0.002467 0.019296 -0.003922 -0.003884 -0.004094 -0.000196
# 3 -0.000080 -0.003922 0.020517 0.000709 -0.008471 -0.000763
# 4 -0.001806 -0.003884 0.000709 0.031209 0.002220 -0.008710
# 5 -0.009294 -0.004094 -0.008471 0.002220 0.044148 0.006425
# 6 0.001640 -0.000196 -0.000763 -0.008710 0.006425 0.042785
#
#
# Mechanical properties :
#
#
# Convention : Reuss Voigt Hill
#
# Bulk Modulus (GPa) = 25.86640 40.46977 33.16808
# Shear Modulus (GPa) = 25.56686 31.09303 28.32994
#
# Velocity S-wave (km/s) = 3.56291 3.92915 3.75050
# Velocity P-wave (km/s) = 5.45609 6.37794 5.93494
#
# Compressibility (1/GPa) = 0.03866020
#
# Stress axis : x y z
#
# Youngs Moduli (GPa) = 84.85505 51.82381 48.73951
#
# Poissons Ratio (x) = 0.12787 0.00389
# Poissons Ratio (y) = 0.20938 0.19115
# Poissons Ratio (z) = 0.00676 0.20324
#
# Static dielectric constant tensor:
#      x y z
#    x 3.766390 -0.000690 0.474960 
#    y -0.000690 3.581380 -0.041800 
#    z 0.474960 -0.041800 3.741370 
# 
# 
# High freq. dielectric constant tensor:
#      x y z
#    x 1.800690 0.000530 0.014220 
#    y 0.000530 1.775520 -0.014800 
#    z 0.014220 -0.014800 1.778610 
# 
# From -- ./inp_files/259495.got.cif
#   From: 2010.06.25/outbox.cif.g09.slc.cpg/sg2_130_cif.got.tgz:259495.got - 2010.06.27 13:26:56.
