data_PCOD8009039
_publ_section_title
;
Structure prediction by ZEFSAII (Michael W. Deem and Ramdas Pophale) SiO2 
 PCOD8009039
Probable space group: P -1
;
_chemical_formula_sum "Si O2"
_cell_formula_units_Z 16
_cell_length_a 14.606320
_cell_length_b 10.782028
_cell_length_c 8.851621
_cell_angle_alpha 88.267108
_cell_angle_beta 51.838055
_cell_angle_gamma 53.261364
_cell_volume 740.074760
_symmetry_space_group_name_H-M "P -1"
_symmetry_group_IT_number 2
_symmetry_cell_setting 'triclinic'
loop_
_space_group_symop_operation_xyz
x,y,z
-x,-y,-z
loop_
_atom_site_type_symbol
_atom_site_label
_atom_site_fract_x
_atom_site_fract_y
_atom_site_fract_z
Si Si1 0.432198 0.485699 0.213860
Si Si2 0.846922 0.476830 0.597585
Si Si3 0.859818 0.138015 0.326264
Si Si4 0.604074 0.302923 0.336817
Si Si5 0.458147 0.916231 0.649393
Si Si6 0.111153 0.121000 0.496332
Si Si7 0.350129 0.144681 0.264658
Si Si8 0.109767 0.142673 0.160996
O O1 0.338065 0.436915 0.254825
O O2 0.299937 0.679675 0.426687
O O3 0.595512 0.321506 0.162011
O O4 0.500000 0.500000 0.000000
O O5 0.804615 0.655002 0.666734
O O6 0.932824 0.341352 0.660581
O O7 0.974296 0.360151 0.326783
O O8 0.795954 0.157179 0.219285
O O9 0.018915 0.107280 0.155598
O O10 0.922079 0.966967 0.356742
O O11 0.500000 0.500000 0.500000
O O12 0.519791 0.232133 0.458106
O O13 0.590597 0.820635 0.655711
O O14 0.500000 0.000000 0.500000
O O15 0.265276 0.075596 0.907872
O O16 0.266903 0.080973 0.407108
O O17 0.165245 0.039957 0.271701
O O18 0.500000 0.000000 0.000000
#
# Coordination Sequence:
#
# PCOD8009039 Si02
#       8
#     2   2   2   2   2   2   2   2
#     4  10  21  35  67  98 129 174 221 277 336 397
#     4   9  21  39  61  97 134 168 215 282 336 386
#     4  10  21  40  67  94 133 179 219 273 347 405
#     4  10  23  44  64  98 144 176 227 289 338 407
#     4  12  25  44  69  97 135 185 230 283 348 412
#     4  10  21  37  65  99 131 169 225 276 335 407
#     4  12  22  40  69  98 133 178 223 282 339 401
#     4   9  22  41  67  95 136 172 227 283 336 400
#
# _framework density 21.619437000000001
#
# number of rings (size 3 to 8) (size 9 to 14) (size 15 to 20)
#    0.750    1.000    2.500    1.500    3.500    0.500 
#    0.000    1.875    2.750    0.000    0.000    0.000 
#    0.000    0.000    0.000    0.000    0.000    0.000 
#
# Total GULP energy -198231.452209 kJ/mol
# GULP energy per Si atom -12389.465763 kJ/mol
# Density = 2.157023 g / cm^3
# Si number density = 21.619437 Si / 1000 Ang^3
#
#
#
# Elastic Constant Matrix: (Units=GPa)
#
#
# Indices 1 2 3 4 5 6 
#
# 1 135.1345 34.8658 21.3490 -6.5051 -18.6307 -7.4795
# 2 34.8658 124.7336 40.1019 -12.6987 -5.6290 4.3648
# 3 21.3490 40.1019 87.9983 -11.4125 -10.9162 -1.7292
# 4 -6.5051 -12.6987 -11.4125 27.2993 3.0899 6.9151
# 5 -18.6307 -5.6290 -10.9162 3.0899 25.3546 4.2432
# 6 -7.4795 4.3648 -1.7292 6.9151 4.2432 42.3179
#
#
#
# Elastic Compliance Matrix: (Units=1/GPa)
#
#
# Indices 1 2 3 4 5 6 
#
# 1 0.008864 -0.002117 -0.000463 -0.000009 0.005644 0.001202
# 2 -0.002117 0.010213 -0.003886 0.003248 -0.001020 -0.002015
# 3 -0.000463 -0.003886 0.014269 0.003569 0.004528 -0.000135
# 4 -0.000009 0.003248 0.003569 0.041546 -0.001672 -0.006812
# 5 0.005644 -0.001020 0.004528 -0.001672 0.046026 -0.003054
# 6 0.001202 -0.002015 -0.000135 -0.006812 -0.003054 0.025465
#
#
# Mechanical properties :
#
#
# Convention : Reuss Voigt Hill
#
# Bulk Modulus (GPa) = 48.98548 60.05552 54.52050
# Shear Modulus (GPa) = 30.09902 35.76432 32.93167
#
# Velocity S-wave (km/s) = 3.73529 4.07168 3.90711
# Velocity P-wave (km/s) = 6.42732 7.06708 6.75478
#
# Compressibility (1/GPa) = 0.02041421
#
# Stress axis : x y z
#
# Youngs Moduli (GPa) = 112.82191 97.91287 70.08279
#
# Poissons Ratio (x) = 0.20728 0.03246
# Poissons Ratio (y) = 0.23884 0.27231
# Poissons Ratio (z) = 0.05225 0.38044
#
# Static dielectric constant tensor:
#      x y z
#    x 4.475560 -0.150460 -0.034360 
#    y -0.150460 3.900940 0.184710 
#    z -0.034360 0.184710 3.513270 
# 
# 
# High freq. dielectric constant tensor:
#      x y z
#    x 1.873000 0.000570 -0.010600 
#    y 0.000570 1.849360 0.011320 
#    z -0.010600 0.011320 1.814050 
# 
# From -- ./inp_files/307268.got.cif
#   From: 2010.06.25/outbox.cif.g09.slc.cpg/sg2_154_cif.got.tgz:307268.got - 2010.06.27 13:26:56.
