data_PCOD8009565
_publ_section_title
;
Structure prediction by ZEFSAII (Michael W. Deem and Ramdas Pophale) SiO2 
 PCOD8009565
Probable space group: P -1
;
_chemical_formula_sum "Si O2"
_cell_formula_units_Z 16
_cell_length_a 14.140630
_cell_length_b 14.855461
_cell_length_c 11.186361
_cell_angle_alpha 150.136577
_cell_angle_beta 44.051974
_cell_angle_gamma 134.248041
_cell_volume 794.515528
_symmetry_space_group_name_H-M "P -1"
_symmetry_group_IT_number 2
_symmetry_cell_setting 'triclinic'
loop_
_space_group_symop_operation_xyz
x,y,z
-x,-y,-z
loop_
_atom_site_type_symbol
_atom_site_label
_atom_site_fract_x
_atom_site_fract_y
_atom_site_fract_z
Si Si1 0.257167 0.175702 0.158758
Si Si2 0.279862 0.217208 0.624774
Si Si3 0.520792 0.448682 0.285150
Si Si4 0.276841 0.822508 0.181861
Si Si5 0.107127 0.880830 0.802664
Si Si6 0.015811 0.287811 0.040620
Si Si7 0.970629 0.311476 0.579716
Si Si8 0.198679 0.982437 0.216947
O O1 0.376535 0.359656 0.245660
O O2 0.105903 0.224526 0.369398
O O3 0.298814 0.075500 0.125092
O O4 0.246952 0.026831 0.887876
O O5 0.414465 0.371724 0.644844
O O6 0.326476 0.036292 0.430723
O O7 0.187145 0.149072 0.510830
O O8 0.182324 0.299216 0.900367
O O9 0.500000 0.500000 0.500000
O O10 0.617693 0.301001 0.018008
O O11 0.265007 0.832280 0.058261
O O12 0.123077 0.734924 0.270979
O O13 0.042701 0.739118 0.803144
O O14 0.128883 0.763862 0.531139
O O15 0.000000 0.000000 0.000000
O O16 0.977127 0.469736 0.230609
O O17 0.947796 0.113295 0.818875
#
# Coordination Sequence:
#
# PCOD8009565 Si02
#       8
#     2   2   2   2   2   2   2   2
#     4  10  22  38  59  88 121 160 200 246 300 356
#     4  10  21  37  57  85 127 157 191 241 299 360
#     4  12  23  39  59  89 128 162 196 239 299 374
#     4  10  23  39  61  87 124 163 195 244 304 349
#     4   9  20  40  61  85 117 155 200 259 300 337
#     4  11  20  35  63  93 118 150 210 250 297 354
#     4  11  22  38  65  88 116 158 207 254 295 345
#     4   9  21  34  56  87 122 158 195 241 301 352
#
# _framework density 20.138058000000001
#
# number of rings (size 3 to 8) (size 9 to 14) (size 15 to 20)
#    0.750    1.000    2.500    3.000    3.500    2.500 
#    2.250    0.625    0.000    3.750    0.000    0.000 
#    0.000    0.000    0.000    0.000    0.000    0.000 
#
# Total GULP energy -198231.041444 kJ/mol
# GULP energy per Si atom -12389.440090 kJ/mol
# Density = 2.009222 g / cm^3
# Si number density = 20.138058 Si / 1000 Ang^3
#
#
#
# Elastic Constant Matrix: (Units=GPa)
#
#
# Indices 1 2 3 4 5 6 
#
# 1 61.5265 31.5469 17.3868 4.0056 7.0680 3.3243
# 2 31.5469 119.3916 23.2943 26.7232 0.3321 5.4274
# 3 17.3868 23.2943 59.2792 9.2221 -3.9287 6.1054
# 4 4.0056 26.7232 9.2221 26.5874 -2.4393 -6.1621
# 5 7.0680 0.3321 -3.9287 -2.4393 30.9486 6.5634
# 6 3.3243 5.4274 6.1054 -6.1621 6.5634 31.2484
#
#
#
# Elastic Compliance Matrix: (Units=1/GPa)
#
#
# Indices 1 2 3 4 5 6 
#
# 1 0.020751 -0.005445 -0.005095 0.004004 -0.005362 0.001649
# 2 -0.005445 0.013089 -0.001056 -0.012866 0.000846 -0.004203
# 3 -0.005095 -0.001056 0.020595 -0.006169 0.004459 -0.005452
# 4 0.004004 -0.012866 -0.006169 0.055299 -0.000160 0.013952
# 5 -0.005362 0.000846 0.004459 -0.000160 0.035776 -0.007994
# 6 0.001649 -0.004203 -0.005452 0.013952 -0.007994 0.038052
#
#
# Mechanical properties :
#
#
# Convention : Reuss Voigt Hill
#
# Bulk Modulus (GPa) = 32.00673 42.73925 37.37299
# Shear Modulus (GPa) = 23.02367 28.95485 25.98926
#
# Velocity S-wave (km/s) = 3.38493 3.79597 3.59633
# Velocity P-wave (km/s) = 5.58616 6.36252 5.98694
#
# Compressibility (1/GPa) = 0.03124343
#
# Stress axis : x y z
#
# Youngs Moduli (GPa) = 48.19034 76.40000 48.55475
#
# Poissons Ratio (x) = 0.41603 0.24737
# Poissons Ratio (y) = 0.26242 0.05127
# Poissons Ratio (z) = 0.24552 0.08067
#
# Static dielectric constant tensor:
#      x y z
#    x 3.259900 0.151030 -0.008500 
#    y 0.151030 3.632630 0.458280 
#    z -0.008500 0.458280 3.311020 
# 
# 
# High freq. dielectric constant tensor:
#      x y z
#    x 1.755880 -0.010840 0.007570 
#    y -0.010840 1.795100 0.020560 
#    z 0.007570 0.020560 1.771590 
# 
# From -- ./inp_files/455208.got.cif
#   From: 2010.06.25/outbox.cif.g09.slc.cpg/sg2_228_cif.got.tgz:455208.got - 2010.06.27 13:26:56.
