data_PCOD8009803
_publ_section_title
;
Structure prediction by ZEFSAII (Michael W. Deem and Ramdas Pophale) SiO2 
 PCOD8009803
Probable space group: P -1
;
_chemical_formula_sum "Si O2"
_cell_formula_units_Z 16
_cell_length_a 10.823213
_cell_length_b 8.207010
_cell_length_c 8.597529
_cell_angle_alpha 113.088265
_cell_angle_beta 84.408402
_cell_angle_gamma 96.364639
_cell_volume 696.968794
_symmetry_space_group_name_H-M "P -1"
_symmetry_group_IT_number 2
_symmetry_cell_setting 'triclinic'
loop_
_space_group_symop_operation_xyz
x,y,z
-x,-y,-z
loop_
_atom_site_type_symbol
_atom_site_label
_atom_site_fract_x
_atom_site_fract_y
_atom_site_fract_z
Si Si1 0.937616 0.818216 0.005731
Si Si2 0.397050 0.617044 0.127077
Si Si3 0.283082 0.326672 0.206857
Si Si4 0.142978 0.722781 0.146772
Si Si5 0.200440 0.107457 0.401935
Si Si6 0.776394 0.022152 0.320422
Si Si7 0.562742 0.914604 0.105913
Si Si8 0.038083 0.682076 0.476533
O O1 0.849659 0.867248 0.176464
O O2 0.040468 0.691079 0.011221
O O3 0.863204 0.704219 0.836311
O O4 0.000000 0.000000 0.000000
O O5 0.345125 0.531605 0.267008
O O6 0.268340 0.628331 0.046946
O O7 0.460255 0.818696 0.201851
O O8 0.500000 0.500000 0.000000
O O9 0.295680 0.247766 0.348923
O O10 0.354783 0.230950 0.029018
O O11 0.094723 0.642367 0.287004
O O12 0.171129 0.936080 0.233187
O O13 0.264860 0.049460 0.530438
O O14 0.074404 0.195776 0.491172
O O15 0.652008 0.053488 0.247172
O O16 0.858211 0.209127 0.389064
O O17 0.500000 0.000000 0.000000
O O18 0.000000 0.500000 0.500000
#
# Coordination Sequence:
#
# PCOD8009803 Si02
#       8
#     2   2   2   2   2   2   2   2
#     4  11  19  34  61  96 125 160 205 252 314 385
#     4  10  23  42  58  87 125 163 211 267 303 348
#     4  10  21  37  61  88 126 157 202 267 313 357
#     4  11  20  36  63  89 123 168 205 250 314 374
#     4  11  19  39  63  93 128 162 199 249 320 392
#     4  10  21  39  62  90 126 166 210 250 304 382
#     4  10  22  42  63  84 119 173 221 253 293 362
#     4  11  21  37  59  97 136 157 194 258 326 380
#
# _framework density 22.956553
#
# number of rings (size 3 to 8) (size 9 to 14) (size 15 to 20)
#    0.000    1.500    3.750    2.250    1.750    0.500 
#    2.250    7.500    0.000    0.000    0.000    0.000 
#    0.000    0.000    0.000    0.000    0.000    0.000 
#
# Total GULP energy -198232.967397 kJ/mol
# GULP energy per Si atom -12389.560462 kJ/mol
# Density = 2.290430 g / cm^3
# Si number density = 22.956553 Si / 1000 Ang^3
#
#
#
# Elastic Constant Matrix: (Units=GPa)
#
#
# Indices 1 2 3 4 5 6 
#
# 1 129.8686 59.3866 36.3965 -16.9200 15.9185 -2.2840
# 2 59.3866 156.1313 37.8259 -34.2364 11.2241 26.8395
# 3 36.3965 37.8259 66.2449 -21.5139 17.9042 8.2554
# 4 -16.9200 -34.2364 -21.5139 27.8638 -4.3332 -11.3563
# 5 15.9185 11.2241 17.9042 -4.3332 39.2781 -1.3039
# 6 -2.2840 26.8395 8.2554 -11.3563 -1.3039 46.4749
#
#
#
# Elastic Compliance Matrix: (Units=1/GPa)
#
#
# Indices 1 2 3 4 5 6 
#
# 1 0.010638 -0.003521 -0.003732 0.000357 -0.001456 0.003265
# 2 -0.003521 0.010506 -0.000661 0.008537 -0.000467 -0.004050
# 3 -0.003732 -0.000661 0.024353 0.014136 -0.007869 -0.000894
# 4 0.000357 0.008537 0.014136 0.060111 -0.002157 0.007204
# 5 -0.001456 -0.000467 -0.007869 -0.002157 0.029595 0.001899
# 6 0.003265 -0.004050 -0.000894 0.007204 0.001899 0.025989
#
#
# Mechanical properties :
#
#
# Convention : Reuss Voigt Hill
#
# Bulk Modulus (GPa) = 33.70484 68.82921 51.26703
# Shear Modulus (GPa) = 26.75094 37.29906 32.02500
#
# Velocity S-wave (km/s) = 3.41733 4.03521 3.73906
# Velocity P-wave (km/s) = 5.50316 7.19431 6.40480
#
# Compressibility (1/GPa) = 0.02966933
#
# Stress axis : x y z
#
# Youngs Moduli (GPa) = 93.99896 95.18439 41.06308
#
# Poissons Ratio (x) = 0.33511 0.15325
# Poissons Ratio (y) = 0.33094 0.02715
# Poissons Ratio (z) = 0.35081 0.06294
#
# Static dielectric constant tensor:
#      x y z
#    x 4.820550 0.025640 -0.177550 
#    y 0.025640 4.586660 -0.113530 
#    z -0.177550 -0.113530 3.967610 
# 
# 
# High freq. dielectric constant tensor:
#      x y z
#    x 1.910550 0.002030 -0.013170 
#    y 0.002030 1.916690 -0.022630 
#    z -0.013170 -0.022630 1.869990 
# 
# From -- ./inp_files/235229.got.cif
#   From: 2010.06.25/outbox.cif.g09.slc.cpg/sg2_118_cif.got.tgz:235229.got - 2010.06.27 13:26:56.
