data_PCOD8009948
_publ_section_title
;
Structure prediction by ZEFSAII (Michael W. Deem and Ramdas Pophale) SiO2 
 PCOD8009948
Probable space group: P -1
;
_chemical_formula_sum "Si O2"
_cell_formula_units_Z 16
_cell_length_a 9.180568
_cell_length_b 9.240599
_cell_length_c 16.404741
_cell_angle_alpha 39.697999
_cell_angle_beta 78.705688
_cell_angle_gamma 61.906695
_cell_volume 749.184818
_symmetry_space_group_name_H-M "P -1"
_symmetry_group_IT_number 2
_symmetry_cell_setting 'triclinic'
loop_
_space_group_symop_operation_xyz
x,y,z
-x,-y,-z
loop_
_atom_site_type_symbol
_atom_site_label
_atom_site_fract_x
_atom_site_fract_y
_atom_site_fract_z
Si Si1 0.701020 0.256186 0.332814
Si Si2 0.730679 0.511907 0.371830
Si Si3 0.624870 0.109277 0.790996
Si Si4 0.194781 0.411299 0.927318
Si Si5 0.665092 0.570638 0.538327
Si Si6 0.809776 0.643887 0.869175
Si Si7 0.596488 0.816322 0.668700
Si Si8 0.110190 0.314597 0.436821
O O1 0.726589 0.292498 0.410041
O O2 0.706277 0.484606 0.182904
O O3 0.517830 0.279376 0.324324
O O4 0.858050 0.968518 0.412575
O O5 0.578060 0.801125 0.234074
O O6 0.685803 0.471410 0.486292
O O7 0.912701 0.500982 0.350108
O O8 0.631334 0.376603 0.682772
O O9 0.733775 0.951329 0.767447
O O10 0.702156 0.910768 0.946307
O O11 0.002603 0.520563 0.865921
O O12 0.186706 0.506752 0.981734
O O13 0.847127 0.539174 0.560103
O O14 0.514762 0.873095 0.434820
O O15 0.680289 0.640791 0.817160
O O16 0.756152 0.760073 0.619256
#
# Coordination Sequence:
#
# PCOD8009948 Si02
#       8
#     2   2   2   2   2   2   2   2
#     4  11  24  38  64  87 128 160 204 245 297 368
#     4  12  23  38  62  96 122 160 198 254 306 354
#     4  10  21  37  63  87 121 157 199 246 298 360
#     4   9  21  40  60  94 114 166 203 245 296 363
#     4  11  22  40  64  91 124 157 199 253 309 352
#     4   9  20  39  64  88 120 159 204 248 294 367
#     4  11  22  43  62  91 122 162 202 249 306 354
#     4  11  25  39  61  93 127 157 200 250 307 359
#
# _framework density 21.356546000000002
#
# number of rings (size 3 to 8) (size 9 to 14) (size 15 to 20)
#    0.750    0.750    1.250    4.875    3.500    1.000 
#    0.000    1.250    0.000    3.000    0.000    0.000 
#    0.000    0.000    0.000    0.000    0.000    0.000 
#
# Total GULP energy -198232.786823 kJ/mol
# GULP energy per Si atom -12389.549176 kJ/mol
# Density = 2.130794 g / cm^3
# Si number density = 21.356546 Si / 1000 Ang^3
#
#
#
# Elastic Constant Matrix: (Units=GPa)
#
#
# Indices 1 2 3 4 5 6 
#
# 1 170.5432 50.5241 65.8416 -10.4325 23.3554 -7.5870
# 2 50.5241 76.2075 46.5572 1.9807 1.2422 9.7141
# 3 65.8416 46.5572 105.2668 -7.0249 -1.5011 2.4620
# 4 -10.4325 1.9807 -7.0249 24.7882 -4.7376 11.6872
# 5 23.3554 1.2422 -1.5011 -4.7376 35.7274 1.9897
# 6 -7.5870 9.7141 2.4620 11.6872 1.9897 40.8242
#
#
#
# Elastic Compliance Matrix: (Units=1/GPa)
#
#
# Indices 1 2 3 4 5 6 
#
# 1 0.009918 -0.004138 -0.004520 0.000388 -0.006663 0.003314
# 2 -0.004138 0.020475 -0.006525 -0.002786 0.001602 -0.004528
# 3 -0.004520 -0.006525 0.015640 0.004785 0.004575 -0.001824
# 4 0.000388 -0.002786 0.004785 0.050265 0.007506 -0.014309
# 5 -0.006663 0.001602 0.004575 0.007506 0.033794 -0.005691
# 6 0.003314 -0.004528 -0.001824 -0.014309 -0.005691 0.030673
#
#
# Mechanical properties :
#
#
# Convention : Reuss Voigt Hill
#
# Bulk Modulus (GPa) = 63.82570 75.31815 69.57193
# Shear Modulus (GPa) = 25.46439 32.87427 29.16933
#
# Velocity S-wave (km/s) = 3.45678 3.92766 3.69972
# Velocity P-wave (km/s) = 6.77371 7.47745 7.13426
#
# Compressibility (1/GPa) = 0.01566767
#
# Stress axis : x y z
#
# Youngs Moduli (GPa) = 100.82457 48.83988 63.93976
#
# Poissons Ratio (x) = 0.20211 0.28901
# Poissons Ratio (y) = 0.41722 0.41718
# Poissons Ratio (z) = 0.45573 0.31866
#
# Static dielectric constant tensor:
#      x y z
#    x 3.972620 0.028240 0.322830 
#    y 0.028240 3.863910 0.025240 
#    z 0.322830 0.025240 3.702340 
# 
# 
# High freq. dielectric constant tensor:
#      x y z
#    x 1.842640 -0.008240 0.021460 
#    y -0.008240 1.835530 0.006060 
#    z 0.021460 0.006060 1.813250 
# 
# From -- ./inp_files/556781.got.cif
#   From: 2010.06.25/outbox.cif.g09.slc.cpg/sg2_279_cif.got.tgz:556781.got - 2010.06.27 13:26:56.
