data_PCOD8009429
_publ_section_title
;
Structure prediction by ZEFSAII (Michael W. Deem and Ramdas Pophale) SiO2 
 PCOD8009429
Probable space group: P -1
;
_chemical_formula_sum "Si O2"
_cell_formula_units_Z 16
_cell_length_a 10.325924
_cell_length_b 17.167726
_cell_length_c 9.453399
_cell_angle_alpha 108.888325
_cell_angle_beta 119.656890
_cell_angle_gamma 122.221408
_cell_volume 740.523302
_symmetry_space_group_name_H-M "P -1"
_symmetry_group_IT_number 2
_symmetry_cell_setting 'triclinic'
loop_
_space_group_symop_operation_xyz
x,y,z
-x,-y,-z
loop_
_atom_site_type_symbol
_atom_site_label
_atom_site_fract_x
_atom_site_fract_y
_atom_site_fract_z
Si Si1 0.488014 0.306244 0.480974
Si Si2 0.531186 0.929400 0.554355
Si Si3 0.915097 0.897552 0.606679
Si Si4 0.227830 0.667701 0.776429
Si Si5 0.957917 0.349097 0.043772
Si Si6 0.760136 0.806701 0.173271
Si Si7 0.535098 0.870626 0.811062
Si Si8 0.136747 0.244545 0.055089
O O1 0.352794 0.219771 0.506681
O O2 0.454697 0.215863 0.301170
O O3 0.810204 0.478470 0.781525
O O4 0.336092 0.314139 0.333613
O O5 0.452097 0.897349 0.660034
O O6 0.500000 0.000000 0.500000
O O7 0.320260 0.766836 0.269700
O O8 0.856080 0.057686 0.801361
O O9 0.842430 0.810617 0.375242
O O10 0.996551 0.025375 0.667131
O O11 0.162885 0.968477 0.867110
O O12 0.115798 0.670884 0.844781
O O13 0.308301 0.767923 0.752395
O O14 0.000000 0.500000 0.500000
O O15 0.490057 0.736729 0.005934
O O16 0.072768 0.310783 0.065091
O O17 0.712524 0.706935 0.984222
#
# Coordination Sequence:
#
# PCOD8009429 Si02
#       8
#     2   2   2   2   2   2   2   2
#     4  12  21  39  66  98 120 168 221 267 309 384
#     4  10  24  42  62  93 134 172 208 265 329 387
#     4  10  21  36  64 100 119 159 224 279 302 366
#     4  11  22  41  60  99 135 167 207 269 329 376
#     4  11  26  40  62  96 136 169 202 266 336 382
#     4  10  22  38  67  93 126 166 219 268 312 377
#     4  11  21  38  68  93 128 165 224 265 313 382
#     4  11  21  44  64  89 130 174 214 254 323 389
#
# _framework density 21.606342999999999
#
# number of rings (size 3 to 8) (size 9 to 14) (size 15 to 20)
#    0.000    1.250    5.000    1.500    7.000    1.500 
#    0.000    5.625    0.000    0.000    0.000    0.000 
#    0.000    0.000    0.000    0.000    0.000    0.000 
#
# Total GULP energy -198353.270432 kJ/mol
# GULP energy per Si atom -12397.079402 kJ/mol
# Density = 2.155717 g / cm^3
# Si number density = 21.606343 Si / 1000 Ang^3
#
#
#
# Elastic Constant Matrix: (Units=GPa)
#
#
# Indices 1 2 3 4 5 6 
#
# 1 96.7905 36.6716 17.2992 -4.2609 -17.9036 17.5141
# 2 36.6716 119.2856 57.9006 -10.1197 -1.0279 29.6205
# 3 17.2992 57.9006 127.4888 -5.2073 -4.6872 15.2974
# 4 -4.2609 -10.1197 -5.2073 41.3290 11.2355 1.8903
# 5 -17.9036 -1.0279 -4.6872 11.2355 26.0964 -4.0123
# 6 17.5141 29.6205 15.2974 1.8903 -4.0123 34.1565
#
#
#
# Elastic Compliance Matrix: (Units=1/GPa)
#
#
# Indices 1 2 3 4 5 6 
#
# 1 0.013990 -0.003977 0.000511 -0.002068 0.010014 -0.002663
# 2 -0.003977 0.014795 -0.005079 0.004803 -0.006595 -0.009557
# 3 0.000511 -0.005079 0.010156 -0.000495 0.002169 -0.000123
# 4 -0.002068 0.004803 -0.000495 0.029451 -0.014962 -0.006270
# 5 0.010014 -0.006595 0.002169 -0.014962 0.052782 0.006641
# 6 -0.002663 -0.009557 -0.000123 -0.006270 0.006641 0.040113
#
#
# Mechanical properties :
#
#
# Convention : Reuss Voigt Hill
#
# Bulk Modulus (GPa) = 45.76549 63.03418 54.39984
# Shear Modulus (GPa) = 26.93095 35.76261 31.34678
#
# Velocity S-wave (km/s) = 3.53432 4.07282 3.81309
# Velocity P-wave (km/s) = 6.15490 7.16620 6.67971
#
# Compressibility (1/GPa) = 0.02185052
#
# Stress axis : x y z
#
# Youngs Moduli (GPa) = 71.47896 67.59039 98.46764
#
# Poissons Ratio (x) = 0.26880 -0.05032
# Poissons Ratio (y) = 0.28426 0.50015
# Poissons Ratio (z) = -0.03653 0.34331
#
# Static dielectric constant tensor:
#      x y z
#    x 3.676320 0.393560 -0.092720 
#    y 0.393560 3.934090 -0.074770 
#    z -0.092720 -0.074770 4.266040 
# 
# 
# High freq. dielectric constant tensor:
#      x y z
#    x 1.828140 0.024120 0.000910 
#    y 0.024120 1.838740 -0.008190 
#    z 0.000910 -0.008190 1.865250 
# 
# From -- ./inp_files/279541.got.cif
#   From: 2010.06.25/outbox.cif.g09.slc.cpg/sg2_140_cif.got.tgz:279541.got - 2010.06.27 13:26:56.
