data_PCOD8009333
_publ_section_title
;
Structure prediction by ZEFSAII (Michael W. Deem and Ramdas Pophale) SiO2 
 PCOD8009333
Probable space group: P -1
;
_chemical_formula_sum "Si O2"
_cell_formula_units_Z 14
_cell_length_a 13.307446
_cell_length_b 14.120218
_cell_length_c 15.201494
_cell_angle_alpha 123.234935
_cell_angle_beta 134.946853
_cell_angle_gamma 20.802925
_cell_volume 642.334295
_symmetry_space_group_name_H-M "P -1"
_symmetry_group_IT_number 2
_symmetry_cell_setting 'triclinic'
loop_
_space_group_symop_operation_xyz
x,y,z
-x,-y,-z
loop_
_atom_site_type_symbol
_atom_site_label
_atom_site_fract_x
_atom_site_fract_y
_atom_site_fract_z
Si Si1 0.756028 0.100333 0.081677
Si Si2 0.881204 0.327870 0.522825
Si Si3 0.183198 0.518711 0.798001
Si Si4 0.574581 0.535294 0.773594
Si Si5 0.794418 0.028426 0.782292
Si Si6 0.203698 0.386313 0.480189
Si Si7 0.394289 0.768448 0.607993
O O1 0.654692 0.221728 0.175806
O O2 0.394406 0.324164 0.918378
O O3 0.029727 0.792158 0.107297
O O4 0.940319 0.061636 0.116455
O O5 0.662597 0.402131 0.362524
O O6 0.983534 0.364180 0.550351
O O7 0.609377 0.554434 0.551207
O O8 0.282345 0.981278 0.626441
O O9 0.458654 0.318490 0.783192
O O10 0.841633 0.682810 0.652693
O O11 0.021317 0.763296 0.837684
O O12 0.641400 0.566549 0.745581
O O13 0.634245 0.096406 0.624714
O O14 0.000000 0.500000 0.500000
O O15 0.000000 0.000000 0.500000
#
# Coordination Sequence:
#
# PCOD8009333 Si02
#       7
#     2   2   2   2   2   2   2
#     4  12  22  36  63  85 123 154 199 250 298 353
#     4  11  21  38  61  89 123 155 196 250 304 348
#     4  11  24  40  55  87 121 165 198 240 296 356
#     4  11  21  37  61  92 118 151 200 251 307 348
#     4  11  22  39  59  84 119 158 209 245 290 346
#     4  10  24  40  63  88 125 161 204 242 290 361
#     4  10  21  36  61  91 122 147 197 260 307 345
#
# _framework density 21.795506
#
# number of rings (size 3 to 8) (size 9 to 14) (size 15 to 20)
#    0.000    1.143    1.429    7.286    2.000    2.286 
#    0.000    0.000    0.000    5.143    0.000    0.000 
#    0.000    0.000    0.000    0.000    0.000    0.000 
#
# Total GULP energy -173606.010097 kJ/mol
# GULP energy per Si atom -12400.429293 kJ/mol
# Density = 2.174590 g / cm^3
# Si number density = 21.795506 Si / 1000 Ang^3
#
#
#
# Elastic Constant Matrix: (Units=GPa)
#
#
# Indices 1 2 3 4 5 6 
#
# 1 71.9664 3.7023 19.0532 0.9948 -15.8947 20.6655
# 2 3.7023 74.0278 0.7869 -7.8238 -2.5482 17.3184
# 3 19.0532 0.7869 68.0277 -7.9236 -12.4944 1.6058
# 4 0.9948 -7.8238 -7.9236 33.2274 4.6573 -19.0445
# 5 -15.8947 -2.5482 -12.4944 4.6573 21.3294 -7.2915
# 6 20.6655 17.3184 1.6058 -19.0445 -7.2915 42.2235
#
#
#
# Elastic Compliance Matrix: (Units=1/GPa)
#
#
# Indices 1 2 3 4 5 6 
#
# 1 0.021867 0.001494 -0.005082 -0.011255 0.011070 -0.014287
# 2 0.001494 0.015047 -0.000445 -0.000769 0.000367 -0.007169
# 3 -0.005082 -0.000445 0.018166 0.007021 0.007468 0.006436
# 4 -0.011255 -0.000769 0.007021 0.047679 -0.005872 0.026048
# 5 0.011070 0.000367 0.007468 -0.005872 0.061562 0.002129
# 6 -0.014287 -0.007169 0.006436 0.026048 0.002129 0.045488
#
#
# Mechanical properties :
#
#
# Convention : Reuss Voigt Hill
#
# Bulk Modulus (GPa) = 21.27051 29.01185 25.14118
# Shear Modulus (GPa) = 21.40894 32.05467 26.73180
#
# Velocity S-wave (km/s) = 3.13751 3.83913 3.50592
# Velocity P-wave (km/s) = 4.78598 5.74384 5.28665
#
# Compressibility (1/GPa) = 0.04701345
#
# Stress axis : x y z
#
# Youngs Moduli (GPa) = 45.73048 66.45806 55.04793
#
# Poissons Ratio (x) = -0.09931 0.27977
# Poissons Ratio (y) = -0.06833 0.02452
# Poissons Ratio (z) = 0.23242 0.02960
#
# Static dielectric constant tensor:
#      x y z
#    x 4.026930 0.388660 -0.234040 
#    y 0.388660 4.159850 -0.180080 
#    z -0.234040 -0.180080 4.332720 
# 
# 
# High freq. dielectric constant tensor:
#      x y z
#    x 1.842010 0.012060 -0.026210 
#    y 0.012060 1.869000 -0.002590 
#    z -0.026210 -0.002590 1.843710 
# 
# From -- ./inp_files/366216.got.cif
#   From: 2010.06.25/outbox.cif.g09.slc.cpg/sg2_184_cif.got.tgz:366216.got - 2010.06.27 13:26:56.
