data_PCOD8009216
_publ_section_title
;
Structure prediction by ZEFSAII (Michael W. Deem and Ramdas Pophale) SiO2 
 PCOD8009216
Probable space group: P -1
;
_chemical_formula_sum "Si O2"
_cell_formula_units_Z 14
_cell_length_a 11.696845
_cell_length_b 15.512240
_cell_length_c 8.590224
_cell_angle_alpha 112.067998
_cell_angle_beta 124.381154
_cell_angle_gamma 32.516762
_cell_volume 673.509390
_symmetry_space_group_name_H-M "P -1"
_symmetry_group_IT_number 2
_symmetry_cell_setting 'triclinic'
loop_
_space_group_symop_operation_xyz
x,y,z
-x,-y,-z
loop_
_atom_site_type_symbol
_atom_site_label
_atom_site_fract_x
_atom_site_fract_y
_atom_site_fract_z
Si Si1 0.031697 0.549011 0.261786
Si Si2 0.174599 0.266628 0.466081
Si Si3 0.777764 0.367625 0.655799
Si Si4 0.339802 0.227360 0.127479
Si Si5 0.923958 0.781591 0.926250
Si Si6 0.118304 0.028345 0.546640
Si Si7 0.295157 0.998401 0.359421
O O1 0.184996 0.547209 0.304394
O O2 0.193732 0.367874 0.240590
O O3 0.988463 0.585851 0.437429
O O4 0.768186 0.687975 0.067798
O O5 0.006329 0.334521 0.231319
O O6 0.274602 0.111687 0.505687
O O7 0.419377 0.189078 0.556464
O O8 0.500000 0.500000 0.500000
O O9 0.937338 0.212656 0.566379
O O10 0.844750 0.317786 0.857184
O O11 0.287420 0.147770 0.077559
O O12 0.625566 0.093003 0.252261
O O13 0.822650 0.929605 0.856802
O O14 0.159229 0.000528 0.371404
O O15 0.000000 0.000000 0.500000
#
# Coordination Sequence:
#
# PCOD8009216 Si02
#       7
#     2   2   2   2   2   2   2
#     4  10  21  36  61  89 126 150 198 251 296 351
#     4   9  16  34  61  85 120 148 187 251 293 347
#     4  11  23  39  60  86 120 163 202 241 302 355
#     4  10  21  36  58  97 116 154 202 244 296 351
#     4   9  19  36  64  86 119 149 201 247 295 356
#     4  12  23  39  61  82 122 161 200 246 299 355
#     4   9  18  36  55  93 114 150 197 245 296 355
#
# _framework density 20.786643000000002
#
# number of rings (size 3 to 8) (size 9 to 14) (size 15 to 20)
#    0.857    1.143    2.857    0.857    2.000    1.714 
#    0.000    3.571    0.000    0.000    0.000    0.000 
#    0.000    0.000    0.000    0.000    0.000    0.000 
#
# Total GULP energy -173467.043948 kJ/mol
# GULP energy per Si atom -12390.503139 kJ/mol
# Density = 2.073933 g / cm^3
# Si number density = 20.786643 Si / 1000 Ang^3
#
#
#
# Elastic Constant Matrix: (Units=GPa)
#
#
# Indices 1 2 3 4 5 6 
#
# 1 110.2805 12.2562 32.3105 -20.6155 -6.4381 -8.2545
# 2 12.2562 56.5492 27.6604 -17.6430 4.3581 -21.0967
# 3 32.3105 27.6604 127.3217 -26.6450 -5.9593 -21.0052
# 4 -20.6155 -17.6430 -26.6450 38.8046 -6.4940 -0.1002
# 5 -6.4381 4.3581 -5.9593 -6.4940 30.2928 -1.3624
# 6 -8.2545 -21.0967 -21.0052 -0.1002 -1.3624 26.8304
#
#
#
# Elastic Compliance Matrix: (Units=1/GPa)
#
#
# Indices 1 2 3 4 5 6 
#
# 1 0.010861 0.001183 -0.000921 0.006266 0.003469 0.003750
# 2 0.001183 0.031522 0.000233 0.015214 0.000166 0.025398
# 3 -0.000921 0.000233 0.011454 0.008207 0.004193 0.009111
# 4 0.006266 0.015214 0.008207 0.043553 0.011040 0.021039
# 5 0.003469 0.000166 0.004193 0.011040 0.037204 0.006411
# 6 0.003750 0.025398 0.009111 0.021039 0.006411 0.065932
#
#
# Mechanical properties :
#
#
# Convention : Reuss Voigt Hill
#
# Bulk Modulus (GPa) = 18.23878 48.73395 33.48637
# Shear Modulus (GPa) = 22.95564 33.98051 28.46808
#
# Velocity S-wave (km/s) = 3.32677 4.04756 3.70474
# Velocity P-wave (km/s) = 4.85282 6.73346 5.86896
#
# Compressibility (1/GPa) = 0.05482822
#
# Stress axis : x y z
#
# Youngs Moduli (GPa) = 92.07613 31.72365 87.30616
#
# Poissons Ratio (x) = -0.03753 0.08039
# Poissons Ratio (y) = -0.10894 -0.02038
# Poissons Ratio (z) = 0.08479 -0.00740
#
# Static dielectric constant tensor:
#      x y z
#    x 3.249910 0.220370 -0.232050 
#    y 0.220370 3.420920 0.027210 
#    z -0.232050 0.027210 3.781320 
# 
# 
# High freq. dielectric constant tensor:
#      x y z
#    x 1.803150 0.005090 -0.023890 
#    y 0.005090 1.795060 -0.004630 
#    z -0.023890 -0.004630 1.804750 
# 
# From -- ./inp_files/211684.got.cif
#   From: 2010.06.25/outbox.cif.g09.slc.cpg/sg2_106_cif.got.tgz:211684.got - 2010.06.27 13:26:56.
