data_PCOD8009771
_publ_section_title
;
Structure prediction by ZEFSAII (Michael W. Deem and Ramdas Pophale) SiO2 
 PCOD8009771
Probable space group: P -1
;
_chemical_formula_sum "Si O2"
_cell_formula_units_Z 16
_cell_length_a 9.703180
_cell_length_b 16.489610
_cell_length_c 13.612474
_cell_angle_alpha 42.674144
_cell_angle_beta 34.877743
_cell_angle_gamma 58.209079
_cell_volume 827.667438
_symmetry_space_group_name_H-M "P -1"
_symmetry_group_IT_number 2
_symmetry_cell_setting 'triclinic'
loop_
_space_group_symop_operation_xyz
x,y,z
-x,-y,-z
loop_
_atom_site_type_symbol
_atom_site_label
_atom_site_fract_x
_atom_site_fract_y
_atom_site_fract_z
Si Si1 0.803616 0.303877 0.991173
Si Si2 0.034321 0.094484 0.602106
Si Si3 0.352564 0.249717 0.430958
Si Si4 0.273949 0.069337 0.800213
Si Si5 0.474364 0.143638 0.170173
Si Si6 0.977342 0.553524 0.571880
Si Si7 0.623482 0.231871 0.789555
Si Si8 0.192969 0.157328 0.970856
O O1 0.900590 0.446926 0.790417
O O2 0.633885 0.289462 0.199382
O O3 0.656870 0.249074 0.028639
O O4 0.028519 0.239310 0.940085
O O5 0.218234 0.133628 0.550319
O O6 0.189704 0.138423 0.372550
O O7 0.797610 0.156147 0.696648
O O8 0.958661 0.947901 0.776863
O O9 0.335141 0.202620 0.594794
O O10 0.227007 0.364433 0.386655
O O11 0.460176 0.986794 0.725320
O O12 0.315237 0.089309 0.874380
O O13 0.000000 0.000000 0.000000
O O14 0.513717 0.165555 0.012265
O O15 0.000000 0.500000 0.500000
O O16 0.234766 0.632814 0.387592
O O17 0.399921 0.242894 0.838404
#
# Coordination Sequence:
#
# PCOD8009771 Si02
#       8
#     2   2   2   2   2   2   2   2
#     4  11  22  38  62  90 114 156 203 251 295 342
#     4  10  21  38  61  90 120 160 197 237 297 360
#     4  10  21  37  60  94 116 147 205 255 285 350
#     4  12  19  35  61  90 125 156 192 241 297 354
#     4  11  21  38  65  88 120 159 202 241 291 358
#     4  11  21  40  66  82 110 158 208 247 294 345
#     4  11  24  42  58  89 125 159 196 246 298 357
#     4  12  23  37  60  90 128 157 189 243 308 354
#
# _framework density 19.331434999999999
#
# number of rings (size 3 to 8) (size 9 to 14) (size 15 to 20)
#    0.000    1.000    5.000    3.000    0.000    3.000 
#    2.250    0.000    0.000    1.500    0.000    0.000 
#    0.000    0.000    0.000    0.000    0.000    0.000 
#
# Total GULP energy -198438.631166 kJ/mol
# GULP energy per Si atom -12402.414448 kJ/mol
# Density = 1.928744 g / cm^3
# Si number density = 19.331435 Si / 1000 Ang^3
#
#
#
# Elastic Constant Matrix: (Units=GPa)
#
#
# Indices 1 2 3 4 5 6 
#
# 1 77.4823 29.5181 47.4071 0.3298 -4.4281 11.3219
# 2 29.5181 89.0497 52.5126 -0.8341 -1.9571 0.7446
# 3 47.4071 52.5126 129.6994 1.1417 7.2041 -2.1268
# 4 0.3298 -0.8341 1.1417 42.8402 -0.7837 2.7076
# 5 -4.4281 -1.9571 7.2041 -0.7837 20.6034 -5.8696
# 6 11.3219 0.7446 -2.1268 2.7076 -5.8696 21.5378
#
#
#
# Elastic Compliance Matrix: (Units=1/GPa)
#
#
# Indices 1 2 3 4 5 6 
#
# 1 0.019446 -0.002469 -0.006466 0.000664 0.003401 -0.009932
# 2 -0.002469 0.015339 -0.005470 0.000456 0.003149 0.001028
# 3 -0.006466 -0.005470 0.012650 -0.000711 -0.005373 0.003462
# 4 0.000664 0.000456 -0.000711 0.023581 0.000394 -0.003292
# 5 0.003401 0.003149 -0.005373 0.000394 0.055026 0.012519
# 6 -0.009932 0.001028 0.003462 -0.003292 0.012519 0.055783
#
#
# Mechanical properties :
#
#
# Convention : Reuss Voigt Hill
#
# Bulk Modulus (GPa) = 53.69230 61.67855 57.68543
# Shear Modulus (GPa) = 23.05846 28.11586 25.58716
#
# Velocity S-wave (km/s) = 3.45743 3.81781 3.64208
# Velocity P-wave (km/s) = 6.61615 7.17003 6.89865
#
# Compressibility (1/GPa) = 0.01862464
#
# Stress axis : x y z
#
# Youngs Moduli (GPa) = 51.42567 65.19501 79.05426
#
# Poissons Ratio (x) = 0.16096 0.51114
# Poissons Ratio (y) = 0.12697 0.43242
# Poissons Ratio (z) = 0.33250 0.35661
#
# Static dielectric constant tensor:
#      x y z
#    x 3.306090 0.046830 0.010540 
#    y 0.046830 4.082400 -0.112990 
#    z 0.010540 -0.112990 3.799110 
# 
# 
# High freq. dielectric constant tensor:
#      x y z
#    x 1.729850 -0.000900 0.005210 
#    y -0.000900 1.751090 0.007960 
#    z 0.005210 0.007960 1.762530 
# 
# From -- ./inp_files/180380.got.cif
#   From: 2010.06.25/outbox.cif.g09.slc.cpg/sg2_91_cif.got.tgz:180380.got - 2010.06.27 13:26:56.
