data_PCOD8009770
_publ_section_title
;
Structure prediction by ZEFSAII (Michael W. Deem and Ramdas Pophale) SiO2 
 PCOD8009770
Probable space group: P -1
;
_chemical_formula_sum "Si O2"
_cell_formula_units_Z 14
_cell_length_a 6.430957
_cell_length_b 16.877655
_cell_length_c 5.788837
_cell_angle_alpha 97.284435
_cell_angle_beta 109.877710
_cell_angle_gamma 96.553022
_cell_volume 577.727290
_symmetry_space_group_name_H-M "P -1"
_symmetry_group_IT_number 2
_symmetry_cell_setting 'triclinic'
loop_
_space_group_symop_operation_xyz
x,y,z
-x,-y,-z
loop_
_atom_site_type_symbol
_atom_site_label
_atom_site_fract_x
_atom_site_fract_y
_atom_site_fract_z
Si Si1 0.947376 0.165940 0.603439
Si Si2 0.326298 0.738412 0.137714
Si Si3 0.809041 0.440450 0.044947
Si Si4 0.232171 0.285487 0.436874
Si Si5 0.454048 0.954763 0.715359
Si Si6 0.636152 0.540137 0.357826
Si Si7 0.654142 0.819518 0.937276
O O1 0.802432 0.199562 0.758078
O O2 0.806651 0.086662 0.400868
O O3 0.019417 0.235361 0.467384
O O4 0.168607 0.138952 0.789173
O O5 0.531878 0.721899 0.362548
O O6 0.156611 0.653685 0.984390
O O7 0.417722 0.781611 0.949925
O O8 0.803843 0.480807 0.310217
O O9 0.549164 0.438116 0.878675
O O10 0.000000 0.500000 0.000000
O O11 0.200624 0.378990 0.461530
O O12 0.237616 0.252283 0.166383
O O13 0.610765 0.885276 0.753877
O O14 0.500000 0.000000 0.500000
O O15 0.500000 0.000000 0.000000
O O16 0.500000 0.500000 0.500000
#
# Coordination Sequence:
#
# PCOD8009770 Si02
#       7
#     2   2   2   2   2   2   2
#     4  11  25  45  75 101 140 190 241 286 364 435
#     4  10  21  42  65  98 142 190 240 299 349 425
#     4  10  21  37  60  93 140 184 236 291 353 407
#     4  10  22  40  67  99 136 187 243 293 350 429
#     4  12  29  51  77 111 152 184 234 308 373 446
#     4  10  21  38  58  95 141 178 232 300 345 399
#     4  11  25  45  74 103 140 186 243 290 361 439
#
# _framework density 24.232887999999999
#
# number of rings (size 3 to 8) (size 9 to 14) (size 15 to 20)
#    0.000    1.429    1.429    2.571    6.000    5.143 
#    0.000    0.000    0.000    0.000    0.000    0.000 
#    0.000    0.000    0.000    0.000    0.000    0.000 
#
# Total GULP energy -173496.724660 kJ/mol
# GULP energy per Si atom -12392.623190 kJ/mol
# Density = 2.417773 g / cm^3
# Si number density = 24.232888 Si / 1000 Ang^3
#
#
#
# Elastic Constant Matrix: (Units=GPa)
#
#
# Indices 1 2 3 4 5 6 
#
# 1 87.4588 39.8315 47.1843 12.3779 -17.6250 33.0557
# 2 39.8315 143.4539 61.5332 11.9782 -8.3460 37.1797
# 3 47.1843 61.5332 120.4882 17.6674 -16.7018 23.2569
# 4 12.3779 11.9782 17.6674 35.0049 11.5460 -4.5493
# 5 -17.6250 -8.3460 -16.7018 11.5460 58.7381 2.6698
# 6 33.0557 37.1797 23.2569 -4.5493 2.6698 43.1940
#
#
#
# Elastic Compliance Matrix: (Units=1/GPa)
#
#
# Indices 1 2 3 4 5 6 
#
# 1 0.023769 0.001512 -0.002862 -0.013399 0.010076 -0.019985
# 2 0.001512 0.010955 -0.003368 -0.004592 0.002383 -0.009404
# 3 -0.002862 -0.003368 0.013078 -0.006020 0.003693 -0.002815
# 4 -0.013399 -0.004592 -0.006020 0.046416 -0.016570 0.023360
# 5 0.010076 0.002383 0.003693 -0.016570 0.025378 -0.015064
# 6 -0.019985 -0.009404 -0.002815 0.023360 -0.015064 0.051448
#
#
# Mechanical properties :
#
#
# Convention : Reuss Voigt Hill
#
# Bulk Modulus (GPa) = 26.06359 72.05544 49.05951
# Shear Modulus (GPa) = 25.87054 40.91087 33.39070
#
# Velocity S-wave (km/s) = 3.27093 4.11327 3.71605
# Velocity P-wave (km/s) = 5.00441 7.23587 6.22101
#
# Compressibility (1/GPa) = 0.03836770
#
# Stress axis : x y z
#
# Youngs Moduli (GPa) = 42.07076 91.28136 76.46239
#
# Poissons Ratio (x) = -0.13805 0.21882
# Poissons Ratio (y) = -0.06362 0.25754
# Poissons Ratio (z) = 0.12040 0.30745
#
# Static dielectric constant tensor:
#      x y z
#    x 4.108460 0.075950 0.007070 
#    y 0.075950 4.548180 0.343750 
#    z 0.007070 0.343750 4.564100 
# 
# 
# High freq. dielectric constant tensor:
#      x y z
#    x 1.967410 0.005810 0.007760 
#    y 0.005810 1.958280 0.012130 
#    z 0.007760 0.012130 1.976820 
# 
# From -- ./inp_files/7418.got.cif
#   From: 2010.06.25/outbox.cif.g09.slc.cpg/sg2_4_cif.got.tgz:7418.got - 2010.06.27 13:26:56.
