data_PCOD8009485
_publ_section_title
;
Structure prediction by ZEFSAII (Michael W. Deem and Ramdas Pophale) SiO2 
 PCOD8009485
Probable space group: P -1
;
_chemical_formula_sum "Si O2"
_cell_formula_units_Z 16
_cell_length_a 9.633604
_cell_length_b 13.758393
_cell_length_c 9.817062
_cell_angle_alpha 95.814763
_cell_angle_beta 50.584893
_cell_angle_gamma 68.235009
_cell_volume 824.374964
_symmetry_space_group_name_H-M "P -1"
_symmetry_group_IT_number 2
_symmetry_cell_setting 'triclinic'
loop_
_space_group_symop_operation_xyz
x,y,z
-x,-y,-z
loop_
_atom_site_type_symbol
_atom_site_label
_atom_site_fract_x
_atom_site_fract_y
_atom_site_fract_z
Si Si1 0.309174 0.009060 0.949286
Si Si2 0.257787 0.021605 0.301909
Si Si3 0.793636 0.542204 0.542188
Si Si4 0.905157 0.253096 0.167561
Si Si5 0.372745 0.624125 0.389741
Si Si6 0.359383 0.770850 0.893152
Si Si7 0.147025 0.513465 0.807048
Si Si8 0.782773 0.190295 0.708737
O O1 0.306863 0.896473 0.895123
O O2 0.539027 0.985203 0.757816
O O3 0.262669 0.038585 0.140934
O O4 0.120267 0.121512 0.000106
O O5 0.276404 0.901796 0.310288
O O6 0.036632 0.135006 0.515674
O O7 0.705972 0.460027 0.609819
O O8 0.618183 0.675607 0.720610
O O9 0.846037 0.543837 0.350428
O O10 0.000000 0.500000 0.500000
O O11 0.789401 0.273961 0.388149
O O12 0.739376 0.275005 0.156529
O O13 0.967643 0.346814 0.123093
O O14 0.611662 0.545979 0.293716
O O15 0.370836 0.689788 0.264147
O O16 0.260207 0.778029 0.102464
O O17 0.000000 0.500000 0.000000
#
# Coordination Sequence:
#
# PCOD8009485 Si02
#       8
#     2   2   2   2   2   2   2   2
#     4  10  21  36  67  85 121 163 201 250 310 360
#     4   9  20  40  56  94 119 156 208 251 294 373
#     4  11  25  42  64  93 127 164 206 253 313 367
#     4  11  21  44  63  87 121 167 206 244 313 373
#     4  11  22  43  68  85 124 174 203 249 308 370
#     4  11  23  41  58  93 128 156 202 257 308 363
#     4  11  25  43  66  91 123 165 211 255 301 370
#     4  10  22  36  65  88 123 158 204 252 303 357
#
# _framework density 19.408643000000001
#
# number of rings (size 3 to 8) (size 9 to 14) (size 15 to 20)
#    0.000    1.500    3.750    1.125    5.250    3.500 
#    0.000    0.625    0.000    0.000    0.000    0.000 
#    0.000    0.000    0.000    0.000    0.000    0.000 
#
# Total GULP energy -198475.172474 kJ/mol
# GULP energy per Si atom -12404.698280 kJ/mol
# Density = 1.936447 g / cm^3
# Si number density = 19.408643 Si / 1000 Ang^3
#
#
#
# Elastic Constant Matrix: (Units=GPa)
#
#
# Indices 1 2 3 4 5 6 
#
# 1 103.6017 30.1543 42.6527 2.7373 -14.2229 -5.0154
# 2 30.1543 107.2747 49.9497 1.3778 -2.6416 -12.8582
# 3 42.6527 49.9497 107.4526 5.3307 -14.7240 5.9338
# 4 2.7373 1.3778 5.3307 35.0870 5.3194 -6.5860
# 5 -14.2229 -2.6416 -14.7240 5.3194 20.3828 8.5291
# 6 -5.0154 -12.8582 5.9338 -6.5860 8.5291 24.6456
#
#
#
# Elastic Compliance Matrix: (Units=1/GPa)
#
#
# Indices 1 2 3 4 5 6 
#
# 1 0.012411 -0.002029 -0.002899 -0.001646 0.007028 -0.000707
# 2 -0.002029 0.016409 -0.010382 0.006941 -0.016175 0.018100
# 3 -0.002899 -0.010382 0.020038 -0.009824 0.022569 -0.021267
# 4 -0.001646 0.006941 -0.009824 0.039008 -0.028360 0.025890
# 5 0.007028 -0.016175 0.022569 -0.028360 0.098167 -0.053994
# 6 -0.000707 0.018100 -0.021267 0.025890 -0.053994 0.080599
#
#
# Mechanical properties :
#
#
# Convention : Reuss Voigt Hill
#
# Bulk Modulus (GPa) = 54.83768 62.64915 58.74342
# Shear Modulus (GPa) = 16.48361 29.06122 22.77241
#
# Velocity S-wave (km/s) = 2.91742 3.87374 3.42908
# Velocity P-wave (km/s) = 6.29794 7.23580 6.78310
#
# Compressibility (1/GPa) = 0.01823564
#
# Stress axis : x y z
#
# Youngs Moduli (GPa) = 80.57535 60.94366 49.90529
#
# Poissons Ratio (x) = 0.12367 0.14469
# Poissons Ratio (y) = 0.16350 0.51813
# Poissons Ratio (z) = 0.23361 0.63274
#
# Static dielectric constant tensor:
#      x y z
#    x 3.460430 0.023530 -0.092770 
#    y 0.023530 3.591000 0.022890 
#    z -0.092770 0.022890 3.631050 
# 
# 
# High freq. dielectric constant tensor:
#      x y z
#    x 1.751640 -0.002770 -0.006540 
#    y -0.002770 1.764670 0.005960 
#    z -0.006540 0.005960 1.757050 
# 
# From -- ./inp_files/186168.got.cif
#   From: 2010.06.25/outbox.cif.g09.slc.cpg/sg2_94_cif.got.tgz:186168.got - 2010.06.27 13:26:56.
