data_PCOD8009307
_publ_section_title
;
Structure prediction by ZEFSAII (Michael W. Deem and Ramdas Pophale) SiO2 
 PCOD8009307
Probable space group: P -1
;
_chemical_formula_sum "Si O2"
_cell_formula_units_Z 16
_cell_length_a 8.530791
_cell_length_b 16.935434
_cell_length_c 10.282517
_cell_angle_alpha 82.428789
_cell_angle_beta 150.980711
_cell_angle_gamma 93.033364
_cell_volume 708.339589
_symmetry_space_group_name_H-M "P -1"
_symmetry_group_IT_number 2
_symmetry_cell_setting 'triclinic'
loop_
_space_group_symop_operation_xyz
x,y,z
-x,-y,-z
loop_
_atom_site_type_symbol
_atom_site_label
_atom_site_fract_x
_atom_site_fract_y
_atom_site_fract_z
Si Si1 0.754101 0.555266 0.721652
Si Si2 0.230597 0.055709 0.213340
Si Si3 0.914559 0.774257 0.878960
Si Si4 0.175518 0.663307 0.862700
Si Si5 0.145012 0.286909 0.637355
Si Si6 0.286688 0.710900 0.422117
Si Si7 0.312280 0.102953 0.773740
Si Si8 0.371835 0.946921 0.726014
O O1 0.500000 0.500000 0.500000
O O2 0.534310 0.627857 0.619486
O O3 0.996738 0.585727 0.783135
O O4 0.000000 0.500000 0.000000
O O5 0.032535 0.132529 0.125089
O O6 0.382314 0.097140 0.190398
O O7 0.500000 0.000000 0.500000
O O8 0.000000 0.000000 0.000000
O O9 0.524451 0.776290 0.615882
O O10 0.016781 0.734116 0.825020
O O11 0.119721 0.728855 0.156219
O O12 0.124520 0.679315 0.669474
O O13 0.565926 0.656408 0.167421
O O14 0.272394 0.197441 0.695365
O O15 0.988914 0.288050 0.667322
O O16 0.978904 0.068231 0.578943
O O17 0.427244 0.042758 0.749725
O O18 0.566007 0.091531 0.078952
#
# Coordination Sequence:
#
# PCOD8009307 Si02
#       8
#     2   2   2   2   2   2   2   2
#     4  11  23  46  72  97 132 174 208 250 319 410
#     4  12  25  36  58  86 124 164 219 275 320 359
#     4  11  23  43  64  90 132 176 227 265 320 400
#     4  11  25  40  66 100 131 166 215 268 327 384
#     4  12  23  40  65  98 133 161 220 272 327 364
#     4  11  23  43  71  97 124 177 217 257 321 399
#     4  10  21  36  61  76 119 162 201 265 308 380
#     4  10  21  38  52  84 111 162 219 247 323 369
#
# _framework density 22.588037
#
# number of rings (size 3 to 8) (size 9 to 14) (size 15 to 20)
#    0.000    1.000    0.000    8.250    3.500    0.000 
#    0.000    3.750    0.000    0.000    0.000    0.000 
#    0.000    0.000    0.000    0.000    0.000    0.000 
#
# Total GULP energy -198234.414618 kJ/mol
# GULP energy per Si atom -12389.650914 kJ/mol
# Density = 2.253663 g / cm^3
# Si number density = 22.588037 Si / 1000 Ang^3
#
#
#
# Elastic Constant Matrix: (Units=GPa)
#
#
# Indices 1 2 3 4 5 6 
#
# 1 64.0261 4.4191 22.5780 6.8356 0.6800 7.8129
# 2 4.4191 95.6755 31.8014 7.0931 2.5962 5.2288
# 3 22.5780 31.8014 145.0442 6.6970 4.3464 6.9995
# 4 6.8356 7.0931 6.6970 43.3165 7.8433 7.5822
# 5 0.6800 2.5962 4.3464 7.8433 31.4021 2.0024
# 6 7.8129 5.2288 6.9995 7.5822 2.0024 24.5110
#
#
#
# Elastic Compliance Matrix: (Units=1/GPa)
#
#
# Indices 1 2 3 4 5 6 
#
# 1 0.017181 0.000383 -0.002487 -0.001744 0.000654 -0.004362
# 2 0.000383 0.011420 -0.002429 -0.001262 -0.000208 -0.001457
# 3 -0.002487 -0.002429 0.007884 -0.000148 -0.000746 -0.000834
# 4 -0.001744 -0.001262 -0.000148 0.025814 -0.005862 -0.006639
# 5 0.000654 -0.000208 -0.000746 -0.005862 0.033471 -0.000872
# 6 -0.004362 -0.001457 -0.000834 -0.006639 -0.000872 0.044862
#
#
# Mechanical properties :
#
#
# Convention : Reuss Voigt Hill
#
# Bulk Modulus (GPa) = 36.47061 46.92699 41.69880
# Shear Modulus (GPa) = 31.47877 36.24241 33.86059
#
# Velocity S-wave (km/s) = 3.73715 4.00996 3.87596
# Velocity P-wave (km/s) = 5.89939 6.50077 6.20736
#
# Compressibility (1/GPa) = 0.02741934
#
# Stress axis : x y z
#
# Youngs Moduli (GPa) = 58.20473 87.56213 126.84706
#
# Poissons Ratio (x) = -0.03354 0.31546
# Poissons Ratio (y) = -0.02229 0.30808
# Poissons Ratio (z) = 0.14475 0.21267
#
# Static dielectric constant tensor:
#      x y z
#    x 4.114660 0.133640 0.152250 
#    y 0.133640 4.388290 0.377860 
#    z 0.152250 0.377860 4.172580 
# 
# 
# High freq. dielectric constant tensor:
#      x y z
#    x 1.885350 0.002930 0.008470 
#    y 0.002930 1.884860 0.013550 
#    z 0.008470 0.013550 1.912600 
# 
# From -- ./inp_files/223633.got.cif
#   From: 2010.06.25/outbox.cif.g09.slc.cpg/sg2_112_cif.got.tgz:223633.got - 2010.06.27 13:26:56.
