data_PCOD8009172
_publ_section_title
;
Structure prediction by ZEFSAII (Michael W. Deem and Ramdas Pophale) SiO2 
 PCOD8009172
Probable space group: P -1
;
_chemical_formula_sum "Si O2"
_cell_formula_units_Z 14
_cell_length_a 11.283553
_cell_length_b 14.700689
_cell_length_c 8.513518
_cell_angle_alpha 154.394841
_cell_angle_beta 106.550422
_cell_angle_gamma 74.164885
_cell_volume 584.580265
_symmetry_space_group_name_H-M "P -1"
_symmetry_group_IT_number 2
_symmetry_cell_setting 'triclinic'
loop_
_space_group_symop_operation_xyz
x,y,z
-x,-y,-z
loop_
_atom_site_type_symbol
_atom_site_label
_atom_site_fract_x
_atom_site_fract_y
_atom_site_fract_z
Si Si1 0.415836 0.724968 0.982095
Si Si2 0.955404 0.265539 0.117408
Si Si3 0.240839 0.598387 0.957889
Si Si4 0.857925 0.585135 0.076371
Si Si5 0.327175 0.338737 0.143439
Si Si6 0.214805 0.151775 0.089435
Si Si7 0.779848 0.027422 0.870008
O O1 0.374291 0.679462 0.076235
O O2 0.369757 0.543749 0.567674
O O3 0.563428 0.745890 0.063467
O O4 0.347902 0.938586 0.223003
O O5 0.866457 0.235158 0.885569
O O6 0.000000 0.500000 0.500000
O O7 0.075340 0.108265 0.911588
O O8 0.873330 0.215439 0.163147
O O9 0.227191 0.573962 0.102027
O O10 0.218143 0.378256 0.523544
O O11 0.851421 0.813130 0.509814
O O12 0.798559 0.601676 0.906552
O O13 0.000000 0.500000 0.000000
O O14 0.302654 0.151083 0.967652
O O15 0.253113 0.976590 0.962097
#
# Coordination Sequence:
#
# PCOD8009172 Si02
#       7
#     2   2   2   2   2   2   2
#     4   9  20  40  61  83 110 158 208 237 284 343
#     4   9  16  31  56  81 108 148 196 236 277 342
#     4   8  17  34  55  78 113 153 191 235 288 347
#     4  11  23  38  57  88 124 154 191 245 299 344
#     4  10  21  38  60  84 118 153 197 251 283 335
#     4   9  17  31  54  83 112 151 190 233 286 339
#     4  10  21  36  58  84 116 155 196 237 292 358
#
# _framework density 23.948806999999999
#
# number of rings (size 3 to 8) (size 9 to 14) (size 15 to 20)
#    0.000    2.571    0.000    2.143    0.000    8.571 
#    0.000    9.286    0.000    0.000    0.000    0.000 
#    0.000    0.000    0.000    0.000    0.000    0.000 
#
# Total GULP energy -173447.545450 kJ/mol
# GULP energy per Si atom -12389.110389 kJ/mol
# Density = 2.389430 g / cm^3
# Si number density = 23.948807 Si / 1000 Ang^3
#
#
#
# Elastic Constant Matrix: (Units=GPa)
#
#
# Indices 1 2 3 4 5 6 
#
# 1 146.7895 66.5053 27.0045 10.8482 -1.8011 14.9231
# 2 66.5053 156.2181 22.2981 16.4904 7.4006 37.3667
# 3 27.0045 22.2981 25.0830 0.5430 -2.6979 3.8523
# 4 10.8482 16.4904 0.5430 23.2806 -2.1456 -2.3678
# 5 -1.8011 7.4006 -2.6979 -2.1456 24.0647 5.6475
# 6 14.9231 37.3667 3.8523 -2.3678 5.6475 49.8876
#
#
#
# Elastic Compliance Matrix: (Units=1/GPa)
#
#
# Indices 1 2 3 4 5 6 
#
# 1 0.009707 -0.002656 -0.007903 -0.002456 0.000552 -0.000483
# 2 -0.002656 0.010997 -0.006042 -0.007422 -0.003287 -0.006956
# 3 -0.007903 -0.006042 0.054044 0.007618 0.007481 0.002231
# 4 -0.002456 -0.007422 0.007618 0.050462 0.005702 0.007455
# 5 0.000552 -0.003287 0.007481 0.005702 0.044674 -0.003067
# 6 -0.000483 -0.006956 0.002231 0.007455 -0.003067 0.025929
#
#
# Mechanical properties :
#
#
# Convention : Reuss Voigt Hill
#
# Bulk Modulus (GPa) = 24.06884 62.18960 43.12922
# Shear Modulus (GPa) = 20.58774 33.59877 27.09325
#
# Velocity S-wave (km/s) = 2.93517 3.74965 3.36713
# Velocity P-wave (km/s) = 4.64316 6.69108 5.75888
#
# Compressibility (1/GPa) = 0.04154749
#
# Stress axis : x y z
#
# Youngs Moduli (GPa) = 103.01864 90.93048 18.50345
#
# Poissons Ratio (x) = 0.24148 0.14623
# Poissons Ratio (y) = 0.27359 0.11179
# Poissons Ratio (z) = 0.81416 0.54938
#
# Static dielectric constant tensor:
#      x y z
#    x 4.719920 0.201080 -0.040730 
#    y 0.201080 4.882670 0.268700 
#    z -0.040730 0.268700 3.748870 
# 
# 
# High freq. dielectric constant tensor:
#      x y z
#    x 1.950390 0.015990 0.003470 
#    y 0.015990 1.954480 0.015820 
#    z 0.003470 0.015820 1.910350 
# 
# From -- ./inp_files/274911.got.cif
#   From: 2010.06.25/outbox.cif.g09.slc.cpg/sg2_138_cif.got.tgz:274911.got - 2010.06.27 13:26:56.
