data_PCOD8009668
_publ_section_title
;
Structure prediction by ZEFSAII (Michael W. Deem and Ramdas Pophale) SiO2 
 PCOD8009668
Probable space group: P -1
;
_chemical_formula_sum "Si O2"
_cell_formula_units_Z 14
_cell_length_a 11.957114
_cell_length_b 10.765495
_cell_length_c 6.398575
_cell_angle_alpha 42.195204
_cell_angle_beta 98.029658
_cell_angle_gamma 107.625990
_cell_volume 522.611134
_symmetry_space_group_name_H-M "P -1"
_symmetry_group_IT_number 2
_symmetry_cell_setting 'triclinic'
loop_
_space_group_symop_operation_xyz
x,y,z
-x,-y,-z
loop_
_atom_site_type_symbol
_atom_site_label
_atom_site_fract_x
_atom_site_fract_y
_atom_site_fract_z
Si Si1 0.279453 0.401623 0.670422
Si Si2 0.728809 0.130490 0.540972
Si Si3 0.083009 0.056400 0.171208
Si Si4 0.677174 0.493156 0.965109
Si Si5 0.322581 0.823345 0.059163
Si Si6 0.169757 0.100346 0.591019
Si Si7 0.463671 0.230561 0.024950
O O1 0.275161 0.587976 0.302575
O O2 0.154417 0.234241 0.818649
O O3 0.305857 0.445317 0.868552
O O4 0.389878 0.323927 0.725853
O O5 0.673489 0.143238 0.736245
O O6 0.861653 0.121203 0.616332
O O7 0.637689 0.932432 0.666530
O O8 0.732574 0.313040 0.167247
O O9 0.105084 0.129691 0.325198
O O10 0.941594 0.987869 0.165286
O O11 0.742965 0.682681 0.597757
O O12 0.538836 0.400477 0.987236
O O13 0.456354 0.882184 0.934340
O O14 0.241151 0.941807 0.780546
#
# Coordination Sequence:
#
# PCOD8009668 Si02
#       7
#     2   2   2   2   2   2   2
#     4   9  21  39  60  86 115 150 189 236 286 336
#     4  10  22  39  59  85 116 152 190 235 285 336
#     4   9  20  42  63  82 113 151 193 235 281 338
#     4  10  21  37  59  87 116 150 191 232 283 341
#     4  11  23  37  56  87 120 150 188 234 287 338
#     4  10  22  39  61  87 114 148 192 238 282 338
#     4  11  21  37  60  85 116 152 192 234 280 339
#
# _framework density 26.788561000000001
#
# number of rings (size 3 to 8) (size 9 to 14) (size 15 to 20)
#    0.000    2.000    0.000    2.571    0.000    9.714 
#    0.000    2.857    0.000    0.000    0.000    0.000 
#    0.000    0.000    0.000    0.000    0.000    0.000 
#
# Total GULP energy -173535.328584 kJ/mol
# GULP energy per Si atom -12395.380613 kJ/mol
# Density = 2.672759 g / cm^3
# Si number density = 26.788561 Si / 1000 Ang^3
#
#
#
# Elastic Constant Matrix: (Units=GPa)
#
#
# Indices 1 2 3 4 5 6 
#
# 1 194.0425 51.2598 82.8035 -28.9381 4.6208 8.7917
# 2 51.2598 84.5228 36.8092 -23.3318 11.7551 29.8329
# 3 82.8035 36.8092 176.0015 -17.7157 23.3443 15.9033
# 4 -28.9381 -23.3318 -17.7157 45.5207 -12.3971 1.6791
# 5 4.6208 11.7551 23.3443 -12.3971 27.7166 -3.3707
# 6 8.7917 29.8329 15.9033 1.6791 -3.3707 38.4136
#
#
#
# Elastic Compliance Matrix: (Units=1/GPa)
#
#
# Indices 1 2 3 4 5 6 
#
# 1 0.007971 -0.004505 -0.003541 0.002662 0.005178 0.003478
# 2 -0.004505 0.024736 0.000762 0.008378 -0.009024 -0.019653
# 3 -0.003541 0.000762 0.008504 -0.000471 -0.007586 -0.003947
# 4 0.002662 0.008378 -0.000471 0.030539 0.009153 -0.007453
# 5 0.005178 -0.009024 -0.007586 0.009153 0.051114 0.013049
# 6 0.003478 -0.019653 -0.003947 -0.007453 0.013049 0.043604
#
#
# Mechanical properties :
#
#
# Convention : Reuss Voigt Hill
#
# Bulk Modulus (GPa) = 37.53328 88.47908 63.00618
# Shear Modulus (GPa) = 26.32763 41.24314 33.78539
#
# Velocity S-wave (km/s) = 3.13836 3.92801 3.55517
# Velocity P-wave (km/s) = 5.21284 7.32616 6.35792
#
# Compressibility (1/GPa) = 0.02664302
#
# Stress axis : x y z
#
# Youngs Moduli (GPa) = 125.46095 40.42747 117.59661
#
# Poissons Ratio (x) = 0.18212 0.41640
# Poissons Ratio (y) = 0.56518 -0.08964
# Poissons Ratio (z) = 0.44424 -0.03082
#
# Static dielectric constant tensor:
#      x y z
#    x 4.871260 -0.255480 -0.020770 
#    y -0.255480 5.260770 -0.252800 
#    z -0.020770 -0.252800 5.416880 
# 
# 
# High freq. dielectric constant tensor:
#      x y z
#    x 2.064960 -0.012300 -0.005420 
#    y -0.012300 2.118950 0.017310 
#    z -0.005420 0.017310 2.091180 
# 
# From -- ./inp_files/271384.got.cif
#   From: 2010.06.25/outbox.cif.g09.slc.cpg/sg2_136_cif.got.tgz:271384.got - 2010.06.27 13:26:56.
