data_PCOD8009830
_publ_section_title
;
Structure prediction by ZEFSAII (Michael W. Deem and Ramdas Pophale) SiO2 
 PCOD8009830
Probable space group: P -1
;
_chemical_formula_sum "Si O2"
_cell_formula_units_Z 16
_cell_length_a 14.810030
_cell_length_b 11.495516
_cell_length_c 10.365702
_cell_angle_alpha 110.089534
_cell_angle_beta 151.517750
_cell_angle_gamma 69.837943
_cell_volume 786.769786
_symmetry_space_group_name_H-M "P -1"
_symmetry_group_IT_number 2
_symmetry_cell_setting 'triclinic'
loop_
_space_group_symop_operation_xyz
x,y,z
-x,-y,-z
loop_
_atom_site_type_symbol
_atom_site_label
_atom_site_fract_x
_atom_site_fract_y
_atom_site_fract_z
Si Si1 0.781467 0.731673 0.382107
Si Si2 0.722026 0.481043 0.304887
Si Si3 0.905797 0.982343 0.737703
Si Si4 0.347432 0.778899 0.888548
Si Si5 0.861041 0.987317 0.201256
Si Si6 0.738281 0.738430 0.032554
Si Si7 0.684656 0.206785 0.444232
Si Si8 0.940624 0.405167 0.786298
O O1 0.847347 0.585089 0.439964
O O2 0.882954 0.836292 0.627905
O O3 0.568489 0.742996 0.172562
O O4 0.808553 0.749843 0.272023
O O5 0.768579 0.476693 0.514400
O O6 0.500000 0.500000 0.000000
O O7 0.777410 0.336506 0.275730
O O8 0.713976 0.078354 0.516373
O O9 0.036663 0.034525 0.813651
O O10 0.000000 0.000000 0.000000
O O11 0.311010 0.827271 0.715021
O O12 0.282309 0.889000 0.945616
O O13 0.739757 0.872430 0.022656
O O14 0.000000 0.000000 0.500000
O O15 0.515579 0.713578 0.739790
O O16 0.876004 0.636837 0.089743
O O17 0.857674 0.292219 0.716519
O O18 0.000000 0.500000 0.000000
#
# Coordination Sequence:
#
# PCOD8009830 Si02
#       8
#     2   2   2   2   2   2   2   2
#     4  10  21  37  61  93 125 166 212 263 323 376
#     4   9  20  39  62  92 131 166 211 265 324 382
#     4  12  25  38  59  95 138 163 209 276 329 380
#     4   9  18  37  64  91 118 166 218 266 300 384
#     4  12  19  37  65  91 121 164 219 260 319 381
#     4  11  22  40  71  94 119 171 226 267 317 394
#     4  10  21  42  64  93 128 163 221 266 319 389
#     4  11  24  42  67  93 131 173 217 273 323 389
#
# _framework density 20.336319
#
# number of rings (size 3 to 8) (size 9 to 14) (size 15 to 20)
#    0.000    1.500    3.750    2.250    1.750    3.000 
#    0.000    5.000    0.000    0.000    0.000    0.000 
#    0.000    0.000    0.000    0.000    0.000    0.000 
#
# Total GULP energy -198226.816402 kJ/mol
# GULP energy per Si atom -12389.176025 kJ/mol
# Density = 2.029003 g / cm^3
# Si number density = 20.336319 Si / 1000 Ang^3
#
#
#
# Elastic Constant Matrix: (Units=GPa)
#
#
# Indices 1 2 3 4 5 6 
#
# 1 92.8428 47.4488 44.3570 8.6464 -1.2600 -4.3668
# 2 47.4488 128.3856 47.8600 8.0449 -10.3630 12.4926
# 3 44.3570 47.8600 91.8542 6.4317 -11.7631 -8.6375
# 4 8.6464 8.0449 6.4317 33.8637 0.7757 0.9566
# 5 -1.2600 -10.3630 -11.7631 0.7757 27.0618 -0.8903
# 6 -4.3668 12.4926 -8.6375 0.9566 -0.8903 41.0012
#
#
#
# Elastic Compliance Matrix: (Units=1/GPa)
#
#
# Indices 1 2 3 4 5 6 
#
# 1 0.015721 -0.004016 -0.005603 -0.001972 -0.003129 0.001696
# 2 -0.004016 0.011523 -0.004159 -0.000840 0.002285 -0.004745
# 3 -0.005603 -0.004159 0.016977 -0.001061 0.005701 0.004396
# 4 -0.001972 -0.000840 -0.001061 0.030502 -0.001779 -0.000928
# 5 -0.003129 0.002285 0.005701 -0.001779 0.040247 0.001087
# 6 0.001696 -0.004745 0.004396 -0.000928 0.001087 0.026987
#
#
# Mechanical properties :
#
#
# Convention : Reuss Voigt Hill
#
# Bulk Modulus (GPa) = 60.00335 65.82382 62.91358
# Shear Modulus (GPa) = 28.56061 31.94644 30.25353
#
# Velocity S-wave (km/s) = 3.75162 3.96777 3.86120
# Velocity P-wave (km/s) = 6.95239 7.30950 7.13318
#
# Compressibility (1/GPa) = 0.01666574
#
# Stress axis : x y z
#
# Youngs Moduli (GPa) = 63.61023 86.78666 58.90254
#
# Poissons Ratio (x) = 0.34849 0.33000
# Poissons Ratio (y) = 0.25543 0.24499
# Poissons Ratio (z) = 0.35638 0.36097
#
# Static dielectric constant tensor:
#      x y z
#    x 3.507890 -0.471160 0.366060 
#    y -0.471160 1.153240 0.825860 
#    z 0.366060 0.825860 3.231770 
# 
# 
# High freq. dielectric constant tensor:
#      x y z
#    x 1.776980 0.008680 0.017810 
#    y 0.008680 1.813170 -0.004170 
#    z 0.017810 -0.004170 1.771630 
# 
# From -- ./inp_files/274656.got.cif
#   From: 2010.06.25/outbox.cif.g09.slc.cpg/sg2_138_cif.got.tgz:274656.got - 2010.06.27 13:26:56.
