data_PCOD8009822
_publ_section_title
;
Structure prediction by ZEFSAII (Michael W. Deem and Ramdas Pophale) SiO2 
 PCOD8009822
Probable space group: P -1
;
_chemical_formula_sum "Si O2"
_cell_formula_units_Z 14
_cell_length_a 5.082092
_cell_length_b 12.322013
_cell_length_c 13.271678
_cell_angle_alpha 107.791596
_cell_angle_beta 51.900041
_cell_angle_gamma 89.500582
_cell_volume 600.772408
_symmetry_space_group_name_H-M "P -1"
_symmetry_group_IT_number 2
_symmetry_cell_setting 'triclinic'
loop_
_space_group_symop_operation_xyz
x,y,z
-x,-y,-z
loop_
_atom_site_type_symbol
_atom_site_label
_atom_site_fract_x
_atom_site_fract_y
_atom_site_fract_z
Si Si1 0.232822 0.112110 0.137841
Si Si2 0.566342 0.823333 0.684100
Si Si3 0.659761 0.864177 0.450525
Si Si4 0.258817 0.674707 0.193525
Si Si5 0.444779 0.354743 0.668923
Si Si6 0.241111 0.349999 0.114382
Si Si7 0.453062 0.413455 0.288252
O O1 0.258077 0.116342 0.254188
O O2 0.359847 0.217705 0.090339
O O3 0.842864 0.114703 0.201093
O O4 0.500000 0.000000 0.000000
O O5 0.734516 0.848036 0.546922
O O6 0.650514 0.680493 0.639378
O O7 0.414210 0.776022 0.452652
O O8 0.027858 0.813509 0.291036
O O9 0.500000 0.000000 0.500000
O O10 0.504290 0.650354 0.224932
O O11 0.973316 0.597732 0.237560
O O12 0.484031 0.639192 0.031317
O O13 0.627499 0.452735 0.606677
O O14 0.262967 0.429164 0.229773
O O15 0.864806 0.374205 0.160581
#
# Coordination Sequence:
#
# PCOD8009822 Si02
#       7
#     2   2   2   2   2   2   2
#     4  10  22  38  63  90 118 159 206 247 301 354
#     4  10  23  41  63  88 122 161 195 256 299 350
#     4  10  26  44  62  89 124 162 208 245 301 357
#     4  10  23  39  59  94 120 162 202 242 306 358
#     4  10  23  39  61  93 118 164 205 241 309 352
#     4  10  21  37  61  91 128 155 198 252 307 356
#     4  10  21  40  62  92 122 157 201 253 304 359
#
# _framework density 23.303334
#
# number of rings (size 3 to 8) (size 9 to 14) (size 15 to 20)
#    0.857    1.143    0.000    2.143    4.000    5.714 
#    0.000    0.714    0.000    0.000    0.000    0.000 
#    0.000    0.000    0.000    0.000    0.000    0.000 
#
# Total GULP energy -173477.829958 kJ/mol
# GULP energy per Si atom -12391.273568 kJ/mol
# Density = 2.325029 g / cm^3
# Si number density = 23.303334 Si / 1000 Ang^3
#
#
#
# Elastic Constant Matrix: (Units=GPa)
#
#
# Indices 1 2 3 4 5 6 
#
# 1 88.9263 9.0504 -1.4041 4.7251 17.8043 -21.5295
# 2 9.0504 104.5976 28.7984 15.4986 21.7433 -7.3038
# 3 -1.4041 28.7984 48.4387 0.6906 7.5963 -5.8783
# 4 4.7251 15.4986 0.6906 31.5455 -3.9890 10.8304
# 5 17.8043 21.7433 7.5963 -3.9890 34.0464 0.0714
# 6 -21.5295 -7.3038 -5.8783 10.8304 0.0714 25.7929
#
#
#
# Elastic Compliance Matrix: (Units=1/GPa)
#
#
# Indices 1 2 3 4 5 6 
#
# 1 0.022427 0.005529 0.004027 -0.018444 -0.018379 0.028999
# 2 0.005529 0.017065 -0.005682 -0.016038 -0.014433 0.014927
# 3 0.004027 -0.005682 0.025894 -0.001844 -0.004488 0.008441
# 4 -0.018444 -0.016038 -0.001844 0.061803 0.027637 -0.046385
# 5 -0.018379 -0.014433 -0.004488 0.027637 0.052507 -0.032201
# 6 0.028999 0.014927 0.008441 -0.046385 -0.032201 0.088692
#
#
# Mechanical properties :
#
#
# Convention : Reuss Voigt Hill
#
# Bulk Modulus (GPa) = 13.67341 34.98356 24.32848
# Shear Modulus (GPa) = 17.54275 31.97818 24.76046
#
# Velocity S-wave (km/s) = 2.74670 3.70842 3.26318
# Velocity P-wave (km/s) = 3.99242 5.77766 4.96592
#
# Compressibility (1/GPa) = 0.07313467
#
# Stress axis : x y z
#
# Youngs Moduli (GPa) = 44.58964 58.59830 38.61893
#
# Poissons Ratio (x) = -0.32400 -0.15553
# Poissons Ratio (y) = -0.24654 0.21944
# Poissons Ratio (z) = -0.17957 0.33296
#
# Static dielectric constant tensor:
#      x y z
#    x 4.589950 0.029640 0.119740 
#    y 0.029640 4.283180 0.226720 
#    z 0.119740 0.226720 3.848510 
# 
# 
# High freq. dielectric constant tensor:
#      x y z
#    x 1.938680 -0.010040 0.007920 
#    y -0.010040 1.921160 0.013740 
#    z 0.007920 0.013740 1.903000 
# 
# From -- ./inp_files/69318.got.cif
#   From: 2010.06.25/outbox.cif.g09.slc.cpg/sg2_35_cif.got.tgz:69318.got - 2010.06.27 13:26:56.
