data_PCOD8009858
_publ_section_title
;
Structure prediction by ZEFSAII (Michael W. Deem and Ramdas Pophale) SiO2 
 PCOD8009858
Probable space group: P -1
;
_chemical_formula_sum "Si O2"
_cell_formula_units_Z 14
_cell_length_a 11.448098
_cell_length_b 13.300126
_cell_length_c 8.336913
_cell_angle_alpha 85.703919
_cell_angle_beta 110.549995
_cell_angle_gamma 146.750774
_cell_volume 589.636700
_symmetry_space_group_name_H-M "P -1"
_symmetry_group_IT_number 2
_symmetry_cell_setting 'triclinic'
loop_
_space_group_symop_operation_xyz
x,y,z
-x,-y,-z
loop_
_atom_site_type_symbol
_atom_site_label
_atom_site_fract_x
_atom_site_fract_y
_atom_site_fract_z
Si Si1 0.532716 0.761032 0.026982
Si Si2 0.282167 0.040923 0.392832
Si Si3 0.973485 0.412857 0.342530
Si Si4 0.315777 0.726593 0.193380
Si Si5 0.705508 0.676772 0.204994
Si Si6 0.613082 0.429484 0.359082
Si Si7 0.598655 0.993671 0.855382
O O1 0.316790 0.647363 0.057418
O O2 0.702984 0.796818 0.197899
O O3 0.393914 0.619150 0.820740
O O4 0.702503 0.977157 0.025902
O O5 0.410034 0.092241 0.612212
O O6 0.377614 0.220692 0.370397
O O7 0.381814 0.030439 0.313921
O O8 0.983016 0.832656 0.277814
O O9 0.085534 0.543902 0.221927
O O10 0.129682 0.421042 0.449066
O O11 0.000000 0.500000 0.500000
O O12 0.685738 0.185000 0.204549
O O13 0.265537 0.803785 0.089447
O O14 0.616956 0.555051 0.338189
O O15 0.500000 0.500000 0.000000
#
# Coordination Sequence:
#
# PCOD8009858 Si02
#       7
#     2   2   2   2   2   2   2
#     4  10  22  39  54  89 125 151 195 241 287 350
#     4  10  21  37  62  87 110 153 205 234 285 349
#     4  11  20  39  62  88 118 148 204 240 277 359
#     4  11  23  37  61  89 122 155 185 244 306 337
#     4  10  22  39  63  83 114 157 201 240 286 339
#     4   9  20  39  61  86 115 153 199 242 282 344
#     4  11  22  38  61  89 119 156 194 238 290 352
#
# _framework density 23.743433
#
# number of rings (size 3 to 8) (size 9 to 14) (size 15 to 20)
#    0.000    1.714    4.286    1.714    2.000    6.286 
#    0.000   10.000    0.000    0.000    0.000    0.000 
#    0.000    0.000    0.000    0.000    0.000    0.000 
#
# Total GULP energy -173452.565786 kJ/mol
# GULP energy per Si atom -12389.468985 kJ/mol
# Density = 2.368939 g / cm^3
# Si number density = 23.743433 Si / 1000 Ang^3
#
#
#
# Elastic Constant Matrix: (Units=GPa)
#
#
# Indices 1 2 3 4 5 6 
#
# 1 87.3295 47.6500 28.9421 -19.0544 29.3761 -24.2218
# 2 47.6500 120.6967 34.8842 -11.7585 27.9305 -8.1072
# 3 28.9421 34.8842 41.7520 -9.8883 19.4786 -11.8826
# 4 -19.0544 -11.7585 -9.8883 46.4332 4.2994 20.3437
# 5 29.3761 27.9305 19.4786 4.2994 45.3711 -16.5129
# 6 -24.2218 -8.1072 -11.8826 20.3437 -16.5129 39.1681
#
#
#
# Elastic Compliance Matrix: (Units=1/GPa)
#
#
# Indices 1 2 3 4 5 6 
#
# 1 0.019963 -0.004099 -0.004594 0.004865 -0.007245 0.004521
# 2 -0.004099 0.012786 -0.006494 0.002950 -0.004657 -0.005354
# 3 -0.004594 -0.006494 0.038615 0.005363 -0.009908 0.000567
# 4 0.004865 0.002950 0.005363 0.036615 -0.018605 -0.021615
# 5 -0.007245 -0.004657 -0.009908 -0.018605 0.042592 0.019169
# 6 0.004521 -0.005354 0.000567 -0.021615 0.019169 0.046699
#
#
# Mechanical properties :
#
#
# Convention : Reuss Voigt Hill
#
# Bulk Modulus (GPa) = 24.39636 52.52566 38.46101
# Shear Modulus (GPa) = 20.72064 35.41462 28.06763
#
# Velocity S-wave (km/s) = 2.95734 3.86625 3.44193
# Velocity P-wave (km/s) = 4.68598 6.48851 5.65947
#
# Compressibility (1/GPa) = 0.04098973
#
# Stress axis : x y z
#
# Youngs Moduli (GPa) = 50.09341 78.21181 25.89683
#
# Poissons Ratio (x) = 0.32059 0.11897
# Poissons Ratio (y) = 0.20534 0.16816
# Poissons Ratio (z) = 0.23014 0.50787
#
# Static dielectric constant tensor:
#      x y z
#    x 4.638640 -0.360590 0.534250 
#    y -0.360590 4.471050 -0.439070 
#    z 0.534250 -0.439070 4.607630 
# 
# 
# High freq. dielectric constant tensor:
#      x y z
#    x 1.924170 -0.010840 0.017550 
#    y -0.010840 1.939690 -0.023780 
#    z 0.017550 -0.023780 1.945060 
# 
# From -- ./inp_files/265449.got.cif
#   From: 2010.06.25/outbox.cif.g09.slc.cpg/sg2_133_cif.got.tgz:265449.got - 2010.06.27 13:26:56.
