data_PCOD8009423
_publ_section_title
;
Structure prediction by ZEFSAII (Michael W. Deem and Ramdas Pophale) SiO2 
 PCOD8009423
Probable space group: P -1
;
_chemical_formula_sum "Si O2"
_cell_formula_units_Z 16
_cell_length_a 8.731246
_cell_length_b 18.009554
_cell_length_c 21.609957
_cell_angle_alpha 26.510636
_cell_angle_beta 151.485738
_cell_angle_gamma 145.617942
_cell_volume 711.853821
_symmetry_space_group_name_H-M "P -1"
_symmetry_group_IT_number 2
_symmetry_cell_setting 'triclinic'
loop_
_space_group_symop_operation_xyz
x,y,z
-x,-y,-z
loop_
_atom_site_type_symbol
_atom_site_label
_atom_site_fract_x
_atom_site_fract_y
_atom_site_fract_z
Si Si1 0.326579 0.854768 0.093792
Si Si2 0.157436 0.364641 0.741096
Si Si3 0.322565 0.522676 0.057558
Si Si4 0.856049 0.835825 0.751484
Si Si5 0.588412 0.946152 0.905726
Si Si6 0.596372 0.858925 0.841869
Si Si7 0.221635 0.374172 0.615453
Si Si8 0.367781 0.912740 0.422923
O O1 0.467633 0.683627 0.262341
O O2 0.380409 0.896373 0.154741
O O3 0.944007 0.820759 0.970143
O O4 0.500000 0.000000 0.000000
O O5 0.378200 0.463622 0.799125
O O6 0.305556 0.395249 0.702076
O O7 0.823394 0.442956 0.564624
O O8 0.126792 0.164092 0.894586
O O9 0.304025 0.349311 0.140130
O O10 0.361706 0.681314 0.906418
O O11 0.000000 0.500000 0.000000
O O12 0.666755 0.852206 0.607886
O O13 0.233117 0.830168 0.875409
O O14 0.833743 0.989416 0.674559
O O15 0.630125 0.986818 0.817450
O O16 0.456623 0.957424 0.663581
O O17 0.888243 0.238121 0.586775
#
# Coordination Sequence:
#
# PCOD8009423 Si02
#       8
#     2   2   2   2   2   2   2   2
#     4  12  21  39  67  96 132 170 221 270 327 387
#     4  10  21  36  63  96 125 174 213 259 333 385
#     4  11  22  42  65  91 131 175 211 269 328 394
#     4  11  22  41  70  91 132 177 214 268 336 393
#     4  11  21  40  65  95 131 173 215 269 328 387
#     4  11  24  38  65 101 129 169 225 271 321 394
#     4  11  21  37  64  93 132 167 215 273 319 384
#     4  11  23  40  65 101 126 169 224 274 325 390
#
# _framework density 22.476526
#
# number of rings (size 3 to 8) (size 9 to 14) (size 15 to 20)
#    0.000    1.000    7.500    0.375    0.000    2.000 
#    0.000    2.500    0.000    3.000    0.000    0.000 
#    0.000    0.000    0.000    0.000    0.000    0.000 
#
# Total GULP energy -198278.910125 kJ/mol
# GULP energy per Si atom -12392.431883 kJ/mol
# Density = 2.242537 g / cm^3
# Si number density = 22.476526 Si / 1000 Ang^3
#
#
#
# Elastic Constant Matrix: (Units=GPa)
#
#
# Indices 1 2 3 4 5 6 
#
# 1 72.3823 0.0502 22.6643 -9.1991 0.7464 2.7716
# 2 0.0502 56.1198 -6.9892 -7.6599 0.4727 0.0067
# 3 22.6643 -6.9892 72.2739 -15.5122 -7.0610 -10.8289
# 4 -9.1991 -7.6599 -15.5122 26.9859 -6.3886 3.1676
# 5 0.7464 0.4727 -7.0610 -6.3886 40.9486 -6.7964
# 6 2.7716 0.0067 -10.8289 3.1676 -6.7964 32.8144
#
#
#
# Elastic Compliance Matrix: (Units=1/GPa)
#
#
# Indices 1 2 3 4 5 6 
#
# 1 0.015893 -0.000309 -0.005156 0.002457 -0.001384 -0.003568
# 2 -0.000309 0.019405 0.004032 0.008056 0.001894 0.000968
# 3 -0.005156 0.004032 0.020065 0.011611 0.006528 0.007288
# 4 0.002457 0.008056 0.011611 0.049038 0.009663 0.000890
# 5 -0.001384 0.001894 0.006528 0.009663 0.028251 0.007189
# 6 -0.003568 0.000968 0.007288 0.000890 0.007189 0.034584
#
#
# Mechanical properties :
#
#
# Convention : Reuss Voigt Hill
#
# Bulk Modulus (GPa) = 19.04840 25.80297 22.42568
# Shear Modulus (GPa) = 26.65243 32.48648 29.56946
#
# Velocity S-wave (km/s) = 3.44727 3.80590 3.63101
# Velocity P-wave (km/s) = 4.93336 5.55140 5.25148
#
# Compressibility (1/GPa) = 0.05249785
#
# Stress axis : x y z
#
# Youngs Moduli (GPa) = 62.91895 51.53327 49.83837
#
# Poissons Ratio (x) = 0.01592 0.25698
# Poissons Ratio (y) = 0.01943 -0.20097
# Poissons Ratio (z) = 0.32443 -0.20780
#
# Static dielectric constant tensor:
#      x y z
#    x 4.034030 -0.193000 0.048220 
#    y -0.193000 4.214560 -0.073730 
#    z 0.048220 -0.073730 4.322780 
# 
# 
# High freq. dielectric constant tensor:
#      x y z
#    x 1.875300 -0.019790 0.004860 
#    y -0.019790 1.882380 -0.000430 
#    z 0.004860 -0.000430 1.890420 
# 
# From -- ./inp_files/591226.got.cif
#   From: 2010.06.25/outbox.cif.g09.slc.cpg/sg2_296_cif.got.tgz:591226.got - 2010.06.27 13:26:56.
