data_PCOD8009094
_publ_section_title
;
Structure prediction by ZEFSAII (Michael W. Deem and Ramdas Pophale) SiO2 
 PCOD8009094
Probable space group: P -1
;
_chemical_formula_sum "Si O2"
_cell_formula_units_Z 14
_cell_length_a 24.330117
_cell_length_b 7.237979
_cell_length_c 21.867885
_cell_angle_alpha 64.777399
_cell_angle_beta 169.235905
_cell_angle_gamma 115.702170
_cell_volume 648.066263
_symmetry_space_group_name_H-M "P -1"
_symmetry_group_IT_number 2
_symmetry_cell_setting 'triclinic'
loop_
_space_group_symop_operation_xyz
x,y,z
-x,-y,-z
loop_
_atom_site_type_symbol
_atom_site_label
_atom_site_fract_x
_atom_site_fract_y
_atom_site_fract_z
Si Si1 0.190514 0.481687 0.040975
Si Si2 0.947673 0.576654 0.515341
Si Si3 0.654782 0.933126 0.360069
Si Si4 0.167309 0.020358 0.117273
Si Si5 0.389684 0.323802 0.973232
Si Si6 0.053146 0.715696 0.743688
Si Si7 0.823277 0.726487 0.688555
O O1 0.175778 0.237018 0.060867
O O2 0.506985 0.612489 0.377736
O O3 0.030762 0.534099 0.795088
O O4 0.999135 0.546384 0.879422
O O5 0.866458 0.735408 0.350110
O O6 0.262671 0.488410 0.858242
O O7 0.905588 0.660829 0.525318
O O8 0.686608 0.395244 0.250718
O O9 0.801343 0.911104 0.589624
O O10 0.895200 0.908270 0.572554
O O11 0.397034 0.751394 0.098408
O O12 0.481102 0.134802 0.139239
O O13 0.500000 0.000000 0.500000
O O14 0.000000 0.000000 0.000000
O O15 0.009864 0.833800 0.932308
#
# Coordination Sequence:
#
# PCOD8009094 Si02
#       7
#     2   2   2   2   2   2   2
#     4  10  23  43  63  92 129 161 204 261 307 363
#     4  10  21  36  55  85 120 157 199 247 302 353
#     4  10  21  38  59  86 116 157 204 246 304 358
#     4  12  26  42  66  98 121 164 211 240 316 386
#     4  10  21  36  55  85 120 157 199 247 302 353
#     4  10  21  38  59  86 116 157 204 246 304 358
#     4  10  23  43  63  92 129 161 204 261 307 363
#
# _framework density 21.602730999999999
#
# number of rings (size 3 to 8) (size 9 to 14) (size 15 to 20)
#    0.000    1.714    0.000    3.429    2.000    4.571 
#    2.571    0.000    0.000    0.000    0.000    0.000 
#    0.000    0.000    0.000    0.000    0.000    0.000 
#
# Total GULP energy -173445.345584 kJ/mol
# GULP energy per Si atom -12388.953256 kJ/mol
# Density = 2.155356 g / cm^3
# Si number density = 21.602731 Si / 1000 Ang^3
#
#
#
# Elastic Constant Matrix: (Units=GPa)
#
#
# Indices 1 2 3 4 5 6 
#
# 1 83.5384 -4.7796 24.1625 3.4536 4.6585 -15.3625
# 2 -4.7796 34.4698 5.8083 -7.6812 -1.4414 4.7481
# 3 24.1625 5.8083 93.5887 -8.3737 13.0906 -7.3059
# 4 3.4536 -7.6812 -8.3737 34.6902 -6.7396 -2.8205
# 5 4.6585 -1.4414 13.0906 -6.7396 36.0685 3.9035
# 6 -15.3625 4.7481 -7.3059 -2.8205 3.9035 25.7174
#
#
#
# Elastic Compliance Matrix: (Units=1/GPa)
#
#
# Indices 1 2 3 4 5 6 
#
# 1 0.014516 0.001018 -0.003102 -0.001704 -0.001860 0.007697
# 2 0.001018 0.032074 -0.002685 0.006648 0.004011 -0.005956
# 3 -0.003102 -0.002685 0.012687 0.002208 -0.004238 0.003132
# 4 -0.001704 0.006648 0.002208 0.032172 0.005581 0.001063
# 5 -0.001860 0.004011 -0.004238 0.005581 0.031488 -0.007223
# 6 0.007697 -0.005956 0.003132 0.001063 -0.007223 0.046685
#
#
# Mechanical properties :
#
#
# Convention : Reuss Voigt Hill
#
# Bulk Modulus (GPa) = 20.10503 29.10880 24.60691
# Shear Modulus (GPa) = 25.54417 31.72227 28.63322
#
# Velocity S-wave (km/s) = 3.44241 3.83618 3.64461
# Velocity P-wave (km/s) = 5.01270 5.75548 5.39688
#
# Compressibility (1/GPa) = 0.04973881
#
# Stress axis : x y z
#
# Youngs Moduli (GPa) = 68.89081 31.17802 78.81811
#
# Poissons Ratio (x) = -0.03173 0.24452
# Poissons Ratio (y) = -0.07011 0.21159
# Poissons Ratio (z) = 0.21372 0.08370
#
# Static dielectric constant tensor:
#      x y z
#    x 4.119540 0.178730 -0.100780 
#    y 0.178730 3.581900 -0.122510 
#    z -0.100780 -0.122510 4.164360 
# 
# 
# High freq. dielectric constant tensor:
#      x y z
#    x 1.862850 0.007010 0.006750 
#    y 0.007010 1.816870 -0.012180 
#    z 0.006750 -0.012180 1.868610 
# 
# From -- ./inp_files/9288.got.cif
#   From: 2010.06.25/outbox.cif.g09.slc.cpg/sg2_5_cif.got.tgz:9288.got - 2010.06.27 13:26:56.
