data_PCOD8009658
_publ_section_title
;
Structure prediction by ZEFSAII (Michael W. Deem and Ramdas Pophale) SiO2 
 PCOD8009658
Probable space group: P -1
;
_chemical_formula_sum "Si O2"
_cell_formula_units_Z 16
_cell_length_a 24.530577
_cell_length_b 12.767083
_cell_length_c 7.865017
_cell_angle_alpha 115.198254
_cell_angle_beta 65.708596
_cell_angle_gamma 159.122027
_cell_volume 793.592120
_symmetry_space_group_name_H-M "P -1"
_symmetry_group_IT_number 2
_symmetry_cell_setting 'triclinic'
loop_
_space_group_symop_operation_xyz
x,y,z
-x,-y,-z
loop_
_atom_site_type_symbol
_atom_site_label
_atom_site_fract_x
_atom_site_fract_y
_atom_site_fract_z
Si Si1 0.165606 0.339910 0.559946
Si Si2 0.766321 0.992840 0.955230
Si Si3 0.775323 0.310722 0.425948
Si Si4 0.734986 0.678039 0.795144
Si Si5 0.207171 0.693130 0.232794
Si Si6 0.042983 0.180607 0.947464
Si Si7 0.988548 0.483074 0.249841
Si Si8 0.411078 0.115483 0.944342
O O1 0.184900 0.486055 0.518555
O O2 0.282025 0.446485 0.421450
O O3 0.175790 0.383273 0.779144
O O4 0.000000 0.000000 0.500000
O O5 0.738033 0.812301 0.804702
O O6 0.606889 0.778116 0.986379
O O7 0.886229 0.282097 0.895315
O O8 0.842612 0.140931 0.148361
O O9 0.702318 0.166789 0.609090
O O10 0.930012 0.508952 0.377918
O O11 0.662050 0.072431 0.258265
O O12 0.590951 0.406733 0.919317
O O13 0.889498 0.941005 0.882245
O O14 0.089436 0.593724 0.339283
O O15 0.103129 0.396061 0.124712
O O16 0.334641 0.934456 0.090498
O O17 0.000000 0.000000 0.000000
#
# Coordination Sequence:
#
# PCOD8009658 Si02
#       8
#     2   2   2   2   2   2   2   2
#     4  10  21  37  59  85 118 151 199 249 290 347
#     4   9  17  33  63  90 119 155 199 240 301 350
#     4  11  21  38  60  90 121 155 203 243 299 350
#     4  11  21  39  62  86 123 164 195 240 308 349
#     4  11  20  38  62  88 121 154 202 249 293 352
#     4  11  22  40  60  91 117 153 204 254 290 348
#     4   9  17  32  61  93 115 151 198 257 290 344
#     4  10  23  39  61  89 125 160 193 245 295 367
#
# _framework density 20.161490000000001
#
# number of rings (size 3 to 8) (size 9 to 14) (size 15 to 20)
#    0.000    1.750    2.500    4.500    0.000    0.500 
#    2.250    1.250    0.000    4.500    0.000    0.000 
#    0.000    0.000    0.000    0.000    0.000    0.000 
#
# Total GULP energy -198209.448400 kJ/mol
# GULP energy per Si atom -12388.090525 kJ/mol
# Density = 2.011560 g / cm^3
# Si number density = 20.161490 Si / 1000 Ang^3
#
#
#
# Elastic Constant Matrix: (Units=GPa)
#
#
# Indices 1 2 3 4 5 6 
#
# 1 95.8197 31.1209 51.2587 -7.9438 -19.9785 -28.7586
# 2 31.1209 57.6583 25.8364 -16.3280 -11.3886 -9.4980
# 3 51.2587 25.8364 93.9257 -9.9675 -0.0428 -8.5871
# 4 -7.9438 -16.3280 -9.9675 24.4518 -5.4964 -6.3811
# 5 -19.9785 -11.3886 -0.0428 -5.4964 43.9767 -0.8078
# 6 -28.7586 -9.4980 -8.5871 -6.3811 -0.8078 29.4625
#
#
#
# Elastic Compliance Matrix: (Units=1/GPa)
#
#
# Indices 1 2 3 4 5 6 
#
# 1 0.031846 0.003578 -0.013166 0.020218 0.018519 0.033287
# 2 0.003578 0.031665 -0.006045 0.027681 0.013616 0.018307
# 3 -0.013166 -0.006045 0.017858 -0.005831 -0.008462 -0.011090
# 4 0.020218 0.027681 -0.005831 0.081568 0.027376 0.045376
# 5 0.018519 0.013616 -0.008462 0.027376 0.038588 0.026987
# 6 0.033287 0.018307 -0.011090 0.045376 0.026987 0.079671
#
#
# Mechanical properties :
#
#
# Convention : Reuss Voigt Hill
#
# Bulk Modulus (GPa) = 19.95934 51.53729 35.74831
# Shear Modulus (GPa) = 15.19001 28.85737 22.02369
#
# Velocity S-wave (km/s) = 2.74782 3.78737 3.30868
# Velocity P-wave (km/s) = 4.47086 6.68904 5.68911
#
# Compressibility (1/GPa) = 0.05010186
#
# Stress axis : x y z
#
# Youngs Moduli (GPa) = 31.40154 31.58032 55.99624
#
# Poissons Ratio (x) = -0.11299 0.73726
# Poissons Ratio (y) = -0.11235 0.33852
# Poissons Ratio (z) = 0.41344 0.19091
#
# Static dielectric constant tensor:
#      x y z
#    x 3.512770 0.199500 -0.388020 
#    y 0.199500 3.406900 -0.280380 
#    z -0.388020 -0.280380 4.398890 
# 
# 
# High freq. dielectric constant tensor:
#      x y z
#    x 1.791440 -0.013540 -0.015420 
#    y -0.013540 1.766560 -0.005810 
#    z -0.015420 -0.005810 1.785530 
# 
# From -- ./inp_files/243630.got.cif
#   From: 2010.06.25/outbox.cif.g09.slc.cpg/sg2_122_cif.got.tgz:243630.got - 2010.06.27 13:26:56.
