data_PCOD8009786
_publ_section_title
;
Structure prediction by ZEFSAII (Michael W. Deem and Ramdas Pophale) SiO2 
 PCOD8009786
Probable space group: P -1
;
_chemical_formula_sum "Si O2"
_cell_formula_units_Z 14
_cell_length_a 18.227312
_cell_length_b 21.252700
_cell_length_c 9.214890
_cell_angle_alpha 138.459192
_cell_angle_beta 128.262304
_cell_angle_gamma 18.580217
_cell_volume 682.083948
_symmetry_space_group_name_H-M "P -1"
_symmetry_group_IT_number 2
_symmetry_cell_setting 'triclinic'
loop_
_space_group_symop_operation_xyz
x,y,z
-x,-y,-z
loop_
_atom_site_type_symbol
_atom_site_label
_atom_site_fract_x
_atom_site_fract_y
_atom_site_fract_z
Si Si1 0.541665 0.069217 0.704342
Si Si2 0.862774 0.416255 0.062133
Si Si3 0.102574 0.800991 0.757288
Si Si4 0.095596 0.625793 0.618365
Si Si5 0.570569 0.127767 0.140317
Si Si6 0.943966 0.158944 0.547018
Si Si7 0.659049 0.252291 0.450951
O O1 0.335359 0.321599 0.792586
O O2 0.500000 0.000000 0.500000
O O3 0.488788 0.134839 0.923767
O O4 0.837352 0.812741 0.588874
O O5 0.828368 0.446708 0.245542
O O6 0.798263 0.374476 0.840109
O O7 0.162974 0.157876 0.950006
O O8 0.035251 0.790594 0.782539
O O9 0.013436 0.841264 0.562726
O O10 0.396311 0.546849 0.674745
O O11 0.000000 0.000000 0.000000
O O12 0.337663 0.354107 0.358913
O O13 0.627423 0.176120 0.213862
O O14 0.798259 0.195460 0.418655
O O15 0.213325 0.880988 0.466286
#
# Coordination Sequence:
#
# PCOD8009786 Si02
#       7
#     2   2   2   2   2   2   2
#     4  11  25  43  68  94 118 159 210 260 320 371
#     4  10  22  41  67  86 127 165 206 253 309 367
#     4  11  24  34  56  90 127 162 202 249 297 354
#     4  10  24  42  61  94 128 161 206 257 308 363
#     4   9  21  43  62  89 132 159 204 258 303 366
#     4  10  21  37  61  84 121 170 205 240 298 359
#     4   9  20  37  58  84 120 165 208 240 295 355
#
# _framework density 20.525333
#
# number of rings (size 3 to 8) (size 9 to 14) (size 15 to 20)
#    0.000    2.000    0.000    2.143   10.000    8.000 
#    0.000    1.429    0.000    0.000    0.000    0.000 
#    0.000    0.000    0.000    0.000    0.000    0.000 
#
# Total GULP energy -173476.168069 kJ/mol
# GULP energy per Si atom -12391.154862 kJ/mol
# Density = 2.047862 g / cm^3
# Si number density = 20.525333 Si / 1000 Ang^3
#
#
#
# Elastic Constant Matrix: (Units=GPa)
#
#
# Indices 1 2 3 4 5 6 
#
# 1 170.8293 71.1509 75.0954 26.8095 25.0927 -50.2407
# 2 71.1509 121.9096 64.8413 9.3424 8.4077 1.2720
# 3 75.0954 64.8413 139.2269 -1.1593 10.0184 -16.0199
# 4 26.8095 9.3424 -1.1593 40.9211 3.9588 -15.2301
# 5 25.0927 8.4077 10.0184 3.9588 41.9024 -14.4234
# 6 -50.2407 1.2720 -16.0199 -15.2301 -14.4234 62.1340
#
#
#
# Elastic Compliance Matrix: (Units=1/GPa)
#
#
# Indices 1 2 3 4 5 6 
#
# 1 0.013031 -0.005357 -0.003438 -0.004128 -0.002723 0.008116
# 2 -0.005357 0.013870 -0.004280 -0.002092 -0.000542 -0.006358
# 3 -0.003438 -0.004280 0.011184 0.003978 0.000293 0.001234
# 4 -0.004128 -0.002092 0.003978 0.029576 0.000935 0.005197
# 5 -0.002723 -0.000542 0.000293 0.000935 0.026950 0.004370
# 6 0.008116 -0.006358 0.001234 0.005197 0.004370 0.025394
#
#
# Mechanical properties :
#
#
# Convention : Reuss Voigt Hill
#
# Bulk Modulus (GPa) = 83.79022 94.90457 89.34739
# Shear Modulus (GPa) = 33.30339 43.71671 38.51005
#
# Velocity S-wave (km/s) = 4.03246 4.62008 4.33624
# Velocity P-wave (km/s) = 7.91154 8.64860 8.28827
#
# Compressibility (1/GPa) = 0.01193457
#
# Stress axis : x y z
#
# Youngs Moduli (GPa) = 76.73805 72.09782 89.41079
#
# Poissons Ratio (x) = 0.38626 0.30741
# Poissons Ratio (y) = 0.41112 0.38267
# Poissons Ratio (z) = 0.26384 0.30857
#
# Static dielectric constant tensor:
#      x y z
#    x 3.580710 0.070700 -0.057410 
#    y 0.070700 4.125750 0.198830 
#    z -0.057410 0.198830 3.811820 
# 
# 
# High freq. dielectric constant tensor:
#      x y z
#    x 1.776330 0.008110 -0.001300 
#    y 0.008110 1.825700 0.004960 
#    z -0.001300 0.004960 1.803660 
# 
# From -- ./inp_files/313865.got.cif
#   From: 2010.06.25/outbox.cif.g09.slc.cpg/sg2_157_cif.got.tgz:313865.got - 2010.06.27 13:26:56.
