data_PCOD8009843
_publ_section_title
;
Structure prediction by ZEFSAII (Michael W. Deem and Ramdas Pophale) SiO2 
 PCOD8009843
Probable space group: P -1
;
_chemical_formula_sum "Si O2"
_cell_formula_units_Z 16
_cell_length_a 7.586093
_cell_length_b 13.902433
_cell_length_c 9.449732
_cell_angle_alpha 109.402460
_cell_angle_beta 51.651888
_cell_angle_gamma 102.588683
_cell_volume 737.119913
_symmetry_space_group_name_H-M "P -1"
_symmetry_group_IT_number 2
_symmetry_cell_setting 'triclinic'
loop_
_space_group_symop_operation_xyz
x,y,z
-x,-y,-z
loop_
_atom_site_type_symbol
_atom_site_label
_atom_site_fract_x
_atom_site_fract_y
_atom_site_fract_z
Si Si1 0.053424 0.232041 0.594739
Si Si2 0.052706 0.220724 0.055431
Si Si3 0.798515 0.407425 0.214277
Si Si4 0.769963 0.115910 0.904098
Si Si5 0.622302 0.614994 0.402821
Si Si6 0.201388 0.587284 0.106340
Si Si7 0.380614 0.380965 0.904478
Si Si8 0.745674 0.876237 0.823716
O O1 0.275836 0.269833 0.588205
O O2 0.126031 0.183696 0.389838
O O3 0.898860 0.152600 0.717906
O O4 0.922548 0.338099 0.685178
O O5 0.284633 0.265095 0.894044
O O6 0.114784 0.149232 0.118838
O O7 0.921277 0.324932 0.213494
O O8 0.903170 0.151394 0.993403
O O9 0.835896 0.533048 0.266819
O O10 0.538917 0.403086 0.393092
O O11 0.818422 0.368352 0.022381
O O12 0.764421 0.994888 0.840918
O O13 0.515947 0.158265 0.052909
O O14 0.508459 0.597989 0.295933
O O15 0.166352 0.461609 0.064980
O O16 0.461643 0.598120 0.030775
#
# Coordination Sequence:
#
# PCOD8009843 Si02
#       8
#     2   2   2   2   2   2   2   2
#     4  12  22  41  67  94 123 173 213 258 327 380
#     4  12  22  41  67  94 123 173 213 258 327 380
#     4  10  21  38  61  94 136 174 210 260 313 377
#     4  11  24  50  68  91 129 167 210 282 328 379
#     4  10  21  37  61  96 132 173 217 255 311 383
#     4  10  21  38  61  94 136 174 210 260 313 377
#     4  10  21  37  61  96 132 173 217 255 311 383
#     4  11  28  44  68  97 127 161 222 272 330 387
#
# _framework density 21.706104
#
# number of rings (size 3 to 8) (size 9 to 14) (size 15 to 20)
#    0.000    1.250    2.500    3.000    3.500    2.000 
#    0.000    1.250    0.000    6.000    0.000    0.000 
#    0.000    0.000    0.000    0.000    0.000    0.000 
#
# Total GULP energy -198260.164868 kJ/mol
# GULP energy per Si atom -12391.260304 kJ/mol
# Density = 2.165670 g / cm^3
# Si number density = 21.706104 Si / 1000 Ang^3
#
#
#
# Elastic Constant Matrix: (Units=GPa)
#
#
# Indices 1 2 3 4 5 6 
#
# 1 67.4206 10.1996 8.9086 12.9196 10.6223 -8.3740
# 2 10.1996 69.1490 20.6731 4.7998 -4.0518 8.9560
# 3 8.9086 20.6731 103.6289 11.7081 -4.5357 -5.8934
# 4 12.9196 4.7998 11.7081 24.1862 -1.0592 -0.7918
# 5 10.6223 -4.0518 -4.5357 -1.0592 21.4778 4.4919
# 6 -8.3740 8.9560 -5.8934 -0.7918 4.4919 31.0773
#
#
#
# Elastic Compliance Matrix: (Units=1/GPa)
#
#
# Indices 1 2 3 4 5 6 
#
# 1 0.020607 -0.004226 0.000165 -0.010552 -0.013241 0.008447
# 2 -0.004226 0.017412 -0.003321 0.000434 0.006303 -0.007686
# 3 0.000165 -0.003321 0.011019 -0.004635 0.000793 0.002858
# 4 -0.010552 0.000434 -0.004635 0.049349 0.007525 -0.003678
# 5 -0.013241 0.006303 0.000793 0.007525 0.057633 -0.013372
# 6 0.008447 -0.007686 0.002858 -0.003678 -0.013372 0.039050
#
#
# Mechanical properties :
#
#
# Convention : Reuss Voigt Hill
#
# Bulk Modulus (GPa) = 29.17652 35.52900 32.35276
# Shear Modulus (GPa) = 22.59787 28.70942 25.65365
#
# Velocity S-wave (km/s) = 3.23008 3.64076 3.44155
# Velocity P-wave (km/s) = 5.23279 5.83757 5.54343
#
# Compressibility (1/GPa) = 0.03427414
#
# Stress axis : x y z
#
# Youngs Moduli (GPa) = 48.52655 57.43054 90.75245
#
# Poissons Ratio (x) = 0.24272 -0.01494
# Poissons Ratio (y) = 0.20508 0.30135
# Poissons Ratio (z) = -0.00799 0.19070
#
# Static dielectric constant tensor:
#      x y z
#    x 4.046190 0.107650 -0.235650 
#    y 0.107650 4.076580 0.021280 
#    z -0.235650 0.021280 3.794790 
# 
# 
# High freq. dielectric constant tensor:
#      x y z
#    x 1.860550 0.011660 -0.015110 
#    y 0.011660 1.866060 0.002010 
#    z -0.015110 0.002010 1.845740 
# 
# From -- ./inp_files/208174.got.cif
#   From: 2010.06.25/outbox.cif.g09.slc.cpg/sg2_105_cif.got.tgz:208174.got - 2010.06.27 13:26:56.
