data_PCOD8009831
_publ_section_title
;
Structure prediction by ZEFSAII (Michael W. Deem and Ramdas Pophale) SiO2 
 PCOD8009831
Probable space group: P -1
;
_chemical_formula_sum "Si O2"
_cell_formula_units_Z 16
_cell_length_a 10.541877
_cell_length_b 9.814788
_cell_length_c 21.681294
_cell_angle_alpha 26.582401
_cell_angle_beta 125.575032
_cell_angle_gamma 118.679326
_cell_volume 811.436475
_symmetry_space_group_name_H-M "P -1"
_symmetry_group_IT_number 2
_symmetry_cell_setting 'triclinic'
loop_
_space_group_symop_operation_xyz
x,y,z
-x,-y,-z
loop_
_atom_site_type_symbol
_atom_site_label
_atom_site_fract_x
_atom_site_fract_y
_atom_site_fract_z
Si Si1 0.115191 0.733079 0.701352
Si Si2 0.027138 0.672471 0.873661
Si Si3 0.509992 0.813156 0.448772
Si Si4 0.798693 0.268912 0.535591
Si Si5 0.892435 0.803470 0.009316
Si Si6 0.750111 0.947747 0.281901
Si Si7 0.421824 0.878599 0.265112
Si Si8 0.201949 0.928468 0.519209
O O1 0.146036 0.725598 0.640913
O O2 0.193682 0.994615 0.655480
O O3 0.187259 0.405430 0.879572
O O4 0.927070 0.775849 0.643512
O O5 0.197989 0.795454 0.856184
O O6 0.999793 0.415629 0.918947
O O7 0.913240 0.986132 0.709230
O O8 0.000000 0.500000 0.000000
O O9 0.369054 0.787014 0.464979
O O10 0.456270 0.996325 0.296424
O O11 0.592187 0.480607 0.588478
O O12 0.627119 0.987955 0.451091
O O13 0.837441 0.607961 0.429235
O O14 0.793581 0.275167 0.457952
O O15 0.750142 0.987418 0.858677
O O16 0.000000 0.000000 0.000000
O O17 0.560115 0.958086 0.225060
#
# Coordination Sequence:
#
# PCOD8009831 Si02
#       8
#     2   2   2   2   2   2   2   2
#     4  10  22  37  63  90 117 164 203 259 300 356
#     4  11  24  41  60  93 124 164 202 251 317 365
#     4  10  21  37  61  94 120 160 203 255 300 363
#     4  11  22  38  64  91 122 165 203 255 308 358
#     4  11  23  42  62  89 123 161 201 255 307 366
#     4  10  21  42  63  90 120 161 212 250 300 371
#     4  10  21  38  65  90 119 162 209 245 308 364
#     4  11  20  38  59  90 124 150 209 255 299 358
#
# _framework density 19.718115999999998
#
# number of rings (size 3 to 8) (size 9 to 14) (size 15 to 20)
#    0.000    1.500    3.750    2.250    0.000    3.000 
#    4.500    0.000    0.000    2.250    0.000    0.000 
#    0.000    0.000    0.000    0.000    0.000    0.000 
#
# Total GULP energy -198247.401964 kJ/mol
# GULP energy per Si atom -12390.462623 kJ/mol
# Density = 1.967324 g / cm^3
# Si number density = 19.718116 Si / 1000 Ang^3
#
#
#
# Elastic Constant Matrix: (Units=GPa)
#
#
# Indices 1 2 3 4 5 6 
#
# 1 78.8887 39.0932 42.7369 0.1744 -15.3307 -15.4491
# 2 39.0932 126.2043 60.1603 -1.7262 -10.7813 -5.4375
# 3 42.7369 60.1603 108.8838 7.4355 -8.3069 -5.3711
# 4 0.1744 -1.7262 7.4355 29.3461 -2.9142 0.4427
# 5 -15.3307 -10.7813 -8.3069 -2.9142 25.9489 9.2137
# 6 -15.4491 -5.4375 -5.3711 0.4427 9.2137 32.4643
#
#
#
# Elastic Compliance Matrix: (Units=1/GPa)
#
#
# Indices 1 2 3 4 5 6 
#
# 1 0.019387 -0.002515 -0.005531 0.001715 0.006715 0.005960
# 2 -0.002515 0.011436 -0.005366 0.002266 0.002083 -0.000791
# 3 -0.005531 -0.005366 0.014478 -0.004042 -0.001037 -0.000786
# 4 0.001715 0.002266 -0.004042 0.035760 0.005185 -0.001432
# 5 0.006715 0.002083 -0.001037 0.005185 0.047205 -0.010095
# 6 0.005960 -0.000791 -0.000786 -0.001432 -0.010095 0.036262
#
#
# Mechanical properties :
#
#
# Convention : Reuss Voigt Hill
#
# Bulk Modulus (GPa) = 54.12165 66.43974 60.28069
# Shear Modulus (GPa) = 25.31537 29.01762 27.16650
#
# Velocity S-wave (km/s) = 3.58699 3.84034 3.71582
# Velocity P-wave (km/s) = 6.68301 7.30973 7.00338
#
# Compressibility (1/GPa) = 0.01847690
#
# Stress axis : x y z
#
# Youngs Moduli (GPa) = 51.58130 87.44698 69.07125
#
# Poissons Ratio (x) = 0.21994 0.38200
# Poissons Ratio (y) = 0.12973 0.37064
# Poissons Ratio (z) = 0.28527 0.46924
#
# Static dielectric constant tensor:
#      x y z
#    x 3.715150 -0.081470 -0.052490 
#    y -0.081470 3.654040 0.001200 
#    z -0.052490 0.001200 3.650150 
# 
# 
# High freq. dielectric constant tensor:
#      x y z
#    x 1.777390 -0.003590 -0.005230 
#    y -0.003590 1.766900 0.001130 
#    z -0.005230 0.001130 1.759430 
# 
# From -- ./inp_files/593917.got.cif
#   From: 2010.06.25/outbox.cif.g09.slc.cpg/sg2_297_cif.got.tgz:593917.got - 2010.06.27 13:26:56.
