data_PCOD8009346
_publ_section_title
;
Structure prediction by ZEFSAII (Michael W. Deem and Ramdas Pophale) SiO2 
 PCOD8009346
Probable space group: P -1
;
_chemical_formula_sum "Si O2"
_cell_formula_units_Z 16
_cell_length_a 6.250599
_cell_length_b 11.336415
_cell_length_c 11.796781
_cell_angle_alpha 81.991359
_cell_angle_beta 113.975362
_cell_angle_gamma 82.132276
_cell_volume 738.843225
_symmetry_space_group_name_H-M "P -1"
_symmetry_group_IT_number 2
_symmetry_cell_setting 'triclinic'
loop_
_space_group_symop_operation_xyz
x,y,z
-x,-y,-z
loop_
_atom_site_type_symbol
_atom_site_label
_atom_site_fract_x
_atom_site_fract_y
_atom_site_fract_z
Si Si1 0.335776 0.679429 0.529408
Si Si2 0.038040 0.697923 0.131156
Si Si3 0.469873 0.406738 0.660325
Si Si4 0.849211 0.772500 0.312750
Si Si5 0.423488 0.377530 0.027933
Si Si6 0.378329 0.231700 0.235752
Si Si7 0.895861 0.191315 0.097028
Si Si8 0.380221 0.978946 0.856214
O O1 0.342572 0.548535 0.606244
O O2 0.466915 0.654841 0.440340
O O3 0.467096 0.769613 0.617008
O O4 0.058506 0.751523 0.455136
O O5 0.294479 0.604742 0.208909
O O6 0.986403 0.772737 0.224295
O O7 0.028144 0.800558 0.018568
O O8 0.835759 0.619415 0.082304
O O9 0.292290 0.335646 0.694297
O O10 0.670218 0.904390 0.254722
O O11 0.398335 0.357015 0.159759
O O12 0.629664 0.271998 0.036844
O O13 0.500000 0.500000 0.000000
O O14 0.459951 0.121689 0.178108
O O15 0.101913 0.233885 0.210639
O O16 0.868388 0.059566 0.154796
O O17 0.500000 0.000000 0.000000
#
# Coordination Sequence:
#
# PCOD8009346 Si02
#       8
#     2   2   2   2   2   2   2   2
#     4  10  24  42  61  93 125 164 218 254 317 371
#     4  10  21  36  61  95 122 160 209 249 320 372
#     4  10  22  41  65  90 125 167 209 266 309 372
#     4  11  23  41  66  91 123 168 216 262 307 369
#     4  10  22  35  58  93 126 163 198 254 316 374
#     4  10  24  40  61  94 127 168 207 257 315 372
#     4  10  22  40  59  93 129 160 204 255 317 375
#     4  11  23  42  66  93 125 164 211 261 317 372
#
# _framework density 21.655473000000001
#
# number of rings (size 3 to 8) (size 9 to 14) (size 15 to 20)
#    0.000    1.750    0.000    4.125    5.250    7.500 
#    0.000    1.250    0.000    0.000    0.000    0.000 
#    0.000    0.000    0.000    0.000    0.000    0.000 
#
# Total GULP energy -198257.647717 kJ/mol
# GULP energy per Si atom -12391.102982 kJ/mol
# Density = 2.160618 g / cm^3
# Si number density = 21.655473 Si / 1000 Ang^3
#
#
#
# Elastic Constant Matrix: (Units=GPa)
#
#
# Indices 1 2 3 4 5 6 
#
# 1 100.3899 29.5551 46.8458 0.6104 22.5734 24.7221
# 2 29.5551 81.0276 44.1674 -8.6482 5.6487 9.8895
# 3 46.8458 44.1674 128.1180 4.9513 36.5152 4.6280
# 4 0.6104 -8.6482 4.9513 38.1022 3.3866 -2.6199
# 5 22.5734 5.6487 36.5152 3.3866 36.7228 -1.3411
# 6 24.7221 9.8895 4.6280 -2.6199 -1.3411 34.3664
#
#
#
# Elastic Compliance Matrix: (Units=1/GPa)
#
#
# Indices 1 2 3 4 5 6 
#
# 1 0.016318 -0.002845 -0.002420 -0.000676 -0.007524 -0.010939
# 2 -0.002845 0.017165 -0.006426 0.004224 0.005054 -0.001508
# 3 -0.002420 -0.006426 0.014202 -0.002178 -0.011406 0.001066
# 4 -0.000676 0.004224 -0.002178 0.027661 -0.000559 0.001651
# 5 -0.007524 0.005054 -0.011406 -0.000559 0.042731 0.007119
# 6 -0.010939 -0.001508 0.001066 0.001651 0.007119 0.037661
#
#
# Mechanical properties :
#
#
# Convention : Reuss Voigt Hill
#
# Bulk Modulus (GPa) = 41.15002 61.18578 51.16790
# Shear Modulus (GPa) = 26.70629 34.43611 30.57120
#
# Velocity S-wave (km/s) = 3.51555 3.99203 3.76135
# Velocity P-wave (km/s) = 5.96005 7.04017 6.52251
#
# Compressibility (1/GPa) = 0.02430132
#
# Stress axis : x y z
#
# Youngs Moduli (GPa) = 61.28266 58.25898 70.41258
#
# Poissons Ratio (x) = 0.16577 0.17040
# Poissons Ratio (y) = 0.17438 0.45249
# Poissons Ratio (z) = 0.14830 0.37438
#
# Static dielectric constant tensor:
#      x y z
#    x 4.262670 0.530170 0.024280 
#    y 0.530170 5.027360 -0.550470 
#    z 0.024280 -0.550470 4.268720 
# 
# 
# High freq. dielectric constant tensor:
#      x y z
#    x 1.859490 0.012890 0.007720 
#    y 0.012890 1.833640 -0.007680 
#    z 0.007720 -0.007680 1.852840 
# 
# From -- ./inp_files/70903.got.cif
#   From: 2010.06.25/outbox.cif.g09.slc.cpg/sg2_36_cif.got.tgz:70903.got - 2010.06.27 13:26:56.
