data_PCOD8009945
_publ_section_title
;
Structure prediction by ZEFSAII (Michael W. Deem and Ramdas Pophale) SiO2 
 PCOD8009945
Probable space group: P -1
;
_chemical_formula_sum "Si O2"
_cell_formula_units_Z 14
_cell_length_a 19.916441
_cell_length_b 12.475908
_cell_length_c 14.560328
_cell_angle_alpha 19.693355
_cell_angle_beta 142.333031
_cell_angle_gamma 144.023253
_cell_volume 708.133319
_symmetry_space_group_name_H-M "P -1"
_symmetry_group_IT_number 2
_symmetry_cell_setting 'triclinic'
loop_
_space_group_symop_operation_xyz
x,y,z
-x,-y,-z
loop_
_atom_site_type_symbol
_atom_site_label
_atom_site_fract_x
_atom_site_fract_y
_atom_site_fract_z
Si Si1 0.081272 0.884622 0.430711
Si Si2 0.115788 0.208446 0.012353
Si Si3 0.823994 0.701068 0.303693
Si Si4 0.753500 0.316342 0.718495
Si Si5 0.077394 0.268910 0.296570
Si Si6 0.538819 0.891901 0.749140
Si Si7 0.317151 0.920197 0.426434
O O1 0.949259 0.660104 0.477376
O O2 0.101713 0.125044 0.171665
O O3 0.116677 0.103814 0.383836
O O4 0.147058 0.608727 0.711826
O O5 0.234088 0.147683 0.156115
O O6 0.000000 0.000000 0.000000
O O7 0.765549 0.582848 0.434796
O O8 0.759371 0.469841 0.335418
O O9 0.835375 0.081116 0.983361
O O10 0.798819 0.523174 0.693304
O O11 0.622021 0.047104 0.801692
O O12 0.000000 0.000000 0.500000
O O13 0.000000 0.500000 0.000000
O O14 0.422821 0.004568 0.546118
O O15 0.620822 0.067211 0.613921
O O16 0.500000 0.500000 0.000000
#
# Coordination Sequence:
#
# PCOD8009945 Si02
#       7
#     2   2   2   2   2   2   2
#     4  12  24  38  57  91 124 162 201 237 302 375
#     4  12  26  38  60  87 127 167 195 239 308 371
#     4  11  20  34  60  86 124 151 198 236 300 366
#     4  11  21  36  59  91 118 155 192 259 301 347
#     4  12  22  38  62  88 122 162 199 253 303 351
#     4  10  21  37  63  86 118 152 207 255 299 350
#     4  10  23  37  56  89 121 157 197 249 302 359
#
# _framework density 19.770288999999998
#
# number of rings (size 3 to 8) (size 9 to 14) (size 15 to 20)
#    0.000    0.857    5.714    2.143    4.000    0.000 
#    0.000    0.000    0.000    1.714    0.000    0.000 
#    0.000    0.000    0.000    0.000    0.000    0.000 
#
# Total GULP energy -173433.763750 kJ/mol
# GULP energy per Si atom -12388.125982 kJ/mol
# Density = 1.972529 g / cm^3
# Si number density = 19.770289 Si / 1000 Ang^3
#
#
#
# Elastic Constant Matrix: (Units=GPa)
#
#
# Indices 1 2 3 4 5 6 
#
# 1 44.6703 39.4005 16.5755 7.8173 13.5602 -9.0095
# 2 39.4005 177.5004 37.7344 5.7405 18.1279 1.3512
# 3 16.5755 37.7344 100.8335 7.0306 10.3999 -4.1340
# 4 7.8173 5.7405 7.0306 31.4140 3.9431 4.3312
# 5 13.5602 18.1279 10.3999 3.9431 36.9857 6.4590
# 6 -9.0095 1.3512 -4.1340 4.3312 6.4590 29.2189
#
#
#
# Elastic Compliance Matrix: (Units=1/GPa)
#
#
# Indices 1 2 3 4 5 6 
#
# 1 0.036673 -0.006546 -0.001169 -0.008305 -0.011688 0.015260
# 2 -0.006546 0.007513 -0.001882 0.001100 -0.000398 -0.002707
# 3 -0.001169 -0.001882 0.011232 -0.001914 -0.001958 0.002032
# 4 -0.008305 0.001100 -0.001914 0.035173 0.000736 -0.008259
# 5 -0.011688 -0.000398 -0.001958 0.000736 0.033996 -0.011487
# 6 0.015260 -0.002707 0.002032 -0.008259 -0.011487 0.043106
#
#
# Mechanical properties :
#
#
# Convention : Reuss Voigt Hill
#
# Bulk Modulus (GPa) = 27.60548 56.71388 42.15968
# Shear Modulus (GPa) = 25.13061 34.80999 29.97030
#
# Velocity S-wave (km/s) = 3.56916 4.20065 3.89771
# Velocity P-wave (km/s) = 5.56584 7.23021 6.45192
#
# Compressibility (1/GPa) = 0.03622469
#
# Stress axis : x y z
#
# Youngs Moduli (GPa) = 27.26821 133.11115 89.02742
#
# Poissons Ratio (x) = 0.87133 0.10404
# Poissons Ratio (y) = 0.17849 0.16755
# Poissons Ratio (z) = 0.03187 0.25052
#
# Static dielectric constant tensor:
#      x y z
#    x 3.363410 0.133800 -0.006690 
#    y 0.133800 4.361760 0.119750 
#    z -0.006690 0.119750 3.625180 
# 
# 
# High freq. dielectric constant tensor:
#      x y z
#    x 1.728270 0.003900 -0.013960 
#    y 0.003900 1.777840 0.004550 
#    z -0.013960 0.004550 1.785260 
# 
# From -- ./inp_files/74493.got.cif
#   From: 2010.06.25/outbox.cif.g09.slc.cpg/sg2_38_cif.got.tgz:74493.got - 2010.06.27 13:26:56.
