data_PCOD8009126
_publ_section_title
;
Structure prediction by ZEFSAII (Michael W. Deem and Ramdas Pophale) SiO2 
 PCOD8009126
Probable space group: P -1
;
_chemical_formula_sum "Si O2"
_cell_formula_units_Z 16
_cell_length_a 11.298731
_cell_length_b 5.231230
_cell_length_c 17.215507
_cell_angle_alpha 98.303814
_cell_angle_beta 126.886154
_cell_angle_gamma 65.738982
_cell_volume 734.659475
_symmetry_space_group_name_H-M "P -1"
_symmetry_group_IT_number 2
_symmetry_cell_setting 'triclinic'
loop_
_space_group_symop_operation_xyz
x,y,z
-x,-y,-z
loop_
_atom_site_type_symbol
_atom_site_label
_atom_site_fract_x
_atom_site_fract_y
_atom_site_fract_z
Si Si1 0.927835 0.757474 0.310603
Si Si2 0.582795 0.237107 0.827665
Si Si3 0.837762 0.183915 0.487936
Si Si4 0.629866 0.205036 0.140107
Si Si5 0.964286 0.522245 0.148020
Si Si6 0.343087 0.050424 0.010049
Si Si7 0.721692 0.744694 0.370678
Si Si8 0.908074 0.093082 0.886491
O O1 0.964034 0.553981 0.242291
O O2 0.858062 0.642942 0.351543
O O3 0.099708 0.771829 0.400336
O O4 0.789766 0.068681 0.250245
O O5 0.477859 0.495330 0.853577
O O6 0.460751 0.137852 0.729211
O O7 0.713386 0.285131 0.826225
O O8 0.702067 0.994091 0.921795
O O9 0.742941 0.483222 0.422439
O O10 0.728351 0.003154 0.436160
O O11 0.000000 0.000000 0.500000
O O12 0.530487 0.006025 0.089086
O O13 0.677578 0.188040 0.066286
O O14 0.030667 0.721856 0.135957
O O15 0.777082 0.632731 0.050525
O O16 0.068533 0.194889 0.160540
O O17 0.000000 0.000000 0.000000
#
# Coordination Sequence:
#
# PCOD8009126 Si02
#       8
#     2   2   2   2   2   2   2   2
#     4  10  21  41  66  93 128 156 201 258 310 372
#     4  12  23  36  64  82 128 161 204 252 301 367
#     4  10  21  38  61  93 127 154 193 250 315 376
#     4  10  21  36  56  94 121 158 198 244 323 365
#     4  11  26  42  63  92 120 172 211 249 301 357
#     4  10  21  37  57  87 126 157 198 254 304 373
#     4  11  23  38  62  97 121 157 197 248 322 369
#     4  12  26  43  62  86 127 170 217 249 291 353
#
# _framework density 21.778796
#
# number of rings (size 3 to 8) (size 9 to 14) (size 15 to 20)
#    0.000    1.250    2.500    4.500    1.750    5.000 
#    0.000    0.000    0.000    4.500    0.000    0.000 
#    0.000    0.000    0.000    0.000    0.000    0.000 
#
# Total GULP energy -198252.448298 kJ/mol
# GULP energy per Si atom -12390.778019 kJ/mol
# Density = 2.172923 g / cm^3
# Si number density = 21.778796 Si / 1000 Ang^3
#
#
#
# Elastic Constant Matrix: (Units=GPa)
#
#
# Indices 1 2 3 4 5 6 
#
# 1 67.3068 16.1401 27.3977 3.8336 10.8561 5.9751
# 2 16.1401 90.0181 42.0128 2.9156 4.9077 15.3367
# 3 27.3977 42.0128 133.5570 10.0605 5.6390 0.3468
# 4 3.8336 2.9156 10.0605 22.0345 4.1902 1.9444
# 5 10.8561 4.9077 5.6390 4.1902 26.9839 -2.6411
# 6 5.9751 15.3367 0.3468 1.9444 -2.6411 26.1285
#
#
#
# Elastic Compliance Matrix: (Units=1/GPa)
#
#
# Indices 1 2 3 4 5 6 
#
# 1 0.017772 -0.000595 -0.003168 0.000117 -0.006826 -0.004372
# 2 -0.000595 0.014970 -0.004565 0.001501 -0.002640 -0.008969
# 3 -0.003168 -0.004565 0.009810 -0.003839 0.001009 0.003662
# 4 0.000117 0.001501 -0.003839 0.048830 -0.007615 -0.005260
# 5 -0.006826 -0.002640 0.001009 -0.007615 0.042032 0.007913
# 6 -0.004372 -0.008969 0.003662 -0.005260 0.007913 0.045679
#
#
# Mechanical properties :
#
#
# Convention : Reuss Voigt Hill
#
# Bulk Modulus (GPa) = 38.61591 51.33147 44.97369
# Shear Modulus (GPa) = 24.46425 28.71813 26.59119
#
# Velocity S-wave (km/s) = 3.35521 3.63523 3.49802
# Velocity P-wave (km/s) = 5.72533 6.42188 6.08358
#
# Compressibility (1/GPa) = 0.02589606
#
# Stress axis : x y z
#
# Youngs Moduli (GPa) = 56.26878 66.80241 101.93241
#
# Poissons Ratio (x) = 0.03974 0.32291
# Poissons Ratio (y) = 0.03347 0.46534
# Poissons Ratio (z) = 0.17825 0.30497
#
# Static dielectric constant tensor:
#      x y z
#    x 3.981450 0.038710 0.198360 
#    y 0.038710 3.829200 0.373210 
#    z 0.198360 0.373210 5.019130 
# 
# 
# High freq. dielectric constant tensor:
#      x y z
#    x 1.832730 0.008510 0.005130 
#    y 0.008510 1.842870 0.007040 
#    z 0.005130 0.007040 1.867350 
# 
# From -- ./inp_files/564490.got.cif
#   From: 2010.06.25/outbox.cif.g09.slc.cpg/sg2_283_cif.got.tgz:564490.got - 2010.06.27 13:26:56.
