data_PCOD8009961
_publ_section_title
;
Structure prediction by ZEFSAII (Michael W. Deem and Ramdas Pophale) SiO2 
 PCOD8009961
Probable space group: P -1
;
_chemical_formula_sum "Si O2"
_cell_formula_units_Z 16
_cell_length_a 9.355537
_cell_length_b 17.447934
_cell_length_c 9.865806
_cell_angle_alpha 52.537832
_cell_angle_beta 125.442988
_cell_angle_gamma 84.584894
_cell_volume 752.430954
_symmetry_space_group_name_H-M "P -1"
_symmetry_group_IT_number 2
_symmetry_cell_setting 'triclinic'
loop_
_space_group_symop_operation_xyz
x,y,z
-x,-y,-z
loop_
_atom_site_type_symbol
_atom_site_label
_atom_site_fract_x
_atom_site_fract_y
_atom_site_fract_z
Si Si1 0.438022 0.481173 0.339309
Si Si2 0.359772 0.296152 0.517978
Si Si3 0.904836 0.708096 0.848826
Si Si4 0.333450 0.013403 0.507866
Si Si5 0.871066 0.099880 0.449457
Si Si6 0.610134 0.592685 0.175019
Si Si7 0.383039 0.958325 0.900878
Si Si8 0.006955 0.493596 0.711351
O O1 0.500000 0.500000 0.500000
O O2 0.500333 0.343385 0.510565
O O3 0.586118 0.487920 0.305059
O O4 0.155474 0.603085 0.019448
O O5 0.317600 0.247086 0.414089
O O6 0.092351 0.420760 0.297627
O O7 0.518647 0.180803 0.840928
O O8 0.875518 0.831108 0.737270
O O9 0.913684 0.646315 0.061569
O O10 0.500000 0.000000 0.500000
O O11 0.224940 0.953798 0.452809
O O12 0.454058 0.939514 0.799877
O O13 0.649765 0.255909 0.128147
O O14 0.000000 0.000000 0.500000
O O15 0.096310 0.074652 0.660249
O O16 0.749350 0.543995 0.160427
O O17 0.786901 0.579801 0.391032
O O18 0.500000 0.000000 0.000000
#
# Coordination Sequence:
#
# PCOD8009961 Si02
#       8
#     2   2   2   2   2   2   2   2
#     4  11  21  36  63  92 118 163 213 263 300 376
#     4  11  23  41  63  89 128 167 212 247 324 383
#     4  11  22  40  61  90 128 163 209 257 315 381
#     4  11  23  40  68  95 124 166 216 268 320 370
#     4  10  22  38  66  94 126 168 220 264 308 386
#     4  11  21  38  62  97 125 156 211 267 318 364
#     4  11  23  44  68  92 128 175 210 263 321 385
#     4  10  21  37  63  90 130 161 198 266 323 369
#
# _framework density 21.264408
#
# number of rings (size 3 to 8) (size 9 to 14) (size 15 to 20)
#    0.000    1.250    3.750    5.250    1.750    1.000 
#    0.000    3.125    2.750    0.000    0.000    0.000 
#    0.000    0.000    0.000    0.000    0.000    0.000 
#
# Total GULP energy -198258.403226 kJ/mol
# GULP energy per Si atom -12391.150202 kJ/mol
# Density = 2.121601 g / cm^3
# Si number density = 21.264408 Si / 1000 Ang^3
#
#
#
# Elastic Constant Matrix: (Units=GPa)
#
#
# Indices 1 2 3 4 5 6 
#
# 1 160.4281 31.8528 45.8801 -6.4061 -0.8165 27.6423
# 2 31.8528 74.7044 34.7709 0.0358 -0.3023 24.6214
# 3 45.8801 34.7709 122.5178 -9.3209 -5.0722 13.9877
# 4 -6.4061 0.0358 -9.3209 35.7396 12.0202 -1.4509
# 5 -0.8165 -0.3023 -5.0722 12.0202 30.3711 -3.0855
# 6 27.6423 24.6214 13.9877 -1.4509 -3.0855 32.5918
#
#
#
# Elastic Compliance Matrix: (Units=1/GPa)
#
#
# Indices 1 2 3 4 5 6 
#
# 1 0.007935 -0.000604 -0.002151 0.001013 -0.001103 -0.005410
# 2 -0.000604 0.019770 -0.004067 -0.001273 -0.001301 -0.012857
# 3 -0.002151 -0.004067 0.010235 0.002019 0.000881 0.000678
# 4 0.001013 -0.001273 0.002019 0.032955 -0.012742 -0.000503
# 5 -0.001103 -0.001301 0.000881 -0.012742 0.038543 0.004622
# 6 -0.005410 -0.012857 0.000678 -0.000503 0.004622 0.045108
#
#
# Mechanical properties :
#
#
# Convention : Reuss Voigt Hill
#
# Bulk Modulus (GPa) = 41.16176 64.73977 52.95077
# Shear Modulus (GPa) = 28.36260 36.08359 32.22310
#
# Velocity S-wave (km/s) = 3.65609 4.12381 3.89698
# Velocity P-wave (km/s) = 6.10097 7.29285 6.72337
#
# Compressibility (1/GPa) = 0.02429439
#
# Stress axis : x y z
#
# Youngs Moduli (GPa) = 126.01638 50.58288 97.70788
#
# Poissons Ratio (x) = 0.03057 0.21018
# Poissons Ratio (y) = 0.07615 0.39740
# Poissons Ratio (z) = 0.27107 0.20573
#
# Static dielectric constant tensor:
#      x y z
#    x 4.529110 0.561240 0.222530 
#    y 0.561240 3.830940 0.097230 
#    z 0.222530 0.097230 4.320510 
# 
# 
# High freq. dielectric constant tensor:
#      x y z
#    x 1.834660 0.030310 -0.010670 
#    y 0.030310 1.813370 -0.007730 
#    z -0.010670 -0.007730 1.836890 
# 
# From -- ./inp_files/404723.got.cif
#   From: 2010.06.25/outbox.cif.g09.slc.cpg/sg2_203_cif.got.tgz:404723.got - 2010.06.27 13:26:56.
