data_PCOD8009202
_publ_section_title
;
Structure prediction by ZEFSAII (Michael W. Deem and Ramdas Pophale) SiO2 
 PCOD8009202
Probable space group: P -1
;
_chemical_formula_sum "Si O2"
_cell_formula_units_Z 16
_cell_length_a 9.681845
_cell_length_b 10.816490
_cell_length_c 19.428137
_cell_angle_alpha 64.001082
_cell_angle_beta 141.954410
_cell_angle_gamma 87.642023
_cell_volume 807.599335
_symmetry_space_group_name_H-M "P -1"
_symmetry_group_IT_number 2
_symmetry_cell_setting 'triclinic'
loop_
_space_group_symop_operation_xyz
x,y,z
-x,-y,-z
loop_
_atom_site_type_symbol
_atom_site_label
_atom_site_fract_x
_atom_site_fract_y
_atom_site_fract_z
Si Si1 0.382408 0.355904 0.439227
Si Si2 0.354563 0.485093 0.253599
Si Si3 0.645773 0.651596 0.347418
Si Si4 0.467251 0.959120 0.108455
Si Si5 0.652556 0.811618 0.865218
Si Si6 0.708490 0.824186 0.452688
Si Si7 0.743185 0.227002 0.342540
Si Si8 0.003479 0.754801 0.258746
O O1 0.295422 0.406096 0.312577
O O2 0.355309 0.207576 0.487960
O O3 0.140979 0.548395 0.342905
O O4 0.735931 0.250905 0.614246
O O5 0.501832 0.562498 0.322070
O O6 0.594211 0.312750 0.337770
O O7 0.026111 0.656028 0.045990
O O8 0.442187 0.822510 0.169515
O O9 0.630813 0.729701 0.395991
O O10 0.000000 0.500000 0.500000
O O11 0.777696 0.832487 0.215847
O O12 0.483125 0.070909 0.145406
O O13 0.163559 0.107358 0.906517
O O14 0.525999 0.708284 0.832363
O O15 0.521267 0.952880 0.713227
O O16 0.075936 0.710764 0.622799
O O17 0.000000 0.000000 0.500000
#
# Coordination Sequence:
#
# PCOD8009202 Si02
#       8
#     2   2   2   2   2   2   2   2
#     4  11  22  37  60  95 127 157 196 250 320 359
#     4  12  23  39  66  93 124 158 202 262 305 357
#     4  11  20  34  63  95 121 158 205 248 311 363
#     4  10  21  37  60  92 127 165 200 244 309 371
#     4  10  23  41  63  89 121 164 214 250 290 358
#     4  10  22  39  63  91 126 158 203 250 305 373
#     4  10  23  44  66  84 118 168 215 247 297 362
#     4  10  21  36  58  90 137 161 187 252 317 375
#
# _framework density 19.811803000000001
#
# number of rings (size 3 to 8) (size 9 to 14) (size 15 to 20)
#    0.000    1.500    2.500    3.375    5.250    1.000 
#    0.000    3.125    0.000    0.000    0.000    0.000 
#    0.000    0.000    0.000    0.000    0.000    0.000 
#
# Total GULP energy -198392.534555 kJ/mol
# GULP energy per Si atom -12399.533410 kJ/mol
# Density = 1.976671 g / cm^3
# Si number density = 19.811803 Si / 1000 Ang^3
#
#
#
# Elastic Constant Matrix: (Units=GPa)
#
#
# Indices 1 2 3 4 5 6 
#
# 1 114.5642 29.6277 44.8831 -0.0040 -15.7894 9.2668
# 2 29.6277 80.4436 30.2061 10.7800 2.1889 -1.4839
# 3 44.8831 30.2061 103.2109 -0.5150 7.5451 11.6255
# 4 -0.0040 10.7800 -0.5150 23.9871 3.0599 3.7602
# 5 -15.7894 2.1889 7.5451 3.0599 31.3684 -1.6597
# 6 9.2668 -1.4839 11.6255 3.7602 -1.6597 13.8888
#
#
#
# Elastic Compliance Matrix: (Units=1/GPa)
#
#
# Indices 1 2 3 4 5 6 
#
# 1 0.012807 -0.003440 -0.004592 0.001207 0.007435 -0.004507
# 2 -0.003440 0.016890 -0.004648 -0.009289 -0.000332 0.010465
# 3 -0.004592 -0.004648 0.014930 0.005168 -0.006725 -0.012133
# 4 0.001207 -0.009289 0.005168 0.049922 -0.005934 -0.020349
# 5 0.007435 -0.000332 -0.006725 -0.005934 0.038201 0.006804
# 6 -0.004507 0.010465 -0.012133 -0.020349 0.006804 0.092603
#
#
# Mechanical properties :
#
#
# Convention : Reuss Voigt Hill
#
# Bulk Modulus (GPa) = 51.90305 56.40581 54.15443
# Shear Modulus (GPa) = 19.44497 26.74898 23.09698
#
# Velocity S-wave (km/s) = 3.13626 3.67843 3.41811
# Velocity P-wave (km/s) = 6.27453 6.82450 6.55529
#
# Compressibility (1/GPa) = 0.01926669
#
# Stress axis : x y z
#
# Youngs Moduli (GPa) = 78.08446 59.20609 66.97742
#
# Poissons Ratio (x) = 0.20364 0.30759
# Poissons Ratio (y) = 0.26857 0.31133
# Poissons Ratio (z) = 0.35860 0.27521
#
# Static dielectric constant tensor:
#      x y z
#    x 3.711120 0.122430 0.017920 
#    y 0.122430 3.790260 0.164770 
#    z 0.017920 0.164770 3.937890 
# 
# 
# High freq. dielectric constant tensor:
#      x y z
#    x 1.771170 -0.004020 0.005030 
#    y -0.004020 1.758490 -0.001340 
#    z 0.005030 -0.001340 1.782360 
# 
# From -- ./inp_files/181850.got.cif
#   From: 2010.06.25/outbox.cif.g09.slc.cpg/sg2_91_cif.got.tgz:181850.got - 2010.06.27 13:26:56.
