data_PCOD8009766
_publ_section_title
;
Structure prediction by ZEFSAII (Michael W. Deem and Ramdas Pophale) SiO2 
 PCOD8009766
Probable space group: P -1
;
_chemical_formula_sum "Si O2"
_cell_formula_units_Z 16
_cell_length_a 10.830776
_cell_length_b 21.113739
_cell_length_c 15.843102
_cell_angle_alpha 159.112555
_cell_angle_beta 43.343045
_cell_angle_gamma 146.566927
_cell_volume 685.866311
_symmetry_space_group_name_H-M "P -1"
_symmetry_group_IT_number 2
_symmetry_cell_setting 'triclinic'
loop_
_space_group_symop_operation_xyz
x,y,z
-x,-y,-z
loop_
_atom_site_type_symbol
_atom_site_label
_atom_site_fract_x
_atom_site_fract_y
_atom_site_fract_z
Si Si1 0.610514 0.589656 0.424983
Si Si2 0.588530 0.734073 0.322642
Si Si3 0.374784 0.210592 0.942479
Si Si4 0.805161 0.269603 0.526386
Si Si5 0.750001 0.461203 0.944091
Si Si6 0.823876 0.110294 0.803236
Si Si7 0.913531 0.954635 0.287751
Si Si8 0.332357 0.645027 0.745395
O O1 0.518202 0.718435 0.670714
O O2 0.622088 0.451081 0.318253
O O3 0.414736 0.404571 0.224506
O O4 0.867045 0.774065 0.488287
O O5 0.336761 0.667658 0.375646
O O6 0.583266 0.513883 0.049733
O O7 0.718681 0.902410 0.385942
O O8 0.715334 0.866793 0.512912
O O9 0.191574 0.140975 0.872480
O O10 0.288009 0.988228 0.763680
O O11 0.634308 0.332329 0.928946
O O12 0.074742 0.451830 0.595135
O O13 0.761483 0.287373 0.668540
O O14 0.012528 0.700075 0.115073
O O15 0.988288 0.166335 0.871046
O O16 0.635721 0.133514 0.960700
#
# Coordination Sequence:
#
# PCOD8009766 Si02
#       8
#     2   2   2   2   2   2   2   2
#     4  11  24  46  64  87 123 166 213 257 311 354
#     4  11  21  38  65  95 127 165 198 248 316 377
#     4  12  23  38  65  94 123 168 199 255 316 362
#     4  11  22  38  61  93 125 161 206 252 308 365
#     4  10  21  37  60  92 130 159 193 252 310 367
#     4  10  22  40  64  93 123 167 206 247 311 369
#     4  11  23  41  64  95 130 156 205 258 304 372
#     4  10  24  45  63  86 124 164 213 267 293 363
#
# _framework density 23.328161999999999
#
# number of rings (size 3 to 8) (size 9 to 14) (size 15 to 20)
#    0.000    1.250    2.500    4.500    3.500    1.000 
#    2.250    3.750    0.000    0.000    0.000    0.000 
#    0.000    0.000    0.000    0.000    0.000    0.000 
#
# Total GULP energy -198271.186324 kJ/mol
# GULP energy per Si atom -12391.949145 kJ/mol
# Density = 2.327507 g / cm^3
# Si number density = 23.328162 Si / 1000 Ang^3
#
#
#
# Elastic Constant Matrix: (Units=GPa)
#
#
# Indices 1 2 3 4 5 6 
#
# 1 72.8788 13.3266 21.9195 -3.7936 16.0717 21.8091
# 2 13.3266 57.3192 31.9155 -1.0985 5.5849 10.0286
# 3 21.9195 31.9155 75.5849 6.0807 14.3111 -2.6993
# 4 -3.7936 -1.0985 6.0807 30.7696 6.2323 -6.2032
# 5 16.0717 5.5849 14.3111 6.2323 26.9426 3.7120
# 6 21.8091 10.0286 -2.6993 -6.2032 3.7120 19.6840
#
#
#
# Elastic Compliance Matrix: (Units=1/GPa)
#
#
# Indices 1 2 3 4 5 6 
#
# 1 0.027303 0.005836 -0.010148 0.000476 -0.007667 -0.033020
# 2 0.005836 0.028192 -0.014739 -0.000433 0.001818 -0.023329
# 3 -0.010148 -0.014739 0.024605 -0.000516 -0.007051 0.023294
# 4 0.000476 -0.000433 -0.000516 0.037458 -0.010430 0.013393
# 5 -0.007667 0.001818 -0.007051 -0.010430 0.048268 -0.005788
# 6 -0.033020 -0.023329 0.023294 0.013393 -0.005788 0.107780
#
#
# Mechanical properties :
#
#
# Convention : Reuss Voigt Hill
#
# Bulk Modulus (GPa) = 23.81063 37.78959 30.80011
# Shear Modulus (GPa) = 15.35122 24.72064 20.03593
#
# Velocity S-wave (km/s) = 2.56804 3.25882 2.93383
# Velocity P-wave (km/s) = 4.36143 5.51309 4.97073
#
# Compressibility (1/GPa) = 0.04199805
#
# Stress axis : x y z
#
# Youngs Moduli (GPa) = 36.62577 35.47057 40.64243
#
# Poissons Ratio (x) = -0.20699 0.41243
# Poissons Ratio (y) = -0.21373 0.59903
# Poissons Ratio (z) = 0.37167 0.52280
#
# Static dielectric constant tensor:
#      x y z
#    x 4.035900 0.163060 0.066960 
#    y 0.163060 4.303750 0.025030 
#    z 0.066960 0.025030 4.186030 
# 
# 
# High freq. dielectric constant tensor:
#      x y z
#    x 1.911610 0.013780 0.003980 
#    y 0.013780 1.902270 0.009120 
#    z 0.003980 0.009120 1.922490 
# 
# From -- ./inp_files/570972.got.cif
#   From: 2010.06.25/outbox.cif.g09.slc.cpg/sg2_286_cif.got.tgz:570972.got - 2010.06.27 13:26:56.
