data_PCOD8009335
_publ_section_title
;
Structure prediction by ZEFSAII (Michael W. Deem and Ramdas Pophale) SiO2 
 PCOD8009335
Probable space group: P -1
;
_chemical_formula_sum "Si O2"
_cell_formula_units_Z 16
_cell_length_a 28.588326
_cell_length_b 5.219600
_cell_length_c 5.354104
_cell_angle_alpha 76.118928
_cell_angle_beta 101.837710
_cell_angle_gamma 67.517824
_cell_volume 676.269364
_symmetry_space_group_name_H-M "P -1"
_symmetry_group_IT_number 2
_symmetry_cell_setting 'triclinic'
loop_
_space_group_symop_operation_xyz
x,y,z
-x,-y,-z
loop_
_atom_site_type_symbol
_atom_site_label
_atom_site_fract_x
_atom_site_fract_y
_atom_site_fract_z
Si Si1 0.677227 0.971719 0.125261
Si Si2 0.436693 0.081316 0.713550
Si Si3 0.641348 0.243184 0.519950
Si Si4 0.464620 0.836172 0.306271
Si Si5 0.104701 0.830431 0.887225
Si Si6 0.057914 0.400893 0.974770
Si Si7 0.268964 0.712942 0.638515
Si Si8 0.149038 0.880345 0.417802
O O1 0.636706 0.122528 0.814998
O O2 0.642918 0.029320 0.335663
O O3 0.717961 0.118626 0.158969
O O4 0.711931 0.626968 0.187006
O O5 0.406017 0.429596 0.651444
O O6 0.499114 0.993886 0.739688
O O7 0.421026 0.975386 0.456676
O O8 0.432496 0.895852 0.992924
O O9 0.697609 0.265390 0.568990
O O10 0.500000 0.500000 0.500000
O O11 0.064269 0.688757 0.838559
O O12 0.141775 0.706993 0.207166
O O13 0.067670 0.185957 0.795008
O O14 0.142692 0.745093 0.705494
O O15 0.103034 0.220166 0.274969
O O16 0.000000 0.500000 0.000000
O O17 0.206558 0.874064 0.468056
#
# Coordination Sequence:
#
# PCOD8009335 Si02
#       8
#     2   2   2   2   2   2   2   2
#     4  10  25  39  65  89 127 162 217 262 325 373
#     4  10  21  39  59  89 125 158 214 251 316 376
#     4  10  24  41  64  93 127 171 216 269 318 382
#     4  10  21  36  61  91 125 165 201 258 312 378
#     4  10  25  39  65  94 127 167 208 260 315 379
#     4  10  24  44  67  97 130 168 213 263 319 381
#     4  10  26  41  66  92 128 168 214 266 321 382
#     4  10  26  40  67  92 132 165 216 258 324 381
#
# _framework density 23.659213999999999
#
# number of rings (size 3 to 8) (size 9 to 14) (size 15 to 20)
#    1.500    0.500    0.000    1.500    7.000    4.000 
#    0.000    0.000    0.000    0.000    0.000    0.000 
#    0.000    0.000    0.000    0.000    0.000    0.000 
#
# Total GULP energy -198279.837012 kJ/mol
# GULP energy per Si atom -12392.489813 kJ/mol
# Density = 2.360536 g / cm^3
# Si number density = 23.659214 Si / 1000 Ang^3
#
#
#
# Elastic Constant Matrix: (Units=GPa)
#
#
# Indices 1 2 3 4 5 6 
#
# 1 112.3442 28.2048 57.4290 18.3909 -13.7348 -11.7716
# 2 28.2048 98.4697 57.1201 5.6948 0.2236 17.3122
# 3 57.4290 57.1201 155.9313 7.9757 -22.6718 -12.5662
# 4 18.3909 5.6948 7.9757 28.9625 -5.7108 2.8313
# 5 -13.7348 0.2236 -22.6718 -5.7108 32.6015 2.9309
# 6 -11.7716 17.3122 -12.5662 2.8313 2.9309 41.7399
#
#
#
# Elastic Compliance Matrix: (Units=1/GPa)
#
#
# Indices 1 2 3 4 5 6 
#
# 1 0.012723 -0.002251 -0.002931 -0.006868 0.001776 0.003980
# 2 -0.002251 0.016163 -0.006508 -0.000024 -0.004784 -0.008960
# 3 -0.002931 -0.006508 0.011126 0.000852 0.006271 0.004724
# 4 -0.006868 -0.000024 0.000852 0.040141 0.005158 -0.004756
# 5 0.001776 -0.004784 0.006271 0.005158 0.036589 0.001454
# 6 0.003980 -0.008960 0.004724 -0.004756 0.001454 0.030440
#
#
# Mechanical properties :
#
#
# Convention : Reuss Voigt Hill
#
# Bulk Modulus (GPa) = 60.12600 72.47255 66.29927
# Shear Modulus (GPa) = 28.39220 35.59353 31.99287
#
# Velocity S-wave (km/s) = 3.46793 3.88290 3.68127
# Velocity P-wave (km/s) = 6.44235 7.12748 6.79356
#
# Compressibility (1/GPa) = 0.01663174
#
# Stress axis : x y z
#
# Youngs Moduli (GPa) = 78.59666 61.86985 89.88266
#
# Poissons Ratio (x) = 0.13925 0.26345
# Poissons Ratio (y) = 0.17690 0.58498
# Poissons Ratio (z) = 0.23037 0.40266
#
# Static dielectric constant tensor:
#      x y z
#    x 4.282810 0.087170 -0.106350 
#    y 0.087170 4.026870 0.321460 
#    z -0.106350 0.321460 4.333520 
# 
# 
# High freq. dielectric constant tensor:
#      x y z
#    x 1.958550 0.008010 -0.003990 
#    y 0.008010 1.922540 0.017830 
#    z -0.003990 0.017830 1.934570 
# 
# From -- ./inp_files/127974.got.cif
#   From: 2010.06.25/outbox.cif.g09.slc.cpg/sg2_64_cif.got.tgz:127974.got - 2010.06.27 13:26:56.
