data_PCOD8009646
_publ_section_title
;
Structure prediction by ZEFSAII (Michael W. Deem and Ramdas Pophale) SiO2 
 PCOD8009646
Probable space group: P -1
;
_chemical_formula_sum "Si O2"
_cell_formula_units_Z 14
_cell_length_a 8.364742
_cell_length_b 12.201022
_cell_length_c 9.296132
_cell_angle_alpha 127.719193
_cell_angle_beta 98.926739
_cell_angle_gamma 62.210789
_cell_volume 652.356907
_symmetry_space_group_name_H-M "P -1"
_symmetry_group_IT_number 2
_symmetry_cell_setting 'triclinic'
loop_
_space_group_symop_operation_xyz
x,y,z
-x,-y,-z
loop_
_atom_site_type_symbol
_atom_site_label
_atom_site_fract_x
_atom_site_fract_y
_atom_site_fract_z
Si Si1 0.305079 0.594700 0.278747
Si Si2 0.779276 0.950304 0.368831
Si Si3 0.437920 0.787179 0.645618
Si Si4 0.819582 0.525629 0.413210
Si Si5 0.668057 0.292223 0.147374
Si Si6 0.933891 0.612133 0.216243
Si Si7 0.180235 0.843542 0.235035
O O1 0.340205 0.702610 0.480676
O O2 0.470533 0.418876 0.159363
O O3 0.277350 0.667241 0.173075
O O4 0.113859 0.603585 0.310917
O O5 0.787956 0.785920 0.280046
O O6 0.963125 0.926227 0.295959
O O7 0.617126 0.046132 0.306863
O O8 0.742707 0.050044 0.591228
O O9 0.656589 0.678790 0.587267
O O10 0.364837 0.809856 0.816795
O O11 0.780231 0.377304 0.297044
O O12 0.830197 0.557079 0.270727
O O13 0.000000 0.500000 0.500000
O O14 0.780548 0.169214 0.939386
O O15 0.000000 0.500000 0.000000
#
# Coordination Sequence:
#
# PCOD8009646 Si02
#       7
#     2   2   2   2   2   2   2
#     4   9  18  36  57  85 115 147 193 236 276 330
#     4   9  20  38  55  84 116 148 188 233 293 335
#     4  10  21  37  59  83 117 155 192 236 276 333
#     4  11  22  37  58  87 121 154 186 234 293 335
#     4  11  20  35  61  88 110 149 199 235 275 335
#     4  11  22  38  62  86 115 149 187 237 288 348
#     4   9  18  33  59  84 112 147 191 242 274 327
#
# _framework density 21.460643999999998
#
# number of rings (size 3 to 8) (size 9 to 14) (size 15 to 20)
#    0.000    2.000    0.000    6.429    0.000    3.429 
#    0.000    1.429    0.000    5.143    0.000    0.000 
#    0.000    0.000    0.000    0.000    0.000    0.000 
#
# Total GULP energy -173608.119594 kJ/mol
# GULP energy per Si atom -12400.579971 kJ/mol
# Density = 2.141180 g / cm^3
# Si number density = 21.460644 Si / 1000 Ang^3
#
#
#
# Elastic Constant Matrix: (Units=GPa)
#
#
# Indices 1 2 3 4 5 6 
#
# 1 74.8786 36.8882 20.1691 -10.4062 -8.8866 -6.5176
# 2 36.8882 104.9215 48.1482 -0.7279 -2.4424 -4.7446
# 3 20.1691 48.1482 90.3600 -11.1843 -24.4097 0.8269
# 4 -10.4062 -0.7279 -11.1843 31.8463 10.4607 -4.8014
# 5 -8.8866 -2.4424 -24.4097 10.4607 26.4956 -8.1279
# 6 -6.5176 -4.7446 0.8269 -4.8014 -8.1279 35.4624
#
#
#
# Elastic Compliance Matrix: (Units=1/GPa)
#
#
# Indices 1 2 3 4 5 6 
#
# 1 0.018090 -0.006893 0.002029 0.004937 0.006755 0.004572
# 2 -0.006893 0.016218 -0.009941 -0.002487 -0.009410 -0.001359
# 3 0.002029 -0.009941 0.021471 0.001980 0.019790 0.003346
# 4 0.004937 -0.002487 0.001980 0.037623 -0.010625 0.003187
# 5 0.006755 -0.009410 0.019790 -0.010625 0.065590 0.013116
# 6 0.004572 -0.001359 0.003346 0.003187 0.013116 0.032217
#
#
# Mechanical properties :
#
#
# Convention : Reuss Voigt Hill
#
# Bulk Modulus (GPa) = 38.21151 53.39678 45.80415
# Shear Modulus (GPa) = 21.78246 29.75785 25.77015
#
# Velocity S-wave (km/s) = 3.18936 3.72778 3.46903
# Velocity P-wave (km/s) = 5.60417 6.59270 6.11843
#
# Compressibility (1/GPa) = 0.02617012
#
# Stress axis : x y z
#
# Youngs Moduli (GPa) = 55.27992 61.65849 46.57365
#
# Poissons Ratio (x) = 0.42500 -0.09449
# Poissons Ratio (y) = 0.38103 0.46298
# Poissons Ratio (z) = -0.11216 0.61293
#
# Static dielectric constant tensor:
#      x y z
#    x 3.923250 -0.149920 -0.112400 
#    y -0.149920 4.208220 0.016590 
#    z -0.112400 0.016590 3.640740 
# 
# 
# High freq. dielectric constant tensor:
#      x y z
#    x 1.832360 -0.004700 -0.014510 
#    y -0.004700 1.845350 -0.007620 
#    z -0.014510 -0.007620 1.827700 
# 
# From -- ./inp_files/157321.got.cif
#   From: 2010.06.25/outbox.cif.g09.slc.cpg/sg2_79_cif.got.tgz:157321.got - 2010.06.27 13:26:56.
