data_PCOD8009728
_publ_section_title
;
Structure prediction by ZEFSAII (Michael W. Deem and Ramdas Pophale) SiO2 
 PCOD8009728
Probable space group: P -1
;
_chemical_formula_sum "Si O2"
_cell_formula_units_Z 14
_cell_length_a 9.148177
_cell_length_b 12.620519
_cell_length_c 11.872880
_cell_angle_alpha 101.527617
_cell_angle_beta 107.143214
_cell_angle_gamma 29.548559
_cell_volume 641.307201
_symmetry_space_group_name_H-M "P -1"
_symmetry_group_IT_number 2
_symmetry_cell_setting 'triclinic'
loop_
_space_group_symop_operation_xyz
x,y,z
-x,-y,-z
loop_
_atom_site_type_symbol
_atom_site_label
_atom_site_fract_x
_atom_site_fract_y
_atom_site_fract_z
Si Si1 0.077514 0.111138 0.950317
Si Si2 0.604901 0.220844 0.859450
Si Si3 0.401457 0.792895 0.778068
Si Si4 0.717164 0.632245 0.588002
Si Si5 0.141167 0.240718 0.454636
Si Si6 0.814722 0.019839 0.635433
Si Si7 0.152938 0.518916 0.003207
O O1 0.753402 0.249318 0.886337
O O2 0.074192 0.241269 0.995159
O O3 0.289659 0.967812 0.856990
O O4 0.207398 0.976297 0.062498
O O5 0.589635 0.174938 0.723553
O O6 0.270765 0.437901 0.884232
O O7 0.646553 0.668954 0.711505
O O8 0.571878 0.618365 0.876536
O O9 0.107127 0.917547 0.683202
O O10 0.898013 0.634630 0.612711
O O11 0.394755 0.827904 0.488535
O O12 0.943380 0.394686 0.553691
O O13 0.500000 0.000000 0.500000
O O14 0.024502 0.197355 0.373055
O O15 0.000000 0.500000 0.000000
#
# Coordination Sequence:
#
# PCOD8009728 Si02
#       7
#     2   2   2   2   2   2   2
#     4   9  20  40  60  81 114 153 198 251 297 347
#     4   9  20  38  60  84 111 151 202 248 294 350
#     4  10  23  39  57  87 119 155 200 243 295 353
#     4  10  21  38  59  86 121 155 191 238 294 353
#     4   9  21  38  57  84 116 154 195 236 288 348
#     4  10  21  37  60  87 115 154 200 243 290 346
#     4  11  24  37  58  89 119 157 200 247 304 353
#
# _framework density 21.830410000000001
#
# number of rings (size 3 to 8) (size 9 to 14) (size 15 to 20)
#    0.000    2.286    0.000    1.714    0.000   14.286 
#    0.000    0.000    0.000    0.000    0.000    0.000 
#    0.000    0.000    0.000    0.000    0.000    0.000 
#
# Total GULP energy -173472.757479 kJ/mol
# GULP energy per Si atom -12390.911248 kJ/mol
# Density = 2.178072 g / cm^3
# Si number density = 21.830410 Si / 1000 Ang^3
#
#
#
# Elastic Constant Matrix: (Units=GPa)
#
#
# Indices 1 2 3 4 5 6 
#
# 1 74.9441 46.8690 23.2003 26.1836 -8.2229 16.9750
# 2 46.8690 109.4911 31.3476 35.6832 -0.4001 14.0962
# 3 23.2003 31.3476 78.9791 29.8324 -24.0642 4.4607
# 4 26.1836 35.6832 29.8324 46.8679 -15.3175 3.4127
# 5 -8.2229 -0.4001 -24.0642 -15.3175 29.1162 13.2921
# 6 16.9750 14.0962 4.4607 3.4127 13.2921 39.2092
#
#
#
# Elastic Compliance Matrix: (Units=1/GPa)
#
#
# Indices 1 2 3 4 5 6 
#
# 1 0.022218 -0.007374 0.001446 -0.003667 0.010115 -0.010242
# 2 -0.007374 0.016256 -0.004429 -0.009453 -0.011698 0.002641
# 3 0.001446 -0.004429 0.022224 -0.004468 0.019994 -0.007951
# 4 -0.003667 -0.009453 -0.004468 0.039510 0.017733 -0.003956
# 5 0.010115 -0.011698 0.019994 0.017733 0.076567 -0.029948
# 6 -0.010242 0.002641 -0.007951 -0.003956 -0.029948 0.040391
#
#
# Mechanical properties :
#
#
# Convention : Reuss Voigt Hill
#
# Bulk Modulus (GPa) = 25.01028 51.80534 38.40781
# Shear Modulus (GPa) = 19.90386 33.83850 26.87118
#
# Velocity S-wave (km/s) = 3.02279 3.94135 3.51223
# Velocity P-wave (km/s) = 4.86462 6.67043 5.83778
#
# Compressibility (1/GPa) = 0.03998356
#
# Stress axis : x y z
#
# Youngs Moduli (GPa) = 45.00818 61.51653 44.99739
#
# Poissons Ratio (x) = 0.45363 -0.06505
# Poissons Ratio (y) = 0.33189 0.19928
# Poissons Ratio (z) = -0.06507 0.27243
#
# Static dielectric constant tensor:
#      x y z
#    x 3.958680 0.092200 0.143540 
#    y 0.092200 4.072720 0.340530 
#    z 0.143540 0.340530 3.981380 
# 
# 
# High freq. dielectric constant tensor:
#      x y z
#    x 1.847420 -0.006460 0.001930 
#    y -0.006460 1.860780 0.017870 
#    z 0.001930 0.017870 1.855170 
# 
# From -- ./inp_files/27802.got.cif
#   From: 2010.06.25/outbox.cif.g09.slc.cpg/sg2_14_cif.got.tgz:27802.got - 2010.06.27 13:26:56.
