data_PCOD8009923
_publ_section_title
;
Structure prediction by ZEFSAII (Michael W. Deem and Ramdas Pophale) SiO2 
 PCOD8009923
Probable space group: P -1
;
_chemical_formula_sum "Si O2"
_cell_formula_units_Z 16
_cell_length_a 19.916590
_cell_length_b 5.802686
_cell_length_c 8.368974
_cell_angle_alpha 55.332399
_cell_angle_beta 63.788619
_cell_angle_gamma 80.210354
_cell_volume 709.354410
_symmetry_space_group_name_H-M "P -1"
_symmetry_group_IT_number 2
_symmetry_cell_setting 'triclinic'
loop_
_space_group_symop_operation_xyz
x,y,z
-x,-y,-z
loop_
_atom_site_type_symbol
_atom_site_label
_atom_site_fract_x
_atom_site_fract_y
_atom_site_fract_z
Si Si1 0.775303 0.950318 0.182184
Si Si2 0.511395 0.667573 0.592538
Si Si3 0.708092 0.164732 0.849478
Si Si4 0.175653 0.619965 0.588820
Si Si5 0.031874 0.383649 0.671838
Si Si6 0.571807 0.834698 0.970491
Si Si7 0.652366 0.743746 0.610878
Si Si8 0.079027 0.809683 0.898863
O O1 0.859250 0.088189 0.072715
O O2 0.777630 0.615377 0.289030
O O3 0.717204 0.977473 0.380858
O O4 0.746532 0.092946 0.000608
O O5 0.500000 0.500000 0.500000
O O6 0.596635 0.631868 0.569437
O O7 0.500000 0.000000 0.500000
O O8 0.452114 0.497525 0.843230
O O9 0.765685 0.139657 0.649587
O O10 0.689418 0.485862 0.753438
O O11 0.633995 0.948002 0.990277
O O12 0.118805 0.502384 0.554170
O O13 0.123574 0.726409 0.733784
O O14 0.000000 0.500000 0.500000
O O15 0.027980 0.045734 0.798007
O O16 0.977654 0.439895 0.859568
O O17 0.604675 0.889324 0.736952
O O18 0.500000 0.000000 0.000000
#
# Coordination Sequence:
#
# PCOD8009923 Si02
#       8
#     2   2   2   2   2   2   2   2
#     4  10  23  41  62  92 129 173 223 272 341 404
#     4  12  27  45  73 103 137 182 234 293 365 429
#     4  11  24  43  67  94 130 176 225 281 345 415
#     4  10  22  40  63  94 130 169 219 275 328 406
#     4  10  21  37  62  95 128 169 214 266 327 398
#     4  12  25  45  68  97 136 176 231 294 355 421
#     4  11  25  43  67  94 133 172 226 287 345 418
#     4  10  21  39  61  90 133 168 215 270 327 396
#
# _framework density 22.555720000000001
#
# number of rings (size 3 to 8) (size 9 to 14) (size 15 to 20)
#    0.000    1.250    1.250    3.750    3.500    2.500 
#    0.000    0.000    0.000    0.000    0.000    0.000 
#    0.000    0.000    0.000    0.000    0.000    0.000 
#
# Total GULP energy -198332.259779 kJ/mol
# GULP energy per Si atom -12395.766236 kJ/mol
# Density = 2.250438 g / cm^3
# Si number density = 22.555720 Si / 1000 Ang^3
#
#
#
# Elastic Constant Matrix: (Units=GPa)
#
#
# Indices 1 2 3 4 5 6 
#
# 1 137.7056 23.8833 53.7989 -6.1159 19.1770 -15.9241
# 2 23.8833 90.8465 42.2191 13.6837 11.0172 -16.5107
# 3 53.7989 42.2191 139.2711 4.6195 1.5700 -25.5019
# 4 -6.1159 13.6837 4.6195 42.1063 -0.8424 -10.1434
# 5 19.1770 11.0172 1.5700 -0.8424 51.3617 2.1826
# 6 -15.9241 -16.5107 -25.5019 -10.1434 2.1826 24.3882
#
#
#
# Elastic Compliance Matrix: (Units=1/GPa)
#
#
# Indices 1 2 3 4 5 6 
#
# 1 0.009572 -0.000384 -0.002799 0.002851 -0.003553 0.004566
# 2 -0.000384 0.014353 -0.003118 -0.003199 -0.003112 0.005154
# 3 -0.002799 -0.003118 0.010526 0.001281 0.001094 0.007503
# 4 0.002851 -0.003199 0.001281 0.028131 -0.000499 0.012781
# 5 -0.003553 -0.003112 0.001094 -0.000499 0.021653 -0.005428
# 6 0.004566 0.005154 0.007503 0.012781 -0.005428 0.061121
#
#
# Mechanical properties :
#
#
# Convention : Reuss Voigt Hill
#
# Bulk Modulus (GPa) = 45.77012 67.51398 56.64205
# Shear Modulus (GPa) = 30.25878 40.09938 35.17908
#
# Velocity S-wave (km/s) = 3.66664 4.22096 3.95353
# Velocity P-wave (km/s) = 6.18561 7.33160 6.78285
#
# Compressibility (1/GPa) = 0.02184832
#
# Stress axis : x y z
#
# Youngs Moduli (GPa) = 104.47557 69.66969 95.00522
#
# Poissons Ratio (x) = 0.02676 0.26595
# Poissons Ratio (y) = 0.04013 0.29621
# Poissons Ratio (z) = 0.29246 0.21722
#
# Static dielectric constant tensor:
#      x y z
#    x 4.570300 0.001440 -0.545720 
#    y 0.001440 3.882540 0.000070 
#    z -0.545720 0.000070 4.621570 
# 
# 
# High freq. dielectric constant tensor:
#      x y z
#    x 1.906270 -0.006400 -0.013990 
#    y -0.006400 1.867150 0.009890 
#    z -0.013990 0.009890 1.903840 
# 
# From -- ./inp_files/122758.got.cif
#   From: 2010.06.25/outbox.cif.g09.slc.cpg/sg2_62_cif.got.tgz:122758.got - 2010.06.27 13:26:56.
