data_PCOD8009428
_publ_section_title
;
Structure prediction by ZEFSAII (Michael W. Deem and Ramdas Pophale) SiO2 
 PCOD8009428
Probable space group: P -1
;
_chemical_formula_sum "Si O2"
_cell_formula_units_Z 16
_cell_length_a 15.363776
_cell_length_b 15.773886
_cell_length_c 12.041199
_cell_angle_alpha 36.909301
_cell_angle_beta 53.742706
_cell_angle_gamma 28.437601
_cell_volume 768.256797
_symmetry_space_group_name_H-M "P -1"
_symmetry_group_IT_number 2
_symmetry_cell_setting 'triclinic'
loop_
_space_group_symop_operation_xyz
x,y,z
-x,-y,-z
loop_
_atom_site_type_symbol
_atom_site_label
_atom_site_fract_x
_atom_site_fract_y
_atom_site_fract_z
Si Si1 0.140363 0.402459 0.591925
Si Si2 0.023475 0.131884 0.713861
Si Si3 0.718150 0.240079 0.888062
Si Si4 0.811363 0.888716 0.780766
Si Si5 0.743539 0.657751 0.985667
Si Si6 0.533484 0.028539 0.563811
Si Si7 0.339088 0.814008 0.638790
Si Si8 0.355519 0.924419 0.053962
O O1 0.331282 0.262999 0.538540
O O2 0.000000 0.500000 0.500000
O O3 0.036448 0.638310 0.495872
O O4 0.198502 0.213621 0.828688
O O5 0.828809 0.248035 0.736043
O O6 0.159320 0.936055 0.712305
O O7 0.135706 0.994928 0.889568
O O8 0.525976 0.505133 0.821691
O O9 0.648684 0.205464 0.885733
O O10 0.759775 0.780932 0.917709
O O11 0.719706 0.084827 0.548098
O O12 0.709681 0.052887 0.798551
O O13 0.048171 0.653019 0.850260
O O14 0.685591 0.760482 0.795458
O O15 0.579470 0.738163 0.081895
O O16 0.615827 0.095374 0.418422
O O17 0.500000 0.000000 0.500000
#
# Coordination Sequence:
#
# PCOD8009428 Si02
#       8
#     2   2   2   2   2   2   2   2
#     4  11  21  38  64 101 127 163 218 263 326 378
#     4  11  24  43  66  92 135 174 210 268 329 387
#     4  11  25  45  62  97 134 173 216 262 330 391
#     4  10  23  42  66  96 129 173 218 266 322 380
#     4   9  22  40  60  97 133 163 211 267 327 372
#     4  10  21  36  63  99 131 160 212 273 316 382
#     4  11  24  43  66  92 129 178 214 259 326 387
#     4  11  24  40  68  97 130 167 218 272 314 386
#
# _framework density 20.826370000000001
#
# number of rings (size 3 to 8) (size 9 to 14) (size 15 to 20)
#    0.000    1.500    2.500    1.500    8.750    2.500 
#    0.000    1.250    0.000    0.000    0.000    0.000 
#    0.000    0.000    0.000    0.000    0.000    0.000 
#
# Total GULP energy -198501.123573 kJ/mol
# GULP energy per Si atom -12406.320223 kJ/mol
# Density = 2.077897 g / cm^3
# Si number density = 20.826370 Si / 1000 Ang^3
#
#
#
# Elastic Constant Matrix: (Units=GPa)
#
#
# Indices 1 2 3 4 5 6 
#
# 1 82.7281 46.8839 32.9880 -4.7834 6.5132 -4.1546
# 2 46.8839 120.9111 19.4567 -4.7562 -3.0865 2.3939
# 3 32.9880 19.4567 55.6026 -9.8495 -0.6929 1.6283
# 4 -4.7834 -4.7562 -9.8495 32.1402 0.9269 8.2736
# 5 6.5132 -3.0865 -0.6929 0.9269 29.5732 -1.0606
# 6 -4.1546 2.3939 1.6283 8.2736 -1.0606 31.4915
#
#
#
# Elastic Compliance Matrix: (Units=1/GPa)
#
#
# Indices 1 2 3 4 5 6 
#
# 1 0.020434 -0.006547 -0.010372 -0.002006 -0.005217 0.004081
# 2 -0.006547 0.010898 0.000367 0.001178 0.002482 -0.001937
# 3 -0.010372 0.000367 0.025491 0.007429 0.002523 -0.004581
# 4 -0.002006 0.001178 0.007429 0.035913 -0.000753 -0.010199
# 5 -0.005217 0.002482 0.002523 -0.000753 0.035319 0.000380
# 6 0.004081 -0.001937 -0.004581 -0.010199 0.000380 0.035369
#
#
# Mechanical properties :
#
#
# Convention : Reuss Voigt Hill
#
# Bulk Modulus (GPa) = 42.15964 50.87764 46.51864
# Shear Modulus (GPa) = 24.45765 29.30188 26.87977
#
# Velocity S-wave (km/s) = 3.43061 3.75502 3.59647
# Velocity P-wave (km/s) = 5.99829 6.57896 6.29532
#
# Compressibility (1/GPa) = 0.02371937
#
# Stress axis : x y z
#
# Youngs Moduli (GPa) = 48.93874 91.75832 39.22896
#
# Poissons Ratio (x) = 0.60076 0.40688
# Poissons Ratio (y) = 0.32041 -0.01440
# Poissons Ratio (z) = 0.50759 -0.03368
#
# Static dielectric constant tensor:
#      x y z
#    x 3.736330 -0.202140 0.098840 
#    y -0.202140 3.809600 -0.083900 
#    z 0.098840 -0.083900 3.701970 
# 
# 
# High freq. dielectric constant tensor:
#      x y z
#    x 1.812400 -0.008710 0.009140 
#    y -0.008710 1.826670 -0.005350 
#    z 0.009140 -0.005350 1.809200 
# 
# From -- ./inp_files/455045.got.cif
#   From: 2010.06.25/outbox.cif.g09.slc.cpg/sg2_228_cif.got.tgz:455045.got - 2010.06.27 13:26:56.
