data_PCOD8009996
_publ_section_title
;
Structure prediction by ZEFSAII (Michael W. Deem and Ramdas Pophale) SiO2 
 PCOD8009996
Probable space group: P -1
;
_chemical_formula_sum "Si O2"
_cell_formula_units_Z 12
_cell_length_a 5.659804
_cell_length_b 8.012930
_cell_length_c 15.945710
_cell_angle_alpha 122.030969
_cell_angle_beta 69.066021
_cell_angle_gamma 120.164245
_cell_volume 525.971801
_symmetry_space_group_name_H-M "P -1"
_symmetry_group_IT_number 2
_symmetry_cell_setting 'triclinic'
loop_
_space_group_symop_operation_xyz
x,y,z
-x,-y,-z
loop_
_atom_site_type_symbol
_atom_site_label
_atom_site_fract_x
_atom_site_fract_y
_atom_site_fract_z
Si Si1 0.925286 0.039561 0.205934
Si Si2 0.750332 0.581284 0.057255
Si Si3 0.969792 0.961167 0.615803
Si Si4 0.104825 0.707542 0.405158
Si Si5 0.563628 0.538928 0.762653
Si Si6 0.391755 0.695633 0.663771
O O1 0.650242 0.085961 0.252698
O O2 0.977263 0.985265 0.279707
O O3 0.167701 0.249198 0.193823
O O4 0.889469 0.838661 0.098225
O O5 0.623448 0.522428 0.149020
O O6 0.500000 0.500000 0.000000
O O7 0.000000 0.500000 0.000000
O O8 0.666195 0.768558 0.592470
O O9 0.172523 0.861848 0.520012
O O10 0.997493 0.178501 0.624864
O O11 0.367797 0.664949 0.328701
O O12 0.867156 0.476403 0.398819
O O13 0.398822 0.586453 0.721611
#
# Coordination Sequence:
#
# PCOD8009996 Si02
#       6
#     2   2   2   2   2   2
#     4  10  24  43  68  96 137 172 224 277 340 404
#     4  12  30  48  75 100 133 176 232 292 350 408
#     4  10  21  37  63  97 135 177 219 266 328 401
#     4  10  21  37  63  97 135 177 219 266 328 401
#     4  10  24  43  68  96 137 172 224 277 340 404
#     4  10  21  38  64  92 140 172 218 268 331 402
#
# _framework density 22.814912
#
# number of rings (size 3 to 8) (size 9 to 14) (size 15 to 20)
#    0.000    1.667    0.000    2.500   11.667    8.667 
#    0.000    4.167    0.000    0.000    0.000    0.000 
#    0.000    0.000    0.000    0.000    0.000    0.000 
#
# Total GULP energy -148756.112837 kJ/mol
# GULP energy per Si atom -12396.342736 kJ/mol
# Density = 2.276298 g / cm^3
# Si number density = 22.814912 Si / 1000 Ang^3
#
#
#
# Elastic Constant Matrix: (Units=GPa)
#
#
# Indices 1 2 3 4 5 6 
#
# 1 83.4548 2.6068 29.1298 14.9491 -21.9416 -9.5151
# 2 2.6068 75.8369 28.9137 8.6620 -8.6936 -7.2032
# 3 29.1298 28.9137 94.8604 16.5903 -31.0112 0.0493
# 4 14.9491 8.6620 16.5903 40.0707 1.5466 -12.4171
# 5 -21.9416 -8.6936 -31.0112 1.5466 30.6126 9.6242
# 6 -9.5151 -7.2032 0.0493 -12.4171 9.6242 29.9520
#
#
#
# Elastic Compliance Matrix: (Units=1/GPa)
#
#
# Indices 1 2 3 4 5 6 
#
# 1 0.016590 0.001611 0.000186 -0.007721 0.013520 -0.001888
# 2 0.001611 0.015620 -0.005909 0.000073 -0.001950 0.004935
# 3 0.000186 -0.005909 0.024780 -0.015614 0.029836 -0.017463
# 4 -0.007721 0.000073 -0.015614 0.043498 -0.031636 0.025788
# 5 0.013520 -0.001950 0.029836 -0.031636 0.085165 -0.036704
# 6 -0.001888 0.004935 -0.017463 0.025788 -0.036704 0.056487
#
#
# Mechanical properties :
#
#
# Convention : Reuss Voigt Hill
#
# Bulk Modulus (GPa) = 20.50590 41.71697 31.11143
# Shear Modulus (GPa) = 18.75335 33.02719 25.89027
#
# Velocity S-wave (km/s) = 2.87013 3.80888 3.37233
# Velocity P-wave (km/s) = 4.47112 6.13743 5.36931
#
# Compressibility (1/GPa) = 0.04876645
#
# Stress axis : x y z
#
# Youngs Moduli (GPa) = 60.27770 64.01850 40.35574
#
# Poissons Ratio (x) = -0.10316 -0.00749
# Poissons Ratio (y) = -0.09713 0.23846
# Poissons Ratio (z) = -0.01119 0.37827
#
# Static dielectric constant tensor:
#      x y z
#    x 4.294140 0.146200 -0.207380 
#    y 0.146200 4.366620 0.115380 
#    z -0.207380 0.115380 3.969800 
# 
# 
# High freq. dielectric constant tensor:
#      x y z
#    x 1.899040 -0.003210 -0.012370 
#    y -0.003210 1.921800 0.006350 
#    z -0.012370 0.006350 1.886730 
# 
# From -- ./inp_files/20850.got.cif
#   From: 2010.06.25/outbox.cif.g09.slc.cpg/sg2_11_cif.got.tgz:20850.got - 2010.06.27 13:26:56.
