data_PCOD8009689
_publ_section_title
;
Structure prediction by ZEFSAII (Michael W. Deem and Ramdas Pophale) SiO2 
 PCOD8009689
Probable space group: P -1
;
_chemical_formula_sum "Si O2"
_cell_formula_units_Z 16
_cell_length_a 8.696592
_cell_length_b 24.799951
_cell_length_c 14.112619
_cell_angle_alpha 31.711632
_cell_angle_beta 54.210927
_cell_angle_gamma 34.433743
_cell_volume 831.849176
_symmetry_space_group_name_H-M "P -1"
_symmetry_group_IT_number 2
_symmetry_cell_setting 'triclinic'
loop_
_space_group_symop_operation_xyz
x,y,z
-x,-y,-z
loop_
_atom_site_type_symbol
_atom_site_label
_atom_site_fract_x
_atom_site_fract_y
_atom_site_fract_z
Si Si1 0.238441 0.137210 0.064191
Si Si2 0.767212 0.664849 0.590017
Si Si3 0.782121 0.680490 0.341774
Si Si4 0.896381 0.037388 0.588642
Si Si5 0.666747 0.017456 0.356999
Si Si6 0.249675 0.301625 0.955418
Si Si7 0.296566 0.813800 0.189211
Si Si8 0.868093 0.836319 0.361761
O O1 0.097212 0.082990 0.196585
O O2 0.596079 0.983685 0.171558
O O3 0.140034 0.241260 0.850509
O O4 0.131461 0.246584 0.030639
O O5 0.801858 0.687394 0.435840
O O6 0.878636 0.709218 0.552507
O O7 0.963069 0.485263 0.811869
O O8 0.429247 0.778867 0.563733
O O9 0.450267 0.786639 0.271993
O O10 0.000000 0.500000 0.500000
O O11 0.101036 0.022008 0.602130
O O12 0.000000 0.000000 0.500000
O O13 0.500000 0.000000 0.500000
O O14 0.829394 0.899602 0.385180
O O15 0.426208 0.201496 0.136417
O O16 0.465147 0.275899 0.846267
O O17 0.182778 0.744163 0.344683
O O18 0.000000 0.000000 0.000000
#
# Coordination Sequence:
#
# PCOD8009689 Si02
#       8
#     2   2   2   2   2   2   2   2
#     4   9  19  38  61  87 128 160 207 248 301 364
#     4  11  23  39  62  92 130 160 204 258 304 362
#     4  11  20  37  60  93 129 166 198 256 311 355
#     4  11  24  43  67  92 115 160 217 255 303 375
#     4  11  22  43  67  86 117 162 207 255 310 367
#     4  10  21  39  60  90 125 163 194 259 304 360
#     4  11  18  36  62  85 126 164 208 239 301 370
#     4  10  21  37  59  88 121 168 204 243 298 369
#
# _framework density 19.234255000000001
#
# number of rings (size 3 to 8) (size 9 to 14) (size 15 to 20)
#    0.000    1.500    6.250    3.000    0.000    3.500 
#    2.250    5.000    0.000    0.000    0.000    0.000 
#    0.000    0.000    0.000    0.000    0.000    0.000 
#
# Total GULP energy -198364.085502 kJ/mol
# GULP energy per Si atom -12397.755344 kJ/mol
# Density = 1.919048 g / cm^3
# Si number density = 19.234255 Si / 1000 Ang^3
#
#
#
# Elastic Constant Matrix: (Units=GPa)
#
#
# Indices 1 2 3 4 5 6 
#
# 1 141.4033 53.3459 53.8530 -1.7181 -6.7454 -15.2042
# 2 53.3459 104.8133 57.7230 -2.3560 -6.1040 -6.3459
# 3 53.8530 57.7230 96.4710 -11.7717 -9.2008 -6.3139
# 4 -1.7181 -2.3560 -11.7717 38.3719 4.2757 -5.7153
# 5 -6.7454 -6.1040 -9.2008 4.2757 28.8841 6.0079
# 6 -15.2042 -6.3459 -6.3139 -5.7153 6.0079 32.5465
#
#
#
# Elastic Compliance Matrix: (Units=1/GPa)
#
#
# Indices 1 2 3 4 5 6 
#
# 1 0.009879 -0.002826 -0.003659 -0.000350 -0.000092 0.003310
# 2 -0.002826 0.015183 -0.007682 -0.001625 0.000385 -0.000206
# 3 -0.003659 -0.007682 0.017843 0.004667 0.002383 0.000634
# 4 -0.000350 -0.001625 0.004667 0.028822 -0.004520 0.006321
# 5 -0.000092 0.000385 0.002383 -0.004520 0.037616 -0.007243
# 6 0.003310 -0.000206 0.000634 0.006321 -0.007243 0.034801
#
#
# Mechanical properties :
#
#
# Convention : Reuss Voigt Hill
#
# Bulk Modulus (GPa) = 68.62794 74.72571 71.67682
# Shear Modulus (GPa) = 28.19520 31.81154 30.00337
#
# Velocity S-wave (km/s) = 3.83284 4.07123 3.95383
# Velocity P-wave (km/s) = 7.43943 7.81246 7.62822
#
# Compressibility (1/GPa) = 0.01457132
#
# Stress axis : x y z
#
# Youngs Moduli (GPa) = 101.22855 65.86187 56.04350
#
# Poissons Ratio (x) = 0.18611 0.20505
# Poissons Ratio (y) = 0.28605 0.43055
# Poissons Ratio (z) = 0.37037 0.50598
#
# Static dielectric constant tensor:
#      x y z
#    x 3.639100 0.022870 -0.095770 
#    y 0.022870 3.518800 -0.009810 
#    z -0.095770 -0.009810 3.682830 
# 
# 
# High freq. dielectric constant tensor:
#      x y z
#    x 1.751570 -0.003340 -0.002560 
#    y -0.003340 1.736610 0.000100 
#    z -0.002560 0.000100 1.746150 
# 
# From -- ./inp_files/207984.got.cif
#   From: 2010.06.25/outbox.cif.g09.slc.cpg/sg2_104_cif.got.tgz:207984.got - 2010.06.27 13:26:56.
