data_PCOD8009846
_publ_section_title
;
Structure prediction by ZEFSAII (Michael W. Deem and Ramdas Pophale) SiO2 
 PCOD8009846
Probable space group: P -1
;
_chemical_formula_sum "Si O2"
_cell_formula_units_Z 16
_cell_length_a 11.741688
_cell_length_b 9.618411
_cell_length_c 22.168590
_cell_angle_alpha 36.147267
_cell_angle_beta 28.800525
_cell_angle_gamma 48.845155
_cell_volume 700.581583
_symmetry_space_group_name_H-M "P -1"
_symmetry_group_IT_number 2
_symmetry_cell_setting 'triclinic'
loop_
_space_group_symop_operation_xyz
x,y,z
-x,-y,-z
loop_
_atom_site_type_symbol
_atom_site_label
_atom_site_fract_x
_atom_site_fract_y
_atom_site_fract_z
Si Si1 0.882188 0.735082 0.168872
Si Si2 0.865596 0.160037 0.639457
Si Si3 0.469323 0.545070 0.101683
Si Si4 0.917571 0.326565 0.686300
Si Si5 0.646929 0.741678 0.157473
Si Si6 0.136222 0.070403 0.770693
Si Si7 0.726210 0.398597 0.145929
Si Si8 0.180700 0.327537 0.208080
O O1 0.712146 0.625400 0.231469
O O2 0.745766 0.776254 0.280193
O O3 0.060547 0.551679 0.165764
O O4 0.000000 0.000000 0.000000
O O5 0.896045 0.152528 0.700036
O O6 0.583268 0.139792 0.763474
O O7 0.022026 0.396838 0.456491
O O8 0.973111 0.939313 0.636321
O O9 0.333897 0.714437 0.146213
O O10 0.659337 0.442839 0.092033
O O11 0.270789 0.346523 0.229192
O O12 0.604211 0.690845 0.932501
O O13 0.123745 0.254469 0.657997
O O14 0.567078 0.521045 0.224314
O O15 0.867856 0.932055 0.961617
O O16 0.307951 0.888603 0.732266
O O17 0.000000 0.500000 0.000000
#
# Coordination Sequence:
#
# PCOD8009846 Si02
#       8
#     2   2   2   2   2   2   2   2
#     4  10  21  39  61  96 132 152 199 264 315 369
#     4  11  26  41  63  89 130 168 212 260 302 368
#     4  11  22  40  66  94 124 158 213 255 316 369
#     4  11  24  45  60  88 129 171 213 256 306 365
#     4  10  21  38  63  93 122 161 205 264 313 364
#     4  10  21  38  65  88 125 162 203 261 316 367
#     4  10  21  37  61  98 123 157 203 263 310 370
#     4  11  24  38  67  99 120 165 206 260 315 370
#
# _framework density 22.838168
#
# number of rings (size 3 to 8) (size 9 to 14) (size 15 to 20)
#    0.000    1.500    2.500    3.000   12.250    1.500 
#    0.000    2.500    0.000    0.000    0.000    0.000 
#    0.000    0.000    0.000    0.000    0.000    0.000 
#
# Total GULP energy -198256.422061 kJ/mol
# GULP energy per Si atom -12391.026379 kJ/mol
# Density = 2.278619 g / cm^3
# Si number density = 22.838168 Si / 1000 Ang^3
#
#
#
# Elastic Constant Matrix: (Units=GPa)
#
#
# Indices 1 2 3 4 5 6 
#
# 1 191.0290 53.0152 14.7428 -11.8800 26.9551 13.3685
# 2 53.0152 133.8672 11.7196 -17.4806 9.8480 6.6706
# 3 14.7428 11.7196 11.0601 0.6936 2.9091 1.1882
# 4 -11.8800 -17.4806 0.6936 21.1346 2.9943 1.8672
# 5 26.9551 9.8480 2.9091 2.9943 23.5861 2.0120
# 6 13.3685 6.6706 1.1882 1.8672 2.0120 39.5145
#
#
#
# Elastic Compliance Matrix: (Units=1/GPa)
#
#
# Indices 1 2 3 4 5 6 
#
# 1 0.007636 -0.001086 -0.007053 0.004917 -0.007855 -0.002020
# 2 -0.001086 0.010064 -0.008862 0.008523 -0.002837 -0.001323
# 3 -0.007053 -0.008862 0.110014 -0.015017 -0.000011 0.001284
# 4 0.004917 0.008523 -0.015017 0.060103 -0.014551 -0.004750
# 5 -0.007855 -0.002837 -0.000011 -0.014551 0.054318 0.001059
# 6 -0.002020 -0.001323 0.001284 -0.004750 0.001059 0.026346
#
#
# Mechanical properties :
#
#
# Convention : Reuss Voigt Hill
#
# Bulk Modulus (GPa) = 10.67112 54.99017 32.83064
# Shear Modulus (GPa) = 14.98262 33.94563 24.46412
#
# Velocity S-wave (km/s) = 2.56409 3.85951 3.27646
# Velocity P-wave (km/s) = 3.66725 6.63261 5.35912
#
# Compressibility (1/GPa) = 0.09371086
#
# Stress axis : x y z
#
# Youngs Moduli (GPa) = 130.95627 99.36792 9.08977
#
# Poissons Ratio (x) = 0.10792 0.06411
# Poissons Ratio (y) = 0.14222 0.08056
# Poissons Ratio (z) = 0.92365 0.88062
#
# Static dielectric constant tensor:
#      x y z
#    x 4.589160 0.380180 0.184620 
#    y 0.380180 4.553030 0.003790 
#    z 0.184620 0.003790 3.507080 
# 
# 
# High freq. dielectric constant tensor:
#      x y z
#    x 1.923410 0.010950 0.017250 
#    y 0.010950 1.915510 -0.002740 
#    z 0.017250 -0.002740 1.841840 
# 
# From -- ./inp_files/590995.got.cif
#   From: 2010.06.25/outbox.cif.g09.slc.cpg/sg2_296_cif.got.tgz:590995.got - 2010.06.27 13:26:56.
