data_PCOD8009857
_publ_section_title
;
Structure prediction by ZEFSAII (Michael W. Deem and Ramdas Pophale) SiO2 
 PCOD8009857
Probable space group: P -1
;
_chemical_formula_sum "Si O2"
_cell_formula_units_Z 14
_cell_length_a 9.452780
_cell_length_b 17.184904
_cell_length_c 11.511976
_cell_angle_alpha 45.927395
_cell_angle_beta 53.653731
_cell_angle_gamma 27.434140
_cell_volume 617.295401
_symmetry_space_group_name_H-M "P -1"
_symmetry_group_IT_number 2
_symmetry_cell_setting 'triclinic'
loop_
_space_group_symop_operation_xyz
x,y,z
-x,-y,-z
loop_
_atom_site_type_symbol
_atom_site_label
_atom_site_fract_x
_atom_site_fract_y
_atom_site_fract_z
Si Si1 0.826716 0.520185 0.719140
Si Si2 0.799268 0.834388 0.947878
Si Si3 0.720918 0.967102 0.360392
Si Si4 0.228056 0.678827 0.576678
Si Si5 0.160897 0.831225 0.676675
Si Si6 0.840582 0.690485 0.841964
Si Si7 0.106352 0.597126 0.450570
O O1 0.462003 0.725070 0.705337
O O2 0.883015 0.445616 0.641822
O O3 0.992821 0.550751 0.628216
O O4 0.949136 0.371588 0.904789
O O5 0.734503 0.820054 0.866416
O O6 0.931596 0.890077 0.817848
O O7 0.500000 0.000000 0.000000
O O8 0.987526 0.877315 0.412751
O O9 0.881656 0.813609 0.341333
O O10 0.500000 0.000000 0.500000
O O11 0.487621 0.173433 0.202659
O O12 0.268113 0.685663 0.685066
O O13 0.574524 0.521164 0.522736
O O14 0.077898 0.633856 0.697408
O O15 0.000000 0.000000 0.500000
O O16 0.000000 0.500000 0.000000
#
# Coordination Sequence:
#
# PCOD8009857 Si02
#       7
#     2   2   2   2   2   2   2
#     4  10  23  38  67  89 125 165 209 259 324 370
#     4  11  24  40  64  97 131 163 211 265 316 373
#     4  10  21  37  62  86 122 163 207 251 310 372
#     4   9  21  39  62  89 122 164 211 261 308 377
#     4  10  23  40  64  93 129 164 210 258 318 380
#     4  10  23  41  63  89 129 168 208 259 319 378
#     4  10  21  39  64  94 121 161 216 265 308 377
#
# _framework density 22.679579
#
# number of rings (size 3 to 8) (size 9 to 14) (size 15 to 20)
#    0.000    2.000    0.000    1.714   16.000    0.000 
#    0.000    0.714    0.000    0.000    0.000    0.000 
#    0.000    0.000    0.000    0.000    0.000    0.000 
#
# Total GULP energy -173457.939196 kJ/mol
# GULP energy per Si atom -12389.852800 kJ/mol
# Density = 2.262796 g / cm^3
# Si number density = 22.679579 Si / 1000 Ang^3
#
#
#
# Elastic Constant Matrix: (Units=GPa)
#
#
# Indices 1 2 3 4 5 6 
#
# 1 86.6536 38.2576 21.0544 11.0691 7.9747 -32.9062
# 2 38.2576 147.0361 62.0171 -8.3225 -5.4920 -43.3645
# 3 21.0544 62.0171 139.7282 -13.0090 -5.0648 -41.4252
# 4 11.0691 -8.3225 -13.0090 38.7534 -15.2070 7.7010
# 5 7.9747 -5.4920 -5.0648 -15.2070 24.6591 -3.2880
# 6 -32.9062 -43.3645 -41.4252 7.7010 -3.2880 36.3622
#
#
#
# Elastic Compliance Matrix: (Units=1/GPa)
#
#
# Indices 1 2 3 4 5 6 
#
# 1 0.025397 -0.001442 0.002375 -0.018190 -0.015745 0.026398
# 2 -0.001442 0.011166 -0.001116 0.002553 0.005728 0.010717
# 3 0.002375 -0.001116 0.011911 0.002028 0.004597 0.014374
# 4 -0.018190 0.002553 0.002028 0.049637 0.035018 -0.018453
# 5 -0.015745 0.005728 0.004597 0.035018 0.069012 -0.003357
# 6 0.026398 0.010717 0.014374 -0.018453 -0.003357 0.084151
#
#
# Mechanical properties :
#
#
# Convention : Reuss Voigt Hill
#
# Bulk Modulus (GPa) = 20.78656 68.45289 44.61972
# Shear Modulus (GPa) = 18.67927 36.76087 27.72007
#
# Velocity S-wave (km/s) = 2.87299 4.03038 3.49986
# Velocity P-wave (km/s) = 4.49340 7.20464 6.00406
#
# Compressibility (1/GPa) = 0.04810801
#
# Stress axis : x y z
#
# Youngs Moduli (GPa) = 39.37501 89.55575 83.95462
#
# Poissons Ratio (x) = 0.12916 -0.19941
# Poissons Ratio (y) = 0.05679 0.09370
# Poissons Ratio (z) = -0.09352 0.09995
#
# Static dielectric constant tensor:
#      x y z
#    x 4.705580 -0.476950 0.430070 
#    y -0.476950 4.436710 0.017760 
#    z 0.430070 0.017760 4.131810 
# 
# 
# High freq. dielectric constant tensor:
#      x y z
#    x 1.905320 -0.005630 0.016760 
#    y -0.005630 1.905410 0.000270 
#    z 0.016760 0.000270 1.876160 
# 
# From -- ./inp_files/158288.got.cif
#   From: 2010.06.25/outbox.cif.g09.slc.cpg/sg2_80_cif.got.tgz:158288.got - 2010.06.27 13:26:56.
