data_PCOD8009019
_publ_section_title
;
Structure prediction by ZEFSAII (Michael W. Deem and Ramdas Pophale) SiO2 
 PCOD8009019
Probable space group: P -1
;
_chemical_formula_sum "Si O2"
_cell_formula_units_Z 16
_cell_length_a 28.135987
_cell_length_b 5.187472
_cell_length_c 18.334904
_cell_angle_alpha 94.699666
_cell_angle_beta 162.951030
_cell_angle_gamma 78.654244
_cell_volume 714.889175
_symmetry_space_group_name_H-M "P -1"
_symmetry_group_IT_number 2
_symmetry_cell_setting 'triclinic'
loop_
_space_group_symop_operation_xyz
x,y,z
-x,-y,-z
loop_
_atom_site_type_symbol
_atom_site_label
_atom_site_fract_x
_atom_site_fract_y
_atom_site_fract_z
Si Si1 0.773567 0.250582 0.990524
Si Si2 0.450316 0.095934 0.346590
Si Si3 0.095879 0.955068 0.363184
Si Si4 0.028332 0.218373 0.494443
Si Si5 0.033914 0.273413 0.142528
Si Si6 0.814051 0.896495 0.791193
Si Si7 0.651824 0.589810 0.251916
Si Si8 0.318752 0.044588 0.812418
O O1 0.646509 0.565086 0.786662
O O2 0.668665 0.066017 0.860820
O O3 0.897306 0.284235 0.235466
O O4 0.889348 0.082542 0.085993
O O5 0.500000 0.000000 0.500000
O O6 0.614649 0.012391 0.530305
O O7 0.216625 0.893413 0.611518
O O8 0.131369 0.160638 0.360879
O O9 0.188401 0.623096 0.465307
O O10 0.000000 0.500000 0.500000
O O11 0.233995 0.093321 0.769090
O O12 0.000000 0.000000 0.500000
O O13 0.175481 0.171813 0.281650
O O14 0.929868 0.610771 0.998420
O O15 0.894197 0.126495 0.929250
O O16 0.735696 0.659492 0.303543
O O17 0.500000 0.500000 0.000000
O O18 0.532649 0.878100 0.128941
#
# Coordination Sequence:
#
# PCOD8009019 Si02
#       8
#     2   2   2   2   2   2   2   2
#     4  11  25  40  65  97 127 168 225 261 315 399
#     4  12  23  41  65  97 134 170 209 270 327 375
#     4  10  21  35  64  88 121 155 213 262 312 376
#     4  11  25  44  68  90 131 182 218 267 327 385
#     4  10  21  39  63  90 116 168 205 251 321 375
#     4  10  22  40  61  85 130 162 204 255 312 386
#     4   9  19  37  60  88 120 155 198 271 323 364
#     4   9  21  38  62  89 123 158 213 265 321 380
#
# _framework density 22.381091999999999
#
# number of rings (size 3 to 8) (size 9 to 14) (size 15 to 20)
#    0.000    1.750    0.000    3.375   10.500    0.000 
#    2.250    3.750    0.000    0.000    0.000    0.000 
#    0.000    0.000    0.000    0.000    0.000    0.000 
#
# Total GULP energy -198249.012286 kJ/mol
# GULP energy per Si atom -12390.563268 kJ/mol
# Density = 2.233015 g / cm^3
# Si number density = 22.381092 Si / 1000 Ang^3
#
#
#
# Elastic Constant Matrix: (Units=GPa)
#
#
# Indices 1 2 3 4 5 6 
#
# 1 147.6113 30.9797 67.4289 -27.4038 29.5589 18.1284
# 2 30.9797 82.5779 42.4116 -21.3810 12.4112 24.2990
# 3 67.4289 42.4116 112.3651 -31.9771 29.4262 3.7920
# 4 -27.4038 -21.3810 -31.9771 46.5160 2.5393 -4.1063
# 5 29.5589 12.4112 29.4262 2.5393 38.7252 4.3563
# 6 18.1284 24.2990 3.7920 -4.1063 4.3563 36.9263
#
#
#
# Elastic Compliance Matrix: (Units=1/GPa)
#
#
# Indices 1 2 3 4 5 6 
#
# 1 0.010812 0.001356 -0.004444 0.003795 -0.005028 -0.004729
# 2 0.001356 0.019856 -0.006107 0.004726 -0.001676 -0.012382
# 3 -0.004444 -0.006107 0.018777 0.008608 -0.010207 0.006433
# 4 0.003795 0.004726 0.008608 0.032471 -0.013002 -0.000712
# 5 -0.005028 -0.001676 -0.010207 -0.013002 0.038966 -0.001424
# 6 -0.004729 -0.012382 0.006433 -0.000712 -0.001424 0.036978
#
#
# Mechanical properties :
#
#
# Convention : Reuss Voigt Hill
#
# Bulk Modulus (GPa) = 32.19999 69.35496 50.77747
# Shear Modulus (GPa) = 26.79518 37.88245 32.33882
#
# Velocity S-wave (km/s) = 3.46385 4.11860 3.80533
# Velocity P-wave (km/s) = 5.51507 7.32616 6.48416
#
# Compressibility (1/GPa) = 0.03105591
#
# Stress axis : x y z
#
# Youngs Moduli (GPa) = 92.49089 50.36173 53.25754
#
# Poissons Ratio (x) = -0.06827 0.23665
# Poissons Ratio (y) = -0.12539 0.32522
# Poissons Ratio (z) = 0.41099 0.30754
#
# Static dielectric constant tensor:
#      x y z
#    x 4.106210 0.490400 0.244470 
#    y 0.490400 2.248320 -0.206700 
#    z 0.244470 -0.206700 4.416960 
# 
# 
# High freq. dielectric constant tensor:
#      x y z
#    x 1.874690 0.011870 0.014180 
#    y 0.011870 1.904580 -0.009070 
#    z 0.014180 -0.009070 1.881060 
# 
# From -- ./inp_files/579481.got.cif
#   From: 2010.06.25/outbox.cif.g09.slc.cpg/sg2_290_cif.got.tgz:579481.got - 2010.06.27 13:26:56.
