data_PCOD8009768
_publ_section_title
;
Structure prediction by ZEFSAII (Michael W. Deem and Ramdas Pophale) SiO2 
 PCOD8009768
Probable space group: P -1
;
_chemical_formula_sum "Si O2"
_cell_formula_units_Z 16
_cell_length_a 8.718876
_cell_length_b 12.676968
_cell_length_c 18.055448
_cell_angle_alpha 38.020535
_cell_angle_beta 43.743130
_cell_angle_gamma 39.446087
_cell_volume 747.049065
_symmetry_space_group_name_H-M "P -1"
_symmetry_group_IT_number 2
_symmetry_cell_setting 'triclinic'
loop_
_space_group_symop_operation_xyz
x,y,z
-x,-y,-z
loop_
_atom_site_type_symbol
_atom_site_label
_atom_site_fract_x
_atom_site_fract_y
_atom_site_fract_z
Si Si1 0.578029 0.371350 0.892293
Si Si2 0.103220 0.903173 0.322878
Si Si3 0.710118 0.281725 0.297941
Si Si4 0.749708 0.532313 0.531415
Si Si5 0.432701 0.325841 0.630517
Si Si6 0.108954 0.408337 0.091824
Si Si7 0.983694 0.678641 0.124398
Si Si8 0.731535 0.034376 0.920744
O O1 0.405035 0.596985 0.804335
O O2 0.661726 0.251624 0.852060
O O3 0.800937 0.365640 0.866452
O O4 0.413632 0.289433 0.040435
O O5 0.173427 0.682226 0.405578
O O6 0.320745 0.877215 0.320923
O O7 0.110792 0.008679 0.185971
O O8 0.822287 0.047702 0.373580
O O9 0.496239 0.367017 0.387254
O O10 0.965149 0.288056 0.231977
O O11 0.685419 0.685192 0.401326
O O12 0.000000 0.500000 0.500000
O O13 0.500000 0.500000 0.500000
O O14 0.224944 0.371175 0.741277
O O15 0.076023 0.561292 0.081618
O O16 0.000000 0.500000 0.000000
O O17 0.878800 0.901282 0.012839
O O18 0.500000 0.000000 0.000000
#
# Coordination Sequence:
#
# PCOD8009768 Si02
#       8
#     2   2   2   2   2   2   2   2
#     4  11  23  39  62 102 141 178 219 284 354 402
#     4  11  23  42  68 100 129 175 231 277 334 411
#     4  11  22  43  69  96 133 180 227 275 340 409
#     4  11  24  46  70  94 137 178 225 282 340 396
#     4  10  23  41  66  94 127 178 232 274 326 395
#     4  10  21  37  60  93 131 175 218 266 334 417
#     4  12  23  40  66  96 139 178 225 288 343 401
#     4  12  21  39  67  96 135 179 226 275 344 419
#
# _framework density 21.417603
#
# number of rings (size 3 to 8) (size 9 to 14) (size 15 to 20)
#    0.000    1.000    2.500    6.750    0.000    1.000 
#    0.000    1.250    0.000    0.000    0.000    0.000 
#    0.000    0.000    0.000    0.000    0.000    0.000 
#
# Total GULP energy -198211.838754 kJ/mol
# GULP energy per Si atom -12388.239922 kJ/mol
# Density = 2.136886 g / cm^3
# Si number density = 21.417603 Si / 1000 Ang^3
#
#
#
# Elastic Constant Matrix: (Units=GPa)
#
#
# Indices 1 2 3 4 5 6 
#
# 1 140.9468 51.8193 28.5791 -4.1966 15.8924 -9.3239
# 2 51.8193 147.5704 32.8402 3.0491 8.0390 -5.0778
# 3 28.5791 32.8402 75.3114 1.7215 14.9950 -6.3548
# 4 -4.1966 3.0491 1.7215 15.6284 -1.1433 4.1617
# 5 15.8924 8.0390 14.9950 -1.1433 29.5026 2.0790
# 6 -9.3239 -5.0778 -6.3548 4.1617 2.0790 31.6106
#
#
#
# Elastic Compliance Matrix: (Units=1/GPa)
#
#
# Indices 1 2 3 4 5 6 
#
# 1 0.008925 -0.002606 -0.001474 0.002331 -0.003387 0.001833
# 2 -0.002606 0.008311 -0.002639 -0.002079 0.000380 0.000284
# 3 -0.001474 -0.002639 0.016825 -0.003189 -0.007403 0.003430
# 4 0.002331 -0.002079 -0.003189 0.068223 0.004248 -0.009549
# 5 -0.003387 0.000380 -0.007403 0.004248 0.039939 -0.005612
# 6 0.001833 0.000284 0.003430 -0.009549 -0.005612 0.034537
#
#
# Mechanical properties :
#
#
# Convention : Reuss Voigt Hill
#
# Bulk Modulus (GPa) = 48.49532 65.58953 57.04242
# Shear Modulus (GPa) = 25.37127 32.05432 28.71279
#
# Velocity S-wave (km/s) = 3.44553 3.87283 3.66542
# Velocity P-wave (km/s) = 6.20652 7.11962 6.67869
#
# Compressibility (1/GPa) = 0.02062055
#
# Stress axis : x y z
#
# Youngs Moduli (GPa) = 112.04951 120.32253 59.43525
#
# Poissons Ratio (x) = 0.31360 0.08764
# Poissons Ratio (y) = 0.29204 0.15686
# Poissons Ratio (z) = 0.16521 0.31756
#
# Static dielectric constant tensor:
#      x y z
#    x 4.367260 -0.295160 0.138560 
#    y -0.295160 4.014460 0.071930 
#    z 0.138560 0.071930 3.912900 
# 
# 
# High freq. dielectric constant tensor:
#      x y z
#    x 1.848140 -0.005540 0.008860 
#    y -0.005540 1.837140 0.012080 
#    z 0.008860 0.012080 1.833320 
# 
# From -- ./inp_files/306240.got.cif
#   From: 2010.06.25/outbox.cif.g09.slc.cpg/sg2_154_cif.got.tgz:306240.got - 2010.06.27 13:26:56.
