data_PCOD8009553
_publ_section_title
;
Structure prediction by ZEFSAII (Michael W. Deem and Ramdas Pophale) SiO2 
 PCOD8009553
Probable space group: P -1
;
_chemical_formula_sum "Si O2"
_cell_formula_units_Z 16
_cell_length_a 8.443399
_cell_length_b 8.419923
_cell_length_c 11.095043
_cell_angle_alpha 93.051275
_cell_angle_beta 103.568704
_cell_angle_gamma 101.859464
_cell_volume 746.116696
_symmetry_space_group_name_H-M "P -1"
_symmetry_group_IT_number 2
_symmetry_cell_setting 'triclinic'
loop_
_space_group_symop_operation_xyz
x,y,z
-x,-y,-z
loop_
_atom_site_type_symbol
_atom_site_label
_atom_site_fract_x
_atom_site_fract_y
_atom_site_fract_z
Si Si1 0.632684 0.638414 0.735227
Si Si2 0.434614 0.294367 0.686996
Si Si3 0.861035 0.560356 0.248928
Si Si4 0.302816 0.769085 0.695384
Si Si5 0.679990 0.623170 0.010121
Si Si6 0.405068 0.074034 0.881446
Si Si7 0.803382 0.837540 0.559342
Si Si8 0.098652 0.801027 0.444224
O O1 0.568545 0.452393 0.670301
O O2 0.486314 0.734533 0.735118
O O3 0.767547 0.733554 0.670118
O O4 0.722784 0.628055 0.877594
O O5 0.282692 0.355364 0.723139
O O6 0.510587 0.187693 0.796825
O O7 0.363952 0.186429 0.553531
O O8 0.839064 0.377785 0.284324
O O9 0.830209 0.558631 0.099298
O O10 0.044591 0.661230 0.327258
O O11 0.263407 0.787947 0.547680
O O12 0.288727 0.925790 0.779964
O O13 0.693745 0.809914 0.062176
O O14 0.500000 0.500000 0.000000
O O15 0.500000 0.000000 0.000000
O O16 0.949870 0.779606 0.513542
O O17 0.865103 0.027227 0.611861
#
# Coordination Sequence:
#
# PCOD8009553 Si02
#       8
#     2   2   2   2   2   2   2   2
#     4  11  21  35  59  89 113 143 190 244 280 324
#     4   9  18  34  54  82 114 146 183 234 279 330
#     4   9  19  34  58  82 110 149 193 222 277 347
#     4  11  20  34  59  88 111 144 190 236 283 326
#     4  11  18  35  57  85 114 148 186 231 283 338
#     4  11  18  30  55  88 114 143 184 231 281 333
#     4  10  21  37  57  84 112 152 194 226 283 337
#     4  10  21  38  58  79 114 156 188 226 281 350
#
# _framework density 21.444365999999999
#
# number of rings (size 3 to 8) (size 9 to 14) (size 15 to 20)
#    0.000    1.750    6.250    0.750    1.750    0.500 
#    0.000    0.625    0.000    0.750    0.000    0.000 
#    0.000    0.000    0.000    0.000    0.000    0.000 
#
# Total GULP energy -198264.592063 kJ/mol
# GULP energy per Si atom -12391.537004 kJ/mol
# Density = 2.139556 g / cm^3
# Si number density = 21.444366 Si / 1000 Ang^3
#
#
#
# Elastic Constant Matrix: (Units=GPa)
#
#
# Indices 1 2 3 4 5 6 
#
# 1 17.8395 21.2148 15.1520 -2.7630 -3.8108 11.5392
# 2 21.2148 145.1246 46.7734 1.6081 -6.5815 17.2493
# 3 15.1520 46.7734 137.7219 -10.6951 6.9577 22.9654
# 4 -2.7630 1.6081 -10.6951 47.9782 7.8667 -1.8027
# 5 -3.8108 -6.5815 6.9577 7.8667 25.1103 -9.6159
# 6 11.5392 17.2493 22.9654 -1.8027 -9.6159 22.6970
#
#
#
# Elastic Compliance Matrix: (Units=1/GPa)
#
#
# Indices 1 2 3 4 5 6 
#
# 1 0.094268 -0.009180 0.000945 0.005440 -0.007100 -0.044482
# 2 -0.009180 0.009041 -0.002589 -0.001817 0.002826 0.001469
# 3 0.000945 -0.002589 0.011125 0.003753 -0.010051 -0.013730
# 4 0.005440 -0.001817 0.003753 0.023581 -0.011155 -0.008036
# 5 -0.007100 0.002826 -0.010051 -0.011155 0.059543 0.035973
# 6 -0.044482 0.001469 -0.013730 -0.008036 0.035973 0.094051
#
#
# Mechanical properties :
#
#
# Convention : Reuss Voigt Hill
#
# Bulk Modulus (GPa) = 10.77758 51.88514 31.33136
# Shear Modulus (GPa) = 14.52702 33.66013 24.09358
#
# Velocity S-wave (km/s) = 2.60557 3.96618 3.35556
# Velocity P-wave (km/s) = 3.75350 6.72472 5.44567
#
# Compressibility (1/GPa) = 0.09278523
#
# Stress axis : x y z
#
# Youngs Moduli (GPa) = 10.60802 110.60932 89.88637
#
# Poissons Ratio (x) = 1.01543 -0.08495
# Poissons Ratio (y) = 0.09739 0.23274
# Poissons Ratio (z) = -0.01003 0.28640
#
# Static dielectric constant tensor:
#      x y z
#    x 3.176090 0.016720 0.229010 
#    y 0.016720 4.197640 0.045020 
#    z 0.229010 0.045020 4.403670 
# 
# 
# High freq. dielectric constant tensor:
#      x y z
#    x 1.764130 -0.001840 0.014530 
#    y -0.001840 1.863220 -0.003930 
#    z 0.014530 -0.003930 1.860000 
# 
# From -- ./inp_files/382059.got.cif
#   From: 2010.06.25/outbox.cif.g09.slc.cpg/sg2_192_cif.got.tgz:382059.got - 2010.06.27 13:26:56.
