data_PCOD8009327
_publ_section_title
;
Structure prediction by ZEFSAII (Michael W. Deem and Ramdas Pophale) SiO2 
 PCOD8009327
Probable space group: P -1
;
_chemical_formula_sum "Si O2"
_cell_formula_units_Z 12
_cell_length_a 10.969047
_cell_length_b 9.315114
_cell_length_c 10.663769
_cell_angle_alpha 136.192449
_cell_angle_beta 98.431055
_cell_angle_gamma 61.112500
_cell_volume 622.649683
_symmetry_space_group_name_H-M "P -1"
_symmetry_group_IT_number 2
_symmetry_cell_setting 'triclinic'
loop_
_space_group_symop_operation_xyz
x,y,z
-x,-y,-z
loop_
_atom_site_type_symbol
_atom_site_label
_atom_site_fract_x
_atom_site_fract_y
_atom_site_fract_z
Si Si1 0.677278 0.249752 0.002706
Si Si2 0.344490 0.472508 0.066918
Si Si3 0.846515 0.748762 0.102682
Si Si4 0.937154 0.774161 0.620723
Si Si5 0.875552 0.086417 0.139571
Si Si6 0.149243 0.984583 0.492626
O O1 0.684919 0.433778 0.022459
O O2 0.797475 0.963422 0.805179
O O3 0.517418 0.293772 0.008154
O O4 0.720650 0.288873 0.174468
O O5 0.276703 0.706462 0.296960
O O6 0.276350 0.310675 0.978021
O O7 0.796002 0.943854 0.331786
O O8 0.864881 0.863765 0.051272
O O9 0.000000 0.500000 0.000000
O O10 0.881401 0.819218 0.497709
O O11 0.000000 0.500000 0.500000
O O12 0.075413 0.807345 0.673143
O O13 0.000000 0.000000 0.000000
O O14 0.000000 0.000000 0.500000
#
# Coordination Sequence:
#
# PCOD8009327 Si02
#       6
#     2   2   2   2   2   2
#     4   9  21  42  59  85 119 155 197 239 295 350
#     4  10  22  42  62  83 122 158 192 246 293 348
#     4  12  22  36  63  88 117 158 195 244 298 344
#     4  10  21  36  61  88 117 151 194 248 288 344
#     4  10  21  37  58  87 113 153 200 236 295 352
#     4  11  21  38  58  91 117 149 202 240 289 354
#
# _framework density 19.272475
#
# number of rings (size 3 to 8) (size 9 to 14) (size 15 to 20)
#    0.000    1.667    3.333    2.000    7.000    0.667 
#    3.000    3.333    0.000    0.000    0.000    0.000 
#    0.000    0.000    0.000    0.000    0.000    0.000 
#
# Total GULP energy -148770.139242 kJ/mol
# GULP energy per Si atom -12397.511603 kJ/mol
# Density = 1.922861 g / cm^3
# Si number density = 19.272475 Si / 1000 Ang^3
#
#
#
# Elastic Constant Matrix: (Units=GPa)
#
#
# Indices 1 2 3 4 5 6 
#
# 1 137.6753 67.1860 46.3183 14.9790 10.5130 0.1369
# 2 67.1860 124.5165 46.7076 3.3397 5.7783 -0.3368
# 3 46.3183 46.7076 84.7219 4.1315 7.2306 -0.2000
# 4 14.9790 3.3397 4.1315 32.4740 1.8760 1.8145
# 5 10.5130 5.7783 7.2306 1.8760 26.5918 6.1791
# 6 0.1369 -0.3368 -0.2000 1.8145 6.1791 38.3910
#
#
#
# Elastic Compliance Matrix: (Units=1/GPa)
#
#
# Indices 1 2 3 4 5 6 
#
# 1 0.011237 -0.004649 -0.003171 -0.004191 -0.002387 0.000485
# 2 -0.004649 0.012065 -0.004202 0.001424 0.000260 -0.000009
# 3 -0.003171 -0.004202 0.016052 -0.000039 -0.002295 0.000429
# 4 -0.004191 0.001424 -0.000039 0.032700 -0.000619 -0.001419
# 5 -0.002387 0.000260 -0.002295 -0.000619 0.040675 -0.006519
# 6 0.000485 -0.000009 0.000429 -0.001419 -0.006519 0.027164
#
#
# Mechanical properties :
#
#
# Convention : Reuss Voigt Hill
#
# Bulk Modulus (GPa) = 65.31323 74.14860 69.73092
# Shear Modulus (GPa) = 29.57851 31.93813 30.75832
#
# Velocity S-wave (km/s) = 3.92184 4.07528 3.99930
# Velocity P-wave (km/s) = 7.38043 7.79110 7.58854
#
# Compressibility (1/GPa) = 0.01531083
#
# Stress axis : x y z
#
# Youngs Moduli (GPa) = 88.99317 82.88130 62.29715
#
# Poissons Ratio (x) = 0.38533 0.19754
# Poissons Ratio (y) = 0.41374 0.26175
# Poissons Ratio (z) = 0.28219 0.34824
#
# Static dielectric constant tensor:
#      x y z
#    x 3.724850 -0.193320 0.127810 
#    y -0.193320 4.009280 -0.332840 
#    z 0.127810 -0.332840 3.697210 
# 
# 
# High freq. dielectric constant tensor:
#      x y z
#    x 1.746790 0.002940 0.006830 
#    y 0.002940 1.762300 -0.010040 
#    z 0.006830 -0.010040 1.731280 
# 
# From -- ./inp_files/147452.got.cif
#   From: 2010.06.25/outbox.cif.g09.slc.cpg/sg2_74_cif.got.tgz:147452.got - 2010.06.27 13:26:56.
