data_PCOD8009243
_publ_section_title
;
Structure prediction by ZEFSAII (Michael W. Deem and Ramdas Pophale) SiO2 
 PCOD8009243
Probable space group: P -1
;
_chemical_formula_sum "Si O2"
_cell_formula_units_Z 16
_cell_length_a 15.450999
_cell_length_b 14.102878
_cell_length_c 15.122301
_cell_angle_alpha 39.856347
_cell_angle_beta 18.961072
_cell_angle_gamma 40.169398
_cell_volume 674.563591
_symmetry_space_group_name_H-M "P -1"
_symmetry_group_IT_number 2
_symmetry_cell_setting 'triclinic'
loop_
_space_group_symop_operation_xyz
x,y,z
-x,-y,-z
loop_
_atom_site_type_symbol
_atom_site_label
_atom_site_fract_x
_atom_site_fract_y
_atom_site_fract_z
Si Si1 0.165171 0.439177 0.745726
Si Si2 0.077696 0.221019 0.542616
Si Si3 0.461442 0.826161 0.116887
Si Si4 0.102392 0.021134 0.491492
Si Si5 0.664776 0.351593 0.202980
Si Si6 0.235865 0.986398 0.712200
Si Si7 0.484628 0.620283 0.073665
Si Si8 0.079229 0.279647 0.123483
O O1 0.464790 0.392372 0.450425
O O2 0.109731 0.616304 0.696585
O O3 0.131624 0.354900 0.928136
O O4 0.949285 0.403765 0.908283
O O5 0.051209 0.105884 0.572697
O O6 0.789474 0.332225 0.751573
O O7 0.164504 0.124581 0.614747
O O8 0.286436 0.330364 0.242932
O O9 0.620772 0.763909 0.094697
O O10 0.605227 0.960658 0.842388
O O11 0.145846 0.900384 0.391373
O O12 0.470167 0.695864 0.130173
O O13 0.081564 0.851091 0.653417
O O14 0.717629 0.173056 0.267786
O O15 0.543056 0.441150 0.167329
O O16 0.500000 0.000000 0.500000
O O17 0.000000 0.000000 0.000000
#
# Coordination Sequence:
#
# PCOD8009243 Si02
#       8
#     2   2   2   2   2   2   2   2
#     4  11  27  39  66  91 137 189 221 282 320 395
#     4  10  22  43  69 100 137 173 223 267 338 401
#     4  10  21  36  59  89 130 176 228 274 322 364
#     4  10  22  36  62  89 129 180 216 277 321 380
#     4  12  25  49  70  98 136 181 225 271 353 405
#     4  12  27  49  77 107 135 167 214 281 346 422
#     4  10  21  41  70  96 133 184 220 270 327 403
#     4  11  23  40  57  97 136 177 243 271 321 371
#
# _framework density 23.71904
#
# number of rings (size 3 to 8) (size 9 to 14) (size 15 to 20)
#    0.000    1.250    1.250    3.750    3.500    8.000 
#    0.000    3.750    0.000    0.000    0.000    0.000 
#    0.000    0.000    0.000    0.000    0.000    0.000 
#
# Total GULP energy -198480.402325 kJ/mol
# GULP energy per Si atom -12405.025145 kJ/mol
# Density = 2.366505 g / cm^3
# Si number density = 23.719040 Si / 1000 Ang^3
#
#
#
# Elastic Constant Matrix: (Units=GPa)
#
#
# Indices 1 2 3 4 5 6 
#
# 1 73.6059 22.4434 8.5639 9.8486 0.7560 -27.0194
# 2 22.4434 83.8249 16.2254 2.4286 6.1720 -15.6688
# 3 8.5639 16.2254 96.0118 22.3410 -3.1520 4.4040
# 4 9.8486 2.4286 22.3410 32.8014 -5.5216 0.3540
# 5 0.7560 6.1720 -3.1520 -5.5216 34.5658 4.4749
# 6 -27.0194 -15.6688 4.4040 0.3540 4.4749 35.7878
#
#
#
# Elastic Compliance Matrix: (Units=1/GPa)
#
#
# Indices 1 2 3 4 5 6 
#
# 1 0.020835 -0.002131 -0.000862 -0.006204 -0.003133 0.015357
# 2 -0.002131 0.014263 -0.002776 0.000858 -0.003313 0.005383
# 3 -0.000862 -0.002776 0.013071 -0.008259 0.000840 -0.003498
# 4 -0.006204 0.000858 -0.008259 0.038974 0.006029 -0.004431
# 5 -0.003133 -0.003313 0.000840 0.006029 0.031658 -0.007937
# 6 0.015357 0.005383 -0.003498 -0.004431 -0.007937 0.043360
#
#
# Mechanical properties :
#
#
# Convention : Reuss Voigt Hill
#
# Bulk Modulus (GPa) = 27.29814 38.65642 32.97728
# Shear Modulus (GPa) = 26.89495 34.37834 30.63664
#
# Velocity S-wave (km/s) = 3.37099 3.81123 3.59785
# Velocity P-wave (km/s) = 5.16579 5.97497 5.58505
#
# Compressibility (1/GPa) = 0.03663254
#
# Stress axis : x y z
#
# Youngs Moduli (GPa) = 47.99540 70.11301 76.50390
#
# Poissons Ratio (x) = 0.14939 0.06595
# Poissons Ratio (y) = 0.10226 0.21235
# Poissons Ratio (z) = 0.04137 0.19461
#
# Static dielectric constant tensor:
#      x y z
#    x 4.071920 0.022400 -0.171670 
#    y 0.022400 4.567680 0.083760 
#    z -0.171670 0.083760 4.341930 
# 
# 
# High freq. dielectric constant tensor:
#      x y z
#    x 1.931490 -0.009000 -0.001920 
#    y -0.009000 1.953920 -0.001900 
#    z -0.001920 -0.001900 1.958010 
# 
# From -- ./inp_files/534220.got.cif
#   From: 2010.06.25/outbox.cif.g09.slc.cpg/sg2_268_cif.got.tgz:534220.got - 2010.06.27 13:26:56.
