data_PCOD8009357
_publ_section_title
;
Structure prediction by ZEFSAII (Michael W. Deem and Ramdas Pophale) SiO2 
 PCOD8009357
Probable space group: P -1
;
_chemical_formula_sum "Si O2"
_cell_formula_units_Z 16
_cell_length_a 22.175993
_cell_length_b 28.025812
_cell_length_c 16.692423
_cell_angle_alpha 19.713281
_cell_angle_beta 163.706716
_cell_angle_gamma 162.799913
_cell_volume 822.359375
_symmetry_space_group_name_H-M "P -1"
_symmetry_group_IT_number 2
_symmetry_cell_setting 'triclinic'
loop_
_space_group_symop_operation_xyz
x,y,z
-x,-y,-z
loop_
_atom_site_type_symbol
_atom_site_label
_atom_site_fract_x
_atom_site_fract_y
_atom_site_fract_z
Si Si1 0.481376 0.642103 0.647779
Si Si2 0.176247 0.980028 0.479566
Si Si3 0.692182 0.805560 0.048185
Si Si4 0.806007 0.513340 0.320658
Si Si5 0.674229 0.228982 0.490171
Si Si6 0.302217 0.088348 0.947543
Si Si7 0.690879 0.272048 0.011218
Si Si8 0.739572 0.499461 0.576718
O O1 0.261569 0.502604 0.646833
O O2 0.364899 0.615499 0.453429
O O3 0.581443 0.830338 0.506739
O O4 0.713610 0.614596 0.991007
O O5 0.284671 0.859969 0.803588
O O6 0.001081 0.943759 0.233190
O O7 0.981682 0.938070 0.373634
O O8 0.555684 0.808457 0.952546
O O9 0.631649 0.619114 0.252722
O O10 0.591695 0.858102 0.760924
O O11 0.668206 0.322280 0.414340
O O12 0.112033 0.625018 0.526468
O O13 0.732083 0.092079 0.807671
O O14 0.457869 0.184445 0.915101
O O15 0.951995 0.393514 0.200849
O O16 0.632089 0.379917 0.706272
#
# Coordination Sequence:
#
# PCOD8009357 Si02
#       8
#     2   2   2   2   2   2   2   2
#     4  11  20  39  56  85 119 156 184 242 296 343
#     4   9  21  39  56  87 120 146 197 242 278 351
#     4   9  20  37  59  85 116 154 190 240 288 339
#     4  10  22  32  60  83 123 152 190 230 301 347
#     4  11  19  38  55  90 118 153 191 242 283 356
#     4  10  21  36  62  83 118 153 192 239 291 339
#     4  10  22  43  61  85 113 158 198 247 284 334
#     4  10  22  41  61  83 120 147 202 246 281 346
#
# _framework density 19.456213999999999
#
# number of rings (size 3 to 8) (size 9 to 14) (size 15 to 20)
#    0.750    1.250    2.500    1.125    1.750    1.000 
#    2.250    2.500    0.000    0.000    0.000    0.000 
#    0.000    0.000    0.000    0.000    0.000    0.000 
#
# Total GULP energy -198311.154740 kJ/mol
# GULP energy per Si atom -12394.447171 kJ/mol
# Density = 1.941193 g / cm^3
# Si number density = 19.456214 Si / 1000 Ang^3
#
#
#
# Elastic Constant Matrix: (Units=GPa)
#
#
# Indices 1 2 3 4 5 6 
#
# 1 69.5465 25.5303 17.7254 -2.7326 -10.0485 6.1505
# 2 25.5303 83.1459 13.4459 -8.4830 -12.3856 -11.0952
# 3 17.7254 13.4459 40.0528 -2.9500 -4.2579 -3.1495
# 4 -2.7326 -8.4830 -2.9500 18.8395 -5.3949 0.8706
# 5 -10.0485 -12.3856 -4.2579 -5.3949 25.6625 -2.2929
# 6 6.1505 -11.0952 -3.1495 0.8706 -2.2929 35.2018
#
#
#
# Elastic Compliance Matrix: (Units=1/GPa)
#
#
# Indices 1 2 3 4 5 6 
#
# 1 0.018859 -0.004763 -0.006700 0.000836 0.003687 -0.005176
# 2 -0.004763 0.016697 -0.001476 0.008693 0.008338 0.006291
# 3 -0.006700 -0.001476 0.029226 0.003515 0.002556 0.003400
# 4 0.000836 0.008693 0.003515 0.062859 0.018550 0.002562
# 5 0.003687 0.008338 0.002556 0.018550 0.049202 0.004959
# 6 -0.005176 0.006291 0.003400 0.002562 0.004959 0.031859
#
#
# Mechanical properties :
#
#
# Convention : Reuss Voigt Hill
#
# Bulk Modulus (GPa) = 25.70556 34.01652 29.86104
# Shear Modulus (GPa) = 20.19818 25.01034 22.60426
#
# Velocity S-wave (km/s) = 3.22551 3.58923 3.41222
# Velocity P-wave (km/s) = 5.20697 5.89053 5.55927
#
# Compressibility (1/GPa) = 0.03890210
#
# Stress axis : x y z
#
# Youngs Moduli (GPa) = 53.02639 59.89194 34.21652
#
# Poissons Ratio (x) = 0.28528 0.22926
# Poissons Ratio (y) = 0.25258 0.05050
# Poissons Ratio (z) = 0.35529 0.08839
#
# Static dielectric constant tensor:
#      x y z
#    x 3.430620 -0.117700 0.192610 
#    y -0.117700 3.431950 -0.065560 
#    z 0.192610 -0.065560 3.356120 
# 
# 
# High freq. dielectric constant tensor:
#      x y z
#    x 1.750250 -0.011190 0.016300 
#    y -0.011190 1.753300 -0.009450 
#    z 0.016300 -0.009450 1.743110 
# 
# From -- ./inp_files/292325.got.cif
#   From: 2010.06.25/outbox.cif.g09.slc.cpg/sg2_147_cif.got.tgz:292325.got - 2010.06.27 13:26:56.
