data_PCOD8009536
_publ_section_title
;
Structure prediction by ZEFSAII (Michael W. Deem and Ramdas Pophale) SiO2 
 PCOD8009536
Probable space group: P -1
;
_chemical_formula_sum "Si O2"
_cell_formula_units_Z 16
_cell_length_a 9.134847
_cell_length_b 9.658651
_cell_length_c 16.709666
_cell_angle_alpha 50.276378
_cell_angle_beta 65.191523
_cell_angle_gamma 44.213312
_cell_volume 788.692433
_symmetry_space_group_name_H-M "P -1"
_symmetry_group_IT_number 2
_symmetry_cell_setting 'triclinic'
loop_
_space_group_symop_operation_xyz
x,y,z
-x,-y,-z
loop_
_atom_site_type_symbol
_atom_site_label
_atom_site_fract_x
_atom_site_fract_y
_atom_site_fract_z
Si Si1 0.323284 0.378627 0.256009
Si Si2 0.545276 0.522740 0.571914
Si Si3 0.950182 0.058128 0.617999
Si Si4 0.245564 0.032793 0.435283
Si Si5 0.437764 0.848003 0.043546
Si Si6 0.422885 0.752325 0.904567
Si Si7 0.959958 0.081796 0.888640
Si Si8 0.648814 0.394901 0.254943
O O1 0.250296 0.243309 0.358998
O O2 0.419594 0.271442 0.185842
O O3 0.124781 0.653986 0.194265
O O4 0.496777 0.339072 0.288611
O O5 0.500000 0.500000 0.500000
O O6 0.790519 0.302001 0.614960
O O7 0.403344 0.516318 0.672724
O O8 0.474611 0.783626 0.498378
O O9 0.070147 0.100833 0.513606
O O10 0.820796 0.994258 0.626375
O O11 0.110523 0.844056 0.720632
O O12 0.214293 0.935537 0.098908
O O13 0.618108 0.583612 0.132015
O O14 0.427155 0.862856 0.944395
O O15 0.500000 0.000000 0.000000
O O16 0.500000 0.500000 0.000000
O O17 0.190106 0.909217 0.858482
O O18 0.000000 0.000000 0.000000
#
# Coordination Sequence:
#
# PCOD8009536 Si02
#       8
#     2   2   2   2   2   2   2   2
#     4  11  22  37  60  88 116 153 202 239 291 356
#     4   9  19  37  58  78 114 150 184 236 294 349
#     4   9  19  37  59  80 116 148 186 243 303 345
#     4   9  20  37  58  85 110 150 193 239 291 356
#     4  10  22  39  60  91 124 153 199 255 291 344
#     4  11  20  41  63  80 120 168 196 235 299 354
#     4   9  19  37  60  80 118 160 195 242 293 341
#     4  10  21  37  56  85 116 149 190 248 287 343
#
# _framework density 20.286743000000001
#
# number of rings (size 3 to 8) (size 9 to 14) (size 15 to 20)
#    0.000    2.250    3.750    0.750    0.000    9.000 
#    0.000    1.875    0.000    0.000    0.000    0.000 
#    0.000    0.000    0.000    0.000    0.000    0.000 
#
# Total GULP energy -198274.838114 kJ/mol
# GULP energy per Si atom -12392.177382 kJ/mol
# Density = 2.024057 g / cm^3
# Si number density = 20.286743 Si / 1000 Ang^3
#
#
#
# Elastic Constant Matrix: (Units=GPa)
#
#
# Indices 1 2 3 4 5 6 
#
# 1 92.9139 46.4839 44.4259 -31.7175 -5.9121 -2.0121
# 2 46.4839 104.1039 30.6432 -28.3185 0.7331 -24.5596
# 3 44.4259 30.6432 84.7611 -28.4272 -0.9872 -6.2847
# 4 -31.7175 -28.3185 -28.4272 46.4859 2.3065 13.1584
# 5 -5.9121 0.7331 -0.9872 2.3065 37.4373 -11.8286
# 6 -2.0121 -24.5596 -6.2847 13.1584 -11.8286 38.3322
#
#
#
# Elastic Compliance Matrix: (Units=1/GPa)
#
#
# Indices 1 2 3 4 5 6 
#
# 1 0.019093 -0.006331 -0.005677 0.007485 0.000507 -0.006398
# 2 -0.006331 0.015351 -0.000934 0.001787 0.001469 0.009190
# 3 -0.005677 -0.000934 0.017155 0.006247 -0.000978 -0.000530
# 4 0.007485 0.001787 0.006247 0.034755 -0.004199 -0.010664
# 5 0.000507 0.001469 -0.000978 -0.004199 0.030699 0.011722
# 6 -0.006398 0.009190 -0.000530 -0.010664 0.011722 0.038831
#
#
# Mechanical properties :
#
#
# Convention : Reuss Voigt Hill
#
# Bulk Modulus (GPa) = 38.88539 58.32053 48.60296
# Shear Modulus (GPa) = 26.26880 35.13282 30.70081
#
# Velocity S-wave (km/s) = 3.60234 4.16602 3.89439
# Velocity P-wave (km/s) = 6.04251 7.20774 6.65069
#
# Compressibility (1/GPa) = 0.02571660
#
# Stress axis : x y z
#
# Youngs Moduli (GPa) = 52.37492 65.14056 58.29114
#
# Poissons Ratio (x) = 0.41243 0.33089
# Poissons Ratio (y) = 0.33160 0.05443
# Poissons Ratio (z) = 0.29731 0.06082
#
# Static dielectric constant tensor:
#      x y z
#    x 3.883190 -0.379500 0.505070 
#    y -0.379500 3.586300 -0.361220 
#    z 0.505070 -0.361220 3.751210 
# 
# 
# High freq. dielectric constant tensor:
#      x y z
#    x 1.769050 -0.014310 0.023890 
#    y -0.014310 1.795030 -0.007240 
#    z 0.023890 -0.007240 1.794310 
# 
# From -- ./inp_files/495213.got.cif
#   From: 2010.06.25/outbox.cif.g09.slc.cpg/sg2_248_cif.got.tgz:495213.got - 2010.06.27 13:26:56.
