data_PCOD8009028
_publ_section_title
;
Structure prediction by ZEFSAII (Michael W. Deem and Ramdas Pophale) SiO2 
 PCOD8009028
Probable space group: P -1
;
_chemical_formula_sum "Si O2"
_cell_formula_units_Z 12
_cell_length_a 15.742360
_cell_length_b 8.902034
_cell_length_c 12.418444
_cell_angle_alpha 50.173853
_cell_angle_beta 25.430937
_cell_angle_gamma 58.823784
_cell_volume 564.126597
_symmetry_space_group_name_H-M "P -1"
_symmetry_group_IT_number 2
_symmetry_cell_setting 'triclinic'
loop_
_space_group_symop_operation_xyz
x,y,z
-x,-y,-z
loop_
_atom_site_type_symbol
_atom_site_label
_atom_site_fract_x
_atom_site_fract_y
_atom_site_fract_z
Si Si1 0.280622 0.393450 0.259836
Si Si2 0.109730 0.935208 0.679922
Si Si3 0.107226 0.572382 0.732640
Si Si4 0.285381 0.868283 0.723315
Si Si5 0.300916 0.211515 0.697706
Si Si6 0.077657 0.519828 0.238071
O O1 0.236908 0.419854 0.170417
O O2 0.130887 0.501989 0.449562
O O3 0.238075 0.156179 0.434220
O O4 0.500000 0.500000 0.000000
O O5 0.191453 0.809295 0.547941
O O6 0.133953 0.829893 0.815131
O O7 0.865363 0.904675 0.973854
O O8 0.276617 0.434964 0.587319
O O9 0.962872 0.569987 0.794599
O O10 0.000000 0.500000 0.000000
O O11 0.484076 0.788028 0.492918
O O12 0.318735 0.097876 0.615857
O O13 0.179690 0.749787 0.001899
#
# Coordination Sequence:
#
# PCOD8009028 Si02
#       6
#     2   2   2   2   2   2
#     4  11  27  42  66  89 128 173 216 260 308 369
#     4  11  22  42  60  96 131 163 207 262 316 378
#     4  10  21  41  65  96 133 162 199 268 325 371
#     4  11  21  35  70  95 120 166 215 264 315 362
#     4  10  21  35  64  98 126 158 210 267 313 366
#     4  11  23  43  63  96 128 164 214 263 309 376
#
# _framework density 21.271822
#
# number of rings (size 3 to 8) (size 9 to 14) (size 15 to 20)
#    0.000    1.333    5.000    1.500    7.000    1.333 
#    0.000    0.833    0.000    0.000    0.000    0.000 
#    0.000    0.000    0.000    0.000    0.000    0.000 
#
# Total GULP energy -148666.956004 kJ/mol
# GULP energy per Si atom -12388.913000 kJ/mol
# Density = 2.122341 g / cm^3
# Si number density = 21.271822 Si / 1000 Ang^3
#
#
#
# Elastic Constant Matrix: (Units=GPa)
#
#
# Indices 1 2 3 4 5 6 
#
# 1 120.6554 45.5555 32.7408 -0.4065 14.8256 -1.2536
# 2 45.5555 118.3470 33.3172 0.3174 -9.0105 2.2087
# 3 32.7408 33.3172 91.2892 -4.1610 -9.7342 -10.2136
# 4 -0.4065 0.3174 -4.1610 28.6854 -2.6291 -4.8363
# 5 14.8256 -9.0105 -9.7342 -2.6291 23.3701 0.5507
# 6 -1.2536 2.2087 -10.2136 -4.8363 0.5507 27.6240
#
#
#
# Elastic Compliance Matrix: (Units=1/GPa)
#
#
# Indices 1 2 3 4 5 6 
#
# 1 0.012560 -0.004508 -0.004248 -0.001570 -0.011636 -0.000683
# 2 -0.004508 0.011290 -0.002064 -0.000248 0.006373 -0.002041
# 3 -0.004248 -0.002064 0.014985 0.003927 0.008441 0.006032
# 4 -0.001570 -0.000248 0.003927 0.037327 0.006551 0.007805
# 5 -0.011636 0.006373 0.008441 0.006551 0.056832 0.002097
# 6 -0.000683 -0.002041 0.006032 0.007805 0.002097 0.039888
#
#
# Mechanical properties :
#
#
# Convention : Reuss Voigt Hill
#
# Bulk Modulus (GPa) = 58.15526 61.50206 59.82866
# Shear Modulus (GPa) = 24.96830 30.51442 27.74136
#
# Velocity S-wave (km/s) = 3.42975 3.79159 3.61520
# Velocity P-wave (km/s) = 6.56375 6.93855 6.75375
#
# Compressibility (1/GPa) = 0.01719535
#
# Stress axis : x y z
#
# Youngs Moduli (GPa) = 79.61585 88.57464 66.73384
#
# Poissons Ratio (x) = 0.39928 0.28351
# Poissons Ratio (y) = 0.35890 0.13772
# Poissons Ratio (z) = 0.33823 0.18279
#
# Static dielectric constant tensor:
#      x y z
#    x 3.962580 0.060570 -0.091610 
#    y 0.060570 4.289260 -0.046790 
#    z -0.091610 -0.046790 3.590250 
# 
# 
# High freq. dielectric constant tensor:
#      x y z
#    x 1.833220 0.002340 -0.012160 
#    y 0.002340 1.835510 -0.002690 
#    z -0.012160 -0.002690 1.811140 
# 
# From -- ./inp_files/160463.got.cif
#   From: 2010.06.25/outbox.cif.g09.slc.cpg/sg2_81_cif.got.tgz:160463.got - 2010.06.27 13:26:56.
