data_PCOD8009754
_publ_section_title
;
Structure prediction by ZEFSAII (Michael W. Deem and Ramdas Pophale) SiO2 
 PCOD8009754
Probable space group: P -1
;
_chemical_formula_sum "Si O2"
_cell_formula_units_Z 14
_cell_length_a 9.727332
_cell_length_b 5.995333
_cell_length_c 14.815854
_cell_angle_alpha 96.434001
_cell_angle_beta 97.953056
_cell_angle_gamma 130.829023
_cell_volume 623.406526
_symmetry_space_group_name_H-M "P -1"
_symmetry_group_IT_number 2
_symmetry_cell_setting 'triclinic'
loop_
_space_group_symop_operation_xyz
x,y,z
-x,-y,-z
loop_
_atom_site_type_symbol
_atom_site_label
_atom_site_fract_x
_atom_site_fract_y
_atom_site_fract_z
Si Si1 0.753904 0.701073 0.042331
Si Si2 0.128433 0.841920 0.558259
Si Si3 0.070469 0.966577 0.373737
Si Si4 0.696949 0.270936 0.299011
Si Si5 0.514625 0.710648 0.145454
Si Si6 0.887267 0.173565 0.935161
Si Si7 0.638084 0.777457 0.745643
O O1 0.654906 0.662374 0.125030
O O2 0.960489 0.837445 0.090255
O O3 0.629843 0.391884 0.955205
O O4 0.764432 0.937864 0.994143
O O5 0.180935 0.036902 0.481379
O O6 0.304676 0.919399 0.629714
O O7 0.000000 0.500000 0.500000
O O8 0.022521 0.889568 0.621378
O O9 0.907024 0.603589 0.319677
O O10 0.231467 0.149620 0.321929
O O11 0.551542 0.310714 0.312104
O O12 0.629583 0.065289 0.193483
O O13 0.405872 0.496831 0.214090
O O14 0.750365 0.078661 0.834092
O O15 0.000000 0.500000 0.000000
#
# Coordination Sequence:
#
# PCOD8009754 Si02
#       7
#     2   2   2   2   2   2   2
#     4   9  21  39  58  85 128 173 208 259 314 370
#     4   9  21  44  68  92 127 167 203 259 330 379
#     4  10  23  44  67  95 127 163 213 263 314 383
#     4  11  23  40  65  95 126 168 210 259 320 376
#     4  10  22  40  60  90 130 168 213 260 316 370
#     4  10  21  37  60  90 125 167 215 260 310 366
#     4  11  25  38  62 100 125 163 219 262 308 378
#
# _framework density 22.457253999999999
#
# number of rings (size 3 to 8) (size 9 to 14) (size 15 to 20)
#    0.000    2.000    0.000    1.714    6.000    2.857 
#    0.000   14.286    0.000    0.000    0.000    0.000 
#    0.000    0.000    0.000    0.000    0.000    0.000 
#
# Total GULP energy -173548.143269 kJ/mol
# GULP energy per Si atom -12396.295948 kJ/mol
# Density = 2.240614 g / cm^3
# Si number density = 22.457254 Si / 1000 Ang^3
#
#
#
# Elastic Constant Matrix: (Units=GPa)
#
#
# Indices 1 2 3 4 5 6 
#
# 1 91.2287 24.2693 33.9444 -20.2328 0.8190 11.6037
# 2 24.2693 59.0523 29.4608 4.8440 -18.4784 9.9150
# 3 33.9444 29.4608 85.3864 1.0989 -14.0378 9.5477
# 4 -20.2328 4.8440 1.0989 43.1138 1.7977 -5.6021
# 5 0.8190 -18.4784 -14.0378 1.7977 40.2055 -5.0904
# 6 11.6037 9.9150 9.5477 -5.6021 -5.0904 34.0020
#
#
#
# Elastic Compliance Matrix: (Units=1/GPa)
#
#
# Indices 1 2 3 4 5 6 
#
# 1 0.016928 -0.006541 -0.005346 0.008826 -0.005839 -0.001788
# 2 -0.006541 0.026212 -0.004200 -0.006838 0.010541 -0.003780
# 3 -0.005346 -0.004200 0.016091 -0.002781 0.003748 -0.001366
# 4 0.008826 -0.006838 -0.002781 0.028877 -0.005109 0.003756
# 5 -0.005839 0.010541 0.003748 -0.005109 0.031595 0.001755
# 6 -0.001788 -0.003780 -0.001366 0.003756 0.001755 0.032388
#
#
# Mechanical properties :
#
#
# Convention : Reuss Voigt Hill
#
# Bulk Modulus (GPa) = 36.95971 45.66849 41.31410
# Shear Modulus (GPa) = 25.86885 33.33047 29.59966
#
# Velocity S-wave (km/s) = 3.39767 3.85668 3.63443
# Velocity P-wave (km/s) = 5.64675 6.34128 6.00406
#
# Compressibility (1/GPa) = 0.02705649
#
# Stress axis : x y z
#
# Youngs Moduli (GPa) = 59.07321 38.15110 62.14765
#
# Poissons Ratio (x) = 0.24953 0.33227
# Poissons Ratio (y) = 0.38637 0.26102
# Poissons Ratio (z) = 0.31583 0.16023
#
# Static dielectric constant tensor:
#      x y z
#    x 4.304660 0.030520 0.533940 
#    y 0.030520 3.949390 0.074120 
#    z 0.533940 0.074120 4.534300 
# 
# 
# High freq. dielectric constant tensor:
#      x y z
#    x 1.879980 -0.000920 0.010530 
#    y -0.000920 1.872650 0.012050 
#    z 0.010530 0.012050 1.891140 
# 
# From -- ./inp_files/323375.got.cif
#   From: 2010.06.25/outbox.cif.g09.slc.cpg/sg2_162_cif.got.tgz:323375.got - 2010.06.27 13:26:56.
