data_PCOD8009725
_publ_section_title
;
Structure prediction by ZEFSAII (Michael W. Deem and Ramdas Pophale) SiO2 
 PCOD8009725
Probable space group: P -1
;
_chemical_formula_sum "Si O2"
_cell_formula_units_Z 16
_cell_length_a 11.225335
_cell_length_b 9.391204
_cell_length_c 16.783256
_cell_angle_alpha 52.436524
_cell_angle_beta 45.001310
_cell_angle_gamma 85.999481
_cell_volume 758.199265
_symmetry_space_group_name_H-M "P -1"
_symmetry_group_IT_number 2
_symmetry_cell_setting 'triclinic'
loop_
_space_group_symop_operation_xyz
x,y,z
-x,-y,-z
loop_
_atom_site_type_symbol
_atom_site_label
_atom_site_fract_x
_atom_site_fract_y
_atom_site_fract_z
Si Si1 0.495769 0.253419 0.477019
Si Si2 0.832473 0.972153 0.759677
Si Si3 0.266365 0.434976 0.451909
Si Si4 0.816445 0.269584 0.215671
Si Si5 0.752829 0.325670 0.478209
Si Si6 0.455331 0.897604 0.865475
Si Si7 0.090578 0.365451 0.204015
Si Si8 0.588496 0.900830 0.046120
O O1 0.407843 0.388017 0.450136
O O2 0.622697 0.272249 0.331589
O O3 0.669488 0.389220 0.421521
O O4 0.296818 0.979792 0.688937
O O5 0.669132 0.988884 0.783956
O O6 0.830349 0.784735 0.775950
O O7 0.761036 0.905292 0.909796
O O8 0.076482 0.219287 0.561411
O O9 0.169874 0.502012 0.542125
O O10 0.404407 0.635144 0.252297
O O11 0.927709 0.263663 0.242405
O O12 0.000000 0.500000 0.000000
O O13 0.960956 0.342969 0.351415
O O14 0.543419 0.058045 0.690995
O O15 0.312441 0.937004 0.975683
O O16 0.308024 0.632812 0.996312
O O17 0.500000 0.000000 0.000000
#
# Coordination Sequence:
#
# PCOD8009725 Si02
#       8
#     2   2   2   2   2   2   2   2
#     4  10  21  38  60  91 118 152 202 241 294 358
#     4  11  23  38  61  91 118 156 204 246 294 357
#     4  11  22  39  64  90 120 158 199 246 296 354
#     4  10  21  37  60  86 123 158 189 245 302 349
#     4  10  23  40  60  86 122 158 195 246 299 352
#     4  10  22  40  60  84 120 161 198 244 299 347
#     4  11  22  38  58  88 120 156 199 247 296 352
#     4   9  22  40  60  86 118 158 201 245 293 349
#
# _framework density 21.102633000000001
#
# number of rings (size 3 to 8) (size 9 to 14) (size 15 to 20)
#    0.000    1.750    1.250    2.250    1.750    8.000 
#    0.000    0.000    0.000    8.250    0.000    0.000 
#    0.000    0.000    0.000    0.000    0.000    0.000 
#
# Total GULP energy -198353.546380 kJ/mol
# GULP energy per Si atom -12397.096649 kJ/mol
# Density = 2.105460 g / cm^3
# Si number density = 21.102633 Si / 1000 Ang^3
#
#
#
# Elastic Constant Matrix: (Units=GPa)
#
#
# Indices 1 2 3 4 5 6 
#
# 1 52.8564 15.7485 9.5205 6.1488 -0.8476 -7.9659
# 2 15.7485 103.5425 37.3704 -2.2641 3.7899 -16.1571
# 3 9.5205 37.3704 92.6339 -3.8774 13.0497 -11.8106
# 4 6.1488 -2.2641 -3.8774 32.7202 6.7273 -4.2860
# 5 -0.8476 3.7899 13.0497 6.7273 31.3699 -6.0728
# 6 -7.9659 -16.1571 -11.8106 -4.2860 -6.0728 21.8606
#
#
#
# Elastic Compliance Matrix: (Units=1/GPa)
#
#
# Indices 1 2 3 4 5 6 
#
# 1 0.021159 -0.002109 -0.001261 -0.004228 0.003336 0.005568
# 2 -0.002109 0.012505 -0.004050 0.001450 0.001139 0.006887
# 3 -0.001261 -0.004050 0.013846 0.003112 -0.005362 0.003148
# 4 -0.004228 0.001450 0.003112 0.034183 -0.007802 0.005747
# 5 0.003336 0.001139 -0.005362 -0.007802 0.037280 0.007987
# 6 0.005568 0.006887 0.003148 0.005747 0.007987 0.057910
#
#
# Mechanical properties :
#
#
# Convention : Reuss Voigt Hill
#
# Bulk Modulus (GPa) = 30.60852 41.59020 36.09936
# Shear Modulus (GPa) = 24.67780 29.61637 27.14709
#
# Velocity S-wave (km/s) = 3.42339 3.75032 3.59058
# Velocity P-wave (km/s) = 5.49201 6.20520 5.85947
#
# Compressibility (1/GPa) = 0.03267064
#
# Stress axis : x y z
#
# Youngs Moduli (GPa) = 47.26099 79.96893 72.22493
#
# Poissons Ratio (x) = 0.16864 0.09106
# Poissons Ratio (y) = 0.09967 0.29250
# Poissons Ratio (z) = 0.05959 0.32386
#
# Static dielectric constant tensor:
#      x y z
#    x 3.585940 0.048520 0.067900 
#    y 0.048520 4.138690 0.235680 
#    z 0.067900 0.235680 3.902660 
# 
# 
# High freq. dielectric constant tensor:
#      x y z
#    x 1.813130 0.004400 0.002600 
#    y 0.004400 1.834880 -0.000550 
#    z 0.002600 -0.000550 1.830240 
# 
# From -- ./inp_files/68558.got.cif
#   From: 2010.06.25/outbox.cif.g09.slc.cpg/sg2_35_cif.got.tgz:68558.got - 2010.06.27 13:26:56.
