data_PCOD8009521
_publ_section_title
;
Structure prediction by ZEFSAII (Michael W. Deem and Ramdas Pophale) SiO2 
 PCOD8009521
Probable space group: P -1
;
_chemical_formula_sum "Si O2"
_cell_formula_units_Z 16
_cell_length_a 16.739740
_cell_length_b 12.478017
_cell_length_c 19.771644
_cell_angle_alpha 145.529911
_cell_angle_beta 22.275532
_cell_angle_gamma 132.258299
_cell_volume 803.480431
_symmetry_space_group_name_H-M "P -1"
_symmetry_group_IT_number 2
_symmetry_cell_setting 'triclinic'
loop_
_space_group_symop_operation_xyz
x,y,z
-x,-y,-z
loop_
_atom_site_type_symbol
_atom_site_label
_atom_site_fract_x
_atom_site_fract_y
_atom_site_fract_z
Si Si1 0.161458 0.584379 0.800408
Si Si2 0.414549 0.495155 0.352585
Si Si3 0.556147 0.251062 0.246401
Si Si4 0.371550 0.182180 0.639855
Si Si5 0.769369 0.788566 0.885951
Si Si6 0.987347 0.223039 0.114864
Si Si7 0.447671 0.174187 0.776985
Si Si8 0.694789 0.453372 0.681430
O O1 0.319619 0.345907 0.527091
O O2 0.270986 0.648669 0.811893
O O3 0.168316 0.718597 0.800233
O O4 0.890606 0.642413 0.052920
O O5 0.524947 0.299183 0.215145
O O6 0.487399 0.680848 0.409311
O O7 0.137730 0.607706 0.640636
O O8 0.452083 0.432152 0.211270
O O9 0.667067 0.003696 0.037142
O O10 0.500000 0.000000 0.500000
O O11 0.368696 0.060571 0.508911
O O12 0.695087 0.627996 0.822193
O O13 0.047316 0.707697 0.626668
O O14 0.657883 0.821032 0.064146
O O15 0.238960 0.227434 0.913262
O O16 0.000000 0.000000 0.000000
O O17 0.565800 0.333201 0.759275
#
# Coordination Sequence:
#
# PCOD8009521 Si02
#       8
#     2   2   2   2   2   2   2   2
#     4  10  21  37  55  91 136 164 206 244 327 397
#     4  11  22  38  61  96 126 170 206 262 325 385
#     4  10  24  40  61  88 137 176 197 261 331 392
#     4  12  21  35  63 100 127 162 211 265 316 382
#     4  11  25  45  64  92 126 174 216 277 319 365
#     4  11  18  32  61  91 129 163 201 254 320 373
#     4  12  22  37  68  97 126 163 210 275 315 374
#     4  11  24  43  70  91 122 166 235 271 306 377
#
# _framework density 19.913364000000001
#
# number of rings (size 3 to 8) (size 9 to 14) (size 15 to 20)
#    0.000    1.000    5.000    1.875    3.500    1.000 
#    2.250    0.000    0.000    3.750    0.000    0.000 
#    0.000    0.000    0.000    0.000    0.000    0.000 
#
# Total GULP energy -198212.375552 kJ/mol
# GULP energy per Si atom -12388.273472 kJ/mol
# Density = 1.986804 g / cm^3
# Si number density = 19.913364 Si / 1000 Ang^3
#
#
#
# Elastic Constant Matrix: (Units=GPa)
#
#
# Indices 1 2 3 4 5 6 
#
# 1 85.3023 34.0886 35.2772 4.3150 -1.2419 -8.2946
# 2 34.0886 100.7982 35.7676 -1.4620 -6.0147 -1.4167
# 3 35.2772 35.7676 94.0576 1.2001 -2.1457 -6.3651
# 4 4.3150 -1.4620 1.2001 29.2856 -3.0128 -1.3950
# 5 -1.2419 -6.0147 -2.1457 -3.0128 25.9430 -2.7950
# 6 -8.2946 -1.4167 -6.3651 -1.3950 -2.7950 27.3544
#
#
#
# Elastic Compliance Matrix: (Units=1/GPa)
#
#
# Indices 1 2 3 4 5 6 
#
# 1 0.015338 -0.003744 -0.004082 -0.002157 -0.000360 0.003360
# 2 -0.003744 0.012551 -0.003394 0.001533 0.002527 -0.000939
# 3 -0.004082 -0.003394 0.013582 -0.000006 0.000332 0.001780
# 4 -0.002157 0.001533 -0.000006 0.035084 0.004506 0.001674
# 5 -0.000360 0.002527 0.000332 0.004506 0.040143 0.004431
# 6 0.003360 -0.000939 0.001780 0.001674 0.004431 0.038480
#
#
# Mechanical properties :
#
#
# Convention : Reuss Voigt Hill
#
# Bulk Modulus (GPa) = 52.54807 54.49164 53.51986
# Shear Modulus (GPa) = 27.17955 28.18492 27.68223
#
# Velocity S-wave (km/s) = 3.69845 3.76623 3.73249
# Velocity P-wave (km/s) = 6.68458 6.80709 6.74611
#
# Compressibility (1/GPa) = 0.01903019
#
# Stress axis : x y z
#
# Youngs Moduli (GPa) = 65.19729 79.67375 73.62885
#
# Poissons Ratio (x) = 0.29831 0.30057
# Poissons Ratio (y) = 0.24411 0.24990
# Poissons Ratio (z) = 0.26615 0.27042
#
# Static dielectric constant tensor:
#      x y z
#    x 3.271900 -0.107230 0.336550 
#    y -0.107230 3.393460 -0.117770 
#    z 0.336550 -0.117770 3.602360 
# 
# 
# High freq. dielectric constant tensor:
#      x y z
#    x 1.780970 -0.009630 0.000500 
#    y -0.009630 1.759930 -0.014330 
#    z 0.000500 -0.014330 1.784350 
# 
# From -- ./inp_files/282025.got.cif
#   From: 2010.06.25/outbox.cif.g09.slc.cpg/sg2_142_cif.got.tgz:282025.got - 2010.06.27 13:26:56.
