data_PCOD8009068
_publ_section_title
;
Structure prediction by ZEFSAII (Michael W. Deem and Ramdas Pophale) SiO2 
 PCOD8009068
Probable space group: P -1
;
_chemical_formula_sum "Si O2"
_cell_formula_units_Z 16
_cell_length_a 27.618798
_cell_length_b 5.010049
_cell_length_c 6.975730
_cell_angle_alpha 110.941867
_cell_angle_beta 63.353555
_cell_angle_gamma 105.679642
_cell_volume 798.715034
_symmetry_space_group_name_H-M "P -1"
_symmetry_group_IT_number 2
_symmetry_cell_setting 'triclinic'
loop_
_space_group_symop_operation_xyz
x,y,z
-x,-y,-z
loop_
_atom_site_type_symbol
_atom_site_label
_atom_site_fract_x
_atom_site_fract_y
_atom_site_fract_z
Si Si1 0.500144 0.823681 0.647407
Si Si2 0.724112 0.351760 0.842854
Si Si3 0.193820 0.770162 0.643791
Si Si4 0.450303 0.246293 0.079161
Si Si5 0.670291 0.721051 0.751121
Si Si6 0.014007 0.151076 0.712884
Si Si7 0.247491 0.400597 0.735094
Si Si8 0.932398 0.216156 0.195183
O O1 0.500000 0.500000 0.500000
O O2 0.549488 0.855337 0.723649
O O3 0.500000 0.000000 0.500000
O O4 0.451144 0.947229 0.881759
O O5 0.780273 0.317357 0.624599
O O6 0.694453 0.607245 0.873824
O O7 0.682014 0.064232 0.821528
O O8 0.738133 0.417494 0.053957
O O9 0.201368 0.538527 0.734593
O O10 0.130610 0.773569 0.723749
O O11 0.223110 0.075930 0.746130
O O12 0.394491 0.374448 0.169097
O O13 0.500000 0.500000 0.000000
O O14 0.697567 0.585693 0.485103
O O15 0.036350 0.479950 0.714133
O O16 0.060879 0.010208 0.706204
O O17 0.000000 0.000000 0.500000
O O18 0.958513 0.117993 0.926958
#
# Coordination Sequence:
#
# PCOD8009068 Si02
#       8
#     2   2   2   2   2   2   2   2
#     4  11  24  42  61  89 123 155 196 245 292 353
#     4  10  22  40  60  87 115 152 191 242 294 355
#     4  10  21  37  60  86 115 148 197 246 288 344
#     4  11  25  42  66  92 124 159 204 248 299 368
#     4  10  24  39  61  85 119 149 191 237 293 348
#     4  10  21  36  54  81 120 157 196 235 292 345
#     4  10  21  40  59  85 114 149 191 240 296 347
#     4  10  21  36  55  84 116 153 197 244 285 344
#
# _framework density 20.032176
#
# number of rings (size 3 to 8) (size 9 to 14) (size 15 to 20)
#    0.000    1.750    1.250    1.875    3.500    4.000 
#    0.000    0.000    0.000    0.000    0.000    0.000 
#    0.000    0.000    0.000    0.000    0.000    0.000 
#
# Total GULP energy -198314.392328 kJ/mol
# GULP energy per Si atom -12394.649520 kJ/mol
# Density = 1.998658 g / cm^3
# Si number density = 20.032176 Si / 1000 Ang^3
#
#
#
# Elastic Constant Matrix: (Units=GPa)
#
#
# Indices 1 2 3 4 5 6 
#
# 1 135.3778 17.4771 70.5033 1.9282 -18.8651 -8.5709
# 2 17.4771 79.3666 38.2305 5.6991 -0.5453 -17.6296
# 3 70.5033 38.2305 141.7931 16.1153 23.8162 -3.4593
# 4 1.9282 5.6991 16.1153 27.6774 -1.5057 -2.1260
# 5 -18.8651 -0.5453 23.8162 -1.5057 33.0555 1.9689
# 6 -8.5709 -17.6296 -3.4593 -2.1260 1.9689 25.3376
#
#
#
# Elastic Compliance Matrix: (Units=1/GPa)
#
#
# Indices 1 2 3 4 5 6 
#
# 1 0.016629 0.003438 -0.013068 0.007186 0.018970 0.005362
# 2 0.003438 0.018242 -0.007744 0.001856 0.007189 0.012396
# 3 -0.013068 -0.007744 0.020538 -0.011154 -0.022522 -0.006190
# 4 0.007186 0.001856 -0.011154 0.042857 0.013839 0.004720
# 5 0.018970 0.007189 -0.022522 0.013839 0.057755 0.005017
# 6 0.005362 0.012396 -0.006190 0.004720 0.005017 0.049067
#
#
# Mechanical properties :
#
#
# Convention : Reuss Voigt Hill
#
# Bulk Modulus (GPa) = 48.39828 67.66214 58.03021
# Shear Modulus (GPa) = 20.26565 32.56923 26.41744
#
# Velocity S-wave (km/s) = 3.18410 4.03655 3.63540
# Velocity P-wave (km/s) = 6.14253 7.45487 6.83029
#
# Compressibility (1/GPa) = 0.02066189
#
# Stress axis : x y z
#
# Youngs Moduli (GPa) = 60.13625 54.81707 48.69122
#
# Poissons Ratio (x) = -0.18847 0.63627
# Poissons Ratio (y) = -0.20676 0.37707
# Poissons Ratio (z) = 0.78583 0.42451
#
# Static dielectric constant tensor:
#      x y z
#    x 3.495630 -0.276040 0.029550 
#    y -0.276040 3.827260 0.059270 
#    z 0.029550 0.059270 3.922040 
# 
# 
# High freq. dielectric constant tensor:
#      x y z
#    x 1.775340 -0.024170 0.005580 
#    y -0.024170 1.795240 0.007680 
#    z 0.005580 0.007680 1.788090 
# 
# From -- ./inp_files/121824.got.cif
#   From: 2010.06.25/outbox.cif.g09.slc.cpg/sg2_61_cif.got.tgz:121824.got - 2010.06.27 13:26:56.
