data_PCOD8009639
_publ_section_title
;
Structure prediction by ZEFSAII (Michael W. Deem and Ramdas Pophale) SiO2 
 PCOD8009639
Probable space group: P -1
;
_chemical_formula_sum "Si O2"
_cell_formula_units_Z 16
_cell_length_a 12.121509
_cell_length_b 23.775042
_cell_length_c 8.851359
_cell_angle_alpha 71.395758
_cell_angle_beta 43.897430
_cell_angle_gamma 38.040196
_cell_volume 886.621883
_symmetry_space_group_name_H-M "P -1"
_symmetry_group_IT_number 2
_symmetry_cell_setting 'triclinic'
loop_
_space_group_symop_operation_xyz
x,y,z
-x,-y,-z
loop_
_atom_site_type_symbol
_atom_site_label
_atom_site_fract_x
_atom_site_fract_y
_atom_site_fract_z
Si Si1 0.075067 0.263695 0.177532
Si Si2 0.266980 0.684113 0.801940
Si Si3 0.568344 0.943712 0.830704
Si Si4 0.946742 0.119840 0.121274
Si Si5 0.693414 0.984304 0.421011
Si Si6 0.085051 0.637031 0.196507
Si Si7 0.699626 0.452214 0.619569
Si Si8 0.458591 0.181460 0.604456
O O1 0.240583 0.175138 0.221835
O O2 0.883868 0.282639 0.239027
O O3 0.847845 0.380190 0.384354
O O4 0.326237 0.219460 0.871801
O O5 0.260777 0.756252 0.765751
O O6 0.608977 0.549592 0.587455
O O7 0.082523 0.709166 0.098347
O O8 0.777327 0.920768 0.542639
O O9 0.500000 0.000000 0.000000
O O10 0.255294 0.026161 0.989449
O O11 0.765461 0.121116 0.361377
O O12 0.017164 0.088066 0.900816
O O13 0.500000 0.000000 0.500000
O O14 0.511730 0.099696 0.552517
O O15 0.075504 0.624245 0.393963
O O16 0.781977 0.707185 0.359651
O O17 0.389897 0.514958 0.918946
#
# Coordination Sequence:
#
# PCOD8009639 Si02
#       8
#     2   2   2   2   2   2   2   2
#     4  11  20  34  61  83 113 144 188 233 278 331
#     4   9  18  36  55  80 109 145 189 227 273 325
#     4  11  20  37  56  85 108 144 194 230 268 327
#     4  11  23  37  56  80 120 153 177 231 283 338
#     4  10  21  37  59  80 108 149 192 226 269 329
#     4   8  18  35  59  80 108 137 198 233 270 320
#     4   9  19  33  63  85 102 141 198 243 263 314
#     4  11  22  37  53  86 120 147 178 225 296 340
#
# _framework density 18.046026000000001
#
# number of rings (size 3 to 8) (size 9 to 14) (size 15 to 20)
#    0.750    1.250    2.500    3.000    5.250    0.500 
#    0.000    1.250    0.000    0.000    0.000    0.000 
#    0.000    0.000    0.000    0.000    0.000    0.000 
#
# Total GULP energy -198223.373514 kJ/mol
# GULP energy per Si atom -12388.960845 kJ/mol
# Density = 1.800495 g / cm^3
# Si number density = 18.046026 Si / 1000 Ang^3
#
#
#
# Elastic Constant Matrix: (Units=GPa)
#
#
# Indices 1 2 3 4 5 6 
#
# 1 61.2873 41.1120 46.1505 -2.7261 12.2997 -4.9016
# 2 41.1120 119.4622 34.8994 3.7012 5.6879 -12.0198
# 3 46.1505 34.8994 106.0230 -6.6094 18.5666 1.5911
# 4 -2.7261 3.7012 -6.6094 23.7608 1.1280 6.5297
# 5 12.2997 5.6879 18.5666 1.1280 29.8703 1.8257
# 6 -4.9016 -12.0198 1.5911 6.5297 1.8257 28.9221
#
#
#
# Elastic Compliance Matrix: (Units=1/GPa)
#
#
# Indices 1 2 3 4 5 6 
#
# 1 0.029459 -0.006845 -0.009650 0.001256 -0.005042 0.002714
# 2 -0.006845 0.011691 -0.001451 -0.004360 0.001373 0.004676
# 3 -0.009650 -0.001451 0.015380 0.004694 -0.005254 -0.003813
# 4 0.001256 -0.004360 0.004694 0.047801 -0.003651 -0.012419
# 5 -0.005042 0.001373 -0.005254 -0.003651 0.038796 -0.001620
# 6 0.002714 0.004676 -0.003813 -0.012419 -0.001620 0.040095
#
#
# Mechanical properties :
#
#
# Convention : Reuss Voigt Hill
#
# Bulk Modulus (GPa) = 48.45306 59.01069 53.73188
# Shear Modulus (GPa) = 22.12461 27.48468 24.80465
#
# Velocity S-wave (km/s) = 3.50524 3.90684 3.71148
# Velocity P-wave (km/s) = 6.57954 7.28850 6.94307
#
# Compressibility (1/GPa) = 0.02063853
#
# Stress axis : x y z
#
# Youngs Moduli (GPa) = 33.94498 85.53877 65.01998
#
# Poissons Ratio (x) = 0.58551 0.62742
# Poissons Ratio (y) = 0.23235 0.09435
# Poissons Ratio (z) = 0.32756 0.12413
#
# Static dielectric constant tensor:
#      x y z
#    x 3.689290 -1.231240 0.754770 
#    y -1.231240 5.372810 -0.874600 
#    z 0.754770 -0.874600 3.779090 
# 
# 
# High freq. dielectric constant tensor:
#      x y z
#    x 1.674450 -0.014470 0.026850 
#    y -0.014470 1.706300 0.006450 
#    z 0.026850 0.006450 1.685600 
# 
# From -- ./inp_files/285160.got.cif
#   From: 2010.06.25/outbox.cif.g09.slc.cpg/sg2_143_cif.got.tgz:285160.got - 2010.06.27 13:26:56.
