data_PCOD8009057
_publ_section_title
;
Structure prediction by ZEFSAII (Michael W. Deem and Ramdas Pophale) SiO2 
 PCOD8009057
Probable space group: P -1
;
_chemical_formula_sum "Si O2"
_cell_formula_units_Z 16
_cell_length_a 21.921234
_cell_length_b 11.225780
_cell_length_c 8.790600
_cell_angle_alpha 64.114583
_cell_angle_beta 95.484899
_cell_angle_gamma 147.387578
_cell_volume 868.090599
_symmetry_space_group_name_H-M "P -1"
_symmetry_group_IT_number 2
_symmetry_cell_setting 'triclinic'
loop_
_space_group_symop_operation_xyz
x,y,z
-x,-y,-z
loop_
_atom_site_type_symbol
_atom_site_label
_atom_site_fract_x
_atom_site_fract_y
_atom_site_fract_z
Si Si1 0.764306 0.704030 0.600784
Si Si2 0.994085 0.385957 0.779596
Si Si3 0.483834 0.835437 0.995076
Si Si4 0.219100 0.579983 0.225149
Si Si5 0.839865 0.881980 0.181183
Si Si6 0.364663 0.694923 0.728899
Si Si7 0.855395 0.531961 0.072100
Si Si8 0.992704 0.299902 0.480202
O O1 0.789312 0.594802 0.673261
O O2 0.791931 0.812951 0.380150
O O3 0.856875 0.956949 0.603649
O O4 0.610370 0.440323 0.767715
O O5 0.129052 0.583483 0.782650
O O6 0.995926 0.547447 0.708109
O O7 0.993235 0.341182 0.630574
O O8 0.857554 0.061201 0.007843
O O9 0.410205 0.714230 0.884376
O O10 0.636916 0.077482 0.877519
O O11 0.500000 0.000000 0.000000
O O12 0.116029 0.438660 0.401779
O O13 0.185519 0.565861 0.057328
O O14 0.721422 0.572916 0.242542
O O15 0.991472 0.103629 0.087218
O O16 0.262751 0.619090 0.781956
O O17 0.500000 0.000000 0.500000
#
# Coordination Sequence:
#
# PCOD8009057 Si02
#       8
#     2   2   2   2   2   2   2   2
#     4  11  21  35  60  90 115 156 188 242 294 342
#     4   9  24  38  59  87 112 159 190 252 281 343
#     4  10  21  36  53  85 127 152 188 223 301 356
#     4  11  22  36  60  91 117 157 188 242 289 351
#     4  10  23  36  58  89 116 152 194 238 296 332
#     4  12  22  35  59  88 125 157 181 248 290 347
#     4  10  22  38  57  88 117 151 194 239 287 342
#     4  11  21  40  63  80 119 149 206 237 293 339
#
# _framework density 18.431256999999999
#
# number of rings (size 3 to 8) (size 9 to 14) (size 15 to 20)
#    0.750    0.750    3.750    3.000    3.500    2.000 
#    0.000    0.000    2.750    3.750    0.000    0.000 
#    0.000    0.000    0.000    0.000    0.000    0.000 
#
# Total GULP energy -198252.639140 kJ/mol
# GULP energy per Si atom -12390.789946 kJ/mol
# Density = 1.838931 g / cm^3
# Si number density = 18.431257 Si / 1000 Ang^3
#
#
#
# Elastic Constant Matrix: (Units=GPa)
#
#
# Indices 1 2 3 4 5 6 
#
# 1 32.1022 22.7397 11.0342 -8.2317 28.4419 -15.2774
# 2 22.7397 89.4420 24.9697 -14.0064 1.4404 8.4727
# 3 11.0342 24.9697 105.5076 -13.0294 16.4727 -8.8038
# 4 -8.2317 -14.0064 -13.0294 41.5317 5.7526 1.5453
# 5 28.4419 1.4404 16.4727 5.7526 13.8803 14.3193
# 6 -15.2774 8.4727 -8.8038 1.5453 14.3193 11.7527
#
#
#
# Elastic Compliance Matrix: (Units=1/GPa)
#
#
# Indices 1 2 3 4 5 6 
#
# 1 0.005223 0.001662 -0.005800 -0.001993 0.018386 -0.020892
# 2 0.001662 0.011691 -0.000845 0.005049 -0.008158 0.002375
# 3 -0.005800 -0.000845 0.009868 0.001428 0.002390 -0.002638
# 4 -0.001993 0.005049 0.001428 0.026120 0.000364 -0.009038
# 5 0.018386 -0.008158 0.002390 0.000364 0.001137 0.030139
# 6 -0.020892 0.002375 -0.002638 -0.009038 0.030139 0.018709
#
#
# Mechanical properties :
#
#
# Convention : Reuss Voigt Hill
#
# Bulk Modulus (GPa) = 59.46676 38.28212 48.87444
# Shear Modulus (GPa) = 56.61345 24.65350 40.63347
#
# Velocity S-wave (km/s) = 5.54821 3.66128 4.70041
# Velocity P-wave (km/s) = 8.56608 6.22001 7.48553
#
# Compressibility (1/GPa) = 0.01681612
#
# Stress axis : x y z
#
# Youngs Moduli (GPa) = 191.44947 85.53707 101.34080
#
# Poissons Ratio (x) = -0.14216 0.58774
# Poissons Ratio (y) = -0.31819 0.08566
# Poissons Ratio (z) = 1.11033 0.07230
#
# Static dielectric constant tensor:
#      x y z
#    x 3.235880 0.098900 -0.044560 
#    y 0.098900 3.646270 -0.207530 
#    z -0.044560 -0.207530 3.821400 
# 
# 
# High freq. dielectric constant tensor:
#      x y z
#    x 1.676330 0.007090 -0.004790 
#    y 0.007090 1.726300 0.005690 
#    z -0.004790 0.005690 1.732760 
# 
# From -- ./inp_files/353026.got.cif
#   From: 2010.06.25/outbox.cif.g09.slc.cpg/sg2_177_cif.got.tgz:353026.got - 2010.06.27 13:26:56.
