data_PCOD8009708
_publ_section_title
;
Structure prediction by ZEFSAII (Michael W. Deem and Ramdas Pophale) SiO2 
 PCOD8009708
Probable space group: P -1
;
_chemical_formula_sum "Si O2"
_cell_formula_units_Z 14
_cell_length_a 8.496004
_cell_length_b 9.641228
_cell_length_c 19.631779
_cell_angle_alpha 121.838881
_cell_angle_beta 32.631721
_cell_angle_gamma 130.273104
_cell_volume 661.043338
_symmetry_space_group_name_H-M "P -1"
_symmetry_group_IT_number 2
_symmetry_cell_setting 'triclinic'
loop_
_space_group_symop_operation_xyz
x,y,z
-x,-y,-z
loop_
_atom_site_type_symbol
_atom_site_label
_atom_site_fract_x
_atom_site_fract_y
_atom_site_fract_z
Si Si1 0.793464 0.708478 0.657682
Si Si2 0.430450 0.876113 0.381029
Si Si3 0.910520 0.471559 0.802977
Si Si4 0.220177 0.714151 0.625823
Si Si5 0.616335 0.664839 0.355166
Si Si6 0.357363 0.178869 0.851308
Si Si7 0.793060 0.195724 0.124186
O O1 0.620856 0.497112 0.648284
O O2 0.529890 0.788568 0.777121
O O3 0.065414 0.806537 0.525506
O O4 0.939125 0.723378 0.683639
O O5 0.659392 0.848595 0.348457
O O6 0.454489 0.771396 0.276718
O O7 0.570540 0.087462 0.367198
O O8 0.547294 0.332824 0.878691
O O9 0.095931 0.569887 0.693298
O O10 0.047451 0.341321 0.754553
O O11 0.951257 0.627746 0.882090
O O12 0.450855 0.651401 0.484160
O O13 0.323392 0.982578 0.833542
O O14 0.998329 0.175381 0.979290
#
# Coordination Sequence:
#
# PCOD8009708 Si02
#       7
#     2   2   2   2   2   2   2
#     4  10  21  39  63  88 126 157 206 252 303 357
#     4  11  22  38  63  93 123 161 206 246 306 362
#     4  11  22  40  64  91 122 161 206 247 306 359
#     4  11  21  37  60  95 127 157 203 252 302 365
#     4  10  21  37  59  94 124 159 201 251 306 361
#     4  11  23  42  65  85 130 160 202 254 307 355
#     4  10  24  43  60  95 119 163 206 252 303 366
#
# _framework density 21.178640000000001
#
# number of rings (size 3 to 8) (size 9 to 14) (size 15 to 20)
#    0.000    1.429    1.429    6.000    4.000    1.714 
#    0.000    8.571    0.000    0.000    0.000    0.000 
#    0.000    0.000    0.000    0.000    0.000    0.000 
#
# Total GULP energy -173524.103989 kJ/mol
# GULP energy per Si atom -12394.578856 kJ/mol
# Density = 2.113044 g / cm^3
# Si number density = 21.178640 Si / 1000 Ang^3
#
#
#
# Elastic Constant Matrix: (Units=GPa)
#
#
# Indices 1 2 3 4 5 6 
#
# 1 49.7316 0.6614 12.9466 -1.3827 -10.1598 3.9531
# 2 0.6614 72.1576 3.7598 -5.6217 -2.2435 -7.8439
# 3 12.9466 3.7598 58.0457 -1.6761 -19.0478 -5.4826
# 4 -1.3827 -5.6217 -1.6761 27.4583 -16.6027 -6.4841
# 5 -10.1598 -2.2435 -19.0478 -16.6027 44.3761 8.8506
# 6 3.9531 -7.8439 -5.4826 -6.4841 8.8506 23.7825
#
#
#
# Elastic Compliance Matrix: (Units=1/GPa)
#
#
# Indices 1 2 3 4 5 6 
#
# 1 0.022855 -0.000258 -0.003580 0.003101 0.006064 -0.006121
# 2 -0.000258 0.014971 0.000381 0.005533 0.001750 0.005926
# 3 -0.003580 0.000381 0.022400 0.009140 0.011410 0.004130
# 4 0.003101 0.005533 0.009140 0.054726 0.023473 0.009602
# 5 0.006064 0.001750 0.011410 0.023473 0.038860 -0.005863
# 6 -0.006121 0.005926 0.004130 0.009602 -0.005863 0.050771
#
#
# Mechanical properties :
#
#
# Convention : Reuss Voigt Hill
#
# Bulk Modulus (GPa) = 18.75728 23.85228 21.30478
# Shear Modulus (GPa) = 21.80874 29.96120 25.88497
#
# Velocity S-wave (km/s) = 3.21246 3.76532 3.49982
# Velocity P-wave (km/s) = 4.75770 5.49457 5.13936
#
# Compressibility (1/GPa) = 0.05331265
#
# Stress axis : x y z
#
# Youngs Moduli (GPa) = 43.75451 66.79747 44.64325
#
# Poissons Ratio (x) = 0.01725 0.15980
# Poissons Ratio (y) = 0.01130 -0.01703
# Poissons Ratio (z) = 0.15662 -0.02548
#
# Static dielectric constant tensor:
#      x y z
#    x 3.715470 0.089920 -0.043710 
#    y 0.089920 3.899590 0.110590 
#    z -0.043710 0.110590 3.730390 
# 
# 
# High freq. dielectric constant tensor:
#      x y z
#    x 1.817390 0.002140 -0.001210 
#    y 0.002140 1.847060 0.010580 
#    z -0.001210 0.010580 1.824640 
# 
# From -- ./inp_files/171645.got.cif
#   From: 2010.06.25/outbox.cif.g09.slc.cpg/sg2_86_cif.got.tgz:171645.got - 2010.06.27 13:26:56.
