data_PCOD8009236
_publ_section_title
;
Structure prediction by ZEFSAII (Michael W. Deem and Ramdas Pophale) SiO2 
 PCOD8009236
Probable space group: P -1
;
_chemical_formula_sum "Si O2"
_cell_formula_units_Z 14
_cell_length_a 11.332982
_cell_length_b 11.772610
_cell_length_c 9.207694
_cell_angle_alpha 67.641101
_cell_angle_beta 141.111360
_cell_angle_gamma 96.204542
_cell_volume 674.832796
_symmetry_space_group_name_H-M "P -1"
_symmetry_group_IT_number 2
_symmetry_cell_setting 'triclinic'
loop_
_space_group_symop_operation_xyz
x,y,z
-x,-y,-z
loop_
_atom_site_type_symbol
_atom_site_label
_atom_site_fract_x
_atom_site_fract_y
_atom_site_fract_z
Si Si1 0.718054 0.771083 0.054482
Si Si2 0.263733 0.039118 0.250814
Si Si3 0.360870 0.759855 0.532469
Si Si4 0.982029 0.739008 0.892706
Si Si5 0.561522 0.344902 0.636661
Si Si6 0.072030 0.596865 0.332287
Si Si7 0.743214 0.691726 0.423290
O O1 0.703510 0.795462 0.202510
O O2 0.887059 0.633838 0.247515
O O3 0.794086 0.879965 0.994383
O O4 0.503236 0.768374 0.796693
O O5 0.157772 0.122812 0.247853
O O6 0.500000 0.000000 0.500000
O O7 0.213215 0.904366 0.274307
O O8 0.501612 0.697199 0.559845
O O9 0.223891 0.673934 0.484352
O O10 0.906120 0.708832 0.680187
O O11 0.206932 0.732434 0.082833
O O12 0.989261 0.629454 0.072662
O O13 0.500000 0.500000 0.500000
O O14 0.457700 0.292162 0.690535
O O15 0.186258 0.445628 0.523334
#
# Coordination Sequence:
#
# PCOD8009236 Si02
#       7
#     2   2   2   2   2   2   2
#     4  10  23  36  59  90 119 160 190 249 303 342
#     4   9  19  42  65  86 112 162 209 243 286 345
#     4  10  21  41  64  83 118 153 210 244 280 360
#     4  10  22  37  63  88 118 159 200 245 287 354
#     4  11  22  38  60  92 116 161 198 238 299 351
#     4  10  21  36  59  88 112 162 198 236 302 347
#     4  12  22  37  57  92 128 150 192 249 305 355
#
# _framework density 20.745878000000001
#
# number of rings (size 3 to 8) (size 9 to 14) (size 15 to 20)
#    0.000    1.714    2.857    3.429    2.000    6.857 
#    0.000    6.429    0.000    7.714    0.000    0.000 
#    0.000    0.000    0.000    0.000    0.000    0.000 
#
# Total GULP energy -173533.351248 kJ/mol
# GULP energy per Si atom -12395.239375 kJ/mol
# Density = 2.069866 g / cm^3
# Si number density = 20.745878 Si / 1000 Ang^3
#
#
#
# Elastic Constant Matrix: (Units=GPa)
#
#
# Indices 1 2 3 4 5 6 
#
# 1 94.7819 5.1234 46.3215 7.9608 -4.0259 -10.4503
# 2 5.1234 73.6240 21.8587 -2.4063 2.2244 2.9440
# 3 46.3215 21.8587 79.6146 16.8092 2.1974 -4.4467
# 4 7.9608 -2.4063 16.8092 34.6958 -14.7446 4.4770
# 5 -4.0259 2.2244 2.1974 -14.7446 37.6309 -4.3263
# 6 -10.4503 2.9440 -4.4467 4.4770 -4.3263 20.1734
#
#
#
# Elastic Compliance Matrix: (Units=1/GPa)
#
#
# Indices 1 2 3 4 5 6 
#
# 1 0.015978 0.001530 -0.009893 0.002001 0.003696 0.006221
# 2 0.001530 0.015663 -0.006440 0.004789 0.001060 -0.003748
# 3 -0.009893 -0.006440 0.023018 -0.012437 -0.006639 0.002225
# 4 0.002001 0.004789 -0.012437 0.042797 0.016464 -0.008371
# 5 0.003696 0.001060 -0.006639 0.016464 0.034202 0.003978
# 6 0.006221 -0.003748 0.002225 -0.008371 0.003978 0.056541
#
#
# Mechanical properties :
#
#
# Convention : Reuss Voigt Hill
#
# Bulk Modulus (GPa) = 39.91737 43.84752 41.88245
# Shear Modulus (GPa) = 22.10859 30.14784 26.12821
#
# Velocity S-wave (km/s) = 3.26803 3.81622 3.55271
# Velocity P-wave (km/s) = 5.78989 6.37177 6.08779
#
# Compressibility (1/GPa) = 0.02505175
#
# Stress axis : x y z
#
# Youngs Moduli (GPa) = 62.58721 63.84648 43.44363
#
# Poissons Ratio (x) = -0.09771 0.42981
# Poissons Ratio (y) = -0.09579 0.27980
# Poissons Ratio (z) = 0.61920 0.41120
#
# Static dielectric constant tensor:
#      x y z
#    x 3.786670 -0.075810 0.100660 
#    y -0.075810 3.980650 -0.210000 
#    z 0.100660 -0.210000 3.792740 
# 
# 
# High freq. dielectric constant tensor:
#      x y z
#    x 1.815970 -0.006700 0.015900 
#    y -0.006700 1.801620 -0.005610 
#    z 0.015900 -0.005610 1.805020 
# 
# From -- ./inp_files/253078.got.cif
#   From: 2010.06.25/outbox.cif.g09.slc.cpg/sg2_127_cif.got.tgz:253078.got - 2010.06.27 13:26:56.
