data_PCOD8009596
_publ_section_title
;
Structure prediction by ZEFSAII (Michael W. Deem and Ramdas Pophale) SiO2 
 PCOD8009596
Probable space group: P -1
;
_chemical_formula_sum "Si O2"
_cell_formula_units_Z 16
_cell_length_a 15.343463
_cell_length_b 8.625203
_cell_length_c 15.343463
_cell_angle_alpha 140.895276
_cell_angle_beta 39.519813
_cell_angle_gamma 140.895244
_cell_volume 731.085874
_symmetry_space_group_name_H-M "P -1"
_symmetry_group_IT_number 2
_symmetry_cell_setting 'triclinic'
loop_
_space_group_symop_operation_xyz
x,y,z
-x,-y,-z
loop_
_atom_site_type_symbol
_atom_site_label
_atom_site_fract_x
_atom_site_fract_y
_atom_site_fract_z
Si Si1 0.022468 0.109016 0.235183
Si Si2 0.276871 0.014969 0.332232
Si Si3 0.546553 0.582409 0.340233
Si Si4 0.264814 0.890982 0.477535
Si Si5 0.278983 0.467904 0.067314
Si Si6 0.432683 0.532091 0.221018
Si Si7 0.840236 0.582414 0.046551
Si Si8 0.832233 0.014972 0.776870
O O1 0.174961 0.345415 0.179283
O O2 0.051726 0.065735 0.295013
O O3 0.880789 0.190929 0.380786
O O4 0.982147 0.835719 0.091029
O O5 0.204986 0.934259 0.448273
O O6 0.339338 0.796508 0.159485
O O7 0.410788 0.318407 0.370916
O O8 0.153318 0.000005 0.346686
O O9 0.498461 0.666684 0.322486
O O10 0.688609 0.513120 0.188605
O O11 0.591032 0.835719 0.482144
O O12 0.320713 0.654580 0.325044
O O13 0.427276 0.406859 0.927272
O O14 0.177514 0.333305 0.001536
O O15 0.340514 0.203485 0.160659
O O16 0.870921 0.318414 0.910782
#
# Coordination Sequence:
#
# PCOD8009596 Si02
#       8
#     2   2   2   2   2   2   2   2
#     4  11  23  38  58  85 119 154 186 229 285 343
#     4  10  21  37  58  84 114 149 192 239 281 327
#     4   9  19  38  61  86 114 146 189 238 286 334
#     4  11  23  38  58  85 119 154 186 229 285 343
#     4  10  21  38  62  88 113 146 190 238 284 334
#     4  10  21  38  62  88 113 146 190 238 284 334
#     4   9  19  38  61  86 114 146 189 238 286 334
#     4  10  21  37  58  84 114 149 192 239 281 327
#
# _framework density 21.885252999999999
#
# number of rings (size 3 to 8) (size 9 to 14) (size 15 to 20)
#    0.000    2.000    0.000    3.000    0.000    8.500 
#    0.000    5.000    0.000    0.000    0.000    0.000 
#    0.000    0.000    0.000    0.000    0.000    0.000 
#
# Total GULP energy -198333.077499 kJ/mol
# GULP energy per Si atom -12395.817344 kJ/mol
# Density = 2.183544 g / cm^3
# Si number density = 21.885253 Si / 1000 Ang^3
#
#
#
# Elastic Constant Matrix: (Units=GPa)
#
#
# Indices 1 2 3 4 5 6 
#
# 1 112.9122 34.8989 37.1912 2.7480 10.8841 -6.2398
# 2 34.8989 97.6589 54.1047 8.6245 -1.9075 -2.2959
# 3 37.1912 54.1047 83.7393 -7.1519 -7.0658 1.7870
# 4 2.7480 8.6245 -7.1519 30.3103 5.7229 8.1674
# 5 10.8841 -1.9075 -7.0658 5.7229 36.5626 2.9332
# 6 -6.2398 -2.2959 1.7870 8.1674 2.9332 27.1949
#
#
#
# Elastic Compliance Matrix: (Units=1/GPa)
#
#
# Indices 1 2 3 4 5 6 
#
# 1 0.011579 -0.001141 -0.005053 -0.002158 -0.004468 0.004022
# 2 -0.001141 0.018391 -0.012280 -0.009348 -0.000004 0.004906
# 3 -0.005053 -0.012280 0.023557 0.010692 0.004338 -0.007423
# 4 -0.002158 -0.009348 0.010692 0.042911 -0.003331 -0.014515
# 5 -0.004468 -0.000004 0.004338 -0.003331 0.030327 -0.003581
# 6 0.004022 0.004906 -0.007423 -0.014515 -0.003581 0.043342
#
#
# Mechanical properties :
#
#
# Convention : Reuss Voigt Hill
#
# Bulk Modulus (GPa) = 60.30758 60.74443 60.52600
# Shear Modulus (GPa) = 23.52060 30.02127 26.77093
#
# Velocity S-wave (km/s) = 3.28185 3.70774 3.50128
# Velocity P-wave (km/s) = 6.47895 6.79308 6.63788
#
# Compressibility (1/GPa) = 0.01658166
#
# Stress axis : x y z
#
# Youngs Moduli (GPa) = 86.36582 54.37361 42.44964
#
# Poissons Ratio (x) = 0.06202 0.21448
# Poissons Ratio (y) = 0.09851 0.52126
# Poissons Ratio (z) = 0.43637 0.66769
#
# Static dielectric constant tensor:
#      x y z
#    x 4.046510 0.085780 0.263670 
#    y 0.085780 3.779700 0.171220 
#    z 0.263670 0.171220 3.684940 
# 
# 
# High freq. dielectric constant tensor:
#      x y z
#    x 1.869330 0.008280 0.019790 
#    y 0.008280 1.853100 0.014370 
#    z 0.019790 0.014370 1.845110 
# 
# From -- ./inp_files/279421.got.cif
#   From: 2010.06.25/outbox.cif.g09.slc.cpg/sg2_140_cif.got.tgz:279421.got - 2010.06.27 13:26:56.
