data_PCOD8009430
_publ_section_title
;
Structure prediction by ZEFSAII (Michael W. Deem and Ramdas Pophale) SiO2 
 PCOD8009430
Probable space group: P -1
;
_chemical_formula_sum "Si O2"
_cell_formula_units_Z 16
_cell_length_a 14.025917
_cell_length_b 12.910046
_cell_length_c 9.324527
_cell_angle_alpha 113.807753
_cell_angle_beta 36.588946
_cell_angle_gamma 134.516068
_cell_volume 665.344691
_symmetry_space_group_name_H-M "P -1"
_symmetry_group_IT_number 2
_symmetry_cell_setting 'triclinic'
loop_
_space_group_symop_operation_xyz
x,y,z
-x,-y,-z
loop_
_atom_site_type_symbol
_atom_site_label
_atom_site_fract_x
_atom_site_fract_y
_atom_site_fract_z
Si Si1 0.296706 0.103325 0.102134
Si Si2 0.081956 0.224155 0.502522
Si Si3 0.739069 0.605154 0.341687
Si Si4 0.619594 0.162601 0.524982
Si Si5 0.469535 0.107472 0.167737
Si Si6 0.070762 0.809261 0.615838
Si Si7 0.824534 0.816756 0.134842
Si Si8 0.337825 0.674450 0.695718
O O1 0.173044 0.161416 0.267987
O O2 0.452104 0.188673 0.104506
O O3 0.431755 0.146286 0.818750
O O4 0.130290 0.916847 0.226432
O O5 0.262319 0.365514 0.470739
O O6 0.009927 0.277478 0.492189
O O7 0.500000 0.500000 0.500000
O O8 0.893073 0.770820 0.163781
O O9 0.816975 0.510892 0.186944
O O10 0.798457 0.217474 0.460385
O O11 0.745072 0.297312 0.327167
O O12 0.500000 0.000000 0.500000
O O13 0.662381 0.242991 0.118801
O O14 0.244743 0.996127 0.472828
O O15 0.500000 0.000000 0.000000
O O16 0.853480 0.747538 0.925436
O O17 0.580587 0.745445 0.404374
O O18 0.000000 0.000000 0.000000
#
# Coordination Sequence:
#
# PCOD8009430 Si02
#       8
#     2   2   2   2   2   2   2   2
#     4  10  21  36  64 100 126 167 220 280 325 385
#     4  10  23  38  65  96 132 164 223 277 333 378
#     4  10  24  44  66  98 135 172 213 275 344 395
#     4  12  22  39  63  97 133 173 222 267 328 392
#     4  11  19  38  64  98 131 167 218 271 323 392
#     4  11  23  38  63  99 131 168 221 282 318 378
#     4  11  21  40  71 102 128 163 227 282 317 385
#     4  11  23  41  68  97 132 173 219 271 339 390
#
# _framework density 24.047684
#
# number of rings (size 3 to 8) (size 9 to 14) (size 15 to 20)
#    0.000    1.250    3.750    2.250    7.000    0.000 
#    0.000    8.125    0.000    0.000    0.000    0.000 
#    0.000    0.000    0.000    0.000    0.000    0.000 
#
# Total GULP energy -198240.238274 kJ/mol
# GULP energy per Si atom -12390.014892 kJ/mol
# Density = 2.399295 g / cm^3
# Si number density = 24.047684 Si / 1000 Ang^3
#
#
#
# Elastic Constant Matrix: (Units=GPa)
#
#
# Indices 1 2 3 4 5 6 
#
# 1 184.2517 70.1732 13.5380 7.7728 39.1054 6.2610
# 2 70.1732 98.2745 29.7819 15.1549 14.6213 -4.2371
# 3 13.5380 29.7819 81.6022 16.2384 13.9740 7.9378
# 4 7.7728 15.1549 16.2384 27.2533 1.9639 9.1659
# 5 39.1054 14.6213 13.9740 1.9639 29.7977 1.0903
# 6 6.2610 -4.2371 7.9378 9.1659 1.0903 47.7099
#
#
#
# Elastic Compliance Matrix: (Units=1/GPa)
#
#
# Indices 1 2 3 4 5 6 
#
# 1 0.010228 -0.006651 0.002763 0.000721 -0.011419 -0.002270
# 2 -0.006651 0.017135 -0.004773 -0.006459 0.002825 0.004365
# 3 0.002763 -0.004773 0.016525 -0.006674 -0.008519 -0.002059
# 4 0.000721 -0.006459 -0.006674 0.046761 0.002585 -0.008601
# 5 -0.011419 0.002825 -0.008519 0.002585 0.050929 0.001506
# 6 -0.002270 0.004365 -0.002059 -0.008601 0.001506 0.023606
#
#
# Mechanical properties :
#
#
# Convention : Reuss Voigt Hill
#
# Bulk Modulus (GPa) = 37.64107 65.67939 51.66023
# Shear Modulus (GPa) = 26.12855 37.66122 31.89488
#
# Velocity S-wave (km/s) = 3.29983 3.96170 3.64582
# Velocity P-wave (km/s) = 5.49592 6.94969 6.26512
#
# Compressibility (1/GPa) = 0.02656673
#
# Stress axis : x y z
#
# Youngs Moduli (GPa) = 97.77511 58.36020 60.51300
#
# Poissons Ratio (x) = 0.38813 -0.16721
# Poissons Ratio (y) = 0.65026 0.28885
# Poissons Ratio (z) = -0.27018 0.27857
#
# Static dielectric constant tensor:
#      x y z
#    x 4.980040 -0.262350 0.368610 
#    y -0.262350 4.377380 -0.075320 
#    z 0.368610 -0.075320 4.500480 
# 
# 
# High freq. dielectric constant tensor:
#      x y z
#    x 1.979510 0.001910 0.012820 
#    y 0.001910 1.908860 0.017110 
#    z 0.012820 0.017110 1.950050 
# 
# From -- ./inp_files/313793.got.cif
#   From: 2010.06.25/outbox.cif.g09.slc.cpg/sg2_157_cif.got.tgz:313793.got - 2010.06.27 13:26:56.
