data_PCOD8009534
_publ_section_title
;
Structure prediction by ZEFSAII (Michael W. Deem and Ramdas Pophale) SiO2 
 PCOD8009534
Probable space group: P -1
;
_chemical_formula_sum "Si O2"
_cell_formula_units_Z 16
_cell_length_a 9.579510
_cell_length_b 11.882805
_cell_length_c 8.523023
_cell_angle_alpha 103.179794
_cell_angle_beta 92.299025
_cell_angle_gamma 57.852175
_cell_volume 795.909611
_symmetry_space_group_name_H-M "P -1"
_symmetry_group_IT_number 2
_symmetry_cell_setting 'triclinic'
loop_
_space_group_symop_operation_xyz
x,y,z
-x,-y,-z
loop_
_atom_site_type_symbol
_atom_site_label
_atom_site_fract_x
_atom_site_fract_y
_atom_site_fract_z
Si Si1 0.836610 0.499194 0.537682
Si Si2 0.658131 0.373875 0.377103
Si Si3 0.388201 0.098414 0.162734
Si Si4 0.353355 0.648300 0.000229
Si Si5 0.430283 0.855133 0.225156
Si Si6 0.773579 0.703265 0.044945
Si Si7 0.489301 0.776227 0.556639
Si Si8 0.122503 0.585971 0.130895
O O1 0.822645 0.378489 0.416559
O O2 0.674665 0.640840 0.519291
O O3 0.832706 0.468721 0.709011
O O4 0.000000 0.500000 0.500000
O O5 0.500000 0.500000 0.500000
O O6 0.653010 0.359991 0.187759
O O7 0.657793 0.243853 0.400861
O O8 0.246978 0.242181 0.120405
O O9 0.503481 0.118732 0.293446
O O10 0.315851 0.017686 0.225959
O O11 0.500000 0.000000 0.000000
O O12 0.500000 0.500000 0.000000
O O13 0.377861 0.768924 0.092083
O O14 0.197378 0.672229 0.099448
O O15 0.424723 0.839932 0.404111
O O16 0.617488 0.805818 0.174563
O O17 0.803786 0.552363 0.011091
O O18 0.928818 0.693991 0.131715
#
# Coordination Sequence:
#
# PCOD8009534 Si02
#       8
#     2   2   2   2   2   2   2   2
#     4  11  22  35  56  88 124 155 188 241 300 355
#     4  10  22  33  52  82 118 152 188 242 296 344
#     4  10  21  38  60  85 116 157 201 244 287 349
#     4  12  21  36  58  87 119 154 198 245 296 351
#     4  11  22  37  62  86 115 156 201 242 292 350
#     4  10  21  37  56  85 114 152 197 240 289 348
#     4  11  20  38  57  86 120 150 199 242 294 348
#     4  11  22  35  59  83 121 152 192 239 299 347
#
# _framework density 20.102782999999999
#
# number of rings (size 3 to 8) (size 9 to 14) (size 15 to 20)
#    0.000    1.250    2.500    6.375    3.500    0.000 
#    0.000    0.625    0.000    3.000    0.000   12.250 
#    0.000    0.000    0.000    0.000    0.000    0.000 
#
# Total GULP energy -198220.446598 kJ/mol
# GULP energy per Si atom -12388.777912 kJ/mol
# Density = 2.005703 g / cm^3
# Si number density = 20.102783 Si / 1000 Ang^3
#
#
#
# Elastic Constant Matrix: (Units=GPa)
#
#
# Indices 1 2 3 4 5 6 
#
# 1 126.4237 43.9996 37.1559 -1.7763 5.9607 32.0105
# 2 43.9996 72.5626 21.9557 -9.6160 3.4629 27.4549
# 3 37.1559 21.9557 122.6228 -9.8012 2.3995 21.1680
# 4 -1.7763 -9.6160 -9.8012 36.9410 12.3147 1.6716
# 5 5.9607 3.4629 2.3995 12.3147 35.8573 0.6537
# 6 32.0105 27.4549 21.1680 1.6716 0.6537 34.6773
#
#
#
# Elastic Compliance Matrix: (Units=1/GPa)
#
#
# Indices 1 2 3 4 5 6 
#
# 1 0.011455 -0.004018 -0.001651 -0.000244 -0.001206 -0.006350
# 2 -0.004018 0.023052 0.000411 0.007946 -0.004040 -0.015099
# 3 -0.001651 0.000411 0.009715 0.003313 -0.001465 -0.004863
# 4 -0.000244 0.007946 0.003313 0.034664 -0.012680 -0.009521
# 5 -0.001206 -0.004040 -0.001465 -0.012680 0.032837 0.005198
# 6 -0.006350 -0.015099 -0.004863 -0.009521 0.005198 0.049984
#
#
# Mechanical properties :
#
#
# Convention : Reuss Voigt Hill
#
# Bulk Modulus (GPa) = 29.66934 58.64797 44.15866
# Shear Modulus (GPa) = 27.25402 36.06164 31.65783
#
# Velocity S-wave (km/s) = 3.68602 4.24000 3.97268
# Velocity P-wave (km/s) = 5.73642 7.29435 6.56178
#
# Compressibility (1/GPa) = 0.03370483
#
# Stress axis : x y z
#
# Youngs Moduli (GPa) = 87.29775 43.37936 102.93460
#
# Poissons Ratio (x) = 0.17432 0.16996
# Poissons Ratio (y) = 0.35080 -0.04229
# Poissons Ratio (z) = 0.14414 -0.01782
#
# Static dielectric constant tensor:
#      x y z
#    x 4.047740 0.519570 0.184810 
#    y 0.519570 3.947170 -0.204320 
#    z 0.184810 -0.204320 3.800840 
# 
# 
# High freq. dielectric constant tensor:
#      x y z
#    x 1.778290 0.033670 0.007640 
#    y 0.033670 1.766720 -0.014120 
#    z 0.007640 -0.014120 1.800820 
# 
# From -- ./inp_files/180472.got.cif
#   From: 2010.06.25/outbox.cif.g09.slc.cpg/sg2_91_cif.got.tgz:180472.got - 2010.06.27 13:26:56.
