data_PCOD8009840
_publ_section_title
;
Structure prediction by ZEFSAII (Michael W. Deem and Ramdas Pophale) SiO2 
 PCOD8009840
Probable space group: P -1
;
_chemical_formula_sum "Si O2"
_cell_formula_units_Z 14
_cell_length_a 5.122103
_cell_length_b 19.090062
_cell_length_c 9.564344
_cell_angle_alpha 47.424668
_cell_angle_beta 105.886682
_cell_angle_gamma 114.330930
_cell_volume 627.495100
_symmetry_space_group_name_H-M "P -1"
_symmetry_group_IT_number 2
_symmetry_cell_setting 'triclinic'
loop_
_space_group_symop_operation_xyz
x,y,z
-x,-y,-z
loop_
_atom_site_type_symbol
_atom_site_label
_atom_site_fract_x
_atom_site_fract_y
_atom_site_fract_z
Si Si1 0.541222 0.687393 0.437746
Si Si2 0.187306 0.471591 0.686238
Si Si3 0.580749 0.863502 0.790745
Si Si4 0.599486 0.955754 0.392655
Si Si5 0.799042 0.190631 0.648244
Si Si6 0.388547 0.653016 0.148286
Si Si7 0.076236 0.948710 0.945662
O O1 0.433682 0.572599 0.634739
O O2 0.421246 0.748209 0.450192
O O3 0.410380 0.691903 0.258826
O O4 0.883501 0.732202 0.425433
O O5 0.359831 0.396243 0.768377
O O6 0.000000 0.500000 0.500000
O O7 0.937735 0.420078 0.832386
O O8 0.724046 0.903203 0.606559
O O9 0.804523 0.872912 0.933701
O O10 0.386057 0.933029 0.706260
O O11 0.412933 0.745018 0.921135
O O12 0.281841 0.880883 0.405838
O O13 0.769958 0.965717 0.258877
O O14 0.748417 0.121327 0.874918
O O15 0.000000 0.000000 0.000000
#
# Coordination Sequence:
#
# PCOD8009840 Si02
#       7
#     2   2   2   2   2   2   2
#     4  11  21  38  64  95 125 167 207 282 329 376
#     4  10  21  37  61  95 132 155 213 277 334 383
#     4  11  25  42  65  91 138 179 217 263 330 393
#     4  11  26  43  60  96 135 182 217 265 323 399
#     4  12  23  38  66  93 132 164 223 263 328 382
#     4  11  21  38  62  97 125 170 212 268 330 390
#     4  12  23  41  64  96 129 175 220 277 315 381
#
# _framework density 22.310929999999999
#
# number of rings (size 3 to 8) (size 9 to 14) (size 15 to 20)
#    0.000    0.857    2.857    6.857    2.000    0.000 
#    0.000    0.000    0.000    5.143    0.000    0.000 
#    0.000    0.000    0.000    0.000    0.000    0.000 
#
# Total GULP energy -173471.568696 kJ/mol
# GULP energy per Si atom -12390.826335 kJ/mol
# Density = 2.226015 g / cm^3
# Si number density = 22.310930 Si / 1000 Ang^3
#
#
#
# Elastic Constant Matrix: (Units=GPa)
#
#
# Indices 1 2 3 4 5 6 
#
# 1 112.5903 36.5589 39.9981 -15.5159 -13.5289 -14.4017
# 2 36.5589 84.8116 59.6294 -22.3250 -9.5799 -6.9590
# 3 39.9981 59.6294 130.6700 -23.7763 -11.6805 -15.9510
# 4 -15.5159 -22.3250 -23.7763 42.4587 1.9497 -1.0118
# 5 -13.5289 -9.5799 -11.6805 1.9497 32.5098 -8.8380
# 6 -14.4017 -6.9590 -15.9510 -1.0118 -8.8380 19.8063
#
#
#
# Elastic Compliance Matrix: (Units=1/GPa)
#
#
# Indices 1 2 3 4 5 6 
#
# 1 0.012597 -0.002906 0.000125 0.003083 0.007430 0.011712
# 2 -0.002906 0.019469 -0.006832 0.005272 0.001843 0.000317
# 3 0.000125 -0.006832 0.013299 0.003908 0.005600 0.011099
# 4 0.003083 0.005272 0.003908 0.029654 0.005511 0.011215
# 5 0.007430 0.001843 0.005600 0.005511 0.044411 0.030659
# 6 0.011712 0.000317 0.011099 0.011215 0.030659 0.082309
#
#
# Mechanical properties :
#
#
# Convention : Reuss Voigt Hill
#
# Bulk Modulus (GPa) = 38.25807 66.71609 52.48708
# Shear Modulus (GPa) = 21.76973 31.74734 26.75853
#
# Velocity S-wave (km/s) = 3.12708 3.77629 3.46692
# Velocity P-wave (km/s) = 5.49755 6.99869 6.29304
#
# Compressibility (1/GPa) = 0.02613828
#
# Stress axis : x y z
#
# Youngs Moduli (GPa) = 79.38590 51.36376 75.19438
#
# Poissons Ratio (x) = 0.14927 -0.00941
# Poissons Ratio (y) = 0.23070 0.51374
# Poissons Ratio (z) = -0.00994 0.35093
#
# Static dielectric constant tensor:
#      x y z
#    x 4.040640 0.337440 -0.269240 
#    y 0.337440 4.358530 -0.512970 
#    z -0.269240 -0.512970 4.369880 
# 
# 
# High freq. dielectric constant tensor:
#      x y z
#    x 1.877540 0.009750 -0.006560 
#    y 0.009750 1.873260 -0.029400 
#    z -0.006560 -0.029400 1.863400 
# 
# From -- ./inp_files/46789.got.cif
#   From: 2010.06.25/outbox.cif.g09.slc.cpg/sg2_24_cif.got.tgz:46789.got - 2010.06.27 13:26:56.
