data_PCOD8009221
_publ_section_title
;
Structure prediction by ZEFSAII (Michael W. Deem and Ramdas Pophale) SiO2 
 PCOD8009221
Probable space group: P -1
;
_chemical_formula_sum "Si O2"
_cell_formula_units_Z 16
_cell_length_a 11.289235
_cell_length_b 8.575008
_cell_length_c 17.892095
_cell_angle_alpha 63.813723
_cell_angle_beta 29.420088
_cell_angle_gamma 73.423786
_cell_volume 743.934025
_symmetry_space_group_name_H-M "P -1"
_symmetry_group_IT_number 2
_symmetry_cell_setting 'triclinic'
loop_
_space_group_symop_operation_xyz
x,y,z
-x,-y,-z
loop_
_atom_site_type_symbol
_atom_site_label
_atom_site_fract_x
_atom_site_fract_y
_atom_site_fract_z
Si Si1 0.939316 0.126740 0.158159
Si Si2 0.890028 0.705086 0.588699
Si Si3 0.524657 0.737252 0.567888
Si Si4 0.833763 0.063096 0.493514
Si Si5 0.715137 0.322576 0.736184
Si Si6 0.923651 0.047523 0.746616
Si Si7 0.355087 0.359654 0.799525
Si Si8 0.609865 0.808003 0.343677
O O1 0.686114 0.149896 0.331180
O O2 0.131733 0.090455 0.124404
O O3 0.871033 0.948937 0.182401
O O4 0.074047 0.293859 0.998107
O O5 0.707775 0.509278 0.743966
O O6 0.091705 0.761216 0.532026
O O7 0.015768 0.674638 0.447663
O O8 0.759032 0.873393 0.619673
O O9 0.796454 0.835553 0.422563
O O10 0.440444 0.571417 0.705460
O O11 0.539195 0.684780 0.482901
O O12 0.595096 0.075798 0.575659
O O13 0.069840 0.063037 0.310267
O O14 0.518596 0.278324 0.786382
O O15 0.709062 0.163720 0.834482
O O16 0.373874 0.300512 0.716778
#
# Coordination Sequence:
#
# PCOD8009221 Si02
#       8
#     2   2   2   2   2   2   2   2
#     4  11  23  40  58  84 121 158 186 231 289 352
#     4   9  18  30  53  89 110 144 188 249 276 324
#     4  11  21  40  61  85 114 154 197 238 276 341
#     4  10  16  31  58  83 112 140 195 236 281 325
#     4  10  20  34  55  85 118 144 188 242 288 331
#     4  10  20  38  62  84 110 151 199 237 277 337
#     4  12  24  37  58  89 122 150 186 238 299 336
#     4  11  21  38  59  88 112 152 197 236 278 339
#
# _framework density 21.507283000000001
#
# number of rings (size 3 to 8) (size 9 to 14) (size 15 to 20)
#    0.000    1.500    3.750    4.125    0.000    0.500 
#    0.000    0.000    0.000    0.750    0.000    0.000 
#    0.000    1.000    0.000    0.000    0.000    0.000 
#
# Total GULP energy -198219.380938 kJ/mol
# GULP energy per Si atom -12388.711309 kJ/mol
# Density = 2.145833 g / cm^3
# Si number density = 21.507283 Si / 1000 Ang^3
#
#
#
# Elastic Constant Matrix: (Units=GPa)
#
#
# Indices 1 2 3 4 5 6 
#
# 1 105.7731 24.8028 15.1603 2.2924 18.0701 -6.7270
# 2 24.8028 58.7339 8.5426 -4.4263 16.3802 9.7330
# 3 15.1603 8.5426 66.2150 -14.6393 17.3742 -0.2206
# 4 2.2924 -4.4263 -14.6393 22.4621 -7.8431 3.3685
# 5 18.0701 16.3802 17.3742 -7.8431 13.6074 -0.7352
# 6 -6.7270 9.7330 -0.2206 3.3685 -0.7352 35.9996
#
#
#
# Elastic Compliance Matrix: (Units=1/GPa)
#
#
# Indices 1 2 3 4 5 6 
#
# 1 0.014164 -0.000225 0.001367 -0.010131 -0.025953 0.003134
# 2 -0.000225 0.031425 0.008416 -0.004966 -0.051628 -0.009076
# 3 0.001367 0.008416 0.025774 0.003832 -0.042813 -0.003095
# 4 -0.010131 -0.004966 0.003832 0.066216 0.052399 -0.005653
# 5 -0.025953 -0.051628 -0.042813 0.052399 0.255464 0.009160
# 6 0.003134 -0.009076 -0.003095 -0.005653 0.009160 0.031515
#
#
# Mechanical properties :
#
#
# Convention : Reuss Voigt Hill
#
# Bulk Modulus (GPa) = 11.05233 36.41484 23.73358
# Shear Modulus (GPa) = 11.47838 26.56158 19.01998
#
# Velocity S-wave (km/s) = 2.31270 3.51807 2.97703
# Velocity P-wave (km/s) = 3.50449 5.78538 4.78289
#
# Compressibility (1/GPa) = 0.09047867
#
# Stress axis : x y z
#
# Youngs Moduli (GPa) = 70.60296 31.82170 38.79836
#
# Poissons Ratio (x) = 0.00715 -0.05302
# Poissons Ratio (y) = 0.01586 -0.32652
# Poissons Ratio (z) = -0.09649 -0.26781
#
# Static dielectric constant tensor:
#      x y z
#    x 4.097480 -0.158740 0.218470 
#    y -0.158740 3.913250 -0.159710 
#    z 0.218470 -0.159710 3.494350 
# 
# 
# High freq. dielectric constant tensor:
#      x y z
#    x 1.863000 -0.006140 0.007350 
#    y -0.006140 1.837400 -0.011670 
#    z 0.007350 -0.011670 1.799750 
# 
# From -- ./inp_files/277802.got.cif
#   From: 2010.06.25/outbox.cif.g09.slc.cpg/sg2_139_cif.got.tgz:277802.got - 2010.06.27 13:26:56.
