data_PCOD8009252
_publ_section_title
;
Structure prediction by ZEFSAII (Michael W. Deem and Ramdas Pophale) SiO2 
 PCOD8009252
Probable space group: P -1
;
_chemical_formula_sum "Si O2"
_cell_formula_units_Z 14
_cell_length_a 19.339842
_cell_length_b 13.415900
_cell_length_c 9.960028
_cell_angle_alpha 30.974140
_cell_angle_beta 147.302254
_cell_angle_gamma 146.750460
_cell_volume 654.400490
_symmetry_space_group_name_H-M "P -1"
_symmetry_group_IT_number 2
_symmetry_cell_setting 'triclinic'
loop_
_space_group_symop_operation_xyz
x,y,z
-x,-y,-z
loop_
_atom_site_type_symbol
_atom_site_label
_atom_site_fract_x
_atom_site_fract_y
_atom_site_fract_z
Si Si1 0.662423 0.595778 0.693020
Si Si2 0.843132 0.475254 0.931495
Si Si3 0.618710 0.970836 0.809084
Si Si4 0.651093 0.382085 0.488994
Si Si5 0.581457 0.489530 0.970571
Si Si6 0.090581 0.910626 0.879891
Si Si7 0.138125 0.960969 0.591928
O O1 0.500000 0.500000 0.500000
O O2 0.738465 0.465583 0.892126
O O3 0.731900 0.846407 0.485271
O O4 0.681941 0.568009 0.915860
O O5 0.777009 0.526277 0.627362
O O6 0.996356 0.660308 0.994309
O O7 0.865467 0.259701 0.210241
O O8 0.657162 0.150522 0.781283
O O9 0.500000 0.000000 0.500000
O O10 0.553482 0.730360 0.032577
O O11 0.757526 0.031925 0.869185
O O12 0.673907 0.473538 0.267508
O O13 0.493932 0.351617 0.308033
O O14 0.146805 0.009309 0.709710
O O15 0.009799 0.023583 0.703829
#
# Coordination Sequence:
#
# PCOD8009252 Si02
#       7
#     2   2   2   2   2   2   2
#     4  11  22  36  57  88 130 160 194 252 305 352
#     4  11  22  36  61  94 115 158 207 249 297 353
#     4  10  21  37  61  91 118 153 199 250 304 350
#     4  10  21  36  60  88 115 157 207 240 298 352
#     4  10  22  39  56  87 127 157 194 251 302 357
#     4  10  21  36  59  92 121 150 202 259 293 344
#     4  10  22  35  57  90 123 158 195 248 302 350
#
# _framework density 21.393626000000001
#
# number of rings (size 3 to 8) (size 9 to 14) (size 15 to 20)
#    0.000    1.714    2.857    1.286    4.000    1.714 
#    0.000    0.000    0.000   14.571    0.000    0.000 
#    0.000    0.000    0.000    0.000    0.000    0.000 
#
# Total GULP energy -173462.231377 kJ/mol
# GULP energy per Si atom -12390.159384 kJ/mol
# Density = 2.134493 g / cm^3
# Si number density = 21.393626 Si / 1000 Ang^3
#
#
#
# Elastic Constant Matrix: (Units=GPa)
#
#
# Indices 1 2 3 4 5 6 
#
# 1 138.0376 50.9647 49.8263 -5.5712 -3.0173 13.6906
# 2 50.9647 99.8868 57.1601 -0.0838 5.6844 26.7994
# 3 49.8263 57.1601 97.7472 -4.3025 24.0644 7.6149
# 4 -5.5712 -0.0838 -4.3025 38.3233 -2.6328 6.4911
# 5 -3.0173 5.6844 24.0644 -2.6328 33.3836 0.9982
# 6 13.6906 26.7994 7.6149 6.4911 0.9982 33.0087
#
#
#
# Elastic Compliance Matrix: (Units=1/GPa)
#
#
# Indices 1 2 3 4 5 6 
#
# 1 0.010184 -0.002167 -0.004957 0.001567 0.005039 -0.001782
# 2 -0.002167 0.021015 -0.011237 0.001164 0.004835 -0.013946
# 3 -0.004957 -0.011237 0.022491 -0.000352 -0.014969 0.006512
# 4 0.001567 0.001164 -0.000352 0.027653 0.002588 -0.007030
# 5 0.005039 0.004835 -0.014969 0.002588 0.040710 -0.004302
# 6 -0.001782 -0.013946 0.006512 -0.007030 -0.004302 0.042366
#
#
# Mechanical properties :
#
#
# Convention : Reuss Voigt Hill
#
# Bulk Modulus (GPa) = 58.93488 72.39708 65.66598
# Shear Modulus (GPa) = 24.17838 32.79117 28.48477
#
# Velocity S-wave (km/s) = 3.36544 3.91929 3.65288
# Velocity P-wave (km/s) = 6.53523 7.37530 6.96794
#
# Compressibility (1/GPa) = 0.01696788
#
# Stress axis : x y z
#
# Youngs Moduli (GPa) = 98.19526 47.58585 44.46276
#
# Poissons Ratio (x) = 0.10312 0.22039
# Poissons Ratio (y) = 0.21279 0.49962
# Poissons Ratio (z) = 0.48674 0.53471
#
# Static dielectric constant tensor:
#      x y z
#    x 4.174990 -0.398070 0.605140 
#    y -0.398070 5.501480 -0.336550 
#    z 0.605140 -0.336550 4.425350 
# 
# 
# High freq. dielectric constant tensor:
#      x y z
#    x 1.811720 -0.001440 0.032560 
#    y -0.001440 1.843910 -0.000710 
#    z 0.032560 -0.000710 1.845910 
# 
# From -- ./inp_files/471690.got.cif
#   From: 2010.06.25/outbox.cif.g09.slc.cpg/sg2_236_cif.got.tgz:471690.got - 2010.06.27 13:26:56.
