data_PCOD8009525
_publ_section_title
;
Structure prediction by ZEFSAII (Michael W. Deem and Ramdas Pophale) SiO2 
 PCOD8009525
Probable space group: P -1
;
_chemical_formula_sum "Si O2"
_cell_formula_units_Z 16
_cell_length_a 11.959068
_cell_length_b 19.799381
_cell_length_c 12.849382
_cell_angle_alpha 35.630463
_cell_angle_beta 136.533884
_cell_angle_gamma 152.322762
_cell_volume 823.073103
_symmetry_space_group_name_H-M "P -1"
_symmetry_group_IT_number 2
_symmetry_cell_setting 'triclinic'
loop_
_space_group_symop_operation_xyz
x,y,z
-x,-y,-z
loop_
_atom_site_type_symbol
_atom_site_label
_atom_site_fract_x
_atom_site_fract_y
_atom_site_fract_z
Si Si1 0.406865 0.270080 0.228098
Si Si2 0.894957 0.628813 0.770032
Si Si3 0.344530 0.952974 0.300295
Si Si4 0.323092 0.800233 0.125437
Si Si5 0.801910 0.618163 0.949833
Si Si6 0.355874 0.722060 0.026091
Si Si7 0.188999 0.925070 0.446926
Si Si8 0.259159 0.690240 0.441345
O O1 0.242543 0.285295 0.142744
O O2 0.558458 0.293993 0.393107
O O3 0.226764 0.082286 0.290537
O O4 0.589566 0.414010 0.083817
O O5 0.810961 0.647011 0.796355
O O6 0.682320 0.433573 0.829367
O O7 0.954674 0.757170 0.562149
O O8 0.128165 0.675715 0.893070
O O9 0.158050 0.882813 0.355723
O O10 0.227930 0.801305 0.331176
O O11 0.581689 0.021706 0.422343
O O12 0.410761 0.106463 0.092073
O O13 0.392951 0.754618 0.133740
O O14 0.364150 0.750944 0.320277
O O15 0.047989 0.695870 0.062513
O O16 0.500000 0.000000 0.000000
O O17 0.000000 0.500000 0.500000
#
# Coordination Sequence:
#
# PCOD8009525 Si02
#       8
#     2   2   2   2   2   2   2   2
#     4  10  21  37  56  80 108 144 181 220 266 319
#     4   9  18  30  50  78 103 137 179 223 267 306
#     4   9  17  30  49  75 106 138 176 220 264 314
#     4  11  21  36  55  83 112 141 178 220 271 321
#     4  10  21  37  57  78 109 145 180 219 267 322
#     4   9  17  30  50  74 106 139 175 220 263 316
#     4   9  18  30  50  78 105 134 179 227 263 306
#     4  11  21  34  55  83 111 141 178 223 269 317
#
# _framework density 19.439343000000001
#
# number of rings (size 3 to 8) (size 9 to 14) (size 15 to 20)
#    0.000    2.250    2.500    0.750    3.500    3.500 
#    0.000    0.000    0.000    3.000    0.000    0.000 
#    0.000    0.000    0.000    0.000    0.000    0.000 
#
# Total GULP energy -198391.584959 kJ/mol
# GULP energy per Si atom -12399.474060 kJ/mol
# Density = 1.939510 g / cm^3
# Si number density = 19.439343 Si / 1000 Ang^3
#
#
#
# Elastic Constant Matrix: (Units=GPa)
#
#
# Indices 1 2 3 4 5 6 
#
# 1 95.9568 27.3364 52.0356 -8.7398 -31.0613 -16.9368
# 2 27.3364 65.2093 27.5366 -23.4284 -10.2884 -22.6439
# 3 52.0356 27.5366 101.6636 -27.4946 -31.2749 -11.6727
# 4 -8.7398 -23.4284 -27.4946 37.3616 -0.2894 -1.0965
# 5 -31.0613 -10.2884 -31.2749 -0.2894 39.1550 3.1504
# 6 -16.9368 -22.6439 -11.6727 -1.0965 3.1504 28.2880
#
#
#
# Elastic Compliance Matrix: (Units=1/GPa)
#
#
# Indices 1 2 3 4 5 6 
#
# 1 0.017685 -0.002148 -0.005413 -0.000961 0.008681 0.005632
# 2 -0.002148 0.034812 0.004679 0.025677 0.009077 0.028495
# 3 -0.005413 0.004679 0.021147 0.017580 0.013278 0.008433
# 4 -0.000961 0.025677 0.017580 0.056525 0.018241 0.027393
# 5 0.008681 0.009077 0.013278 0.018241 0.044450 0.013700
# 6 0.005632 0.028495 0.008433 0.027393 0.013700 0.064548
#
#
# Mechanical properties :
#
#
# Convention : Reuss Voigt Hill
#
# Bulk Modulus (GPa) = 14.73174 52.96077 33.84626
# Shear Modulus (GPa) = 18.68752 31.35569 25.02160
#
# Velocity S-wave (km/s) = 3.10389 4.02058 3.59160
# Velocity P-wave (km/s) = 4.52109 6.98975 5.88629
#
# Compressibility (1/GPa) = 0.06788062
#
# Stress axis : x y z
#
# Youngs Moduli (GPa) = 56.54448 28.72539 47.28792
#
# Poissons Ratio (x) = 0.06170 0.25596
# Poissons Ratio (y) = 0.12146 -0.22124
# Poissons Ratio (z) = 0.30606 -0.13440
#
# Static dielectric constant tensor:
#      x y z
#    x 3.689070 -0.385720 -0.580210 
#    y -0.385720 3.604220 -0.078760 
#    z -0.580210 -0.078760 3.978720 
# 
# 
# High freq. dielectric constant tensor:
#      x y z
#    x 1.746740 -0.025400 -0.029770 
#    y -0.025400 1.743830 -0.026570 
#    z -0.029770 -0.026570 1.752580 
# 
# From -- ./inp_files/205669.got.cif
#   From: 2010.06.25/outbox.cif.g09.slc.cpg/sg2_103_cif.got.tgz:205669.got - 2010.06.27 13:26:56.
