data_PCOD8009677
_publ_section_title
;
Structure prediction by ZEFSAII (Michael W. Deem and Ramdas Pophale) SiO2 
 PCOD8009677
Probable space group: P -1
;
_chemical_formula_sum "Si O2"
_cell_formula_units_Z 16
_cell_length_a 8.249968
_cell_length_b 12.654070
_cell_length_c 15.026336
_cell_angle_alpha 25.916720
_cell_angle_beta 83.167070
_cell_angle_gamma 90.409117
_cell_volume 656.773275
_symmetry_space_group_name_H-M "P -1"
_symmetry_group_IT_number 2
_symmetry_cell_setting 'triclinic'
loop_
_space_group_symop_operation_xyz
x,y,z
-x,-y,-z
loop_
_atom_site_type_symbol
_atom_site_label
_atom_site_fract_x
_atom_site_fract_y
_atom_site_fract_z
Si Si1 0.147741 0.861520 0.343766
Si Si2 0.070367 0.739872 0.751937
Si Si3 0.318937 0.542089 0.461439
Si Si4 0.186070 0.555625 0.272569
Si Si5 0.685479 0.047997 0.285647
Si Si6 0.329967 0.961256 0.434298
Si Si7 0.724150 0.601938 0.798421
Si Si8 0.882185 0.971948 0.167271
O O1 0.291249 0.763175 0.358387
O O2 0.232374 0.009667 0.313871
O O3 0.988742 0.636674 0.547988
O O4 0.070800 0.037487 0.149109
O O5 0.169838 0.963504 0.641711
O O6 0.211608 0.729503 0.674498
O O7 0.909967 0.782246 0.677294
O O8 0.000000 0.500000 0.000000
O O9 0.500000 0.500000 0.500000
O O10 0.309521 0.620619 0.299604
O O11 0.167700 0.290470 0.684235
O O12 0.285616 0.451856 0.266066
O O13 0.132106 0.803691 0.062881
O O14 0.502041 0.889505 0.451293
O O15 0.736003 0.921058 0.291337
O O16 0.681784 0.335871 0.052399
O O17 0.390058 0.221532 0.291118
#
# Coordination Sequence:
#
# PCOD8009677 Si02
#       8
#     2   2   2   2   2   2   2   2
#     4  11  24  42  67  98 127 177 233 265 327 410
#     4  10  21  37  59  87 128 177 221 263 322 408
#     4  11  25  44  67  98 134 165 219 282 337 399
#     4  10  22  43  67  97 127 173 229 272 327 396
#     4  10  22  38  60  97 135 170 219 275 337 391
#     4  12  22  38  62  94 139 172 217 281 339 380
#     4  10  21  39  62  93 128 174 222 270 325 405
#     4  10  22  43  71  92 131 177 221 278 327 393
#
# _framework density 24.361528
#
# number of rings (size 3 to 8) (size 9 to 14) (size 15 to 20)
#    0.000    1.500    1.250    4.125    3.500    3.500 
#    2.250    2.500    0.000    0.000    0.000    0.000 
#    0.000    0.000    0.000    0.000    0.000    0.000 
#
# Total GULP energy -198311.224297 kJ/mol
# GULP energy per Si atom -12394.451519 kJ/mol
# Density = 2.430608 g / cm^3
# Si number density = 24.361528 Si / 1000 Ang^3
#
#
#
# Elastic Constant Matrix: (Units=GPa)
#
#
# Indices 1 2 3 4 5 6 
#
# 1 101.7680 24.5500 34.1657 20.7013 7.7155 -0.7349
# 2 24.5500 113.7419 46.4818 13.4806 17.4016 4.1424
# 3 34.1657 46.4818 53.1383 9.1608 11.5972 -0.6319
# 4 20.7013 13.4806 9.1608 31.9884 0.4166 7.3117
# 5 7.7155 17.4016 11.5972 0.4166 37.1999 3.6754
# 6 -0.7349 4.1424 -0.6319 7.3117 3.6754 48.9570
#
#
#
# Elastic Compliance Matrix: (Units=1/GPa)
#
#
# Indices 1 2 3 4 5 6 
#
# 1 0.014027 0.001598 -0.008922 -0.007445 -0.000904 0.001140
# 2 0.001598 0.014401 -0.012370 -0.003379 -0.003113 -0.000616
# 3 -0.008922 -0.012370 0.036172 0.000307 -0.003803 0.001619
# 4 -0.007445 -0.003379 0.000307 0.038709 0.003173 -0.005841
# 5 -0.000904 -0.003113 -0.003803 0.003173 0.029925 -0.002520
# 6 0.001140 -0.000616 0.001619 -0.005841 -0.002520 0.021578
#
#
# Mechanical properties :
#
#
# Convention : Reuss Voigt Hill
#
# Bulk Modulus (GPa) = 39.66368 53.22703 46.44536
# Shear Modulus (GPa) = 24.67854 34.52575 29.60215
#
# Velocity S-wave (km/s) = 3.18624 3.76869 3.48964
# Velocity P-wave (km/s) = 5.46377 6.39012 5.94501
#
# Compressibility (1/GPa) = 0.02521198
#
# Stress axis : x y z
#
# Youngs Moduli (GPa) = 71.28884 69.43828 27.64565
#
# Poissons Ratio (x) = -0.11094 0.24666
# Poissons Ratio (y) = -0.11390 0.34197
# Poissons Ratio (z) = 0.63605 0.85894
#
# Static dielectric constant tensor:
#      x y z
#    x 4.541480 0.227090 0.229930 
#    y 0.227090 4.628350 0.228300 
#    z 0.229930 0.228300 4.481980 
# 
# 
# High freq. dielectric constant tensor:
#      x y z
#    x 1.965460 0.004240 0.014150 
#    y 0.004240 1.975020 0.013390 
#    z 0.014150 0.013390 1.962090 
# 
# From -- ./inp_files/499700.got.cif
#   From: 2010.06.25/outbox.cif.g09.slc.cpg/sg2_250_cif.got.tgz:499700.got - 2010.06.27 13:26:56.
