data_PCOD8009713
_publ_section_title
;
Structure prediction by ZEFSAII (Michael W. Deem and Ramdas Pophale) SiO2 
 PCOD8009713
Probable space group: P -1
;
_chemical_formula_sum "Si O2"
_cell_formula_units_Z 16
_cell_length_a 6.753316
_cell_length_b 8.952295
_cell_length_c 17.877781
_cell_angle_alpha 63.788660
_cell_angle_beta 125.059664
_cell_angle_gamma 97.808780
_cell_volume 783.470523
_symmetry_space_group_name_H-M "P -1"
_symmetry_group_IT_number 2
_symmetry_cell_setting 'triclinic'
loop_
_space_group_symop_operation_xyz
x,y,z
-x,-y,-z
loop_
_atom_site_type_symbol
_atom_site_label
_atom_site_fract_x
_atom_site_fract_y
_atom_site_fract_z
Si Si1 0.212058 0.950304 0.155862
Si Si2 0.073205 0.828866 0.596917
Si Si3 0.534474 0.513779 0.092209
Si Si4 0.666545 0.118081 0.970186
Si Si5 0.701697 0.381625 0.664521
Si Si6 0.921390 0.653308 0.735139
Si Si7 0.166793 0.441421 0.482243
Si Si8 0.609429 0.767597 0.778761
O O1 0.352698 0.895437 0.120895
O O2 0.168765 0.784275 0.228182
O O3 0.380844 0.057065 0.215924
O O4 0.950237 0.065613 0.063681
O O5 0.366255 0.787966 0.671346
O O6 0.958229 0.819079 0.657648
O O7 0.960185 0.693167 0.557013
O O8 0.000000 0.000000 0.500000
O O9 0.424232 0.693755 0.062729
O O10 0.386855 0.378728 0.127186
O O11 0.822924 0.475321 0.180740
O O12 0.500000 0.500000 0.000000
O O13 0.500000 0.000000 0.000000
O O14 0.719210 0.549148 0.680344
O O15 0.424460 0.362089 0.591476
O O16 0.824338 0.401007 0.606157
O O17 0.842738 0.719212 0.785857
O O18 0.000000 0.500000 0.500000
#
# Coordination Sequence:
#
# PCOD8009713 Si02
#       8
#     2   2   2   2   2   2   2   2
#     4  11  24  39  60  90 119 154 196 241 295 346
#     4  10  22  39  58  87 121 152 193 241 293 350
#     4  11  23  40  62  87 119 157 197 241 290 348
#     4  11  24  41  61  87 120 155 196 244 291 345
#     4  10  21  38  58  85 117 148 195 242 284 347
#     4  10  22  39  60  87 117 156 199 239 291 348
#     4  10  21  37  60  85 112 153 194 235 290 344
#     4  11  23  39  61  88 119 155 196 241 292 350
#
# _framework density 20.421956999999999
#
# number of rings (size 3 to 8) (size 9 to 14) (size 15 to 20)
#    0.000    1.500    0.000    4.500    0.000    9.500 
#    0.000    0.000    0.000    0.000    0.000    0.000 
#    0.000    0.000    0.000    0.000    0.000    0.000 
#
# Total GULP energy -198400.339400 kJ/mol
# GULP energy per Si atom -12400.021213 kJ/mol
# Density = 2.037548 g / cm^3
# Si number density = 20.421957 Si / 1000 Ang^3
#
#
#
# Elastic Constant Matrix: (Units=GPa)
#
#
# Indices 1 2 3 4 5 6 
#
# 1 144.8874 64.0270 60.1699 -4.3481 -21.0717 -14.0382
# 2 64.0270 104.6952 47.2170 -6.5077 -3.7828 -4.0201
# 3 60.1699 47.2170 119.4636 -12.0747 -15.3108 -5.0290
# 4 -4.3481 -6.5077 -12.0747 42.8620 9.5475 -3.1780
# 5 -21.0717 -3.7828 -15.3108 9.5475 32.1122 5.8613
# 6 -14.0382 -4.0201 -5.0290 -3.1780 5.8613 37.2886
#
#
#
# Elastic Compliance Matrix: (Units=1/GPa)
#
#
# Indices 1 2 3 4 5 6 
#
# 1 0.011582 -0.005541 -0.002991 -0.001573 0.005559 0.002352
# 2 -0.005541 0.014344 -0.003232 0.001559 -0.003909 -0.000228
# 3 -0.002991 -0.003232 0.011684 0.001885 0.002697 -0.000162
# 4 -0.001573 0.001559 0.001885 0.026037 -0.008303 0.003354
# 5 0.005559 -0.003909 0.002697 -0.008303 0.038958 -0.004796
# 6 0.002352 -0.000228 -0.000162 0.003354 -0.004796 0.028697
#
#
# Mechanical properties :
#
#
# Convention : Reuss Voigt Hill
#
# Bulk Modulus (GPa) = 71.00663 79.09713 75.05188
# Shear Modulus (GPa) = 31.34352 35.62805 33.48578
#
# Velocity S-wave (km/s) = 3.92190 4.18137 4.05371
# Velocity P-wave (km/s) = 7.44000 7.88208 7.66423
#
# Compressibility (1/GPa) = 0.01408319
#
# Stress axis : x y z
#
# Youngs Moduli (GPa) = 86.34417 69.71377 85.58838
#
# Poissons Ratio (x) = 0.38625 0.25599
# Poissons Ratio (y) = 0.47839 0.27661
# Poissons Ratio (z) = 0.25825 0.22531
#
# Static dielectric constant tensor:
#      x y z
#    x 4.114170 0.241260 0.019620 
#    y 0.241260 3.717020 0.128750 
#    z 0.019620 0.128750 3.940270 
# 
# 
# High freq. dielectric constant tensor:
#      x y z
#    x 1.808740 0.012050 -0.010690 
#    y 0.012050 1.799920 0.009490 
#    z -0.010690 0.009490 1.811070 
# 
# From -- ./inp_files/39852.got.cif
#   From: 2010.06.25/outbox.cif.g09.slc.cpg/sg2_20_cif.got.tgz:39852.got - 2010.06.27 13:26:56.
