data_PCOD8009379
_publ_section_title
;
Structure prediction by ZEFSAII (Michael W. Deem and Ramdas Pophale) SiO2 
 PCOD8009379
Probable space group: P -1
;
_chemical_formula_sum "Si O2"
_cell_formula_units_Z 14
_cell_length_a 13.955610
_cell_length_b 23.751714
_cell_length_c 5.160170
_cell_angle_alpha 91.351027
_cell_angle_beta 93.130973
_cell_angle_gamma 158.678412
_cell_volume 607.791782
_symmetry_space_group_name_H-M "P -1"
_symmetry_group_IT_number 2
_symmetry_cell_setting 'triclinic'
loop_
_space_group_symop_operation_xyz
x,y,z
-x,-y,-z
loop_
_atom_site_type_symbol
_atom_site_label
_atom_site_fract_x
_atom_site_fract_y
_atom_site_fract_z
Si Si1 0.082310 0.841726 0.928194
Si Si2 0.116038 0.663044 0.437311
Si Si3 0.569349 0.192700 0.004269
Si Si4 0.547699 0.297489 0.228814
Si Si5 0.175231 0.042470 0.501035
Si Si6 0.901951 0.853261 0.931603
Si Si7 0.820680 0.174190 0.564647
O O1 0.075496 0.807539 0.649447
O O2 0.824359 0.744188 0.891629
O O3 0.064139 0.785470 0.143406
O O4 0.347889 0.025315 0.039547
O O5 0.191928 0.683524 0.737070
O O6 0.057473 0.697159 0.440657
O O7 0.846322 0.483893 0.290610
O O8 0.346849 0.775650 0.274022
O O9 0.500276 0.222682 0.999275
O O10 0.340026 0.235621 0.138793
O O11 0.476889 0.229209 0.489280
O O12 0.136538 0.985029 0.750257
O O13 0.000000 0.000000 0.500000
O O14 0.059569 0.944929 0.231549
O O15 0.500000 0.000000 0.500000
#
# Coordination Sequence:
#
# PCOD8009379 Si02
#       7
#     2   2   2   2   2   2   2
#     4  12  23  41  71  96 122 163 231 272 304 374
#     4  12  27  43  63  98 132 175 210 268 326 380
#     4  12  24  40  68  96 131 168 213 266 326 387
#     4  11  25  43  65  97 142 166 206 261 335 399
#     4  10  21  36  62  91 127 165 209 246 310 385
#     4  11  24  42  65 100 127 172 211 265 319 380
#     4  12  23  44  67  93 126 170 225 267 312 369
#
# _framework density 23.034206000000001
#
# number of rings (size 3 to 8) (size 9 to 14) (size 15 to 20)
#    0.000    0.571    4.286    4.714    2.000    4.571 
#    0.000    1.429    0.000    0.000    0.000    0.000 
#    0.000    0.000    0.000    0.000    0.000    0.000 
#
# Total GULP energy -173469.269564 kJ/mol
# GULP energy per Si atom -12390.662112 kJ/mol
# Density = 2.298178 g / cm^3
# Si number density = 23.034206 Si / 1000 Ang^3
#
#
#
# Elastic Constant Matrix: (Units=GPa)
#
#
# Indices 1 2 3 4 5 6 
#
# 1 147.4286 3.1418 35.8056 -7.6349 -12.6873 -11.2400
# 2 3.1418 36.9920 3.3666 5.3680 -4.1677 -4.1637
# 3 35.8056 3.3666 132.5920 -9.2969 -2.9798 -2.4625
# 4 -7.6349 5.3680 -9.2969 22.4815 -3.3032 -3.7772
# 5 -12.6873 -4.1677 -2.9798 -3.3032 50.8086 3.3186
# 6 -11.2400 -4.1637 -2.4625 -3.7772 3.3186 22.7248
#
#
#
# Elastic Compliance Matrix: (Units=1/GPa)
#
#
# Indices 1 2 3 4 5 6 
#
# 1 0.007818 -0.000289 -0.001790 0.002888 0.001760 0.003843
# 2 -0.000289 0.028685 -0.001003 -0.006513 0.001557 0.003694
# 3 -0.001790 -0.001003 0.008280 0.003131 0.000138 0.000328
# 4 0.002888 -0.006513 0.003131 0.050187 0.003080 0.008466
# 5 0.001760 0.001557 0.000138 0.003080 0.020543 -0.001317
# 6 0.003843 0.003694 0.000328 0.008466 -0.001317 0.048217
#
#
# Mechanical properties :
#
#
# Convention : Reuss Voigt Hill
#
# Bulk Modulus (GPa) = 25.89555 44.62672 35.26114
# Shear Modulus (GPa) = 27.35703 37.51620 32.43661
#
# Velocity S-wave (km/s) = 3.45000 4.04011 3.75666
# Velocity P-wave (km/s) = 5.20928 6.41713 5.84449
#
# Compressibility (1/GPa) = 0.03861667
#
# Stress axis : x y z
#
# Youngs Moduli (GPa) = 127.91057 34.86139 120.77839
#
# Poissons Ratio (x) = 0.01009 0.21624
# Poissons Ratio (y) = 0.03700 0.12117
# Poissons Ratio (z) = 0.22901 0.03498
#
# Static dielectric constant tensor:
#      x y z
#    x 4.696480 -0.051260 -0.209160 
#    y -0.051260 3.753000 -0.087080 
#    z -0.209160 -0.087080 3.883590 
# 
# 
# High freq. dielectric constant tensor:
#      x y z
#    x 1.945480 -0.007560 -0.002460 
#    y -0.007560 1.865960 -0.004940 
#    z -0.002460 -0.004940 1.932500 
# 
# From -- ./inp_files/101155.got.cif
#   From: 2010.06.25/outbox.cif.g09.slc.cpg/sg2_51_cif.got.tgz:101155.got - 2010.06.27 13:26:56.
