data_PCOD8009486
_publ_section_title
;
Structure prediction by ZEFSAII (Michael W. Deem and Ramdas Pophale) SiO2 
 PCOD8009486
Probable space group: P -1
;
_chemical_formula_sum "Si O2"
_cell_formula_units_Z 16
_cell_length_a 11.711266
_cell_length_b 10.076314
_cell_length_c 10.005585
_cell_angle_alpha 116.907963
_cell_angle_beta 113.517963
_cell_angle_gamma 103.555219
_cell_volume 831.863024
_symmetry_space_group_name_H-M "P -1"
_symmetry_group_IT_number 2
_symmetry_cell_setting 'triclinic'
loop_
_space_group_symop_operation_xyz
x,y,z
-x,-y,-z
loop_
_atom_site_type_symbol
_atom_site_label
_atom_site_fract_x
_atom_site_fract_y
_atom_site_fract_z
Si Si1 0.351043 0.168862 0.039332
Si Si2 0.901232 0.318528 0.222222
Si Si3 0.801110 0.370854 0.475236
Si Si4 0.641811 0.987913 0.307956
Si Si5 0.964696 0.019683 0.143926
Si Si6 0.655255 0.056169 0.821727
Si Si7 0.255928 0.109210 0.438682
Si Si8 0.584905 0.504246 0.410843
O O1 0.470969 0.370480 0.188982
O O2 0.381322 0.080568 0.139230
O O3 0.367241 0.082541 0.875751
O O4 0.191210 0.144087 0.965093
O O5 0.810978 0.339505 0.308618
O O6 0.957069 0.191862 0.239743
O O7 0.039427 0.502037 0.331835
O O8 0.795995 0.239576 0.009583
O O9 0.703594 0.456471 0.487663
O O10 0.733513 0.195098 0.446960
O O11 0.480368 0.919120 0.254496
O O12 0.718625 0.915557 0.406673
O O13 0.084691 0.025403 0.300071
O O14 0.000000 0.000000 0.000000
O O15 0.685845 0.989136 0.669225
O O16 0.337799 0.310135 0.535679
O O17 0.500000 0.500000 0.500000
#
# Coordination Sequence:
#
# PCOD8009486 Si02
#       8
#     2   2   2   2   2   2   2   2
#     4  11  22  38  66  88 119 164 210 245 302 364
#     4  10  21  36  67  89 113 159 219 245 284 359
#     4  11  21  38  61  95 119 158 210 251 293 367
#     4  12  24  41  60  94 129 157 197 258 325 359
#     4  11  19  40  65  90 118 160 210 250 296 367
#     4  11  20  41  64  88 119 167 208 243 303 375
#     4  12  25  39  63  94 127 158 196 265 314 355
#     4  12  22  38  64  94 118 161 216 251 290 365
#
# _framework density 19.233936
#
# number of rings (size 3 to 8) (size 9 to 14) (size 15 to 20)
#    0.000    0.750    8.750    1.500    0.000    1.000 
#    0.000    1.875    0.000    0.000    0.000    0.000 
#    0.000    0.000    0.000    0.000    0.000    0.000 
#
# Total GULP energy -198465.372315 kJ/mol
# GULP energy per Si atom -12404.085770 kJ/mol
# Density = 1.919016 g / cm^3
# Si number density = 19.233936 Si / 1000 Ang^3
#
#
#
# Elastic Constant Matrix: (Units=GPa)
#
#
# Indices 1 2 3 4 5 6 
#
# 1 108.1056 19.6790 20.7336 4.7953 11.2874 -7.7945
# 2 19.6790 74.4618 27.3070 12.1338 14.5348 0.3634
# 3 20.7336 27.3070 81.6370 20.9459 17.1437 1.9231
# 4 4.7953 12.1338 20.9459 31.4090 1.0684 5.6480
# 5 11.2874 14.5348 17.1437 1.0684 43.2674 2.3404
# 6 -7.7945 0.3634 1.9231 5.6480 2.3404 20.3242
#
#
#
# Elastic Compliance Matrix: (Units=1/GPa)
#
#
# Indices 1 2 3 4 5 6 
#
# 1 0.010417 -0.001739 -0.001668 -0.000564 -0.001704 0.004537
# 2 -0.001739 0.016459 -0.003296 -0.003925 -0.003720 0.000870
# 3 -0.001668 -0.003296 0.017436 -0.010136 -0.005180 0.001183
# 4 -0.000564 -0.003925 -0.010136 0.042089 0.005063 -0.011466
# 5 -0.001704 -0.003720 -0.005180 0.005063 0.026983 -0.004611
# 6 0.004537 0.000870 0.001183 -0.011466 -0.004611 0.054532
#
#
# Mechanical properties :
#
#
# Convention : Reuss Voigt Hill
#
# Bulk Modulus (GPa) = 32.35684 44.40483 38.38084
# Shear Modulus (GPa) = 26.09251 32.09911 29.09581
#
# Velocity S-wave (km/s) = 3.68718 4.08962 3.89361
# Velocity P-wave (km/s) = 5.91493 6.74069 6.34126
#
# Compressibility (1/GPa) = 0.03090536
#
# Stress axis : x y z
#
# Youngs Moduli (GPa) = 95.99951 60.75528 57.35197
#
# Poissons Ratio (x) = 0.10564 0.09568
# Poissons Ratio (y) = 0.16693 0.18905
# Poissons Ratio (z) = 0.16016 0.20027
#
# Static dielectric constant tensor:
#      x y z
#    x 3.890490 0.071120 0.140150 
#    y 0.071120 3.343560 0.321100 
#    z 0.140150 0.321100 3.698170 
# 
# 
# High freq. dielectric constant tensor:
#      x y z
#    x 1.771120 0.003060 0.003570 
#    y 0.003060 1.711810 0.023660 
#    z 0.003570 0.023660 1.757620 
# 
# From -- ./inp_files/245149.got.cif
#   From: 2010.06.25/outbox.cif.g09.slc.cpg/sg2_123_cif.got.tgz:245149.got - 2010.06.27 13:26:56.
