data_PCOD8009447
_publ_section_title
;
Structure prediction by ZEFSAII (Michael W. Deem and Ramdas Pophale) SiO2 
 PCOD8009447
Probable space group: P -1
;
_chemical_formula_sum "Si O2"
_cell_formula_units_Z 16
_cell_length_a 9.145787
_cell_length_b 25.871261
_cell_length_c 9.100786
_cell_angle_alpha 141.122139
_cell_angle_beta 39.770086
_cell_angle_gamma 143.956266
_cell_volume 736.660629
_symmetry_space_group_name_H-M "P -1"
_symmetry_group_IT_number 2
_symmetry_cell_setting 'triclinic'
loop_
_space_group_symop_operation_xyz
x,y,z
-x,-y,-z
loop_
_atom_site_type_symbol
_atom_site_label
_atom_site_fract_x
_atom_site_fract_y
_atom_site_fract_z
Si Si1 0.756856 0.899030 0.514948
Si Si2 0.790818 0.777254 0.977609
Si Si3 0.752941 0.435970 0.652923
Si Si4 0.352708 0.779905 0.154365
Si Si5 0.675504 0.089540 0.294782
Si Si6 0.488500 0.125995 0.062920
Si Si7 0.798911 0.617029 0.102938
Si Si8 0.031993 0.693443 0.781364
O O1 0.774610 0.815621 0.235823
O O2 0.482584 0.894693 0.677903
O O3 0.748831 0.886842 0.671985
O O4 0.000000 0.000000 0.500000
O O5 0.507015 0.735730 0.022901
O O6 0.017178 0.861056 0.884950
O O7 0.855360 0.693600 0.779699
O O8 0.474668 0.383247 0.655926
O O9 0.795415 0.353726 0.510870
O O10 0.000000 0.500000 0.500000
O O11 0.746371 0.509647 0.939717
O O12 0.354141 0.864799 0.431396
O O13 0.044049 0.695656 0.184674
O O14 0.512942 0.823144 0.974437
O O15 0.547215 0.976523 0.172847
O O16 0.772485 0.195351 0.075743
O O17 0.847413 0.634247 0.929196
#
# Coordination Sequence:
#
# PCOD8009447 Si02
#       8
#     2   2   2   2   2   2   2   2
#     4  11  21  37  61  84 120 170 226 269 298 353
#     4  11  23  40  57  91 132 171 207 255 314 370
#     4   9  19  38  67  95 120 149 204 262 310 368
#     4  10  25  40  60  93 131 168 202 257 321 375
#     4  11  22  40  57  85 133 172 211 259 310 363
#     4  11  21  40  60  90 120 169 227 258 300 357
#     4   9  20  41  65  95 121 153 205 258 314 374
#     4  10  21  36  64  93 118 161 214 258 307 363
#
# _framework density 21.719636000000001
#
# number of rings (size 3 to 8) (size 9 to 14) (size 15 to 20)
#    0.000    1.750    2.500    1.500    1.750    3.500 
#    4.500    0.625    0.000    7.500    0.000    0.000 
#    0.000    0.000    0.000    0.000    0.000    0.000 
#
# Total GULP energy -198316.049494 kJ/mol
# GULP energy per Si atom -12394.753093 kJ/mol
# Density = 2.167020 g / cm^3
# Si number density = 21.719636 Si / 1000 Ang^3
#
#
#
# Elastic Constant Matrix: (Units=GPa)
#
#
# Indices 1 2 3 4 5 6 
#
# 1 128.5793 60.5319 72.9336 9.0754 -18.2729 -0.1450
# 2 60.5319 92.9424 45.2612 3.5574 -7.1892 16.5203
# 3 72.9336 45.2612 100.9078 -2.8349 -12.8631 0.7429
# 4 9.0754 3.5574 -2.8349 39.9892 -7.6179 -4.6556
# 5 -18.2729 -7.1892 -12.8631 -7.6179 41.5304 -4.6599
# 6 -0.1450 16.5203 0.7429 -4.6556 -4.6599 26.1053
#
#
#
# Elastic Compliance Matrix: (Units=1/GPa)
#
#
# Indices 1 2 3 4 5 6 
#
# 1 0.016693 -0.007310 -0.008435 -0.002450 0.003597 0.005164
# 2 -0.007310 0.019644 -0.003877 -0.002481 -0.002968 -0.013334
# 3 -0.008435 -0.003877 0.018149 0.004361 0.002386 0.003094
# 4 -0.002450 -0.002481 0.004361 0.028074 0.005832 0.007480
# 5 0.003597 -0.002968 0.002386 0.005832 0.027836 0.007839
# 6 0.005164 -0.013334 0.003094 0.007480 0.007839 0.049419
#
#
# Mechanical properties :
#
#
# Convention : Reuss Voigt Hill
#
# Bulk Modulus (GPa) = 65.60855 75.54254 70.57555
# Shear Modulus (GPa) = 24.49288 31.10518 27.79903
#
# Velocity S-wave (km/s) = 3.36174 3.78845 3.58145
# Velocity P-wave (km/s) = 6.73357 7.34797 7.04747
#
# Compressibility (1/GPa) = 0.01524192
#
# Stress axis : x y z
#
# Youngs Moduli (GPa) = 59.90498 50.90587 55.09808
#
# Poissons Ratio (x) = 0.37214 0.46474
# Poissons Ratio (y) = 0.43793 0.21363
# Poissons Ratio (z) = 0.50528 0.19738
#
# Static dielectric constant tensor:
#      x y z
#    x 3.839680 -0.056620 -0.186710 
#    y -0.056620 3.740980 0.104120 
#    z -0.186710 0.104120 4.248640 
# 
# 
# High freq. dielectric constant tensor:
#      x y z
#    x 1.829930 0.004700 -0.017570 
#    y 0.004700 1.855750 -0.006640 
#    z -0.017570 -0.006640 1.854620 
# 
# From -- ./inp_files/52451.got.cif
#   From: 2010.06.25/outbox.cif.g09.slc.cpg/sg2_27_cif.got.tgz:52451.got - 2010.06.27 13:26:56.
