data_PCOD8009365
_publ_section_title
;
Structure prediction by ZEFSAII (Michael W. Deem and Ramdas Pophale) SiO2 
 PCOD8009365
Probable space group: P -1
;
_chemical_formula_sum "Si O2"
_cell_formula_units_Z 12
_cell_length_a 5.339589
_cell_length_b 12.470563
_cell_length_c 21.414761
_cell_angle_alpha 28.630374
_cell_angle_beta 68.691766
_cell_angle_gamma 86.114441
_cell_volume 526.211853
_symmetry_space_group_name_H-M "P -1"
_symmetry_group_IT_number 2
_symmetry_cell_setting 'triclinic'
loop_
_space_group_symop_operation_xyz
x,y,z
-x,-y,-z
loop_
_atom_site_type_symbol
_atom_site_label
_atom_site_fract_x
_atom_site_fract_y
_atom_site_fract_z
Si Si1 0.694544 0.807656 0.709447
Si Si2 0.231184 0.814041 0.828202
Si Si3 0.599970 0.795757 0.584598
Si Si4 0.681336 0.113319 0.859943
Si Si5 0.756726 0.715959 0.201167
Si Si6 0.390804 0.220243 0.078747
O O1 0.477195 0.923037 0.690571
O O2 0.642546 0.706875 0.694454
O O3 0.596204 0.548983 0.893864
O O4 0.065865 0.053006 0.562025
O O5 0.449011 0.881958 0.836135
O O6 0.995169 0.920706 0.798449
O O7 0.000000 0.500000 0.000000
O O8 0.319312 0.530297 0.710216
O O9 0.500000 0.000000 0.500000
O O10 0.574391 0.302854 0.743412
O O11 0.069655 0.293190 0.746812
O O12 0.585826 0.870088 0.946396
O O13 0.500000 0.000000 0.000000
O O14 0.000000 0.000000 0.000000
#
# Coordination Sequence:
#
# PCOD8009365 Si02
#       6
#     2   2   2   2   2   2
#     4  10  23  39  59  95 133 164 209 263 327 377
#     4  10  22  38  63  94 129 170 212 263 315 373
#     4  11  26  37  65  96 133 168 202 267 332 376
#     4  10  21  36  62  88 121 158 206 261 307 363
#     4  10  22  39  60  88 125 163 208 251 310 377
#     4  11  22  39  67  95 126 166 220 262 312 374
#
# _framework density 22.804503
#
# number of rings (size 3 to 8) (size 9 to 14) (size 15 to 20)
#    0.000    1.667    0.000    5.000   16.333    0.000 
#    0.000    0.000    0.000    6.000    0.000    0.000 
#    0.000    0.000    0.000    0.000    0.000    0.000 
#
# Total GULP energy -148723.212130 kJ/mol
# GULP energy per Si atom -12393.601011 kJ/mol
# Density = 2.275260 g / cm^3
# Si number density = 22.804503 Si / 1000 Ang^3
#
#
#
# Elastic Constant Matrix: (Units=GPa)
#
#
# Indices 1 2 3 4 5 6 
#
# 1 187.2081 41.1352 26.6206 -4.2286 -18.9039 -2.0341
# 2 41.1352 118.3746 34.1466 -7.2003 -22.4063 -3.0029
# 3 26.6206 34.1466 68.6523 -4.1485 -20.3590 -3.9540
# 4 -4.2286 -7.2003 -4.1485 40.2215 -5.9003 -8.4333
# 5 -18.9039 -22.4063 -20.3590 -5.9003 24.2255 -2.4315
# 6 -2.0341 -3.0029 -3.9540 -8.4333 -2.4315 42.7160
#
#
#
# Elastic Compliance Matrix: (Units=1/GPa)
#
#
# Indices 1 2 3 4 5 6 
#
# 1 0.006067 -0.001213 -0.000675 0.000948 0.003328 0.000518
# 2 -0.001213 0.011421 -0.002368 0.003282 0.008593 0.001663
# 3 -0.000675 -0.002368 0.021568 0.005012 0.017007 0.003755
# 4 0.000948 0.003282 0.005012 0.030011 0.016057 0.007579
# 5 0.003328 0.008593 0.017007 0.016057 0.070985 0.009548
# 6 0.000518 0.001663 0.003755 0.007579 0.009548 0.025939
#
#
# Mechanical properties :
#
#
# Convention : Reuss Voigt Hill
#
# Bulk Modulus (GPa) = 32.73963 64.22665 48.48314
# Shear Modulus (GPa) = 27.07321 39.58809 33.33065
#
# Velocity S-wave (km/s) = 3.44930 4.17103 3.82721
# Velocity P-wave (km/s) = 5.50012 7.17090 6.39035
#
# Compressibility (1/GPa) = 0.03054402
#
# Stress axis : x y z
#
# Youngs Moduli (GPa) = 164.81880 87.56155 46.36456
#
# Poissons Ratio (x) = 0.10620 0.03131
# Poissons Ratio (y) = 0.19990 0.10978
# Poissons Ratio (z) = 0.11132 0.20732
#
# Static dielectric constant tensor:
#      x y z
#    x 6.921880 -1.427570 -1.081920 
#    y -1.427570 6.824000 2.016280 
#    z -1.081920 2.016280 4.935830 
# 
# 
# High freq. dielectric constant tensor:
#      x y z
#    x 1.928330 -0.001310 -0.015020 
#    y -0.001310 1.898200 0.004010 
#    z -0.015020 0.004010 1.845200 
# 
# From -- ./inp_files/38066.got.cif
#   From: 2010.06.25/outbox.cif.g09.slc.cpg/sg2_20_cif.got.tgz:38066.got - 2010.06.27 13:26:56.
