data_PCOD8009086
_publ_section_title
;
Structure prediction by ZEFSAII (Michael W. Deem and Ramdas Pophale) SiO2 
 PCOD8009086
Probable space group: P -1
;
_chemical_formula_sum "Si O2"
_cell_formula_units_Z 16
_cell_length_a 14.729733
_cell_length_b 12.945808
_cell_length_c 13.763025
_cell_angle_alpha 66.048241
_cell_angle_beta 19.807979
_cell_angle_gamma 66.657023
_cell_volume 811.894992
_symmetry_space_group_name_H-M "P -1"
_symmetry_group_IT_number 2
_symmetry_cell_setting 'triclinic'
loop_
_space_group_symop_operation_xyz
x,y,z
-x,-y,-z
loop_
_atom_site_type_symbol
_atom_site_label
_atom_site_fract_x
_atom_site_fract_y
_atom_site_fract_z
Si Si1 0.452398 0.606572 0.076090
Si Si2 0.403340 0.854522 0.967425
Si Si3 0.243679 0.974688 0.889284
Si Si4 0.893180 0.897982 0.583625
Si Si5 0.761166 0.351668 0.280204
Si Si6 0.922450 0.652478 0.714508
Si Si7 0.259773 0.888146 0.698726
Si Si8 0.259048 0.411085 0.870667
O O1 0.481090 0.720685 0.940172
O O2 0.186030 0.608055 0.408779
O O3 0.500000 0.500000 0.000000
O O4 0.685339 0.593697 0.923241
O O5 0.100885 0.872496 0.299276
O O6 0.390559 0.900658 0.853762
O O7 0.605342 0.921002 0.810366
O O8 0.192403 0.896025 0.878028
O O9 0.439873 0.074414 0.631726
O O10 0.953303 0.036053 0.181611
O O11 0.883549 0.788811 0.704268
O O12 0.000000 0.000000 0.500000
O O13 0.750915 0.240994 0.269026
O O14 0.549768 0.345876 0.586174
O O15 0.682378 0.456726 0.248832
O O16 0.065103 0.366002 0.000685
O O17 0.900996 0.611852 0.861307
#
# Coordination Sequence:
#
# PCOD8009086 Si02
#       8
#     2   2   2   2   2   2   2   2
#     4  10  21  38  58  82 112 143 182 228 274 327
#     4  10  21  37  56  81 111 143 182 226 271 326
#     4  10  21  37  56  81 111 144 185 228 274 329
#     4  10  21  36  55  81 113 144 181 225 270 326
#     4  10  21  37  56  82 112 144 184 230 275 327
#     4  10  21  37  56  82 112 144 182 226 273 328
#     4  10  21  37  56  81 112 144 183 230 275 327
#     4  10  21  37  57  82 112 144 184 228 274 329
#
# _framework density 19.706982
#
# number of rings (size 3 to 8) (size 9 to 14) (size 15 to 20)
#    0.000    2.000    0.000    3.000    0.000    4.000 
#    0.000    3.750    0.000    0.000    0.000    0.000 
#    0.000    0.000    0.000    0.000    0.000    0.000 
#
# Total GULP energy -198316.324971 kJ/mol
# GULP energy per Si atom -12394.770311 kJ/mol
# Density = 1.966213 g / cm^3
# Si number density = 19.706982 Si / 1000 Ang^3
#
#
#
# Elastic Constant Matrix: (Units=GPa)
#
#
# Indices 1 2 3 4 5 6 
#
# 1 99.6040 58.8957 27.7328 -7.4367 -0.3194 -2.6237
# 2 58.8957 124.4501 30.7338 -10.2066 -2.3346 25.4893
# 3 27.7328 30.7338 106.3777 -2.2376 -9.9839 3.8159
# 4 -7.4367 -10.2066 -2.2376 26.0885 -1.6689 -6.1697
# 5 -0.3194 -2.3346 -9.9839 -1.6689 33.8465 -4.3308
# 6 -2.6237 25.4893 3.8159 -6.1697 -4.3308 28.5490
#
#
#
# Elastic Compliance Matrix: (Units=1/GPa)
#
#
# Indices 1 2 3 4 5 6 
#
# 1 0.016667 -0.009368 -0.001909 0.003558 0.000531 0.011000
# 2 -0.009368 0.015960 -0.001768 -0.000254 -0.001460 -0.015151
# 3 -0.001909 -0.001768 0.010680 -0.000020 0.003065 0.000436
# 4 0.003558 -0.000254 -0.000020 0.041851 0.003367 0.010112
# 5 0.000531 -0.001460 0.003065 0.003367 0.031342 0.006425
# 6 0.011000 -0.015151 0.000436 0.010112 0.006425 0.052667
#
#
# Mechanical properties :
#
#
# Convention : Reuss Voigt Hill
#
# Bulk Modulus (GPa) = 58.07364 62.79515 60.43439
# Shear Modulus (GPa) = 24.87621 31.90142 28.38881
#
# Velocity S-wave (km/s) = 3.55675 4.02778 3.79957
# Velocity P-wave (km/s) = 6.81174 7.31876 7.06980
#
# Compressibility (1/GPa) = 0.01721952
#
# Stress axis : x y z
#
# Youngs Moduli (GPa) = 59.99746 62.65687 93.62935
#
# Poissons Ratio (x) = 0.58695 0.17871
# Poissons Ratio (y) = 0.56203 0.16552
# Poissons Ratio (z) = 0.11452 0.11076
#
# Static dielectric constant tensor:
#      x y z
#    x 3.429720 -0.072340 -0.153480 
#    y -0.072340 3.535070 -0.012750 
#    z -0.153480 -0.012750 3.878230 
# 
# 
# High freq. dielectric constant tensor:
#      x y z
#    x 1.758540 0.002450 -0.012070 
#    y 0.002450 1.759940 -0.003390 
#    z -0.012070 -0.003390 1.790910 
# 
# From -- ./inp_files/532512.got.cif
#   From: 2010.06.25/outbox.cif.g09.slc.cpg/sg2_267_cif.got.tgz:532512.got - 2010.06.27 13:26:56.
