data_PCOD8009733
_publ_section_title
;
Structure prediction by ZEFSAII (Michael W. Deem and Ramdas Pophale) SiO2 
 PCOD8009733
Probable space group: P -1
;
_chemical_formula_sum "Si O2"
_cell_formula_units_Z 12
_cell_length_a 8.139989
_cell_length_b 14.623473
_cell_length_c 14.928351
_cell_angle_alpha 27.582109
_cell_angle_beta 50.903136
_cell_angle_gamma 46.380616
_cell_volume 594.669031
_symmetry_space_group_name_H-M "P -1"
_symmetry_group_IT_number 2
_symmetry_cell_setting 'triclinic'
loop_
_space_group_symop_operation_xyz
x,y,z
-x,-y,-z
loop_
_atom_site_type_symbol
_atom_site_label
_atom_site_fract_x
_atom_site_fract_y
_atom_site_fract_z
Si Si1 0.806311 0.635384 0.515669
Si Si2 0.886191 0.436197 0.855152
Si Si3 0.293013 0.060556 0.085568
Si Si4 0.668683 0.125274 0.578199
Si Si5 0.850319 0.018711 0.252612
Si Si6 0.847971 0.850699 0.587047
O O1 0.870444 0.518188 0.689068
O O2 0.555551 0.661035 0.543675
O O3 0.000000 0.500000 0.500000
O O4 0.789336 0.880227 0.317842
O O5 0.799418 0.633071 0.782587
O O6 0.748493 0.274353 0.048337
O O7 0.148605 0.310326 0.903621
O O8 0.126923 0.932792 0.230216
O O9 0.369317 0.005105 0.210276
O O10 0.500000 0.000000 0.000000
O O11 0.885059 0.195473 0.449835
O O12 0.695775 0.974238 0.614061
O O13 0.760561 0.988467 0.407772
#
# Coordination Sequence:
#
# PCOD8009733 Si02
#       6
#     2   2   2   2   2   2
#     4  11  22  38  57  86 119 148 188 233 289 338
#     4   9  20  38  58  79 114 157 182 230 289 337
#     4   9  18  37  57  81 114 154 190 226 279 335
#     4  10  21  37  60  88 114 147 189 249 269 329
#     4   8  20  38  57  80 117 151 182 236 280 341
#     4   9  19  41  60  81 117 146 198 229 284 334
#
# _framework density 20.179293000000001
#
# number of rings (size 3 to 8) (size 9 to 14) (size 15 to 20)
#    1.000    1.667    0.000    1.000    0.000    5.333 
#    3.000    6.667    0.000    0.000    0.000    0.000 
#    0.000    0.000    0.000    0.000    0.000    0.000 
#
# Total GULP energy -148667.758341 kJ/mol
# GULP energy per Si atom -12388.979862 kJ/mol
# Density = 2.013336 g / cm^3
# Si number density = 20.179293 Si / 1000 Ang^3
#
#
#
# Elastic Constant Matrix: (Units=GPa)
#
#
# Indices 1 2 3 4 5 6 
#
# 1 50.9800 37.2841 29.2474 -2.6056 10.2411 8.2778
# 2 37.2841 111.2364 47.8180 9.6845 6.4077 2.4523
# 3 29.2474 47.8180 113.9241 -11.4957 0.0321 14.4874
# 4 -2.6056 9.6845 -11.4957 31.3328 7.4194 -1.6318
# 5 10.2411 6.4077 0.0321 7.4194 37.1076 -7.0020
# 6 8.2778 2.4523 14.4874 -1.6318 -7.0020 35.1727
#
#
#
# Elastic Compliance Matrix: (Units=1/GPa)
#
#
# Indices 1 2 3 4 5 6 
#
# 1 0.031305 -0.009219 -0.002589 0.006421 -0.009706 -0.007293
# 2 -0.009219 0.014665 -0.004956 -0.007450 0.002122 0.003265
# 3 -0.002589 -0.004956 0.012626 0.005825 -0.000369 -0.004049
# 4 0.006421 -0.007450 0.005825 0.038819 -0.008886 -0.003359
# 5 -0.009706 0.002122 -0.000369 -0.008886 0.032617 0.008369
# 6 -0.007293 0.003265 -0.004049 -0.003359 0.008369 0.033098
#
#
# Mechanical properties :
#
#
# Convention : Reuss Voigt Hill
#
# Bulk Modulus (GPa) = 39.89359 56.09328 47.99344
# Shear Modulus (GPa) = 24.38863 31.50870 27.94866
#
# Velocity S-wave (km/s) = 3.48026 3.95579 3.72562
# Velocity P-wave (km/s) = 5.99684 6.98013 6.50708
#
# Compressibility (1/GPa) = 0.02506668
#
# Stress axis : x y z
#
# Youngs Moduli (GPa) = 31.94350 68.19040 79.20410
#
# Poissons Ratio (x) = 0.62864 0.20509
# Poissons Ratio (y) = 0.29449 0.39255
# Poissons Ratio (z) = 0.08271 0.33797
#
# Static dielectric constant tensor:
#      x y z
#    x 3.726190 0.077160 0.059880 
#    y 0.077160 3.455150 -0.028560 
#    z 0.059880 -0.028560 3.708360 
# 
# 
# High freq. dielectric constant tensor:
#      x y z
#    x 1.788250 0.000020 0.008770 
#    y 0.000020 1.779640 0.003190 
#    z 0.008770 0.003190 1.780040 
# 
# From -- ./inp_files/266293.got.cif
#   From: 2010.06.25/outbox.cif.g09.slc.cpg/sg2_134_cif.got.tgz:266293.got - 2010.06.27 13:26:56.
