data_PCOD8009101
_publ_section_title
;
Structure prediction by ZEFSAII (Michael W. Deem and Ramdas Pophale) SiO2 
 PCOD8009101
Probable space group: P -1
;
_chemical_formula_sum "Si O2"
_cell_formula_units_Z 16
_cell_length_a 8.918449
_cell_length_b 17.864642
_cell_length_c 19.161801
_cell_angle_alpha 19.858590
_cell_angle_beta 55.472490
_cell_angle_gamma 67.435228
_cell_volume 722.540032
_symmetry_space_group_name_H-M "P -1"
_symmetry_group_IT_number 2
_symmetry_cell_setting 'triclinic'
loop_
_space_group_symop_operation_xyz
x,y,z
-x,-y,-z
loop_
_atom_site_type_symbol
_atom_site_label
_atom_site_fract_x
_atom_site_fract_y
_atom_site_fract_z
Si Si1 0.529636 0.826695 0.749122
Si Si2 0.454557 0.865447 0.000885
Si Si3 0.004683 0.303947 0.727216
Si Si4 0.640581 0.390926 0.530372
Si Si5 0.780082 0.744627 0.642069
Si Si6 0.276477 0.155619 0.172186
Si Si7 0.637138 0.682752 0.452062
Si Si8 0.552488 0.732963 0.580702
O O1 0.659410 0.858893 0.616214
O O2 0.677874 0.852056 0.752180
O O3 0.490767 0.059227 0.557726
O O4 0.302479 0.547445 0.052794
O O5 0.578238 0.906970 0.859357
O O6 0.580465 0.097214 0.821378
O O7 0.401611 0.605460 0.280811
O O8 0.245767 0.885267 0.018656
O O9 0.119039 0.433733 0.657688
O O10 0.127549 0.166904 0.781796
O O11 0.000000 0.500000 0.500000
O O12 0.500000 0.500000 0.500000
O O13 0.579616 0.360445 0.490154
O O14 0.721965 0.719968 0.597369
O O15 0.032334 0.936064 0.414727
O O16 0.331461 0.447254 0.884507
O O17 0.662046 0.816327 0.402788
#
# Coordination Sequence:
#
# PCOD8009101 Si02
#       8
#     2   2   2   2   2   2   2   2
#     4  10  21  39  62  87 119 152 194 239 291 357
#     4  10  21  39  57  80 117 152 188 240 287 334
#     4   9  20  37  58  81 111 152 190 232 283 335
#     4  10  21  36  56  82 109 146 195 235 282 344
#     4  10  22  39  60  88 118 155 191 238 298 350
#     4  10  22  38  59  88 121 153 195 243 291 345
#     4   9  20  38  57  83 115 149 193 238 286 340
#     4  10  21  39  60  88 119 151 196 243 286 350
#
# _framework density 22.144103000000001
#
# number of rings (size 3 to 8) (size 9 to 14) (size 15 to 20)
#    0.000    2.250    0.000    1.500    0.000   12.000 
#    0.000   10.000    0.000    0.000    0.000    0.000 
#    0.000    0.000    0.000    0.000    0.000    0.000 
#
# Total GULP energy -198243.527145 kJ/mol
# GULP energy per Si atom -12390.220447 kJ/mol
# Density = 2.209370 g / cm^3
# Si number density = 22.144103 Si / 1000 Ang^3
#
#
#
# Elastic Constant Matrix: (Units=GPa)
#
#
# Indices 1 2 3 4 5 6 
#
# 1 99.0844 31.8142 37.3615 12.4359 -24.8757 4.3502
# 2 31.8142 109.0441 51.9046 -2.8035 -6.1536 2.4480
# 3 37.3615 51.9046 89.3657 -3.2149 -30.5809 -13.3793
# 4 12.4359 -2.8035 -3.2149 41.5365 -7.5780 7.1652
# 5 -24.8757 -6.1536 -30.5809 -7.5780 38.0160 -6.8276
# 6 4.3502 2.4480 -13.3793 7.1652 -6.8276 38.1958
#
#
#
# Elastic Compliance Matrix: (Units=1/GPa)
#
#
# Indices 1 2 3 4 5 6 
#
# 1 0.013758 -0.002584 -0.002464 -0.003317 0.005833 -0.000600
# 2 -0.002584 0.015457 -0.012530 0.000137 -0.010496 -0.006987
# 3 -0.002464 -0.012530 0.030201 0.004015 0.024189 0.015233
# 4 -0.003317 0.000137 0.004015 0.026868 0.006045 -0.002184
# 5 0.005833 -0.010496 0.024189 0.006045 0.052078 0.016656
# 6 -0.000600 -0.006987 0.015233 -0.002184 0.016656 0.035420
#
#
# Mechanical properties :
#
#
# Convention : Reuss Voigt Hill
#
# Bulk Modulus (GPa) = 41.22097 59.96166 50.59132
# Shear Modulus (GPa) = 23.03893 35.31059 29.17476
#
# Velocity S-wave (km/s) = 3.22904 3.99755 3.63367
# Velocity P-wave (km/s) = 5.70592 6.96017 6.36402
#
# Compressibility (1/GPa) = 0.02425949
#
# Stress axis : x y z
#
# Youngs Moduli (GPa) = 72.68366 64.69642 33.11201
#
# Poissons Ratio (x) = 0.16716 0.08160
# Poissons Ratio (y) = 0.18779 0.41490
# Poissons Ratio (z) = 0.17911 0.81065
#
# Static dielectric constant tensor:
#      x y z
#    x 4.225650 0.161910 0.004470 
#    y 0.161910 4.201050 -0.137480 
#    z 0.004470 -0.137480 4.254630 
# 
# 
# High freq. dielectric constant tensor:
#      x y z
#    x 1.872360 0.007940 0.012220 
#    y 0.007940 1.874320 -0.020740 
#    z 0.012220 -0.020740 1.881110 
# 
# From -- ./inp_files/590869.got.cif
#   From: 2010.06.25/outbox.cif.g09.slc.cpg/sg2_296_cif.got.tgz:590869.got - 2010.06.27 13:26:56.
