data_PCOD8009198
_publ_section_title
;
Structure prediction by ZEFSAII (Michael W. Deem and Ramdas Pophale) SiO2 
 PCOD8009198
Probable space group: P -1
;
_chemical_formula_sum "Si O2"
_cell_formula_units_Z 16
_cell_length_a 5.508666
_cell_length_b 21.204699
_cell_length_c 14.551358
_cell_angle_alpha 28.202599
_cell_angle_beta 89.278484
_cell_angle_gamma 74.490582
_cell_volume 674.813899
_symmetry_space_group_name_H-M "P -1"
_symmetry_group_IT_number 2
_symmetry_cell_setting 'triclinic'
loop_
_space_group_symop_operation_xyz
x,y,z
-x,-y,-z
loop_
_atom_site_type_symbol
_atom_site_label
_atom_site_fract_x
_atom_site_fract_y
_atom_site_fract_z
Si Si1 0.880908 0.870975 0.071510
Si Si2 0.815534 0.999112 0.419795
Si Si3 0.657888 0.568526 0.715410
Si Si4 0.157761 0.068277 0.215566
Si Si5 0.685203 0.499811 0.081697
Si Si6 0.311700 0.254993 0.351775
Si Si7 0.811609 0.754580 0.853362
Si Si8 0.454224 0.793551 0.263126
O O1 0.711293 0.788150 0.211361
O O2 0.211483 0.787882 0.211986
O O3 0.897226 0.857056 0.979942
O O4 0.699556 0.053386 0.867840
O O5 0.512510 0.165872 0.211758
O O6 0.978640 0.983477 0.342853
O O7 0.813304 0.837126 0.648078
O O8 0.000000 0.000000 0.500000
O O9 0.476609 0.485129 0.840579
O O10 0.536198 0.705174 0.618347
O O11 0.609373 0.636768 0.526140
O O12 0.001506 0.439277 0.899405
O O13 0.035872 0.205907 0.116223
O O14 0.501897 0.938885 0.400628
O O15 0.988732 0.333047 0.289911
O O16 0.500000 0.500000 0.000000
O O17 0.688927 0.661473 0.854436
#
# Coordination Sequence:
#
# PCOD8009198 Si02
#       8
#     2   2   2   2   2   2   2   2
#     4  10  23  43  68  97 127 167 221 276 330 394
#     4   9  21  40  61  88 127 173 211 257 311 395
#     4  11  22  39  61  89 124 169 205 265 329 385
#     4  11  22  39  64  91 121 169 215 267 319 384
#     4   9  21  35  56  91 127 157 203 264 321 390
#     4  10  21  36  58  90 123 159 209 260 323 387
#     4  10  23  39  61  91 129 168 215 255 321 391
#     4  10  23  43  67  97 129 167 218 276 335 389
#
# _framework density 23.710242000000001
#
# number of rings (size 3 to 8) (size 9 to 14) (size 15 to 20)
#    0.000    2.000    1.250    0.750    3.500   14.000 
#    0.000    1.250    0.000    0.000    0.000    0.000 
#    0.000    0.000    0.000    0.000    0.000    0.000 
#
# Total GULP energy -198352.897867 kJ/mol
# GULP energy per Si atom -12397.056117 kJ/mol
# Density = 2.365628 g / cm^3
# Si number density = 23.710242 Si / 1000 Ang^3
#
#
#
# Elastic Constant Matrix: (Units=GPa)
#
#
# Indices 1 2 3 4 5 6 
#
# 1 131.9532 36.7922 60.4156 19.1258 -1.0030 -28.4459
# 2 36.7922 110.6307 64.0841 26.3331 -6.9719 -17.4154
# 3 60.4156 64.0841 152.3669 26.4098 6.6063 -13.6721
# 4 19.1258 26.3331 26.4098 54.8492 -1.9328 -5.3170
# 5 -1.0030 -6.9719 6.6063 -1.9328 36.9979 0.7903
# 6 -28.4459 -17.4154 -13.6721 -5.3170 0.7903 39.3419
#
#
#
# Elastic Compliance Matrix: (Units=1/GPa)
#
#
# Indices 1 2 3 4 5 6 
#
# 1 0.010759 -0.000264 -0.003382 -0.001364 0.000640 0.006290
# 2 -0.000264 0.013513 -0.004761 -0.003646 0.003122 0.003581
# 3 -0.003382 -0.004761 0.010215 -0.001668 -0.002875 -0.001171
# 4 -0.001364 -0.003646 -0.001668 0.021255 0.000691 -0.000322
# 5 0.000640 0.003122 -0.002875 0.000691 0.028176 0.000373
# 6 0.006290 0.003581 -0.001171 -0.000322 0.000373 0.031094
#
#
# Mechanical properties :
#
#
# Convention : Reuss Voigt Hill
#
# Bulk Modulus (GPa) = 56.58068 79.72608 68.15338
# Shear Modulus (GPa) = 36.30658 41.81505 39.06082
#
# Velocity S-wave (km/s) = 3.91738 4.20406 4.06325
# Velocity P-wave (km/s) = 6.66156 7.56728 7.12882
#
# Compressibility (1/GPa) = 0.01767388
#
# Stress axis : x y z
#
# Youngs Moduli (GPa) = 92.94493 74.00291 97.89201
#
# Poissons Ratio (x) = 0.01952 0.33108
# Poissons Ratio (y) = 0.02452 0.46606
# Poissons Ratio (z) = 0.31435 0.35232
#
# Static dielectric constant tensor:
#      x y z
#    x 7.713670 0.093180 -1.377490 
#    y 0.093180 4.169320 -0.003890 
#    z -1.377490 -0.003890 4.608910 
# 
# 
# High freq. dielectric constant tensor:
#      x y z
#    x 1.976480 0.011870 0.008390 
#    y 0.011870 1.930970 -0.002880 
#    z 0.008390 -0.002880 1.920480 
# 
# From -- ./inp_files/466456.got.cif
#   From: 2010.06.25/outbox.cif.g09.slc.cpg/sg2_234_cif.got.tgz:466456.got - 2010.06.27 13:26:56.
