data_PCOD8009547
_publ_section_title
;
Structure prediction by ZEFSAII (Michael W. Deem and Ramdas Pophale) SiO2 
 PCOD8009547
Probable space group: P -1
;
_chemical_formula_sum "Si O2"
_cell_formula_units_Z 14
_cell_length_a 11.582270
_cell_length_b 20.570477
_cell_length_c 8.779789
_cell_angle_alpha 131.875618
_cell_angle_beta 126.554557
_cell_angle_gamma 25.032961
_cell_volume 658.779480
_symmetry_space_group_name_H-M "P -1"
_symmetry_group_IT_number 2
_symmetry_cell_setting 'triclinic'
loop_
_space_group_symop_operation_xyz
x,y,z
-x,-y,-z
loop_
_atom_site_type_symbol
_atom_site_label
_atom_site_fract_x
_atom_site_fract_y
_atom_site_fract_z
Si Si1 0.512125 0.862122 0.099309
Si Si2 0.042249 0.178889 0.048505
Si Si3 0.723549 0.040376 0.618959
Si Si4 0.714730 0.190658 0.309795
Si Si5 0.258656 0.810094 0.325517
Si Si6 0.934242 0.767899 0.175237
Si Si7 0.508633 0.543124 0.293454
O O1 0.491996 0.869209 0.276944
O O2 0.814473 0.738446 0.097723
O O3 0.459582 0.794798 0.880481
O O4 0.299263 0.043236 0.150588
O O5 0.793656 0.346860 0.213732
O O6 0.979173 0.111804 0.842028
O O7 0.116198 0.200859 0.996834
O O8 0.599045 0.183717 0.642667
O O9 0.775032 0.929882 0.382951
O O10 0.009057 0.924894 0.743662
O O11 0.839692 0.107908 0.452529
O O12 0.507460 0.380067 0.457546
O O13 0.470100 0.619618 0.224987
O O14 0.257131 0.604984 0.208517
#
# Coordination Sequence:
#
# PCOD8009547 Si02
#       7
#     2   2   2   2   2   2   2
#     4  12  23  32  58  91 116 135 185 241 283 308
#     4  11  19  37  62  85 105 149 190 232 268 333
#     4  11  19  35  56  85 113 148 183 228 275 337
#     4   9  19  35  57  85 104 149 191 228 259 335
#     4   9  17  32  61  78 106 138 202 216 264 316
#     4  10  21  37  57  83 113 148 185 231 273 332
#     4   8  20  37  66  75 106 151 198 215 273 334
#
# _framework density 21.251422000000002
#
# number of rings (size 3 to 8) (size 9 to 14) (size 15 to 20)
#    0.857    1.143    2.857    4.286    0.000    0.000 
#    0.000    3.571    6.286    3.429    0.000    0.000 
#    0.000    0.000    0.000    0.000    0.000    0.000 
#
# Total GULP energy -173515.463476 kJ/mol
# GULP energy per Si atom -12393.961677 kJ/mol
# Density = 2.120305 g / cm^3
# Si number density = 21.251422 Si / 1000 Ang^3
#
#
#
# Elastic Constant Matrix: (Units=GPa)
#
#
# Indices 1 2 3 4 5 6 
#
# 1 112.9557 19.3556 22.5270 7.6530 -5.3315 -17.0963
# 2 19.3556 46.5554 24.3871 11.6978 -1.4981 -13.0761
# 3 22.5270 24.3871 60.8382 14.7579 1.7852 -13.5920
# 4 7.6530 11.6978 14.7579 18.9481 -0.1491 -3.9196
# 5 -5.3315 -1.4981 1.7852 -0.1491 33.8462 -5.3041
# 6 -17.0963 -13.0761 -13.5920 -3.9196 -5.3041 16.8776
#
#
#
# Elastic Compliance Matrix: (Units=1/GPa)
#
#
# Indices 1 2 3 4 5 6 
#
# 1 0.011038 -0.000597 -0.001417 -0.000793 0.003424 0.010469
# 2 -0.000597 0.033391 -0.006256 -0.011532 0.004642 0.019008
# 3 -0.001417 -0.006256 0.024996 -0.012797 -0.000179 0.010820
# 4 -0.000793 -0.011532 -0.012797 0.069347 -0.000286 -0.004029
# 5 0.003424 0.004642 -0.000179 -0.000286 0.032998 0.017224
# 6 0.010469 0.019008 0.010820 -0.004029 0.017224 0.097772
#
#
# Mechanical properties :
#
#
# Convention : Reuss Voigt Hill
#
# Bulk Modulus (GPa) = 18.90876 39.20986 29.05931
# Shear Modulus (GPa) = 16.46311 24.20635 20.33473
#
# Velocity S-wave (km/s) = 2.78633 3.37864 3.09668
# Velocity P-wave (km/s) = 4.38959 5.80610 5.14681
#
# Compressibility (1/GPa) = 0.05288555
#
# Stress axis : x y z
#
# Youngs Moduli (GPa) = 90.59787 29.94850 40.00603
#
# Poissons Ratio (x) = 0.01787 0.05668
# Poissons Ratio (y) = 0.05406 0.25028
# Poissons Ratio (z) = 0.12837 0.18736
#
# Static dielectric constant tensor:
#      x y z
#    x 3.819070 0.047730 0.048750 
#    y 0.047730 3.299390 0.106940 
#    z 0.048750 0.106940 3.700140 
# 
# 
# High freq. dielectric constant tensor:
#      x y z
#    x 1.823580 0.006820 0.004100 
#    y 0.006820 1.791640 0.013350 
#    z 0.004100 0.013350 1.838530 
# 
# From -- ./inp_files/282336.got.cif
#   From: 2010.06.25/outbox.cif.g09.slc.cpg/sg2_142_cif.got.tgz:282336.got - 2010.06.27 13:26:56.
