data_PCOD8009063
_publ_section_title
;
Structure prediction by ZEFSAII (Michael W. Deem and Ramdas Pophale) SiO2 
 PCOD8009063
Probable space group: P -1
;
_chemical_formula_sum "Si O2"
_cell_formula_units_Z 16
_cell_length_a 13.909508
_cell_length_b 8.518923
_cell_length_c 15.135811
_cell_angle_alpha 62.043750
_cell_angle_beta 62.423424
_cell_angle_gamma 35.022351
_cell_volume 898.058198
_symmetry_space_group_name_H-M "P -1"
_symmetry_group_IT_number 2
_symmetry_cell_setting 'triclinic'
loop_
_space_group_symop_operation_xyz
x,y,z
-x,-y,-z
loop_
_atom_site_type_symbol
_atom_site_label
_atom_site_fract_x
_atom_site_fract_y
_atom_site_fract_z
Si Si1 0.652500 0.795801 0.423763
Si Si2 0.274009 0.923201 0.759569
Si Si3 0.864022 0.850545 0.880764
Si Si4 0.806153 0.780561 0.111835
Si Si5 0.374552 0.326564 0.717664
Si Si6 0.058244 0.944686 0.733665
Si Si7 0.397053 0.704598 0.268829
Si Si8 0.866679 0.237013 0.564575
O O1 0.582922 0.782195 0.371088
O O2 0.804311 0.502637 0.484149
O O3 0.500000 0.000000 0.500000
O O4 0.720278 0.903784 0.343518
O O5 0.116254 0.013259 0.763437
O O6 0.449601 0.593661 0.764996
O O7 0.234364 0.014674 0.854301
O O8 0.002255 0.532476 0.872335
O O9 0.952679 0.929353 0.835551
O O10 0.715326 0.053754 0.819567
O O11 0.781929 0.894665 0.995905
O O12 0.672292 0.788032 0.174629
O O13 0.218304 0.658206 0.691967
O O14 0.536279 0.221635 0.716792
O O15 0.945885 0.174122 0.643892
O O16 0.287294 0.709182 0.374264
O O17 0.000000 0.000000 0.500000
#
# Coordination Sequence:
#
# PCOD8009063 Si02
#       8
#     2   2   2   2   2   2   2   2
#     4  11  21  36  53  79 110 139 175 226 264 303
#     4  10  21  36  54  79 110 138 177 222 264 307
#     4   9  19  37  58  79 108 140 176 213 266 322
#     4   9  19  37  58  80 107 140 172 221 267 309
#     4   9  19  36  56  76 108 142 176 215 265 315
#     4   9  19  36  55  78 106 142 179 215 259 320
#     4  10  21  36  55  80 105 141 181 216 259 324
#     4  11  21  36  57  77 106 145 181 214 263 319
#
# _framework density 17.816217999999999
#
# number of rings (size 3 to 8) (size 9 to 14) (size 15 to 20)
#    0.000    2.250    2.500    0.000    1.750    3.500 
#    2.250    0.000    0.000    0.000    0.000    0.000 
#    0.000    0.000    0.000    0.000    0.000    0.000 
#
# Total GULP energy -198420.657802 kJ/mol
# GULP energy per Si atom -12401.291113 kJ/mol
# Density = 1.777567 g / cm^3
# Si number density = 17.816218 Si / 1000 Ang^3
#
#
#
# Elastic Constant Matrix: (Units=GPa)
#
#
# Indices 1 2 3 4 5 6 
#
# 1 130.3287 39.7079 38.5616 1.6719 2.7061 -3.3139
# 2 39.7079 85.1114 40.0470 -2.4175 4.7541 0.7902
# 3 38.5616 40.0470 103.1651 -0.5409 3.1090 -1.1082
# 4 1.6719 -2.4175 -0.5409 36.2447 -0.2435 4.7704
# 5 2.7061 4.7541 3.1090 -0.2435 12.9836 1.3282
# 6 -3.3139 0.7902 -1.1082 4.7704 1.3282 27.5464
#
#
#
# Elastic Compliance Matrix: (Units=1/GPa)
#
#
# Indices 1 2 3 4 5 6 
#
# 1 0.009399 -0.003375 -0.002183 -0.000866 -0.000350 0.001306
# 2 -0.003375 0.015829 -0.004773 0.001258 -0.003815 -0.001086
# 3 -0.002183 -0.004773 0.012390 -0.000095 -0.000810 0.000428
# 4 -0.000866 0.001258 -0.000095 0.028389 0.000797 -0.005099
# 5 -0.000350 -0.003815 -0.000810 0.000797 0.079100 -0.003917
# 6 0.001306 -0.001086 0.000428 -0.005099 -0.003917 0.037580
#
#
# Mechanical properties :
#
#
# Convention : Reuss Voigt Hill
#
# Bulk Modulus (GPa) = 58.97624 61.69315 60.33469
# Shear Modulus (GPa) = 23.92348 28.70753 26.31550
#
# Velocity S-wave (km/s) = 3.66839 4.01847 3.84741
# Velocity P-wave (km/s) = 7.14963 7.49890 7.32635
#
# Compressibility (1/GPa) = 0.01695598
#
# Stress axis : x y z
#
# Youngs Moduli (GPa) = 106.39856 63.17717 80.70719
#
# Poissons Ratio (x) = 0.21321 0.17618
# Poissons Ratio (y) = 0.35908 0.38522
# Poissons Ratio (z) = 0.23226 0.30155
#
# Static dielectric constant tensor:
#      x y z
#    x 3.294420 0.124070 0.030650 
#    y 0.124070 2.971790 -0.342020 
#    z 0.030650 -0.342020 3.042580 
# 
# 
# High freq. dielectric constant tensor:
#      x y z
#    x 1.684950 0.000790 -0.003680 
#    y 0.000790 1.690600 -0.000750 
#    z -0.003680 -0.000750 1.696970 
# 
# From -- ./inp_files/195640.got.cif
#   From: 2010.06.25/outbox.cif.g09.slc.cpg/sg2_98_cif.got.tgz:195640.got - 2010.06.27 13:26:56.
