data_PCOD8009528
_publ_section_title
;
Structure prediction by ZEFSAII (Michael W. Deem and Ramdas Pophale) SiO2 
 PCOD8009528
Probable space group: P -1
;
_chemical_formula_sum "Si O2"
_cell_formula_units_Z 16
_cell_length_a 8.508476
_cell_length_b 20.960575
_cell_length_c 11.672391
_cell_angle_alpha 146.648087
_cell_angle_beta 137.428313
_cell_angle_gamma 52.037871
_cell_volume 774.246468
_symmetry_space_group_name_H-M "P -1"
_symmetry_group_IT_number 2
_symmetry_cell_setting 'triclinic'
loop_
_space_group_symop_operation_xyz
x,y,z
-x,-y,-z
loop_
_atom_site_type_symbol
_atom_site_label
_atom_site_fract_x
_atom_site_fract_y
_atom_site_fract_z
Si Si1 0.474013 0.879047 0.365931
Si Si2 0.196702 0.653365 0.117523
Si Si3 0.906828 0.439423 0.633343
Si Si4 0.696714 0.346640 0.157446
Si Si5 0.973989 0.120951 0.728771
Si Si6 0.593175 0.439420 0.684927
Si Si7 0.808768 0.731595 0.759854
Si Si8 0.308763 0.268408 0.565081
O O1 0.250051 0.896653 0.345037
O O2 0.679381 0.844334 0.514226
O O3 0.500000 0.000000 0.500000
O O4 0.438799 0.776067 0.099828
O O5 0.061170 0.776065 0.228358
O O6 0.237372 0.614446 0.210772
O O7 0.440473 0.665447 0.197036
O O8 0.027454 0.556738 0.825843
O O9 0.737375 0.385542 0.367427
O O10 0.750006 0.464782 0.697179
O O11 0.113460 0.349874 0.636993
O O12 0.527480 0.443271 0.155663
O O13 0.940493 0.334568 0.200738
O O14 0.000000 0.000000 0.500000
O O15 0.179316 0.155653 0.981195
O O16 0.386566 0.349852 0.412612
O O17 0.749998 0.768219 0.652323
#
# Coordination Sequence:
#
# PCOD8009528 Si02
#       8
#     2   2   2   2   2   2   2   2
#     4  10  22  40  60  82 109 147 190 231 276 330
#     4  10  21  37  56  82 115 152 185 223 281 342
#     4  11  21  34  57  89 117 144 184 236 280 323
#     4  10  21  37  56  82 115 152 185 223 281 342
#     4  10  22  40  60  82 109 147 190 231 276 330
#     4  11  21  34  57  89 117 144 184 236 280 323
#     4   9  20  39  59  81 112 151 187 222 277 343
#     4   9  20  39  59  81 112 151 187 222 277 343
#
# _framework density 20.665254000000001
#
# number of rings (size 3 to 8) (size 9 to 14) (size 15 to 20)
#    0.000    2.000    0.000    3.000    0.000   10.000 
#    0.000   12.500    0.000    0.000    0.000    0.000 
#    0.000    0.000    0.000    0.000    0.000    0.000 
#
# Total GULP energy -198305.539978 kJ/mol
# GULP energy per Si atom -12394.096249 kJ/mol
# Density = 2.061822 g / cm^3
# Si number density = 20.665254 Si / 1000 Ang^3
#
#
#
# Elastic Constant Matrix: (Units=GPa)
#
#
# Indices 1 2 3 4 5 6 
#
# 1 68.7631 42.4613 43.9062 4.3150 -5.3144 5.2886
# 2 42.4613 144.0308 91.4826 17.2078 6.6012 15.3362
# 3 43.9062 91.4826 149.2368 17.4544 -18.1439 -5.3267
# 4 4.3150 17.2078 17.4544 32.0495 -3.3790 5.5505
# 5 -5.3144 6.6012 -18.1439 -3.3790 22.9778 2.0765
# 6 5.2886 15.3362 -5.3267 5.5505 2.0765 22.0061
#
#
#
# Elastic Compliance Matrix: (Units=1/GPa)
#
#
# Indices 1 2 3 4 5 6 
#
# 1 0.019380 -0.003400 -0.003623 0.002236 0.003292 -0.004039
# 2 -0.003400 0.017638 -0.011768 -0.001950 -0.014305 -0.012482
# 3 -0.003623 -0.011768 0.017643 -0.003461 0.014807 0.012818
# 4 0.002236 -0.001950 -0.003461 0.035952 0.004491 -0.009508
# 5 0.003292 -0.014305 0.014807 0.004491 0.060206 0.005948
# 6 -0.004039 -0.012482 0.012818 -0.009508 0.005948 0.060051
#
#
# Mechanical properties :
#
#
# Convention : Reuss Voigt Hill
#
# Bulk Modulus (GPa) = 58.55323 79.74789 69.15056
# Shear Modulus (GPa) = 19.67371 27.68539 23.67955
#
# Velocity S-wave (km/s) = 3.08883 3.66417 3.38873
# Velocity P-wave (km/s) = 6.41224 7.52168 6.98901
#
# Compressibility (1/GPa) = 0.01707848
#
# Stress axis : x y z
#
# Youngs Moduli (GPa) = 51.59843 56.69697 56.67955
#
# Poissons Ratio (x) = 0.19279 0.20534
# Poissons Ratio (y) = 0.17545 0.66701
# Poissons Ratio (z) = 0.18693 0.66722
#
# Static dielectric constant tensor:
#      x y z
#    x 3.454620 -0.095690 0.109330 
#    y -0.095690 3.263550 -0.955450 
#    z 0.109330 -0.955450 3.088580 
# 
# 
# High freq. dielectric constant tensor:
#      x y z
#    x 1.795820 0.002180 -0.001940 
#    y 0.002180 1.812580 -0.017870 
#    z -0.001940 -0.017870 1.809150 
# 
# From -- ./inp_files/257492.got.cif
#   From: 2010.06.25/outbox.cif.g09.slc.cpg/sg2_129_cif.got.tgz:257492.got - 2010.06.27 13:26:56.
