data_PCOD8009627
_publ_section_title
;
Structure prediction by ZEFSAII (Michael W. Deem and Ramdas Pophale) SiO2 
 PCOD8009627
Probable space group: P -1
;
_chemical_formula_sum "Si O2"
_cell_formula_units_Z 16
_cell_length_a 16.555473
_cell_length_b 9.886187
_cell_length_c 9.372760
_cell_angle_alpha 42.519976
_cell_angle_beta 118.029847
_cell_angle_gamma 131.709401
_cell_volume 773.349317
_symmetry_space_group_name_H-M "P -1"
_symmetry_group_IT_number 2
_symmetry_cell_setting 'triclinic'
loop_
_space_group_symop_operation_xyz
x,y,z
-x,-y,-z
loop_
_atom_site_type_symbol
_atom_site_label
_atom_site_fract_x
_atom_site_fract_y
_atom_site_fract_z
Si Si1 0.454060 0.299809 0.002006
Si Si2 0.886081 0.169620 0.542616
Si Si3 0.877906 0.920007 0.989133
Si Si4 0.134504 0.475840 0.557177
Si Si5 0.740981 0.008724 0.279054
Si Si6 0.225359 0.858398 0.117567
Si Si7 0.585496 0.512986 0.454148
Si Si8 0.469116 0.004621 0.810356
O O1 0.535173 0.207088 0.116540
O O2 0.334737 0.075498 0.108607
O O3 0.500000 0.500000 0.000000
O O4 0.449835 0.441219 0.758335
O O5 0.861381 0.353803 0.449063
O O6 0.014372 0.287314 0.548179
O O7 0.841303 0.110114 0.390759
O O8 0.832351 0.934298 0.783479
O O9 0.815385 0.664135 0.215255
O O10 0.872134 0.106078 0.944609
O O11 0.000000 0.000000 0.000000
O O12 0.203717 0.618929 0.362929
O O13 0.703869 0.737108 0.422373
O O14 0.646401 0.020366 0.273245
O O15 0.771062 0.157128 0.039877
O O16 0.500000 0.500000 0.500000
O O17 0.570273 0.255159 0.638260
O O18 0.500000 0.000000 0.000000
#
# Coordination Sequence:
#
# PCOD8009627 Si02
#       8
#     2   2   2   2   2   2   2   2
#     4  11  24  40  61  92 124 159 206 259 300 360
#     4   9  19  38  60  86 119 154 203 250 304 366
#     4   9  19  39  61  80 112 160 197 243 307 360
#     4   9  19  38  61  83 118 159 195 254 308 362
#     4  10  21  38  60  93 122 160 206 254 305 363
#     4  10  21  37  58  90 122 152 203 257 304 356
#     4   9  19  37  60  82 119 163 200 252 298 355
#     4  11  20  42  65  84 122 169 203 241 312 367
#
# _framework density 20.689228
#
# number of rings (size 3 to 8) (size 9 to 14) (size 15 to 20)
#    0.000    2.250    3.750    0.750    0.000    8.000 
#    2.250    2.500    0.000    0.000    0.000    0.000 
#    0.000    0.000    0.000    0.000    0.000    0.000 
#
# Total GULP energy -198222.530930 kJ/mol
# GULP energy per Si atom -12388.908183 kJ/mol
# Density = 2.064214 g / cm^3
# Si number density = 20.689228 Si / 1000 Ang^3
#
#
#
# Elastic Constant Matrix: (Units=GPa)
#
#
# Indices 1 2 3 4 5 6 
#
# 1 62.6443 28.6348 21.7233 0.6996 -3.9364 -8.7219
# 2 28.6348 133.6728 74.2782 13.3988 -1.9475 -8.1956
# 3 21.7233 74.2782 186.7662 -15.8533 -15.8945 1.5764
# 4 0.6996 13.3988 -15.8533 28.2771 -4.0169 5.7270
# 5 -3.9364 -1.9475 -15.8945 -4.0169 32.8881 -3.3071
# 6 -8.7219 -8.1956 1.5764 5.7270 -3.3071 23.4806
#
#
#
# Elastic Compliance Matrix: (Units=1/GPa)
#
#
# Indices 1 2 3 4 5 6 
#
# 1 0.018689 -0.003053 -0.000864 -0.000473 0.002220 0.006363
# 2 -0.003053 0.012952 -0.006074 -0.011160 -0.003289 0.006053
# 3 -0.000864 -0.006074 0.009124 0.009637 0.004646 -0.004750
# 4 -0.000473 -0.011160 0.009637 0.050483 0.008514 -0.015832
# 5 0.002220 -0.003289 0.004646 0.008514 0.033971 0.002073
# 6 0.006363 0.006053 -0.004750 -0.015832 0.002073 0.051537
#
#
# Mechanical properties :
#
#
# Convention : Reuss Voigt Hill
#
# Bulk Modulus (GPa) = 48.11968 70.26176 59.19072
# Shear Modulus (GPa) = 24.54977 34.15896 29.35437
#
# Velocity S-wave (km/s) = 3.44844 4.06772 3.77081
# Velocity P-wave (km/s) = 6.25815 7.48973 6.90147
#
# Compressibility (1/GPa) = 0.02078152
#
# Stress axis : x y z
#
# Youngs Moduli (GPa) = 53.50670 77.20641 109.59915
#
# Poissons Ratio (x) = 0.23573 0.09474
# Poissons Ratio (y) = 0.16337 0.66575
# Poissons Ratio (z) = 0.04625 0.46898
#
# Static dielectric constant tensor:
#      x y z
#    x 4.106300 -0.045230 0.154310 
#    y -0.045230 3.567780 -0.405090 
#    z 0.154310 -0.405090 4.411650 
# 
# 
# High freq. dielectric constant tensor:
#      x y z
#    x 1.801400 -0.007470 -0.005770 
#    y -0.007470 1.775970 -0.008020 
#    z -0.005770 -0.008020 1.834350 
# 
# From -- ./inp_files/313927.got.cif
#   From: 2010.06.25/outbox.cif.g09.slc.cpg/sg2_157_cif.got.tgz:313927.got - 2010.06.27 13:26:56.
