data_PCOD8009587
_publ_section_title
;
Structure prediction by ZEFSAII (Michael W. Deem and Ramdas Pophale) SiO2 
 PCOD8009587
Probable space group: P -1
;
_chemical_formula_sum "Si O2"
_cell_formula_units_Z 14
_cell_length_a 16.019696
_cell_length_b 8.054147
_cell_length_c 17.876532
_cell_angle_alpha 135.656781
_cell_angle_beta 23.154266
_cell_angle_gamma 123.653500
_cell_volume 587.346506
_symmetry_space_group_name_H-M "P -1"
_symmetry_group_IT_number 2
_symmetry_cell_setting 'triclinic'
loop_
_space_group_symop_operation_xyz
x,y,z
-x,-y,-z
loop_
_atom_site_type_symbol
_atom_site_label
_atom_site_fract_x
_atom_site_fract_y
_atom_site_fract_z
Si Si1 0.828131 0.285283 0.719127
Si Si2 0.927800 0.672689 0.228971
Si Si3 0.308960 0.242136 0.697777
Si Si4 0.611362 0.540184 0.558395
Si Si5 0.764981 0.037344 0.919901
Si Si6 0.057598 0.665285 0.662455
Si Si7 0.319868 0.434707 0.223087
O O1 0.770688 0.360542 0.703555
O O2 0.945735 0.465015 0.716414
O O3 0.593774 0.325246 0.968884
O O4 0.000000 0.000000 0.500000
O O5 0.802452 0.825845 0.306502
O O6 0.727936 0.659217 0.440794
O O7 0.063123 0.830458 0.210139
O O8 0.106247 0.387118 0.970101
O O9 0.429164 0.440825 0.638514
O O10 0.500000 0.000000 0.500000
O O11 0.796650 0.306120 0.377271
O O12 0.490531 0.758026 0.790948
O O13 0.764734 0.803266 0.792983
O O14 0.854436 0.932469 0.896209
O O15 0.215689 0.577458 0.430507
#
# Coordination Sequence:
#
# PCOD8009587 Si02
#       7
#     2   2   2   2   2   2   2
#     4  10  21  37  58  81 110 156 206 249 294 340
#     4  10  23  41  64  91 120 153 196 246 298 360
#     4  10  22  43  67  91 119 153 192 243 304 362
#     4  11  24  39  62  94 121 156 199 242 299 358
#     4  10  22  40  59  86 123 160 201 248 294 346
#     4  11  24  38  58  88 123 163 204 247 295 347
#     4  10  23  40  58  85 122 163 207 249 292 345
#
# _framework density 23.836013999999999
#
# number of rings (size 3 to 8) (size 9 to 14) (size 15 to 20)
#    0.000    1.714    0.000    3.857    0.000   14.286 
#    0.000    0.000    0.000    0.000    0.000    0.000 
#    0.000    0.000    0.000    0.000    0.000    0.000 
#
# Total GULP energy -173592.673440 kJ/mol
# GULP energy per Si atom -12399.476674 kJ/mol
# Density = 2.378176 g / cm^3
# Si number density = 23.836014 Si / 1000 Ang^3
#
#
#
# Elastic Constant Matrix: (Units=GPa)
#
#
# Indices 1 2 3 4 5 6 
#
# 1 46.1566 -4.0966 10.7500 -6.4509 -7.9157 7.7963
# 2 -4.0966 77.6070 29.8236 -24.2294 10.3575 -2.2544
# 3 10.7500 29.8236 98.1078 -15.2076 -20.7758 -5.9609
# 4 -6.4509 -24.2294 -15.2076 47.8404 -10.1145 -10.4871
# 5 -7.9157 10.3575 -20.7758 -10.1145 34.8542 1.9873
# 6 7.7963 -2.2544 -5.9609 -10.4871 1.9873 24.3438
#
#
#
# Elastic Compliance Matrix: (Units=1/GPa)
#
#
# Indices 1 2 3 4 5 6 
#
# 1 0.024964 0.002365 -0.002356 0.003243 0.004923 -0.007358
# 2 0.002365 0.018501 -0.006023 0.007031 -0.006685 0.003055
# 3 -0.002356 -0.006023 0.016026 0.005487 0.012086 0.005498
# 4 0.003243 0.007031 0.005487 0.031873 0.010378 0.013839
# 5 0.004923 -0.006685 0.012086 0.010378 0.041908 0.001813
# 6 -0.007358 0.003055 0.005498 0.013839 0.001813 0.050878
#
#
# Mechanical properties :
#
#
# Convention : Reuss Voigt Hill
#
# Bulk Modulus (GPa) = 21.06947 32.75836 26.91392
# Shear Modulus (GPa) = 23.58487 33.76729 28.67608
#
# Velocity S-wave (km/s) = 3.14899 3.76792 3.47227
# Velocity P-wave (km/s) = 4.69894 5.71863 5.23368
#
# Compressibility (1/GPa) = 0.04746203
#
# Stress axis : x y z
#
# Youngs Moduli (GPa) = 40.05708 54.05111 62.39830
#
# Poissons Ratio (x) = -0.12783 0.14702
# Poissons Ratio (y) = -0.09473 0.37585
# Poissons Ratio (z) = 0.09438 0.32557
#
# Static dielectric constant tensor:
#      x y z
#    x 4.155110 0.103220 -0.475200 
#    y 0.103220 4.379330 -0.148860 
#    z -0.475200 -0.148860 4.477320 
# 
# 
# High freq. dielectric constant tensor:
#      x y z
#    x 1.929610 0.000830 -0.028620 
#    y 0.000830 1.950420 -0.010380 
#    z -0.028620 -0.010380 1.954550 
# 
# From -- ./inp_files/599596.got.cif
#   From: 2010.06.25/outbox.cif.g09.slc.cpg/sg2_300_cif.got.tgz:599596.got - 2010.06.27 13:26:56.
