data_PCOD8009046
_publ_section_title
;
Structure prediction by ZEFSAII (Michael W. Deem and Ramdas Pophale) SiO2 
 PCOD8009046
Probable space group: P -1
;
_chemical_formula_sum "Si O2"
_cell_formula_units_Z 12
_cell_length_a 8.808831
_cell_length_b 9.382642
_cell_length_c 13.530426
_cell_angle_alpha 49.188041
_cell_angle_beta 119.620482
_cell_angle_gamma 88.869550
_cell_volume 628.051677
_symmetry_space_group_name_H-M "P -1"
_symmetry_group_IT_number 2
_symmetry_cell_setting 'triclinic'
loop_
_space_group_symop_operation_xyz
x,y,z
-x,-y,-z
loop_
_atom_site_type_symbol
_atom_site_label
_atom_site_fract_x
_atom_site_fract_y
_atom_site_fract_z
Si Si1 0.134835 0.851631 0.943844
Si Si2 0.406146 0.253700 0.341093
Si Si3 0.994210 0.582162 0.135602
Si Si4 0.336311 0.489221 0.018664
Si Si5 0.467103 0.589851 0.315179
Si Si6 0.841695 0.343881 0.657744
O O1 0.182598 0.728764 0.909427
O O2 0.355538 0.763004 0.110483
O O3 0.014557 0.113330 0.768986
O O4 0.995658 0.792489 0.994615
O O5 0.453441 0.304220 0.224002
O O6 0.490350 0.354946 0.402014
O O7 0.162564 0.368584 0.225865
O O8 0.500000 0.000000 0.500000
O O9 0.047163 0.566146 0.276832
O O10 0.781843 0.593538 0.051042
O O11 0.500000 0.500000 0.000000
O O12 0.699760 0.527604 0.444576
O O13 0.318633 0.693946 0.314888
#
# Coordination Sequence:
#
# PCOD8009046 Si02
#       6
#     2   2   2   2   2   2
#     4   9  17  32  54  76 101 140 176 216 267 309
#     4   9  18  32  55  82 100 135 176 224 260 307
#     4   9  18  32  50  80 102 132 180 218 259 314
#     4  10  21  36  52  75 110 142 175 218 264 316
#     4   8  16  27  47  81 109 120 171 225 264 301
#     4   9  16  29  51  79 106 132 170 225 267 304
#
# _framework density 19.106708000000001
#
# number of rings (size 3 to 8) (size 9 to 14) (size 15 to 20)
#    0.000    3.667    0.000    4.000    4.667    0.000 
#    3.000    1.667    0.000    4.000    0.000    0.000 
#    0.000    0.000    0.000    0.000    0.000    0.000 
#
# Total GULP energy -148660.469223 kJ/mol
# GULP energy per Si atom -12388.372435 kJ/mol
# Density = 1.906322 g / cm^3
# Si number density = 19.106708 Si / 1000 Ang^3
#
#
#
# Elastic Constant Matrix: (Units=GPa)
#
#
# Indices 1 2 3 4 5 6 
#
# 1 74.4258 38.4309 33.5137 10.6833 2.0006 8.7872
# 2 38.4309 84.0796 46.9519 14.4830 9.0254 -2.0156
# 3 33.5137 46.9519 99.7170 -1.4485 11.6936 -0.1132
# 4 10.6833 14.4830 -1.4485 38.1679 5.3102 11.7968
# 5 2.0006 9.0254 11.6936 5.3102 13.3829 2.4803
# 6 8.7872 -2.0156 -0.1132 11.7968 2.4803 13.9238
#
#
#
# Elastic Compliance Matrix: (Units=1/GPa)
#
#
# Indices 1 2 3 4 5 6 
#
# 1 0.021759 -0.009472 -0.003937 0.001696 0.009280 -0.018226
# 2 -0.009472 0.023606 -0.007228 -0.011994 -0.007283 0.020796
# 3 -0.003937 -0.007228 0.016122 0.006617 -0.010860 -0.002102
# 4 0.001696 -0.011994 0.006617 0.043435 -0.008119 -0.038107
# 5 0.009280 -0.007283 -0.010860 -0.008119 0.094086 -0.016880
# 6 -0.018226 0.020796 -0.002102 -0.038107 -0.016880 0.121608
#
#
# Mechanical properties :
#
#
# Convention : Reuss Voigt Hill
#
# Bulk Modulus (GPa) = 49.47496 55.11281 52.29389
# Shear Modulus (GPa) = 13.56383 22.38332 17.97358
#
# Velocity S-wave (km/s) = 2.66728 3.42642 3.07040
# Velocity P-wave (km/s) = 5.95282 6.67541 6.32445
#
# Compressibility (1/GPa) = 0.02021224
#
# Stress axis : x y z
#
# Youngs Moduli (GPa) = 45.95761 42.36289 62.02652
#
# Poissons Ratio (x) = 0.40127 0.24422
# Poissons Ratio (y) = 0.43532 0.44831
# Poissons Ratio (z) = 0.18095 0.30619
#
# Static dielectric constant tensor:
#      x y z
#    x 2.903810 -0.078670 0.235730 
#    y -0.078670 3.579300 0.282480 
#    z 0.235730 0.282480 3.576420 
# 
# 
# High freq. dielectric constant tensor:
#      x y z
#    x 1.676050 -0.010920 0.025720 
#    y -0.010920 1.752700 0.015320 
#    z 0.025720 0.015320 1.734150 
# 
# From -- ./inp_files/174519.got.cif
#   From: 2010.06.25/outbox.cif.g09.slc.cpg/sg2_88_cif.got.tgz:174519.got - 2010.06.27 13:26:56.
