data_PCOD8009802
_publ_section_title
;
Structure prediction by ZEFSAII (Michael W. Deem and Ramdas Pophale) SiO2 
 PCOD8009802
Probable space group: P -1
;
_chemical_formula_sum "Si O2"
_cell_formula_units_Z 14
_cell_length_a 6.902834
_cell_length_b 21.179020
_cell_length_c 5.971944
_cell_angle_alpha 105.744603
_cell_angle_beta 83.685108
_cell_angle_gamma 130.361127
_cell_volume 637.722739
_symmetry_space_group_name_H-M "P -1"
_symmetry_group_IT_number 2
_symmetry_cell_setting 'triclinic'
loop_
_space_group_symop_operation_xyz
x,y,z
-x,-y,-z
loop_
_atom_site_type_symbol
_atom_site_label
_atom_site_fract_x
_atom_site_fract_y
_atom_site_fract_z
Si Si1 0.603220 0.857987 0.144190
Si Si2 0.625860 0.013449 0.249065
Si Si3 0.759942 0.536456 0.613793
Si Si4 0.121253 0.185185 0.214248
Si Si5 0.552869 0.251940 0.549598
Si Si6 0.088445 0.726386 0.827178
Si Si7 0.846442 0.434413 0.761849
O O1 0.608097 0.837494 0.382702
O O2 0.688009 0.950298 0.182420
O O3 0.819099 0.861224 0.004975
O O4 0.311228 0.781293 0.033955
O O5 0.878265 0.112209 0.323372
O O6 0.500000 0.000000 0.500000
O O7 0.500000 0.000000 0.000000
O O8 0.500000 0.500000 0.500000
O O9 0.684145 0.459538 0.708094
O O10 0.887529 0.625115 0.819308
O O11 0.964883 0.556041 0.430646
O O12 0.369898 0.249413 0.396131
O O13 0.067108 0.239649 0.136548
O O14 0.781973 0.262011 0.415052
O O15 0.660727 0.334995 0.770764
O O16 0.000000 0.500000 0.000000
#
# Coordination Sequence:
#
# PCOD8009802 Si02
#       7
#     2   2   2   2   2   2   2
#     4  11  24  42  68  95 128 172 223 270 339 398
#     4  12  27  47  74 102 141 181 223 280 344 405
#     4  10  21  37  61  88 125 169 214 273 330 397
#     4  11  24  42  68  95 130 171 225 272 336 404
#     4  10  23  39  63  93 126 172 218 279 333 405
#     4  10  21  41  61  90 129 168 217 275 336 398
#     4  10  21  39  59  90 128 166 218 274 334 390
#
# _framework density 21.953111
#
# number of rings (size 3 to 8) (size 9 to 14) (size 15 to 20)
#    0.000    1.429    1.429    3.000    4.000    5.714 
#    0.000    0.000    0.000    0.000    0.000    0.000 
#    0.000    0.000    0.000    0.000    0.000    0.000 
#
# Total GULP energy -173454.863118 kJ/mol
# GULP energy per Si atom -12389.633080 kJ/mol
# Density = 2.190315 g / cm^3
# Si number density = 21.953111 Si / 1000 Ang^3
#
#
#
# Elastic Constant Matrix: (Units=GPa)
#
#
# Indices 1 2 3 4 5 6 
#
# 1 127.0892 22.4709 16.2984 2.4898 -4.2417 -24.7216
# 2 22.4709 85.4972 2.9849 7.1948 -10.4708 -24.6816
# 3 16.2984 2.9849 73.8248 2.6057 -4.9462 -14.2892
# 4 2.4898 7.1948 2.6057 37.4234 -5.0755 3.1944
# 5 -4.2417 -10.4708 -4.9462 -5.0755 24.7466 4.1023
# 6 -24.7216 -24.6816 -14.2892 3.1944 4.1023 38.6098
#
#
#
# Elastic Compliance Matrix: (Units=1/GPa)
#
#
# Indices 1 2 3 4 5 6 
#
# 1 0.009135 -0.000853 -0.000984 -0.000800 0.000014 0.005004
# 2 -0.000853 0.015534 0.001889 -0.003295 0.004491 0.009879
# 3 -0.000984 0.001889 0.015065 -0.001546 0.002324 0.006034
# 4 -0.000800 -0.003295 -0.001546 0.028724 0.005063 -0.006106
# 5 0.000014 0.004491 0.002324 0.005063 0.044040 -0.001358
# 6 0.005004 0.009879 0.006034 -0.006106 -0.001358 0.038302
#
#
# Mechanical properties :
#
#
# Convention : Reuss Voigt Hill
#
# Bulk Modulus (GPa) = 25.10169 41.10218 33.10193
# Shear Modulus (GPa) = 30.49264 36.46643 33.47953
#
# Velocity S-wave (km/s) = 3.73096 4.08009 3.90942
# Velocity P-wave (km/s) = 5.47897 6.39996 5.95729
#
# Compressibility (1/GPa) = 0.03983796
#
# Stress axis : x y z
#
# Youngs Moduli (GPa) = 109.46734 64.37674 66.38019
#
# Poissons Ratio (x) = 0.05490 0.06535
# Poissons Ratio (y) = 0.09335 -0.12542
# Poissons Ratio (z) = 0.10776 -0.12164
#
# Static dielectric constant tensor:
#      x y z
#    x 4.026420 -0.108340 -0.085520 
#    y -0.108340 3.878410 0.273830 
#    z -0.085520 0.273830 3.938020 
# 
# 
# High freq. dielectric constant tensor:
#      x y z
#    x 1.870840 -0.014120 0.001420 
#    y -0.014120 1.876370 0.009430 
#    z 0.001420 0.009430 1.853010 
# 
# From -- ./inp_files/6258.got.cif
#   From: 2010.06.25/outbox.cif.g09.slc.cpg/sg2_4_cif.got.tgz:6258.got - 2010.06.27 13:26:56.
