data_PCOD8009134
_publ_section_title
;
Structure prediction by ZEFSAII (Michael W. Deem and Ramdas Pophale) SiO2 
 PCOD8009134
Probable space group: P -1
;
_chemical_formula_sum "Si O2"
_cell_formula_units_Z 14
_cell_length_a 12.265061
_cell_length_b 10.913137
_cell_length_c 8.743206
_cell_angle_alpha 138.943089
_cell_angle_beta 113.525888
_cell_angle_gamma 51.704659
_cell_volume 597.963834
_symmetry_space_group_name_H-M "P -1"
_symmetry_group_IT_number 2
_symmetry_cell_setting 'triclinic'
loop_
_space_group_symop_operation_xyz
x,y,z
-x,-y,-z
loop_
_atom_site_type_symbol
_atom_site_label
_atom_site_fract_x
_atom_site_fract_y
_atom_site_fract_z
Si Si1 0.740446 0.024370 0.825041
Si Si2 0.322048 0.156346 0.819074
Si Si3 0.914080 0.172454 0.882736
Si Si4 0.330786 0.570904 0.247975
Si Si5 0.768352 0.079712 0.233126
Si Si6 0.511129 0.256466 0.664331
Si Si7 0.207871 0.378703 0.664446
O O1 0.860816 0.054797 0.852643
O O2 0.598869 0.139651 0.755929
O O3 0.804436 0.759528 0.609394
O O4 0.704012 0.113504 0.060282
O O5 0.247475 0.104263 0.862747
O O6 0.211086 0.263257 0.718369
O O7 0.457115 0.929028 0.619814
O O8 0.367053 0.323615 0.062312
O O9 0.816625 0.276514 0.777422
O O10 0.069697 0.995986 0.751271
O O11 0.916575 0.366279 0.162537
O O12 0.453665 0.566583 0.213032
O O13 0.317838 0.683345 0.510191
O O14 0.349304 0.387734 0.743211
#
# Coordination Sequence:
#
# PCOD8009134 Si02
#       7
#     2   2   2   2   2   2   2
#     4  10  21  36  57  83 113 145 180 231 280 321
#     4   9  19  35  58  82 108 145 184 226 274 321
#     4  10  22  37  58  82 109 151 189 220 268 331
#     4   9  20  36  58  83 109 148 186 226 273 322
#     4  11  22  36  54  86 120 141 177 228 282 334
#     4   9  19  39  61  82 106 141 194 232 264 324
#     4  10  21  38  61  82 105 147 193 228 266 323
#
# _framework density 23.412787999999999
#
# number of rings (size 3 to 8) (size 9 to 14) (size 15 to 20)
#    0.000    2.286    0.000    3.429    0.000   11.429 
#    0.000    6.429    0.000   12.000    0.000    0.000 
#    0.000    0.000    0.000    0.000    0.000    0.000 
#
# Total GULP energy -173620.762149 kJ/mol
# GULP energy per Si atom -12401.483011 kJ/mol
# Density = 2.335950 g / cm^3
# Si number density = 23.412788 Si / 1000 Ang^3
#
#
#
# Elastic Constant Matrix: (Units=GPa)
#
#
# Indices 1 2 3 4 5 6 
#
# 1 100.6817 34.1265 20.2057 -12.5822 -1.0595 23.4640
# 2 34.1265 26.6219 23.1346 -1.5538 2.4331 7.5191
# 3 20.2057 23.1346 137.1171 -8.1429 13.4049 24.2544
# 4 -12.5822 -1.5538 -8.1429 28.2775 15.5683 -2.5105
# 5 -1.0595 2.4331 13.4049 15.5683 33.0367 7.4881
# 6 23.4640 7.5191 24.2544 -2.5105 7.4881 21.4226
#
#
#
# Elastic Compliance Matrix: (Units=1/GPa)
#
#
# Indices 1 2 3 4 5 6 
#
# 1 0.026136 -0.031640 0.006024 0.008179 0.002356 -0.024208
# 2 -0.031640 0.083767 -0.013503 -0.011142 -0.000885 0.019546
# 3 0.006024 -0.013503 0.011712 0.006007 -0.003397 -0.013228
# 4 0.008179 -0.011142 0.006007 0.056620 -0.029165 0.004980
# 5 0.002356 -0.000885 -0.003397 -0.029165 0.049904 -0.019285
# 6 -0.024208 0.019546 -0.013228 0.004980 -0.019285 0.088635
#
#
# Mechanical properties :
#
#
# Convention : Reuss Voigt Hill
#
# Bulk Modulus (GPa) = 23.05358 46.59493 34.82426
# Shear Modulus (GPa) = 12.21088 29.01096 20.61092
#
# Velocity S-wave (km/s) = 2.28622 3.52391 2.97025
# Velocity P-wave (km/s) = 4.10329 6.04169 5.16425
#
# Compressibility (1/GPa) = 0.04337721
#
# Stress axis : x y z
#
# Youngs Moduli (GPa) = 38.26085 11.93793 85.37989
#
# Poissons Ratio (x) = 0.37772 -0.51435
# Poissons Ratio (y) = 1.21057 1.15291
# Poissons Ratio (z) = -0.23049 0.16120
#
# Static dielectric constant tensor:
#      x y z
#    x 4.145440 0.231200 0.064660 
#    y 0.231200 3.756410 0.187990 
#    z 0.064660 0.187990 4.559280 
# 
# 
# High freq. dielectric constant tensor:
#      x y z
#    x 1.925910 0.013080 0.002110 
#    y 0.013080 1.888350 0.016170 
#    z 0.002110 0.016170 1.946620 
# 
# From -- ./inp_files/257307.got.cif
#   From: 2010.06.25/outbox.cif.g09.slc.cpg/sg2_129_cif.got.tgz:257307.got - 2010.06.27 13:26:56.
