data_PCOD8009701
_publ_section_title
;
Structure prediction by ZEFSAII (Michael W. Deem and Ramdas Pophale) SiO2 
 PCOD8009701
Probable space group: P -1
;
_chemical_formula_sum "Si O2"
_cell_formula_units_Z 16
_cell_length_a 14.474260
_cell_length_b 12.778690
_cell_length_c 16.206736
_cell_angle_alpha 155.344764
_cell_angle_beta 140.598487
_cell_angle_gamma 53.550523
_cell_volume 724.510170
_symmetry_space_group_name_H-M "P -1"
_symmetry_group_IT_number 2
_symmetry_cell_setting 'triclinic'
loop_
_space_group_symop_operation_xyz
x,y,z
-x,-y,-z
loop_
_atom_site_type_symbol
_atom_site_label
_atom_site_fract_x
_atom_site_fract_y
_atom_site_fract_z
Si Si1 0.659698 0.756699 0.313969
Si Si2 0.869377 0.555040 0.559422
Si Si3 0.358526 0.052129 0.397095
Si Si4 0.320834 0.188949 0.002814
Si Si5 0.548361 0.179206 0.463516
Si Si6 0.546105 0.079927 0.965004
Si Si7 0.980004 0.134666 0.964916
Si Si8 0.998433 0.129524 0.368843
O O1 0.671912 0.741620 0.411470
O O2 0.821146 0.748533 0.382636
O O3 0.652339 0.035117 0.474774
O O4 0.500000 0.500000 0.000000
O O5 0.970817 0.376342 0.481865
O O6 0.943048 0.835505 0.762291
O O7 0.685798 0.383580 0.286550
O O8 0.880915 0.626859 0.717716
O O9 0.405700 0.160193 0.414091
O O10 0.500000 0.000000 0.500000
O O11 0.180977 0.803691 0.093120
O O12 0.341861 0.502457 0.245943
O O13 0.414062 0.134468 0.105715
O O14 0.385928 0.108171 0.905656
O O15 0.131789 0.998491 0.740368
O O16 0.473042 0.025355 0.216982
O O17 0.029523 0.120719 0.894397
#
# Coordination Sequence:
#
# PCOD8009701 Si02
#       8
#     2   2   2   2   2   2   2   2
#     4  10  24  42  67  97 126 159 213 265 321 382
#     4  10  22  36  59  91 125 165 208 262 320 368
#     4   9  21  39  62  95 122 162 207 259 316 375
#     4  10  23  42  63  91 130 166 221 251 311 372
#     4  11  23  40  70  90 125 175 207 261 316 371
#     4  10  23  41  64  96 127 165 217 263 303 379
#     4  10  21  37  59  90 129 163 207 258 321 381
#     4  10  23  41  60  89 128 165 203 266 312 373
#
# _framework density 22.083887000000001
#
# number of rings (size 3 to 8) (size 9 to 14) (size 15 to 20)
#    0.000    2.000    0.000    1.500    8.750    9.500 
#    0.000    0.625    0.000    0.000    0.000    0.000 
#    0.000    0.000    0.000    0.000    0.000    0.000 
#
# Total GULP energy -198250.716720 kJ/mol
# GULP energy per Si atom -12390.669795 kJ/mol
# Density = 2.203362 g / cm^3
# Si number density = 22.083887 Si / 1000 Ang^3
#
#
#
# Elastic Constant Matrix: (Units=GPa)
#
#
# Indices 1 2 3 4 5 6 
#
# 1 132.8949 45.4047 61.3334 -14.6190 3.9648 -13.6149
# 2 45.4047 90.0961 42.7545 0.5303 6.5586 -15.9228
# 3 61.3334 42.7545 110.9659 -6.4028 4.1830 -4.6740
# 4 -14.6190 0.5303 -6.4028 32.2014 1.3000 0.7035
# 5 3.9648 6.5586 4.1830 1.3000 33.6331 -13.3347
# 6 -13.6149 -15.9228 -4.6740 0.7035 -13.3347 37.4933
#
#
#
# Elastic Compliance Matrix: (Units=1/GPa)
#
#
# Indices 1 2 3 4 5 6 
#
# 1 0.011529 -0.003168 -0.004830 0.004248 0.000642 0.002388
# 2 -0.003168 0.015585 -0.004194 -0.002634 -0.000072 0.004969
# 3 -0.004830 -0.004194 0.013281 0.000616 -0.001208 -0.002321
# 4 0.004248 -0.002634 0.000616 0.033230 -0.001626 -0.000701
# 5 0.000642 -0.000072 -0.001208 -0.001626 0.034828 0.012469
# 6 0.002388 0.004969 -0.002321 -0.000701 0.012469 0.033807
#
#
# Mechanical properties :
#
#
# Convention : Reuss Voigt Hill
#
# Bulk Modulus (GPa) = 62.45765 70.32689 66.39227
# Shear Modulus (GPa) = 29.07302 32.96317 31.01809
#
# Velocity S-wave (km/s) = 3.63227 3.86765 3.75181
# Velocity P-wave (km/s) = 6.77751 7.20135 6.99264
#
# Compressibility (1/GPa) = 0.01601085
#
# Stress axis : x y z
#
# Youngs Moduli (GPa) = 86.73730 64.16518 75.29617
#
# Poissons Ratio (x) = 0.20325 0.36371
# Poissons Ratio (y) = 0.27476 0.31578
# Poissons Ratio (z) = 0.41898 0.26910
#
# Static dielectric constant tensor:
#      x y z
#    x 4.374390 -0.186530 -0.102340 
#    y -0.186530 4.202400 -0.182390 
#    z -0.102340 -0.182390 3.974490 
# 
# 
# High freq. dielectric constant tensor:
#      x y z
#    x 1.872240 -0.015040 -0.010120 
#    y -0.015040 1.864450 -0.004510 
#    z -0.010120 -0.004510 1.858630 
# 
# From -- ./inp_files/574072.got.cif
#   From: 2010.06.25/outbox.cif.g09.slc.cpg/sg2_288_cif.got.tgz:574072.got - 2010.06.27 13:26:56.
