data_PCOD8009855
_publ_section_title
;
Structure prediction by ZEFSAII (Michael W. Deem and Ramdas Pophale) SiO2 
 PCOD8009855
Probable space group: P -1
;
_chemical_formula_sum "Si O2"
_cell_formula_units_Z 16
_cell_length_a 26.528500
_cell_length_b 9.919727
_cell_length_c 9.993860
_cell_angle_alpha 138.128622
_cell_angle_beta 154.348558
_cell_angle_gamma 43.582032
_cell_volume 746.937989
_symmetry_space_group_name_H-M "P -1"
_symmetry_group_IT_number 2
_symmetry_cell_setting 'triclinic'
loop_
_space_group_symop_operation_xyz
x,y,z
-x,-y,-z
loop_
_atom_site_type_symbol
_atom_site_label
_atom_site_fract_x
_atom_site_fract_y
_atom_site_fract_z
Si Si1 0.455383 0.447025 0.144116
Si Si2 0.414608 0.263586 0.175388
Si Si3 0.282413 0.267417 0.253379
Si Si4 0.731990 0.344833 0.329526
Si Si5 0.456071 0.828803 0.082753
Si Si6 0.810926 0.568725 0.119736
Si Si7 0.912503 0.985908 0.401013
Si Si8 0.010664 0.810351 0.782932
O O1 0.459026 0.269404 0.132890
O O2 0.500178 0.643878 0.452923
O O3 0.322136 0.528385 0.836025
O O4 0.532218 0.359860 0.133485
O O5 0.412890 0.032375 0.043842
O O6 0.285089 0.413757 0.978288
O O7 0.240219 0.495587 0.376756
O O8 0.417998 0.168969 0.541663
O O9 0.265324 0.287679 0.068617
O O10 0.192622 0.124813 0.986895
O O11 0.856271 0.211023 0.485860
O O12 0.642536 0.200516 0.065985
O O13 0.858259 0.334082 0.009900
O O14 0.918674 0.669521 0.506923
O O15 0.000000 0.000000 0.500000
O O16 0.985979 0.871924 0.615716
O O17 0.000000 0.000000 0.000000
#
# Coordination Sequence:
#
# PCOD8009855 Si02
#       8
#     2   2   2   2   2   2   2   2
#     4  10  23  38  57  92 129 159 195 245 314 368
#     4  11  22  37  58  89 130 161 191 251 308 368
#     4  10  21  40  64  92 122 159 202 256 303 368
#     4  11  22  39  67  90 122 162 207 251 308 368
#     4  11  21  39  65  94 121 159 210 248 301 378
#     4  10  21  37  62  86 115 159 203 246 305 357
#     4  11  25  41  62  92 124 162 210 257 310 365
#     4  10  22  42  60  86 117 157 212 257 296 357
#
# _framework density 21.420787000000001
#
# number of rings (size 3 to 8) (size 9 to 14) (size 15 to 20)
#    0.000    1.500    0.000    6.375    1.750    3.000 
#    4.500    0.000    0.000    0.000    0.000    0.000 
#    0.000    0.000    0.000    0.000    0.000    0.000 
#
# Total GULP energy -198400.711189 kJ/mol
# GULP energy per Si atom -12400.044449 kJ/mol
# Density = 2.137203 g / cm^3
# Si number density = 21.420787 Si / 1000 Ang^3
#
#
#
# Elastic Constant Matrix: (Units=GPa)
#
#
# Indices 1 2 3 4 5 6 
#
# 1 93.7571 16.2490 26.5021 -6.8978 8.1488 -7.9882
# 2 16.2490 85.1376 3.8049 -3.4567 1.1474 -6.3145
# 3 26.5021 3.8049 58.9723 2.6488 -5.3765 0.6489
# 4 -6.8978 -3.4567 2.6488 34.2248 -0.4512 3.4623
# 5 8.1488 1.1474 -5.3765 -0.4512 25.2574 -8.5194
# 6 -7.9882 -6.3145 0.6489 3.4623 -8.5194 30.5319
#
#
#
# Elastic Compliance Matrix: (Units=1/GPa)
#
#
# Indices 1 2 3 4 5 6 
#
# 1 0.013679 -0.002015 -0.006633 0.002843 -0.005163 0.001540
# 2 -0.002015 0.012299 0.000140 0.000616 0.000870 0.002186
# 3 -0.006633 0.000140 0.020646 -0.002833 0.006472 -0.000018
# 4 0.002843 0.000616 -0.002833 0.030358 -0.002046 -0.003082
# 5 -0.005163 0.000870 0.006472 -0.002046 0.046581 0.011921
# 6 0.001540 0.002186 -0.000018 -0.003082 0.011921 0.037284
#
#
# Mechanical properties :
#
#
# Convention : Reuss Voigt Hill
#
# Bulk Modulus (GPa) = 33.77415 36.77544 35.27479
# Shear Modulus (GPa) = 26.63352 30.75689 28.69520
#
# Velocity S-wave (km/s) = 3.52994 3.79336 3.66402
# Velocity P-wave (km/s) = 5.69344 6.03254 5.86544
#
# Compressibility (1/GPa) = 0.02960844
#
# Stress axis : x y z
#
# Youngs Moduli (GPa) = 73.10430 81.30431 48.43469
#
# Poissons Ratio (x) = 0.16383 0.32126
# Poissons Ratio (y) = 0.14731 -0.00676
# Poissons Ratio (z) = 0.48488 -0.01135
#
# Static dielectric constant tensor:
#      x y z
#    x 3.791740 -0.045610 0.003670 
#    y -0.045610 3.975360 -0.010190 
#    z 0.003670 -0.010190 3.825730 
# 
# 
# High freq. dielectric constant tensor:
#      x y z
#    x 1.833950 -0.007500 -0.006770 
#    y -0.007500 1.851180 -0.001880 
#    z -0.006770 -0.001880 1.835990 
# 
# From -- ./inp_files/352465.got.cif
#   From: 2010.06.25/outbox.cif.g09.slc.cpg/sg2_177_cif.got.tgz:352465.got - 2010.06.27 13:26:56.
