data_PCOD8009124
_publ_section_title
;
Structure prediction by ZEFSAII (Michael W. Deem and Ramdas Pophale) SiO2 
 PCOD8009124
Probable space group: P -1
;
_chemical_formula_sum "Si O2"
_cell_formula_units_Z 16
_cell_length_a 11.827560
_cell_length_b 7.790881
_cell_length_c 11.065512
_cell_angle_alpha 73.893255
_cell_angle_beta 129.128098
_cell_angle_gamma 93.260742
_cell_volume 750.318288
_symmetry_space_group_name_H-M "P -1"
_symmetry_group_IT_number 2
_symmetry_cell_setting 'triclinic'
loop_
_space_group_symop_operation_xyz
x,y,z
-x,-y,-z
loop_
_atom_site_type_symbol
_atom_site_label
_atom_site_fract_x
_atom_site_fract_y
_atom_site_fract_z
Si Si1 0.322097 0.992365 0.718425
Si Si2 0.189043 0.911200 0.885596
Si Si3 0.150776 0.451202 0.247489
Si Si4 0.852809 0.965591 0.641893
Si Si5 0.346242 0.688288 0.452064
Si Si6 0.536574 0.737663 0.780599
Si Si7 0.573919 0.114333 0.749409
Si Si8 0.822096 0.484258 0.020446
O O1 0.263510 0.014998 0.810401
O O2 0.183844 0.015759 0.528794
O O3 0.421059 0.792178 0.802712
O O4 0.428471 0.144322 0.733274
O O5 0.275261 0.920582 0.066201
O O6 0.194771 0.703718 0.891167
O O7 0.019133 0.998954 0.771311
O O8 0.251275 0.526836 0.401786
O O9 0.190681 0.530079 0.130304
O O10 0.174669 0.233552 0.296063
O O11 0.981821 0.533127 0.152740
O O12 0.752083 0.119460 0.620345
O O13 0.465308 0.627047 0.649741
O O14 0.432165 0.718404 0.379455
O O15 0.688746 0.627836 0.955386
O O16 0.568116 0.928202 0.707072
#
# Coordination Sequence:
#
# PCOD8009124 Si02
#       8
#     2   2   2   2   2   2   2   2
#     4   9  22  39  60  83 120 159 201 237 287 352
#     4  11  21  39  61  85 118 162 196 236 300 347
#     4  10  22  37  59  92 121 151 193 244 303 354
#     4  10  23  39  65  89 118 154 198 251 289 354
#     4  11  21  39  61  91 121 153 195 244 309 342
#     4   9  22  36  58  84 120 154 193 250 287 349
#     4  10  21  36  56  90 112 157 195 241 288 355
#     4  10  21  38  55  89 123 148 194 248 292 356
#
# _framework density 21.324283000000001
#
# number of rings (size 3 to 8) (size 9 to 14) (size 15 to 20)
#    0.750    1.250    1.250    1.875    3.500    2.500 
#    0.000    0.000    2.750    6.750    0.000    0.000 
#    0.000    0.000    0.000    0.000    0.000    0.000 
#
# Total GULP energy -198294.354473 kJ/mol
# GULP energy per Si atom -12393.397155 kJ/mol
# Density = 2.127575 g / cm^3
# Si number density = 21.324283 Si / 1000 Ang^3
#
#
#
# Elastic Constant Matrix: (Units=GPa)
#
#
# Indices 1 2 3 4 5 6 
#
# 1 78.7829 18.0154 13.5068 -2.1313 6.4575 13.9708
# 2 18.0154 53.0834 -3.1294 11.1859 10.0799 6.6040
# 3 13.5068 -3.1294 30.4960 12.2413 9.9997 4.0012
# 4 -2.1313 11.1859 12.2413 37.2648 2.5837 5.3616
# 5 6.4575 10.0799 9.9997 2.5837 33.7203 1.9083
# 6 13.9708 6.6040 4.0012 5.3616 1.9083 14.8357
#
#
#
# Elastic Compliance Matrix: (Units=1/GPa)
#
#
# Indices 1 2 3 4 5 6 
#
# 1 0.019242 -0.007740 -0.011820 0.009329 0.002277 -0.015151
# 2 -0.007740 0.027213 0.014842 -0.012354 -0.009933 -0.003085
# 3 -0.011820 0.014842 0.053604 -0.021599 -0.016413 -0.000015
# 4 0.009329 -0.012354 -0.021599 0.039559 0.005990 -0.012527
# 5 0.002277 -0.009933 -0.016413 0.005990 0.036607 -0.000169
# 6 -0.015151 -0.003085 -0.000015 -0.012527 -0.000169 0.087599
#
#
# Mechanical properties :
#
#
# Convention : Reuss Voigt Hill
#
# Bulk Modulus (GPa) = 11.03493 24.34975 17.69234
# Shear Modulus (GPa) = 16.47611 26.09546 21.28579
#
# Velocity S-wave (km/s) = 2.78267 3.50200 3.16285
# Velocity P-wave (km/s) = 3.93832 5.27215 4.65328
#
# Compressibility (1/GPa) = 0.09062136
#
# Stress axis : x y z
#
# Youngs Moduli (GPa) = 51.96914 36.74651 18.65550
#
# Poissons Ratio (x) = 0.28444 0.22051
# Poissons Ratio (y) = 0.40227 -0.27688
# Poissons Ratio (z) = 0.61428 -0.54538
#
# Static dielectric constant tensor:
#      x y z
#    x 3.705200 0.164170 0.367600 
#    y 0.164170 3.567590 0.066300 
#    z 0.367600 0.066300 3.843550 
# 
# 
# High freq. dielectric constant tensor:
#      x y z
#    x 1.821680 0.010980 0.027640 
#    y 0.010980 1.817980 0.005590 
#    z 0.027640 0.005590 1.836990 
# 
# From -- ./inp_files/414551.got.cif
#   From: 2010.06.25/outbox.cif.g09.slc.cpg/sg2_208_cif.got.tgz:414551.got - 2010.06.27 13:26:56.
