data_PCOD8009655
_publ_section_title
;
Structure prediction by ZEFSAII (Michael W. Deem and Ramdas Pophale) SiO2 
 PCOD8009655
Probable space group: P -1
;
_chemical_formula_sum "Si O2"
_cell_formula_units_Z 16
_cell_length_a 8.853594
_cell_length_b 8.112284
_cell_length_c 22.205320
_cell_angle_alpha 59.359685
_cell_angle_beta 57.128636
_cell_angle_gamma 34.320972
_cell_volume 748.875188
_symmetry_space_group_name_H-M "P -1"
_symmetry_group_IT_number 2
_symmetry_cell_setting 'triclinic'
loop_
_space_group_symop_operation_xyz
x,y,z
-x,-y,-z
loop_
_atom_site_type_symbol
_atom_site_label
_atom_site_fract_x
_atom_site_fract_y
_atom_site_fract_z
Si Si1 0.780972 0.735097 0.417817
Si Si2 0.651611 0.614391 0.583166
Si Si3 0.424534 0.758428 0.309040
Si Si4 0.285147 0.516146 0.168281
Si Si5 0.124612 0.941469 0.919337
Si Si6 0.974976 0.351565 0.080335
Si Si7 0.397249 0.802970 0.167584
Si Si8 0.014086 0.590234 0.690121
O O1 0.653636 0.683485 0.500917
O O2 0.048184 0.620039 0.408880
O O3 0.847854 0.570940 0.373083
O O4 0.558100 0.083756 0.388820
O O5 0.551129 0.478441 0.629858
O O6 0.325598 0.850978 0.244064
O O7 0.730679 0.597509 0.283459
O O8 0.176286 0.066687 0.340825
O O9 0.552006 0.266282 0.114268
O O10 0.328579 0.654217 0.180067
O O11 0.205670 0.393120 0.245484
O O12 0.037161 0.751747 0.131927
O O13 0.076527 0.795574 0.917930
O O14 0.000000 0.000000 0.000000
O O15 0.716667 0.600970 0.132510
O O16 0.237512 0.107077 0.112439
O O17 0.000000 0.500000 0.000000
#
# Coordination Sequence:
#
# PCOD8009655 Si02
#       8
#     2   2   2   2   2   2   2   2
#     4  10  22  42  67  92 123 170 216 251 303 378
#     4  10  22  42  67  92 123 170 216 251 303 378
#     4  12  25  39  61  95 128 161 204 263 321 359
#     4  10  22  40  59  82 117 160 202 241 297 373
#     4  10  21  37  59  85 112 150 197 248 302 359
#     4  10  21  37  59  85 112 150 197 248 302 359
#     4  10  22  40  59  82 117 160 202 241 297 373
#     4  12  25  39  61  95 128 161 204 263 321 359
#
# _framework density 21.365376999999999
#
# number of rings (size 3 to 8) (size 9 to 14) (size 15 to 20)
#    0.000    1.500    0.000    4.500    0.000    7.000 
#    0.000    0.000    0.000    0.000    0.000    0.000 
#    0.000    0.000    0.000    0.000    0.000    0.000 
#
# Total GULP energy -198419.065992 kJ/mol
# GULP energy per Si atom -12401.191624 kJ/mol
# Density = 2.131675 g / cm^3
# Si number density = 21.365377 Si / 1000 Ang^3
#
#
#
# Elastic Constant Matrix: (Units=GPa)
#
#
# Indices 1 2 3 4 5 6 
#
# 1 58.2566 37.9792 45.0854 1.8134 -4.4417 -1.6685
# 2 37.9792 157.4024 55.8555 7.5609 -3.7063 6.0981
# 3 45.0854 55.8555 118.0018 5.0309 -3.2532 18.2406
# 4 1.8134 7.5609 5.0309 39.0018 3.5974 1.1156
# 5 -4.4417 -3.7063 -3.2532 3.5974 23.5169 0.1263
# 6 -1.6685 6.0981 18.2406 1.1156 0.1263 27.9125
#
#
#
# Elastic Compliance Matrix: (Units=1/GPa)
#
#
# Indices 1 2 3 4 5 6 
#
# 1 0.027905 -0.003319 -0.010427 0.000130 0.003236 0.009187
# 2 -0.003319 0.008104 -0.002457 -0.001136 0.000486 -0.000320
# 3 -0.010427 -0.002457 0.015192 -0.000704 -0.000094 -0.009986
# 4 0.000130 -0.001136 -0.000704 0.026349 -0.004281 -0.000318
# 5 0.003236 0.000486 -0.000094 -0.004281 0.043852 0.000121
# 6 0.009187 -0.000320 -0.009986 -0.000318 0.000121 0.042983
#
#
# Mechanical properties :
#
#
# Convention : Reuss Voigt Hill
#
# Bulk Modulus (GPa) = 53.20369 67.94455 60.57412
# Shear Modulus (GPa) = 24.62385 31.06895 27.84640
#
# Velocity S-wave (km/s) = 3.39855 3.81750 3.61410
# Velocity P-wave (km/s) = 6.35264 7.16250 6.76969
#
# Compressibility (1/GPa) = 0.01879569
#
# Stress axis : x y z
#
# Youngs Moduli (GPa) = 35.83648 123.39427 65.82280
#
# Poissons Ratio (x) = 0.40953 0.68634
# Poissons Ratio (y) = 0.11894 0.16170
# Poissons Ratio (z) = 0.37367 0.30314
#
# Static dielectric constant tensor:
#      x y z
#    x 3.802410 -0.112570 -0.004110 
#    y -0.112570 4.418130 -0.000800 
#    z -0.004110 -0.000800 3.765300 
# 
# 
# High freq. dielectric constant tensor:
#      x y z
#    x 1.831200 -0.003290 -0.001530 
#    y -0.003290 1.861970 0.000970 
#    z -0.001530 0.000970 1.838840 
# 
# From -- ./inp_files/351973.got.cif
#   From: 2010.06.25/outbox.cif.g09.slc.cpg/sg2_176_cif.got.tgz:351973.got - 2010.06.27 13:26:56.
