data_PCOD8009988
_publ_section_title
;
Structure prediction by ZEFSAII (Michael W. Deem and Ramdas Pophale) SiO2 
 PCOD8009988
Probable space group: P -1
;
_chemical_formula_sum "Si O2"
_cell_formula_units_Z 16
_cell_length_a 22.870184
_cell_length_b 14.215978
_cell_length_c 9.725717
_cell_angle_alpha 46.053496
_cell_angle_beta 134.058740
_cell_angle_gamma 159.523975
_cell_volume 783.439753
_symmetry_space_group_name_H-M "P -1"
_symmetry_group_IT_number 2
_symmetry_cell_setting 'triclinic'
loop_
_space_group_symop_operation_xyz
x,y,z
-x,-y,-z
loop_
_atom_site_type_symbol
_atom_site_label
_atom_site_fract_x
_atom_site_fract_y
_atom_site_fract_z
Si Si1 0.202816 0.858193 0.884362
Si Si2 0.683751 0.328210 0.472560
Si Si3 0.326198 0.182038 0.507278
Si Si4 0.646947 0.772628 0.794168
Si Si5 0.913923 0.587471 0.832386
Si Si6 0.991406 0.125372 0.043263
Si Si7 0.037301 0.208940 0.723713
Si Si8 0.510329 0.709816 0.887867
O O1 0.088293 0.819744 0.791451
O O2 0.297062 0.028630 0.725492
O O3 0.102642 0.584197 0.964486
O O4 0.341026 0.009113 0.070403
O O5 0.758992 0.420146 0.654494
O O6 0.837793 0.508344 0.434407
O O7 0.653225 0.431759 0.261334
O O8 0.500000 0.000000 0.500000
O O9 0.500000 0.500000 0.500000
O O10 0.350926 0.155536 0.423507
O O11 0.161829 0.043387 0.369719
O O12 0.576266 0.780956 0.770497
O O13 0.529382 0.477506 0.902452
O O14 0.830231 0.991096 0.924156
O O15 0.907787 0.682717 0.851229
O O16 0.086104 0.279459 0.894553
O O17 0.940593 0.902373 0.196878
#
# Coordination Sequence:
#
# PCOD8009988 Si02
#       8
#     2   2   2   2   2   2   2   2
#     4  11  22  41  64  90 131 167 214 260 313 383
#     4  12  24  42  64  93 131 172 210 262 320 380
#     4  11  22  39  66  97 128 163 211 268 320 376
#     4  10  21  37  63  96 122 163 213 262 317 375
#     4  11  24  42  63  92 126 175 217 259 313 383
#     4  10  21  42  66  90 127 167 212 266 325 373
#     4  10  23  42  65  93 130 168 210 268 323 374
#     4  11  21  39  64  90 129 166 212 258 314 379
#
# _framework density 20.422757000000001
#
# number of rings (size 3 to 8) (size 9 to 14) (size 15 to 20)
#    0.000    1.250    6.250    0.000    0.000    1.500 
#    2.250    1.875    0.000    0.000    0.000    0.000 
#    0.000    0.000    0.000    0.000    0.000    0.000 
#
# Total GULP energy -198221.940258 kJ/mol
# GULP energy per Si atom -12388.871266 kJ/mol
# Density = 2.037627 g / cm^3
# Si number density = 20.422757 Si / 1000 Ang^3
#
#
#
# Elastic Constant Matrix: (Units=GPa)
#
#
# Indices 1 2 3 4 5 6 
#
# 1 81.4484 38.7614 36.8547 -0.3888 -20.4460 -6.8594
# 2 38.7614 109.6661 56.3716 3.2663 -29.8153 8.3052
# 3 36.8547 56.3716 91.6850 5.7080 -19.5481 2.0351
# 4 -0.3888 3.2663 5.7080 41.5408 7.1322 -3.0342
# 5 -20.4460 -29.8153 -19.5481 7.1322 27.0302 2.4367
# 6 -6.8594 8.3052 2.0351 -3.0342 2.4367 26.8438
#
#
#
# Elastic Compliance Matrix: (Units=1/GPa)
#
#
# Indices 1 2 3 4 5 6 
#
# 1 0.017524 -0.002568 -0.004089 0.000089 0.006995 0.004958
# 2 -0.002568 0.018140 -0.006526 -0.003680 0.014999 -0.007551
# 3 -0.004089 -0.006526 0.017383 -0.002498 0.003019 -0.000900
# 4 0.000089 -0.003680 -0.002498 0.027448 -0.013553 0.005684
# 5 0.006995 0.014999 0.003019 -0.013553 0.065543 -0.010563
# 6 0.004958 -0.007551 -0.000900 0.005684 -0.010563 0.042525
#
#
# Mechanical properties :
#
#
# Convention : Reuss Voigt Hill
#
# Bulk Modulus (GPa) = 37.48260 60.75276 49.11768
# Shear Modulus (GPa) = 22.33891 29.13707 25.73799
#
# Velocity S-wave (km/s) = 3.31089 3.78126 3.55387
# Velocity P-wave (km/s) = 5.74536 6.99114 6.39864
#
# Compressibility (1/GPa) = 0.02667905
#
# Stress axis : x y z
#
# Youngs Moduli (GPa) = 57.06382 55.12551 57.52880
#
# Poissons Ratio (x) = 0.14158 0.23526
# Poissons Ratio (y) = 0.14655 0.37546
# Poissons Ratio (z) = 0.23336 0.35978
#
# Static dielectric constant tensor:
#      x y z
#    x 3.620790 0.183810 -0.242040 
#    y 0.183810 3.791040 0.042800 
#    z -0.242040 0.042800 3.877620 
# 
# 
# High freq. dielectric constant tensor:
#      x y z
#    x 1.779240 0.018210 -0.013850 
#    y 0.018210 1.801080 0.004890 
#    z -0.013850 0.004890 1.806560 
# 
# From -- ./inp_files/257133.got.cif
#   From: 2010.06.25/outbox.cif.g09.slc.cpg/sg2_129_cif.got.tgz:257133.got - 2010.06.27 13:26:56.
