data_PCOD8009675
_publ_section_title
;
Structure prediction by ZEFSAII (Michael W. Deem and Ramdas Pophale) SiO2 
 PCOD8009675
Probable space group: P -1
;
_chemical_formula_sum "Si O2"
_cell_formula_units_Z 14
_cell_length_a 10.104695
_cell_length_b 12.157051
_cell_length_c 12.160243
_cell_angle_alpha 58.316217
_cell_angle_beta 146.967741
_cell_angle_gamma 126.133250
_cell_volume 656.039612
_symmetry_space_group_name_H-M "P -1"
_symmetry_group_IT_number 2
_symmetry_cell_setting 'triclinic'
loop_
_space_group_symop_operation_xyz
x,y,z
-x,-y,-z
loop_
_atom_site_type_symbol
_atom_site_label
_atom_site_fract_x
_atom_site_fract_y
_atom_site_fract_z
Si Si1 0.842563 0.171888 0.595392
Si Si2 0.762594 0.592881 0.009474
Si Si3 0.664568 0.332520 0.701850
Si Si4 0.572751 0.063005 0.683266
Si Si5 0.665725 0.816396 0.971686
Si Si6 0.433082 0.469576 0.639691
Si Si7 0.150825 0.636904 0.680959
O O1 0.744083 0.161550 0.656812
O O2 0.811698 0.309492 0.448169
O O3 0.695966 0.034739 0.499007
O O4 0.141961 0.184305 0.795303
O O5 0.703356 0.725170 0.942652
O O6 0.534118 0.510730 0.811725
O O7 0.781370 0.502103 0.178292
O O8 0.028512 0.630128 0.109296
O O9 0.531069 0.168165 0.688633
O O10 0.598226 0.382777 0.746845
O O11 0.540770 0.396207 0.484411
O O12 0.729966 0.971103 0.892758
O O13 0.369316 0.755159 0.839186
O O14 0.134794 0.375377 0.475992
#
# Coordination Sequence:
#
# PCOD8009675 Si02
#       7
#     2   2   2   2   2   2   2
#     4  10  21  37  59  87 123 151 188 238 296 347
#     4  11  22  36  62  90 120 150 193 243 294 343
#     4  10  22  41  60  88 114 155 203 239 286 341
#     4  10  22  37  61  90 117 151 195 241 294 346
#     4  11  22  36  58  93 122 149 190 238 299 353
#     4  10  23  40  61  83 120 157 197 242 283 342
#     4  10  23  38  57  89 122 157 190 234 295 353
#
# _framework density 21.340174999999999
#
# number of rings (size 3 to 8) (size 9 to 14) (size 15 to 20)
#    0.000    1.714    1.429    2.143    6.000    1.143 
#    0.000    2.857    0.000    5.143    0.000    0.000 
#    0.000    0.000    0.000    0.000    0.000    0.000 
#
# Total GULP energy -173529.596762 kJ/mol
# GULP energy per Si atom -12394.971197 kJ/mol
# Density = 2.129160 g / cm^3
# Si number density = 21.340175 Si / 1000 Ang^3
#
#
#
# Elastic Constant Matrix: (Units=GPa)
#
#
# Indices 1 2 3 4 5 6 
#
# 1 48.3930 53.5703 33.5868 -12.2737 4.6703 1.8286
# 2 53.5703 112.0376 55.2751 -16.1486 7.7068 -15.1020
# 3 33.5868 55.2751 136.3702 9.0428 4.7333 0.0255
# 4 -12.2737 -16.1486 9.0428 44.4422 6.3997 2.0996
# 5 4.6703 7.7068 4.7333 6.3997 31.2498 0.7918
# 6 1.8286 -15.1020 0.0255 2.0996 0.7918 25.9595
#
#
#
# Elastic Compliance Matrix: (Units=1/GPa)
#
#
# Indices 1 2 3 4 5 6 
#
# 1 0.054245 -0.025589 -0.003408 0.007624 -0.002354 -0.019249
# 2 -0.025589 0.026286 -0.004451 0.003026 -0.003033 0.016946
# 3 -0.003408 -0.004451 0.010252 -0.004703 0.001068 -0.002011
# 4 0.007624 0.003026 -0.004703 0.027684 -0.006822 -0.000803
# 5 -0.002354 -0.003033 0.001068 -0.006822 0.034389 -0.002097
# 6 -0.019249 0.016946 -0.002011 -0.000803 -0.002097 0.049867
#
#
# Mechanical properties :
#
#
# Convention : Reuss Voigt Hill
#
# Bulk Modulus (GPa) = 41.86552 64.62947 53.24749
# Shear Modulus (GPa) = 18.01289 30.62154 24.31721
#
# Velocity S-wave (km/s) = 2.90846 3.79215 3.37932
# Velocity P-wave (km/s) = 5.56234 7.03740 6.34289
#
# Compressibility (1/GPa) = 0.02388601
#
# Stress axis : x y z
#
# Youngs Moduli (GPa) = 18.43499 38.04333 97.54657
#
# Poissons Ratio (x) = 0.97350 0.33245
# Poissons Ratio (y) = 0.47174 0.43414
# Poissons Ratio (z) = 0.06283 0.16932
#
# Static dielectric constant tensor:
#      x y z
#    x 3.520110 0.269980 0.072390 
#    y 0.269980 3.955030 0.062770 
#    z 0.072390 0.062770 4.193580 
# 
# 
# High freq. dielectric constant tensor:
#      x y z
#    x 1.790600 0.020070 0.004140 
#    y 0.020070 1.840820 0.004710 
#    z 0.004140 0.004710 1.861340 
# 
# From -- ./inp_files/517742.got.cif
#   From: 2010.06.25/outbox.cif.g09.slc.cpg/sg2_259_cif.got.tgz:517742.got - 2010.06.27 13:26:56.
