data_PCOD8009420
_publ_section_title
;
Structure prediction by ZEFSAII (Michael W. Deem and Ramdas Pophale) SiO2 
 PCOD8009420
Probable space group: P -1
;
_chemical_formula_sum "Si O2"
_cell_formula_units_Z 16
_cell_length_a 8.616319
_cell_length_b 14.375078
_cell_length_c 11.935922
_cell_angle_alpha 139.558789
_cell_angle_beta 92.438847
_cell_angle_gamma 112.574424
_cell_volume 734.339401
_symmetry_space_group_name_H-M "P -1"
_symmetry_group_IT_number 2
_symmetry_cell_setting 'triclinic'
loop_
_space_group_symop_operation_xyz
x,y,z
-x,-y,-z
loop_
_atom_site_type_symbol
_atom_site_label
_atom_site_fract_x
_atom_site_fract_y
_atom_site_fract_z
Si Si1 0.371548 0.608856 0.495518
Si Si2 0.314520 0.239885 0.761061
Si Si3 0.783082 0.978355 0.874341
Si Si4 0.922553 0.182437 0.637351
Si Si5 0.917204 0.742148 0.687345
Si Si6 0.090786 0.740107 0.050560
Si Si7 0.971789 0.403937 0.634597
Si Si8 0.613922 0.495430 0.827296
O O1 0.548488 0.808350 0.741529
O O2 0.277445 0.434023 0.414206
O O3 0.205783 0.624379 0.465057
O O4 0.475765 0.580921 0.370213
O O5 0.491241 0.320425 0.749069
O O6 0.152949 0.262577 0.731370
O O7 0.215512 0.032311 0.598121
O O8 0.406993 0.355846 0.987224
O O9 0.896222 0.894058 0.790447
O O10 0.809900 0.069200 0.837880
O O11 0.883439 0.142930 0.121347
O O12 0.890413 0.278617 0.628084
O O13 0.836261 0.204463 0.768361
O O14 0.933150 0.656830 0.499278
O O15 0.143234 0.620430 0.880418
O O16 0.847600 0.593597 0.910435
#
# Coordination Sequence:
#
# PCOD8009420 Si02
#       8
#     2   2   2   2   2   2   2   2
#     4  11  23  43  66  92 135 170 208 269 322 378
#     4   9  19  34  60  95 126 167 210 273 301 382
#     4  11  24  43  72  95 120 176 216 265 320 376
#     4  10  21  36  63  94 127 169 217 252 328 379
#     4  11  25  44  67  96 128 165 225 267 309 379
#     4  10  21  42  64  89 134 168 204 265 327 379
#     4  11  24  41  63  94 134 170 207 265 323 382
#     4   9  18  35  60  88 129 165 203 258 328 357
#
# _framework density 21.78829
#
# number of rings (size 3 to 8) (size 9 to 14) (size 15 to 20)
#    0.000    1.750    2.500    1.875    7.000    0.500 
#    0.000    9.375    0.000    0.000    0.000    0.000 
#    0.000    0.000    0.000    0.000    0.000    0.000 
#
# Total GULP energy -198307.707827 kJ/mol
# GULP energy per Si atom -12394.231739 kJ/mol
# Density = 2.173870 g / cm^3
# Si number density = 21.788290 Si / 1000 Ang^3
#
#
#
# Elastic Constant Matrix: (Units=GPa)
#
#
# Indices 1 2 3 4 5 6 
#
# 1 21.3041 10.7972 22.7412 4.3416 -12.3891 -0.2470
# 2 10.7972 130.5213 64.0873 7.3191 -13.8596 -3.7169
# 3 22.7412 64.0873 116.6248 5.5079 -15.5562 5.9233
# 4 4.3416 7.3191 5.5079 42.7733 10.6207 1.0801
# 5 -12.3891 -13.8596 -15.5562 10.6207 30.5110 6.1073
# 6 -0.2470 -3.7169 5.9233 1.0801 6.1073 18.4451
#
#
#
# Elastic Compliance Matrix: (Units=1/GPa)
#
#
# Indices 1 2 3 4 5 6 
#
# 1 0.081883 0.003785 -0.012344 -0.015991 0.035223 -0.004903
# 2 0.003785 0.011106 -0.006435 -0.002401 0.003466 0.003348
# 3 -0.012344 -0.006435 0.014950 0.000379 0.000871 -0.006574
# 4 -0.015991 -0.002401 0.000379 0.029868 -0.018500 0.003557
# 5 0.035223 0.003466 0.000871 -0.018500 0.059054 -0.017580
# 6 -0.004903 0.003348 -0.006574 0.003557 -0.017580 0.062548
#
#
# Mechanical properties :
#
#
# Convention : Reuss Voigt Hill
#
# Bulk Modulus (GPa) = 12.82874 51.52240 32.17557
# Shear Modulus (GPa) = 15.85375 29.73416 22.79396
#
# Velocity S-wave (km/s) = 2.70038 3.69817 3.23794
# Velocity P-wave (km/s) = 3.95265 6.47561 5.36456
#
# Compressibility (1/GPa) = 0.07794997
#
# Stress axis : x y z
#
# Youngs Moduli (GPa) = 12.21252 90.03758 66.88955
#
# Poissons Ratio (x) = -0.34076 0.82569
# Poissons Ratio (y) = -0.04622 0.43047
# Poissons Ratio (z) = 0.15075 0.57943
#
# Static dielectric constant tensor:
#      x y z
#    x 3.553450 0.065490 -0.071950 
#    y 0.065490 3.914160 -0.143550 
#    z -0.071950 -0.143550 4.546310 
# 
# 
# High freq. dielectric constant tensor:
#      x y z
#    x 1.815130 0.002520 -0.005300 
#    y 0.002520 1.858880 0.001970 
#    z -0.005300 0.001970 1.882400 
# 
# From -- ./inp_files/379608.got.cif
#   From: 2010.06.25/outbox.cif.g09.slc.cpg/sg2_190_cif.got.tgz:379608.got - 2010.06.27 13:26:56.
