data_PCOD8009170
_publ_section_title
;
Structure prediction by ZEFSAII (Michael W. Deem and Ramdas Pophale) SiO2 
 PCOD8009170
Probable space group: P -1
;
_chemical_formula_sum "Si O2"
_cell_formula_units_Z 12
_cell_length_a 14.093607
_cell_length_b 8.619099
_cell_length_c 10.006491
_cell_angle_alpha 84.485326
_cell_angle_beta 84.158463
_cell_angle_gamma 149.994435
_cell_volume 561.714577
_symmetry_space_group_name_H-M "P -1"
_symmetry_group_IT_number 2
_symmetry_cell_setting 'triclinic'
loop_
_space_group_symop_operation_xyz
x,y,z
-x,-y,-z
loop_
_atom_site_type_symbol
_atom_site_label
_atom_site_fract_x
_atom_site_fract_y
_atom_site_fract_z
Si Si1 0.110418 0.437053 0.897670
Si Si2 0.727694 0.271419 0.431630
Si Si3 0.705199 0.973795 0.076503
Si Si4 0.179070 0.372817 0.398620
Si Si5 0.573033 0.754235 0.391593
Si Si6 0.345634 0.634142 0.066367
O O1 0.175448 0.505398 0.730631
O O2 0.205140 0.727152 0.926999
O O3 0.195536 0.414610 0.976687
O O4 0.863364 0.096034 0.960865
O O5 0.850555 0.506193 0.526520
O O6 0.500000 0.000000 0.500000
O O7 0.732106 0.088790 0.429255
O O8 0.673226 0.839032 0.233034
O O9 0.489545 0.686767 0.051449
O O10 0.390065 0.603473 0.394174
O O11 0.194521 0.430246 0.233728
O O12 0.000000 0.000000 0.500000
O O13 0.500000 0.500000 0.500000
O O14 0.500000 0.000000 0.000000
#
# Coordination Sequence:
#
# PCOD8009170 Si02
#       6
#     2   2   2   2   2   2
#     4   9  16  30  58  77 105 146 191 227 279 337
#     4   9  18  36  59  83 110 152 190 229 283 347
#     4   8  16  29  50  82 107 141 186 230 277 336
#     4  10  21  36  58  83 117 145 191 241 282 337
#     4   9  18  33  58  79 113 151 183 229 289 340
#     4   9  17  32  56  80 105 153 188 229 286 340
#
# _framework density 21.363164999999999
#
# number of rings (size 3 to 8) (size 9 to 14) (size 15 to 20)
#    0.000    3.000    0.000    3.000    2.333    0.000 
#    0.000    1.667   11.000    2.000    0.000    0.000 
#    0.000    0.000    0.000    0.000    0.000    0.000 
#
# Total GULP energy -148662.280133 kJ/mol
# GULP energy per Si atom -12388.523344 kJ/mol
# Density = 2.131454 g / cm^3
# Si number density = 21.363165 Si / 1000 Ang^3
#
#
#
# Elastic Constant Matrix: (Units=GPa)
#
#
# Indices 1 2 3 4 5 6 
#
# 1 67.8693 18.3866 53.6585 -1.1632 5.4575 14.3968
# 2 18.3866 60.7624 44.9928 -9.7051 -0.5759 -2.1705
# 3 53.6585 44.9928 180.2140 -26.5648 -1.1333 4.8395
# 4 -1.1632 -9.7051 -26.5648 27.5329 1.4320 2.0496
# 5 5.4575 -0.5759 -1.1333 1.4320 33.2243 -12.4737
# 6 14.3968 -2.1705 4.8395 2.0496 -12.4737 31.0183
#
#
#
# Elastic Compliance Matrix: (Units=1/GPa)
#
#
# Indices 1 2 3 4 5 6 
#
# 1 0.024974 -0.003883 -0.006949 -0.005463 -0.009520 -0.014246
# 2 -0.003883 0.021111 -0.003755 0.003178 0.002487 0.004655
# 3 -0.006949 -0.003755 0.009621 0.007453 0.001704 0.001654
# 4 -0.005463 0.003178 0.007453 0.044620 -0.001442 -0.001933
# 5 -0.009520 0.002487 0.001704 -0.001442 0.039440 0.020282
# 6 -0.014246 0.004655 0.001654 -0.001933 0.020282 0.047203
#
#
# Mechanical properties :
#
#
# Convention : Reuss Voigt Hill
#
# Bulk Modulus (GPa) = 37.69268 60.32462 49.00865
# Shear Modulus (GPa) = 22.22354 31.14229 26.68291
#
# Velocity S-wave (km/s) = 3.22883 3.82220 3.53797
# Velocity P-wave (km/s) = 5.61983 6.91216 6.29922
#
# Compressibility (1/GPa) = 0.02653035
#
# Stress axis : x y z
#
# Youngs Moduli (GPa) = 40.04154 47.36925 103.94443
#
# Poissons Ratio (x) = 0.18394 0.72232
# Poissons Ratio (y) = 0.15549 0.39034
# Poissons Ratio (z) = 0.27825 0.17788
#
# Static dielectric constant tensor:
#      x y z
#    x 3.507230 -0.250580 0.314790 
#    y -0.250580 2.812370 0.755530 
#    z 0.314790 0.755530 3.798510 
# 
# 
# High freq. dielectric constant tensor:
#      x y z
#    x 1.811220 0.013070 -0.000510 
#    y 0.013070 1.814330 -0.017710 
#    z -0.000510 -0.017710 1.849880 
# 
# From -- ./inp_files/147758.got.cif
#   From: 2010.06.25/outbox.cif.g09.slc.cpg/sg2_74_cif.got.tgz:147758.got - 2010.06.27 13:26:56.
