data_PCOD8009332
_publ_section_title
;
Structure prediction by ZEFSAII (Michael W. Deem and Ramdas Pophale) SiO2 
 PCOD8009332
Probable space group: P -1
;
_chemical_formula_sum "Si O2"
_cell_formula_units_Z 16
_cell_length_a 12.541443
_cell_length_b 15.132290
_cell_length_c 12.770531
_cell_angle_alpha 57.352940
_cell_angle_beta 101.989786
_cell_angle_gamma 151.240404
_cell_volume 742.279661
_symmetry_space_group_name_H-M "P -1"
_symmetry_group_IT_number 2
_symmetry_cell_setting 'triclinic'
loop_
_space_group_symop_operation_xyz
x,y,z
-x,-y,-z
loop_
_atom_site_type_symbol
_atom_site_label
_atom_site_fract_x
_atom_site_fract_y
_atom_site_fract_z
Si Si1 0.285236 0.161938 0.380021
Si Si2 0.361710 0.105226 0.788856
Si Si3 0.176747 0.450322 0.864202
Si Si4 0.223048 0.603481 0.990331
Si Si5 0.975592 0.667324 0.663442
Si Si6 0.269958 0.225209 0.563209
Si Si7 0.181922 0.661243 0.592537
Si Si8 0.577339 0.106547 0.719692
O O1 0.154988 0.934030 0.533088
O O2 0.053492 0.013001 0.352426
O O3 0.581948 0.415746 0.212368
O O4 0.366644 0.299890 0.413418
O O5 0.690565 0.425889 0.686019
O O6 0.243209 0.088936 0.698997
O O7 0.338456 0.973615 0.804690
O O8 0.138017 0.890488 0.978311
O O9 0.260900 0.561483 0.926619
O O10 0.166191 0.539404 0.728499
O O11 0.527005 0.940487 0.849555
O O12 0.151648 0.471478 0.160572
O O13 0.000000 0.500000 0.000000
O O14 0.205407 0.783060 0.596167
O O15 0.500000 0.500000 0.500000
O O16 0.439543 0.893824 0.409669
O O17 0.885085 0.418168 0.626177
#
# Coordination Sequence:
#
# PCOD8009332 Si02
#       8
#     2   2   2   2   2   2   2   2
#     4  11  26  44  73  98 127 166 225 275 326 391
#     4  11  22  41  68  90 132 172 219 270 334 381
#     4  12  24  39  62 101 132 171 207 270 321 390
#     4  12  22  35  59  93 140 176 211 250 315 386
#     4  11  22  41  63  95 130 182 217 258 321 393
#     4  11  24  50  74  95 121 168 224 280 337 385
#     4  10  21  36  61  90 135 166 221 254 310 391
#     4  10  21  37  57  93 126 179 210 262 313 388
#
# _framework density 21.555216000000001
#
# number of rings (size 3 to 8) (size 9 to 14) (size 15 to 20)
#    0.000    1.000    3.750    3.000    1.750    3.500 
#    4.500    0.625    0.000    0.000    0.000    0.000 
#    0.000    0.000    0.000    0.000    0.000    0.000 
#
# Total GULP energy -198391.117774 kJ/mol
# GULP energy per Si atom -12399.444861 kJ/mol
# Density = 2.150616 g / cm^3
# Si number density = 21.555216 Si / 1000 Ang^3
#
#
#
# Elastic Constant Matrix: (Units=GPa)
#
#
# Indices 1 2 3 4 5 6 
#
# 1 89.5460 27.8775 22.7923 8.2078 -26.4281 4.6280
# 2 27.8775 83.9250 13.6987 13.0966 -13.5264 -9.1207
# 3 22.7923 13.6987 105.1338 13.3599 -25.3756 -1.1918
# 4 8.2078 13.0966 13.3599 32.0896 2.4791 9.9039
# 5 -26.4281 -13.5264 -25.3756 2.4791 38.2617 1.4019
# 6 4.6280 -9.1207 -1.1918 9.9039 1.4019 34.9311
#
#
#
# Elastic Compliance Matrix: (Units=1/GPa)
#
#
# Indices 1 2 3 4 5 6 
#
# 1 0.015493 -0.003500 -0.000357 -0.002281 0.009475 -0.002712
# 2 -0.003500 0.015582 0.000781 -0.008163 0.003892 0.006717
# 3 -0.000357 0.000781 0.012462 -0.006779 0.008652 0.002251
# 4 -0.002281 -0.008163 -0.006779 0.043031 -0.011240 -0.013810
# 5 0.009475 0.003892 0.008652 -0.011240 0.040463 0.001619
# 6 -0.002712 0.006717 0.002251 -0.013810 0.001619 0.034668
#
#
# Mechanical properties :
#
#
# Convention : Reuss Voigt Hill
#
# Bulk Modulus (GPa) = 26.74758 45.26019 36.00389
# Shear Modulus (GPa) = 27.72959 35.33889 31.53424
#
# Velocity S-wave (km/s) = 3.59060 4.05342 3.82900
# Velocity P-wave (km/s) = 5.44294 6.55361 6.02393
#
# Compressibility (1/GPa) = 0.03738655
#
# Stress axis : x y z
#
# Youngs Moduli (GPa) = 64.54326 64.17824 80.24077
#
# Poissons Ratio (x) = 0.22463 0.02864
# Poissons Ratio (y) = 0.22590 -0.06270
# Poissons Ratio (z) = 0.02303 -0.05015
#
# Static dielectric constant tensor:
#      x y z
#    x 4.143260 -0.147410 -0.012060 
#    y -0.147410 4.069250 -0.126710 
#    z -0.012060 -0.126710 4.361550 
# 
# 
# High freq. dielectric constant tensor:
#      x y z
#    x 1.836400 -0.002000 -0.003360 
#    y -0.002000 1.865340 -0.003550 
#    z -0.003360 -0.003550 1.850670 
# 
# From -- ./inp_files/206267.got.cif
#   From: 2010.06.25/outbox.cif.g09.slc.cpg/sg2_104_cif.got.tgz:206267.got - 2010.06.27 13:26:56.
