data_PCOD8009987
_publ_section_title
;
Structure prediction by ZEFSAII (Michael W. Deem and Ramdas Pophale) SiO2 
 PCOD8009987
Probable space group: P -1
;
_chemical_formula_sum "Si O2"
_cell_formula_units_Z 14
_cell_length_a 9.415275
_cell_length_b 9.352465
_cell_length_c 11.162514
_cell_angle_alpha 102.513668
_cell_angle_beta 69.678191
_cell_angle_gamma 135.929995
_cell_volume 640.294516
_symmetry_space_group_name_H-M "P -1"
_symmetry_group_IT_number 2
_symmetry_cell_setting 'triclinic'
loop_
_space_group_symop_operation_xyz
x,y,z
-x,-y,-z
loop_
_atom_site_type_symbol
_atom_site_label
_atom_site_fract_x
_atom_site_fract_y
_atom_site_fract_z
Si Si1 0.413000 0.394328 0.174266
Si Si2 0.591804 0.224597 0.025758
Si Si3 0.923219 0.798761 0.336822
Si Si4 0.751317 0.366990 0.269983
Si Si5 0.328792 0.198742 0.408961
Si Si6 0.895326 0.592593 0.854411
Si Si7 0.888014 0.807825 0.081242
O O1 0.411624 0.231762 0.081612
O O2 0.399314 0.362924 0.315752
O O3 0.212451 0.353821 0.183606
O O4 0.628580 0.629146 0.119732
O O5 0.721106 0.334314 0.130569
O O6 0.738978 0.350722 0.888425
O O7 0.500000 0.000000 0.000000
O O8 0.881213 0.599561 0.306963
O O9 0.723398 0.747374 0.445739
O O10 0.965240 0.889140 0.208171
O O11 0.130579 0.965329 0.385904
O O12 0.524798 0.219133 0.378207
O O13 0.896257 0.327331 0.261557
O O14 0.964000 0.704705 0.984505
O O15 0.000000 0.000000 0.000000
#
# Coordination Sequence:
#
# PCOD8009987 Si02
#       7
#     2   2   2   2   2   2   2
#     4  10  22  43  63  96 135 176 215 268 328 388
#     4  10  21  37  63  95 135 171 218 269 317 391
#     4  11  22  42  70  95 123 176 226 271 315 393
#     4  11  23  38  63  96 129 167 217 271 318 386
#     4  10  23  43  70  92 126 171 233 267 319 381
#     4  11  23  38  58  99 139 166 209 268 342 388
#     4  11  22  39  66  96 132 173 215 266 331 390
#
# _framework density 21.864939
#
# number of rings (size 3 to 8) (size 9 to 14) (size 15 to 20)
#    0.000    1.429    4.286    3.429    4.000    3.429 
#    0.000    0.714    0.000    2.571    0.000    0.000 
#    0.000    0.000    0.000    0.000    0.000    0.000 
#
# Total GULP energy -173503.157043 kJ/mol
# GULP energy per Si atom -12393.082646 kJ/mol
# Density = 2.181517 g / cm^3
# Si number density = 21.864939 Si / 1000 Ang^3
#
#
#
# Elastic Constant Matrix: (Units=GPa)
#
#
# Indices 1 2 3 4 5 6 
#
# 1 149.5958 39.3615 46.3504 7.2808 -45.4847 0.5748
# 2 39.3615 117.0980 40.9854 5.2150 -12.2833 -9.0437
# 3 46.3504 40.9854 108.5257 4.9279 -23.1876 4.1546
# 4 7.2808 5.2150 4.9279 32.8189 5.7379 -5.6203
# 5 -45.4847 -12.2833 -23.1876 5.7379 33.6797 -4.8973
# 6 0.5748 -9.0437 4.1546 -5.6203 -4.8973 12.4941
#
#
#
# Elastic Compliance Matrix: (Units=1/GPa)
#
#
# Indices 1 2 3 4 5 6 
#
# 1 0.013030 -0.001699 -0.001068 -0.004987 0.017551 0.003162
# 2 -0.001699 0.011246 -0.003838 0.000801 0.000490 0.010047
# 3 -0.001068 -0.003838 0.012673 -0.003076 0.005510 -0.006167
# 4 -0.004987 0.000801 -0.003076 0.036414 -0.012849 0.013176
# 5 0.017551 0.000490 0.005510 -0.012849 0.061912 0.016202
# 6 0.003162 0.010047 -0.006167 0.013176 0.016202 0.101493
#
#
# Mechanical properties :
#
#
# Convention : Reuss Voigt Hill
#
# Bulk Modulus (GPa) = 42.12408 69.84600 55.98504
# Shear Modulus (GPa) = 19.38822 32.36669 25.87746
#
# Velocity S-wave (km/s) = 2.98103 3.85164 3.44396
# Velocity P-wave (km/s) = 5.58176 7.19679 6.44011
#
# Compressibility (1/GPa) = 0.02373939
#
# Stress axis : x y z
#
# Youngs Moduli (GPa) = 76.74874 88.92265 78.90792
#
# Poissons Ratio (x) = 0.15104 0.08427
# Poissons Ratio (y) = 0.13036 0.30284
# Poissons Ratio (z) = 0.08196 0.34128
#
# Static dielectric constant tensor:
#      x y z
#    x 3.996200 0.044160 -0.368940 
#    y 0.044160 4.338410 0.244070 
#    z -0.368940 0.244070 4.374330 
# 
# 
# High freq. dielectric constant tensor:
#      x y z
#    x 1.843650 0.013430 -0.022010 
#    y 0.013430 1.866880 0.002990 
#    z -0.022010 0.002990 1.846530 
# 
# From -- ./inp_files/379490.got.cif
#   From: 2010.06.25/outbox.cif.g09.slc.cpg/sg2_190_cif.got.tgz:379490.got - 2010.06.27 13:26:56.
