data_PCOD8009098
_publ_section_title
;
Structure prediction by ZEFSAII (Michael W. Deem and Ramdas Pophale) SiO2 
 PCOD8009098
Probable space group: P -1
;
_chemical_formula_sum "Si O2"
_cell_formula_units_Z 16
_cell_length_a 5.200394
_cell_length_b 12.219607
_cell_length_c 17.396815
_cell_angle_alpha 54.106502
_cell_angle_beta 56.747144
_cell_angle_gamma 75.465454
_cell_volume 744.871847
_symmetry_space_group_name_H-M "P -1"
_symmetry_group_IT_number 2
_symmetry_cell_setting 'triclinic'
loop_
_space_group_symop_operation_xyz
x,y,z
-x,-y,-z
loop_
_atom_site_type_symbol
_atom_site_label
_atom_site_fract_x
_atom_site_fract_y
_atom_site_fract_z
Si Si1 0.665904 0.375749 0.556056
Si Si2 0.833596 0.341402 0.266448
Si Si3 0.964905 0.075782 0.297460
Si Si4 0.086105 0.918354 0.946349
Si Si5 0.529350 0.928589 0.311576
Si Si6 0.682314 0.517484 0.645561
Si Si7 0.551673 0.512575 0.835686
Si Si8 0.645091 0.773738 0.960599
O O1 0.500000 0.500000 0.500000
O O2 0.490123 0.233720 0.617713
O O3 0.654914 0.389240 0.645179
O O4 0.015480 0.381921 0.466151
O O5 0.613074 0.392979 0.348763
O O6 0.695963 0.382221 0.189273
O O7 0.829857 0.177459 0.339322
O O8 0.182016 0.411002 0.187492
O O9 0.134567 0.178036 0.165446
O O10 0.192704 0.981409 0.340196
O O11 0.688489 0.979909 0.343633
O O12 0.298782 0.806440 0.987107
O O13 0.777999 0.844479 0.988213
O O14 0.267437 0.021639 0.815150
O O15 0.000000 0.000000 0.000000
O O16 0.699944 0.460007 0.753354
O O17 0.373501 0.388289 0.962144
#
# Coordination Sequence:
#
# PCOD8009098 Si02
#       8
#     2   2   2   2   2   2   2   2
#     4  11  23  43  68  90 125 155 206 265 312 373
#     4  10  21  40  63  90 130 162 206 255 305 353
#     4  10  22  43  61  91 131 164 206 251 294 382
#     4  10  21  36  55  86 125 165 204 251 294 371
#     4  10  24  40  64  91 120 168 203 247 323 360
#     4   9  24  39  62  97 120 157 202 265 308 366
#     4  10  21  37  62  93 121 162 205 252 307 353
#     4  10  21  36  57  89 127 162 209 245 300 361
#
# _framework density 21.480208000000001
#
# number of rings (size 3 to 8) (size 9 to 14) (size 15 to 20)
#    0.750    1.250    0.000    2.625    5.250    2.000 
#    0.000    1.250    0.000    0.000    0.000    0.000 
#    0.000    0.000    0.000    0.000    0.000    0.000 
#
# Total GULP energy -198374.265431 kJ/mol
# GULP energy per Si atom -12398.391589 kJ/mol
# Density = 2.143132 g / cm^3
# Si number density = 21.480208 Si / 1000 Ang^3
#
#
#
# Elastic Constant Matrix: (Units=GPa)
#
#
# Indices 1 2 3 4 5 6 
#
# 1 144.2999 38.7931 28.7804 -18.4834 -13.0838 3.2185
# 2 38.7931 107.5041 36.2713 -26.8062 -15.2600 0.6101
# 3 28.7804 36.2713 39.2827 -20.3193 -5.7590 -0.4788
# 4 -18.4834 -26.8062 -20.3193 35.5479 3.1058 -1.0028
# 5 -13.0838 -15.2600 -5.7590 3.1058 19.3340 -10.2285
# 6 3.2185 0.6101 -0.4788 -1.0028 -10.2285 34.5373
#
#
#
# Elastic Compliance Matrix: (Units=1/GPa)
#
#
# Indices 1 2 3 4 5 6 
#
# 1 0.008488 -0.000788 -0.004429 0.000963 0.003817 0.000320
# 2 -0.000788 0.015386 -0.009696 0.004911 0.009288 0.002561
# 3 -0.004429 -0.009696 0.046732 0.017011 0.001720 0.002235
# 4 0.000963 0.004911 0.017011 0.041761 0.004220 0.002522
# 5 0.003817 0.009288 0.001720 0.004220 0.072657 0.021145
# 6 0.000320 0.002561 0.002235 0.002522 0.021145 0.035246
#
#
# Mechanical properties :
#
#
# Convention : Reuss Voigt Hill
#
# Bulk Modulus (GPa) = 24.52217 55.41958 39.97088
# Shear Modulus (GPa) = 18.96167 30.36664 24.66415
#
# Velocity S-wave (km/s) = 2.97434 3.76400 3.39223
# Velocity P-wave (km/s) = 4.82043 6.68929 5.83023
#
# Compressibility (1/GPa) = 0.04077942
#
# Stress axis : x y z
#
# Youngs Moduli (GPa) = 117.81933 64.99259 21.39849
#
# Poissons Ratio (x) = 0.05124 0.09478
# Poissons Ratio (y) = 0.09289 0.20748
# Poissons Ratio (z) = 0.52183 0.63016
#
# Static dielectric constant tensor:
#      x y z
#    x 4.198930 -0.019660 -0.071860 
#    y -0.019660 3.856280 0.104880 
#    z -0.071860 0.104880 3.564740 
# 
# 
# High freq. dielectric constant tensor:
#      x y z
#    x 1.858690 0.003360 -0.004780 
#    y 0.003360 1.840520 0.001480 
#    z -0.004780 0.001480 1.820080 
# 
# From -- ./inp_files/549402.got.cif
#   From: 2010.06.25/outbox.cif.g09.slc.cpg/sg2_275_cif.got.tgz:549402.got - 2010.06.27 13:26:56.
