data_PCOD8009832
_publ_section_title
;
Structure prediction by ZEFSAII (Michael W. Deem and Ramdas Pophale) SiO2 
 PCOD8009832
Probable space group: P -1
;
_chemical_formula_sum "Si O2"
_cell_formula_units_Z 16
_cell_length_a 15.396451
_cell_length_b 13.020616
_cell_length_c 21.670862
_cell_angle_alpha 151.727572
_cell_angle_beta 156.440091
_cell_angle_gamma 27.398534
_cell_volume 744.386695
_symmetry_space_group_name_H-M "P -1"
_symmetry_group_IT_number 2
_symmetry_cell_setting 'triclinic'
loop_
_space_group_symop_operation_xyz
x,y,z
-x,-y,-z
loop_
_atom_site_type_symbol
_atom_site_label
_atom_site_fract_x
_atom_site_fract_y
_atom_site_fract_z
Si Si1 0.934055 0.250781 0.167202
Si Si2 0.666266 0.898502 0.171440
Si Si3 0.680987 0.462703 0.873545
Si Si4 0.201231 0.143974 0.081844
Si Si5 0.544564 0.089253 0.641227
Si Si6 0.927474 0.505176 0.710612
Si Si7 0.300668 0.658621 0.631279
Si Si8 0.092114 0.373605 0.557611
O O1 0.903183 0.375637 0.145904
O O2 0.832944 0.454480 0.260788
O O3 0.219667 0.113149 0.284525
O O4 0.805133 0.075256 0.998116
O O5 0.889304 0.758657 0.287921
O O6 0.427947 0.046709 0.133750
O O7 0.728230 0.081469 0.268776
O O8 0.629911 0.717695 0.004654
O O9 0.557466 0.342345 0.774690
O O10 0.563834 0.503272 0.750262
O O11 0.963413 0.279511 0.956506
O O12 0.220569 0.334222 0.243341
O O13 0.329882 0.130214 0.570884
O O14 0.500000 0.000000 0.500000
O O15 0.739494 0.482252 0.527793
O O16 0.101663 0.698102 0.574608
O O17 0.000000 0.500000 0.500000
#
# Coordination Sequence:
#
# PCOD8009832 Si02
#       8
#     2   2   2   2   2   2   2   2
#     4  10  21  37  61  94 122 160 208 256 312 368
#     4  11  24  43  63  88 128 173 210 249 307 373
#     4  10  22  41  62  94 126 157 208 263 304 374
#     4  10  23  40  66  89 127 170 202 254 320 365
#     4  11  19  34  60  92 126 157 195 257 316 365
#     4  10  23  43  61  91 127 162 216 258 299 372
#     4  11  23  41  66  92 126 165 209 260 307 369
#     4  11  20  36  61  93 127 159 198 257 321 368
#
# _framework density 21.494205000000001
#
# number of rings (size 3 to 8) (size 9 to 14) (size 15 to 20)
#    0.000    1.500    2.500    2.625    0.000    3.500 
#    0.000    8.750    0.000    0.000    0.000    0.000 
#    0.000    0.000    0.000    0.000    0.000    0.000 
#
# Total GULP energy -198396.710899 kJ/mol
# GULP energy per Si atom -12399.794431 kJ/mol
# Density = 2.144528 g / cm^3
# Si number density = 21.494205 Si / 1000 Ang^3
#
#
#
# Elastic Constant Matrix: (Units=GPa)
#
#
# Indices 1 2 3 4 5 6 
#
# 1 85.8982 47.8306 40.1614 7.8654 -3.0128 -14.0486
# 2 47.8306 92.8837 35.0715 11.9431 -7.9682 -0.8197
# 3 40.1614 35.0715 105.0162 9.4366 -9.2109 -0.1138
# 4 7.8654 11.9431 9.4366 31.9045 13.8092 -2.3435
# 5 -3.0128 -7.9682 -9.2109 13.8092 28.0657 3.4253
# 6 -14.0486 -0.8197 -0.1138 -2.3435 3.4253 44.9722
#
#
#
# Elastic Compliance Matrix: (Units=1/GPa)
#
#
# Indices 1 2 3 4 5 6 
#
# 1 0.019583 -0.008696 -0.005099 0.002058 -0.003827 0.006345
# 2 -0.008696 0.017268 -0.001078 -0.007617 0.007777 -0.003394
# 3 -0.005099 -0.001078 0.012801 -0.004910 0.006044 -0.002296
# 4 0.002058 -0.007617 -0.004910 0.047413 -0.027499 0.005057
# 5 -0.003827 0.007777 0.006044 -0.027499 0.053743 -0.006565
# 6 0.006345 -0.003394 -0.002296 0.005057 -0.006565 0.024914
#
#
# Mechanical properties :
#
#
# Convention : Reuss Voigt Hill
#
# Bulk Modulus (GPa) = 50.23627 58.88058 54.55843
# Shear Modulus (GPa) = 23.57345 31.70412 27.63878
#
# Velocity S-wave (km/s) = 3.31529 3.84475 3.58980
# Velocity P-wave (km/s) = 6.17071 6.86751 6.52841
#
# Compressibility (1/GPa) = 0.01990594
#
# Stress axis : x y z
#
# Youngs Moduli (GPa) = 51.06571 57.91104 78.11766
#
# Poissons Ratio (x) = 0.50359 0.39829
# Poissons Ratio (y) = 0.44406 0.08424
# Poissons Ratio (z) = 0.26036 0.06245
#
# Static dielectric constant tensor:
#      x y z
#    x 3.967970 0.019570 0.023590 
#    y 0.019570 4.124900 0.042260 
#    z 0.023590 0.042260 4.014200 
# 
# 
# High freq. dielectric constant tensor:
#      x y z
#    x 1.833610 0.004740 -0.008490 
#    y 0.004740 1.853540 0.006460 
#    z -0.008490 0.006460 1.844130 
# 
# From -- ./inp_files/597887.got.cif
#   From: 2010.06.25/outbox.cif.g09.slc.cpg/sg2_299_cif.got.tgz:597887.got - 2010.06.27 13:26:56.
