data_PCOD8009301
_publ_section_title
;
Structure prediction by ZEFSAII (Michael W. Deem and Ramdas Pophale) SiO2 
 PCOD8009301
Probable space group: P -1
;
_chemical_formula_sum "Si O2"
_cell_formula_units_Z 16
_cell_length_a 10.999873
_cell_length_b 12.537905
_cell_length_c 13.557053
_cell_angle_alpha 36.243365
_cell_angle_beta 85.604455
_cell_angle_gamma 113.278882
_cell_volume 696.122934
_symmetry_space_group_name_H-M "P -1"
_symmetry_group_IT_number 2
_symmetry_cell_setting 'triclinic'
loop_
_space_group_symop_operation_xyz
x,y,z
-x,-y,-z
loop_
_atom_site_type_symbol
_atom_site_label
_atom_site_fract_x
_atom_site_fract_y
_atom_site_fract_z
Si Si1 0.198246 0.255733 0.048067
Si Si2 0.972573 0.123765 0.831437
Si Si3 0.747450 0.092472 0.427085
Si Si4 0.626218 0.250639 0.663837
Si Si5 0.898742 0.711677 0.768664
Si Si6 0.566284 0.500531 0.851633
Si Si7 0.443195 0.202009 0.890395
Si Si8 0.560609 0.167907 0.506030
O O1 0.100554 0.263974 0.131662
O O2 0.033407 0.967395 0.210321
O O3 0.342873 0.266896 0.076281
O O4 0.326597 0.527376 0.766325
O O5 0.142922 0.465745 0.571179
O O6 0.774702 0.991489 0.971110
O O7 0.000000 0.000000 0.000000
O O8 0.672309 0.803457 0.650730
O O9 0.651481 0.087382 0.342777
O O10 0.686522 0.133458 0.498004
O O11 0.981915 0.336985 0.224296
O O12 0.530182 0.154688 0.634024
O O13 0.560633 0.989794 0.908939
O O14 0.547560 0.316919 0.692054
O O15 0.677544 0.457836 0.928842
O O16 0.000000 0.000000 0.500000
O O17 0.561340 0.471677 0.754278
#
# Coordination Sequence:
#
# PCOD8009301 Si02
#       8
#     2   2   2   2   2   2   2   2
#     4  10  21  38  62  91 129 165 214 265 319 389
#     4  11  23  43  69  98 129 175 217 268 328 387
#     4   9  21  38  63  91 124 163 211 263 312 389
#     4  11  24  45  68  94 132 175 216 269 329 385
#     4  10  21  36  60  95 120 165 215 263 322 376
#     4   9  20  41  62  89 125 166 209 260 322 381
#     4  10  25  44  66 100 131 169 221 272 321 390
#     4  10  21  42  61  90 130 170 207 262 333 377
#
# _framework density 22.984445999999998
#
# number of rings (size 3 to 8) (size 9 to 14) (size 15 to 20)
#    0.000    2.000    1.250    0.750    3.500    9.000 
#    4.500    0.000    0.000    0.000    0.000    0.000 
#    0.000    0.000    0.000    0.000    0.000    0.000 
#
# Total GULP energy -198318.975626 kJ/mol
# GULP energy per Si atom -12394.935977 kJ/mol
# Density = 2.293213 g / cm^3
# Si number density = 22.984446 Si / 1000 Ang^3
#
#
#
# Elastic Constant Matrix: (Units=GPa)
#
#
# Indices 1 2 3 4 5 6 
#
# 1 112.5706 35.4547 13.9774 14.1354 -29.8827 2.8592
# 2 35.4547 115.6874 30.1031 17.7920 -14.6210 -4.6964
# 3 13.9774 30.1031 47.8430 12.4029 -8.5593 5.5066
# 4 14.1354 17.7920 12.4029 41.7579 -3.0924 -3.1057
# 5 -29.8827 -14.6210 -8.5593 -3.0924 32.8464 0.3454
# 6 2.8592 -4.6964 5.5066 -3.1057 0.3454 33.0624
#
#
#
# Elastic Compliance Matrix: (Units=1/GPa)
#
#
# Indices 1 2 3 4 5 6 
#
# 1 0.012734 -0.002381 0.000603 -0.002845 0.010435 -0.001916
# 2 -0.002381 0.011534 -0.006144 -0.002000 0.001150 0.002668
# 3 0.000603 -0.006144 0.027641 -0.005917 0.004523 -0.006132
# 4 -0.002845 -0.002000 -0.005917 0.027603 -0.002459 0.003566
# 5 0.010435 0.001150 0.004523 -0.002459 0.041420 -0.002156
# 6 -0.001916 0.002668 -0.006132 0.003566 -0.002156 0.032169
#
#
# Mechanical properties :
#
#
# Convention : Reuss Voigt Hill
#
# Bulk Modulus (GPa) = 27.72901 48.35236 38.04069
# Shear Modulus (GPa) = 27.62932 34.63773 31.13353
#
# Velocity S-wave (km/s) = 3.47087 3.88623 3.68441
# Velocity P-wave (km/s) = 5.30595 6.42026 5.88952
#
# Compressibility (1/GPa) = 0.03606331
#
# Stress axis : x y z
#
# Youngs Moduli (GPa) = 78.52830 86.70233 36.17874
#
# Poissons Ratio (x) = 0.20643 -0.02180
# Poissons Ratio (y) = 0.18697 0.22229
# Poissons Ratio (z) = -0.04733 0.53273
#
# Static dielectric constant tensor:
#      x y z
#    x 4.486090 -0.105860 -0.514790 
#    y -0.105860 4.883280 0.135710 
#    z -0.514790 0.135710 4.130540 
# 
# 
# High freq. dielectric constant tensor:
#      x y z
#    x 1.917680 0.002520 -0.008810 
#    y 0.002520 1.911540 0.001750 
#    z -0.008810 0.001750 1.885460 
# 
# From -- ./inp_files/427577.got.cif
#   From: 2010.06.25/outbox.cif.g09.slc.cpg/sg2_214_cif.got.tgz:427577.got - 2010.06.27 13:26:56.
