data_PCOD8009467
_publ_section_title
;
Structure prediction by ZEFSAII (Michael W. Deem and Ramdas Pophale) SiO2 
 PCOD8009467
Probable space group: P -1
;
_chemical_formula_sum "Si O2"
_cell_formula_units_Z 16
_cell_length_a 11.665290
_cell_length_b 24.079122
_cell_length_c 18.134459
_cell_angle_alpha 160.101714
_cell_angle_beta 36.244263
_cell_angle_gamma 153.885810
_cell_volume 738.397310
_symmetry_space_group_name_H-M "P -1"
_symmetry_group_IT_number 2
_symmetry_cell_setting 'triclinic'
loop_
_space_group_symop_operation_xyz
x,y,z
-x,-y,-z
loop_
_atom_site_type_symbol
_atom_site_label
_atom_site_fract_x
_atom_site_fract_y
_atom_site_fract_z
Si Si1 0.114026 0.549789 0.218734
Si Si2 0.721181 0.060476 0.041114
Si Si3 0.963562 0.163336 0.198875
Si Si4 0.825905 0.092484 0.866410
Si Si5 0.493647 0.989720 0.653166
Si Si6 0.354925 0.544712 0.581475
Si Si7 0.760398 0.415445 0.967546
Si Si8 0.957171 0.865463 0.426036
O O1 0.380640 0.764327 0.389654
O O2 0.169562 0.607583 0.177451
O O3 0.876403 0.531463 0.339861
O O4 0.030506 0.316317 0.989528
O O5 0.569959 0.807346 0.779876
O O6 0.884852 0.188102 0.039519
O O7 0.491201 0.060865 0.179385
O O8 0.935015 0.166759 0.129373
O O9 0.685504 0.073582 0.261895
O O10 0.225954 0.409563 0.402040
O O11 0.000000 0.000000 0.000000
O O12 0.900498 0.947841 0.629178
O O13 0.500751 0.160878 0.813629
O O14 0.787439 0.104175 0.666702
O O15 0.500000 0.500000 0.500000
O O16 0.000000 0.500000 0.000000
O O17 0.715793 0.587868 0.203823
O O18 0.000000 0.000000 0.500000
#
# Coordination Sequence:
#
# PCOD8009467 Si02
#       8
#     2   2   2   2   2   2   2   2
#     4  10  21  42  61  87 130 165 210 265 323 381
#     4  10  22  42  65  92 134 168 218 274 316 398
#     4  11  22  40  64  96 130 167 215 268 334 383
#     4  10  22  41  67  92 129 179 213 261 335 385
#     4  10  24  40  62  97 127 164 212 271 318 384
#     4  10  21  36  65  92 125 170 213 268 329 381
#     4  10  22  38  64  92 121 165 209 261 324 380
#     4  11  21  40  66  93 126 170 216 260 320 389
#
# _framework density 21.668551000000001
#
# number of rings (size 3 to 8) (size 9 to 14) (size 15 to 20)
#    0.000    1.750    2.500    1.125    5.250    3.500 
#    2.250   11.250    0.000    0.000    0.000    0.000 
#    0.000    0.000    0.000    0.000    0.000    0.000 
#
# Total GULP energy -198261.850939 kJ/mol
# GULP energy per Si atom -12391.365684 kJ/mol
# Density = 2.161923 g / cm^3
# Si number density = 21.668551 Si / 1000 Ang^3
#
#
#
# Elastic Constant Matrix: (Units=GPa)
#
#
# Indices 1 2 3 4 5 6 
#
# 1 112.9458 22.5223 28.8604 -9.4998 6.3421 -7.3117
# 2 22.5223 41.3368 15.3643 2.5205 5.1828 -8.8828
# 3 28.8604 15.3643 109.4227 -4.9147 -1.4431 8.0092
# 4 -9.4998 2.5205 -4.9147 31.3784 -5.0983 -0.1868
# 5 6.3421 5.1828 -1.4431 -5.0983 37.9422 -4.5696
# 6 -7.3117 -8.8828 8.0092 -0.1868 -4.5696 31.4354
#
#
#
# Elastic Compliance Matrix: (Units=1/GPa)
#
#
# Indices 1 2 3 4 5 6 
#
# 1 0.010778 -0.004852 -0.002142 0.003231 -0.000592 0.001615
# 2 -0.004852 0.030722 -0.003891 -0.005025 -0.003240 0.008043
# 3 -0.002142 -0.003891 0.010633 0.001466 0.000991 -0.004154
# 4 0.003231 -0.005025 0.001466 0.034257 0.004788 -0.000142
# 5 -0.000592 -0.003240 0.000991 0.004788 0.027913 0.002780
# 6 0.001615 0.008043 -0.004154 -0.000142 0.002780 0.035922
#
#
# Mechanical properties :
#
#
# Convention : Reuss Voigt Hill
#
# Bulk Modulus (GPa) = 32.93511 44.13324 38.53417
# Shear Modulus (GPa) = 27.45464 33.28175 30.36820
#
# Velocity S-wave (km/s) = 3.56339 3.92337 3.74771
# Velocity P-wave (km/s) = 5.67123 6.39808 6.04559
#
# Compressibility (1/GPa) = 0.03036274
#
# Stress axis : x y z
#
# Youngs Moduli (GPa) = 92.77918 32.54947 94.04431
#
# Poissons Ratio (x) = 0.15793 0.20148
# Poissons Ratio (y) = 0.45017 0.36595
# Poissons Ratio (z) = 0.19877 0.12666
#
# Static dielectric constant tensor:
#      x y z
#    x 3.684710 -0.285510 -0.277270 
#    y -0.285510 3.871740 0.317960 
#    z -0.277270 0.317960 4.598380 
# 
# 
# High freq. dielectric constant tensor:
#      x y z
#    x 1.843470 -0.015910 -0.004380 
#    y -0.015910 1.842100 -0.000210 
#    z -0.004380 -0.000210 1.865910 
# 
# From -- ./inp_files/474791.got.cif
#   From: 2010.06.25/outbox.cif.g09.slc.cpg/sg2_238_cif.got.tgz:474791.got - 2010.06.27 13:26:56.
