data_PCOD8009354
_publ_section_title
;
Structure prediction by ZEFSAII (Michael W. Deem and Ramdas Pophale) SiO2 
 PCOD8009354
Probable space group: P -1
;
_chemical_formula_sum "Si O2"
_cell_formula_units_Z 16
_cell_length_a 15.301284
_cell_length_b 11.277159
_cell_length_c 15.803352
_cell_angle_alpha 60.560508
_cell_angle_beta 37.055198
_cell_angle_gamma 31.760684
_cell_volume 698.542704
_symmetry_space_group_name_H-M "P -1"
_symmetry_group_IT_number 2
_symmetry_cell_setting 'triclinic'
loop_
_space_group_symop_operation_xyz
x,y,z
-x,-y,-z
loop_
_atom_site_type_symbol
_atom_site_label
_atom_site_fract_x
_atom_site_fract_y
_atom_site_fract_z
Si Si1 0.318819 0.186060 0.381730
Si Si2 0.229214 0.998623 0.821828
Si Si3 0.840610 0.973140 0.407497
Si Si4 0.098258 0.932963 0.352379
Si Si5 0.622718 0.927091 0.057589
Si Si6 0.095388 0.899800 0.827803
Si Si7 0.657456 0.646860 0.008230
Si Si8 0.795190 0.384257 0.299809
O O1 0.000000 0.500000 0.500000
O O2 0.473655 0.160930 0.336218
O O3 0.246780 0.108240 0.515001
O O4 0.513331 0.001661 0.212130
O O5 0.298263 0.824065 0.760851
O O6 0.157086 0.975294 0.971392
O O7 0.980529 0.312498 0.875284
O O8 0.038252 0.878298 0.212470
O O9 0.522940 0.306253 0.535181
O O10 0.032008 0.840520 0.391791
O O11 0.442512 0.692880 0.167986
O O12 0.000000 0.000000 0.500000
O O13 0.914528 0.195285 0.350512
O O14 0.609394 0.788957 0.074168
O O15 0.966743 0.690871 0.874180
O O16 0.410722 0.210927 0.074310
O O17 0.265953 0.647058 0.729381
#
# Coordination Sequence:
#
# PCOD8009354 Si02
#       8
#     2   2   2   2   2   2   2   2
#     4  12  28  47  66  98 133 176 223 278 340 396
#     4  11  25  45  72  95 131 187 218 272 333 407
#     4  11  25  43  70 101 134 181 217 282 333 390
#     4  10  21  36  62 107 138 165 214 277 331 384
#     4  10  22  45  66  98 135 172 224 280 326 393
#     4  10  23  43  67 101 133 170 228 265 329 399
#     4  10  23  40  70 100 128 178 224 271 331 394
#     4  10  21  43  70  97 136 175 224 273 330 396
#
# _framework density 22.904827999999998
#
# number of rings (size 3 to 8) (size 9 to 14) (size 15 to 20)
#    0.000    1.500    1.250    3.000    7.000    3.500 
#    9.000    2.500    0.000    0.000    0.000    0.000 
#    0.000    0.000    0.000    0.000    0.000    0.000 
#
# Total GULP energy -198274.348019 kJ/mol
# GULP energy per Si atom -12392.146751 kJ/mol
# Density = 2.285270 g / cm^3
# Si number density = 22.904828 Si / 1000 Ang^3
#
#
#
# Elastic Constant Matrix: (Units=GPa)
#
#
# Indices 1 2 3 4 5 6 
#
# 1 130.6860 48.7520 33.5975 -3.8058 -32.7151 6.2201
# 2 48.7520 52.8617 39.4747 -6.3615 -5.6133 0.0136
# 3 33.5975 39.4747 68.1389 -6.8548 -28.9834 -0.6690
# 4 -3.8058 -6.3615 -6.8548 39.2176 -4.6138 -8.2744
# 5 -32.7151 -5.6133 -28.9834 -4.6138 50.0622 -5.6433
# 6 6.2201 0.0136 -0.6690 -8.2744 -5.6433 26.2395
#
#
#
# Elastic Compliance Matrix: (Units=1/GPa)
#
#
# Indices 1 2 3 4 5 6 
#
# 1 0.016816 -0.021897 0.010987 0.001798 0.015074 0.000114
# 2 -0.021897 0.066269 -0.041342 -0.003078 -0.031508 -0.003645
# 3 0.010987 -0.041342 0.047614 0.008111 0.031762 0.008020
# 4 0.001798 -0.003078 0.008111 0.030111 0.009579 0.011338
# 5 0.015074 -0.031508 0.031762 0.009579 0.046728 0.010323
# 6 0.000114 -0.003645 0.008020 0.011338 0.010323 0.044085
#
#
# Mechanical properties :
#
#
# Convention : Reuss Voigt Hill
#
# Bulk Modulus (GPa) = 38.17383 55.03721 46.60552
# Shear Modulus (GPa) = 13.70395 31.76135 22.73265
#
# Velocity S-wave (km/s) = 2.44867 3.72784 3.15379
# Velocity P-wave (km/s) = 4.96962 6.52762 5.80116
#
# Compressibility (1/GPa) = 0.02619596
#
# Stress axis : x y z
#
# Youngs Moduli (GPa) = 59.46707 15.09006 21.00214
#
# Poissons Ratio (x) = 0.33042 -0.23076
# Poissons Ratio (y) = 1.30212 0.86828
# Poissons Ratio (z) = -0.65339 0.62386
#
# Static dielectric constant tensor:
#      x y z
#    x 5.211160 -0.259210 0.170370 
#    y -0.259210 3.923160 -0.223790 
#    z 0.170370 -0.223790 4.211440 
# 
# 
# High freq. dielectric constant tensor:
#      x y z
#    x 1.921510 0.000760 -0.012490 
#    y 0.000760 1.895230 -0.022400 
#    z -0.012490 -0.022400 1.903290 
# 
# From -- ./inp_files/532462.got.cif
#   From: 2010.06.25/outbox.cif.g09.slc.cpg/sg2_267_cif.got.tgz:532462.got - 2010.06.27 13:26:56.
