data_PCOD8009360
_publ_section_title
;
Structure prediction by ZEFSAII (Michael W. Deem and Ramdas Pophale) SiO2 
 PCOD8009360
Probable space group: P -1
;
_chemical_formula_sum "Si O2"
_cell_formula_units_Z 16
_cell_length_a 11.594164
_cell_length_b 10.167827
_cell_length_c 15.538497
_cell_angle_alpha 134.647387
_cell_angle_beta 38.769953
_cell_angle_gamma 111.251840
_cell_volume 742.015986
_symmetry_space_group_name_H-M "P -1"
_symmetry_group_IT_number 2
_symmetry_cell_setting 'triclinic'
loop_
_space_group_symop_operation_xyz
x,y,z
-x,-y,-z
loop_
_atom_site_type_symbol
_atom_site_label
_atom_site_fract_x
_atom_site_fract_y
_atom_site_fract_z
Si Si1 0.982830 0.388192 0.086834
Si Si2 0.696294 0.036666 0.875036
Si Si3 0.089310 0.967432 0.079523
Si Si4 0.684132 0.169564 0.498807
Si Si5 0.783268 0.710317 0.925500
Si Si6 0.618294 0.266659 0.854088
Si Si7 0.105139 0.700232 0.420248
Si Si8 0.283409 0.253712 0.691769
O O1 0.808789 0.614166 0.279226
O O2 0.115698 0.396001 0.093647
O O3 0.118330 0.317938 0.891618
O O4 0.877009 0.231686 0.088003
O O5 0.784757 0.102025 0.936932
O O6 0.869433 0.828112 0.639488
O O7 0.648316 0.217216 0.916025
O O8 0.500000 0.000000 0.000000
O O9 0.155103 0.110578 0.050322
O O10 0.852292 0.090646 0.291211
O O11 0.742898 0.306144 0.594001
O O12 0.472656 0.299028 0.634036
O O13 0.658521 0.980938 0.474612
O O14 0.855382 0.533297 0.729090
O O15 0.538562 0.824478 0.129398
O O16 0.835181 0.190614 0.645218
O O17 0.500000 0.500000 0.000000
#
# Coordination Sequence:
#
# PCOD8009360 Si02
#       8
#     2   2   2   2   2   2   2   2
#     4  10  21  36  62  84 119 160 204 250 306 366
#     4  11  22  42  64  90 124 162 206 259 314 370
#     4  10  22  40  59  85 119 166 203 253 307 372
#     4   9  19  37  61  86 120 153 206 253 305 362
#     4  11  22  40  58  89 129 161 205 251 315 367
#     4  10  22  39  61  93 124 163 204 253 311 367
#     4  10  23  38  65  93 125 162 206 259 311 369
#     4   9  19  38  60  89 113 157 205 256 300 362
#
# _framework density 21.562875999999999
#
# number of rings (size 3 to 8) (size 9 to 14) (size 15 to 20)
#    0.000    2.000    1.250    1.500    0.000   13.000 
#    2.250    0.625    0.000    0.000    0.000    0.000 
#    0.000    0.000    0.000    0.000    0.000    0.000 
#
# Total GULP energy -198290.304123 kJ/mol
# GULP energy per Si atom -12393.144008 kJ/mol
# Density = 2.151380 g / cm^3
# Si number density = 21.562876 Si / 1000 Ang^3
#
#
#
# Elastic Constant Matrix: (Units=GPa)
#
#
# Indices 1 2 3 4 5 6 
#
# 1 100.7017 15.3491 13.8302 8.6849 -12.0136 -6.6812
# 2 15.3491 79.0744 12.4990 -12.0979 -14.6022 0.9803
# 3 13.8302 12.4990 53.5965 -7.9161 -11.3603 9.4921
# 4 8.6849 -12.0979 -7.9161 29.6263 6.5988 -3.8735
# 5 -12.0136 -14.6022 -11.3603 6.5988 33.6958 1.0603
# 6 -6.6812 0.9803 9.4921 -3.8735 1.0603 42.7231
#
#
#
# Elastic Compliance Matrix: (Units=1/GPa)
#
#
# Indices 1 2 3 4 5 6 
#
# 1 0.011652 -0.002053 -0.002996 -0.005529 0.003276 0.001952
# 2 -0.002053 0.014846 -0.001239 0.005391 0.004228 -0.000003
# 3 -0.002996 -0.001239 0.022405 0.004523 0.005224 -0.005138
# 4 -0.005529 0.005391 0.004523 0.040375 -0.006074 0.001818
# 5 0.003276 0.004228 0.005224 -0.006074 0.035697 -0.002182
# 6 0.001952 -0.000003 -0.005138 0.001818 -0.002182 0.025072
#
#
# Mechanical properties :
#
#
# Convention : Reuss Voigt Hill
#
# Bulk Modulus (GPa) = 27.52837 35.19214 31.36025
# Shear Modulus (GPa) = 28.61479 33.98867 31.30173
#
# Velocity S-wave (km/s) = 3.64681 3.97452 3.81418
# Velocity P-wave (km/s) = 5.52508 6.11707 5.82860
#
# Compressibility (1/GPa) = 0.03632616
#
# Stress axis : x y z
#
# Youngs Moduli (GPa) = 85.82269 67.35614 44.63203
#
# Poissons Ratio (x) = 0.13831 0.13371
# Poissons Ratio (y) = 0.17623 0.05532
# Poissons Ratio (z) = 0.25712 0.08349
#
# Static dielectric constant tensor:
#      x y z
#    x 4.102580 0.238850 -0.294280 
#    y 0.238850 4.179660 -0.185020 
#    z -0.294280 -0.185020 3.975320 
# 
# 
# High freq. dielectric constant tensor:
#      x y z
#    x 1.855830 0.008690 -0.016060 
#    y 0.008690 1.845270 -0.004360 
#    z -0.016060 -0.004360 1.825340 
# 
# From -- ./inp_files/321007.got.cif
#   From: 2010.06.25/outbox.cif.g09.slc.cpg/sg2_161_cif.got.tgz:321007.got - 2010.06.27 13:26:56.
