data_PCOD8009551
_publ_section_title
;
Structure prediction by ZEFSAII (Michael W. Deem and Ramdas Pophale) SiO2 
 PCOD8009551
Probable space group: P -1
;
_chemical_formula_sum "Si O2"
_cell_formula_units_Z 14
_cell_length_a 6.829503
_cell_length_b 7.085884
_cell_length_c 24.783396
_cell_angle_alpha 121.084987
_cell_angle_beta 42.377678
_cell_angle_gamma 115.758723
_cell_volume 689.351085
_symmetry_space_group_name_H-M "P -1"
_symmetry_group_IT_number 2
_symmetry_cell_setting 'triclinic'
loop_
_space_group_symop_operation_xyz
x,y,z
-x,-y,-z
loop_
_atom_site_type_symbol
_atom_site_label
_atom_site_fract_x
_atom_site_fract_y
_atom_site_fract_z
Si Si1 0.719423 0.488715 0.831568
Si Si2 0.749776 0.258637 0.682555
Si Si3 0.668775 0.437784 0.234279
Si Si4 0.665398 0.194919 0.093720
Si Si5 0.325997 0.307536 0.971263
Si Si6 0.241216 0.249188 0.378234
Si Si7 0.818237 0.549143 0.464312
O O1 0.839209 0.395496 0.738187
O O2 0.573353 0.715387 0.883967
O O3 0.474640 0.316508 0.883319
O O4 0.984173 0.532823 0.826021
O O5 0.447426 0.334351 0.730903
O O6 0.002658 0.297891 0.592889
O O7 0.718678 0.007023 0.670098
O O8 0.584265 0.241485 0.179574
O O9 0.527749 0.377029 0.312182
O O10 0.650684 0.936035 0.044752
O O11 0.981186 0.330829 0.038557
O O12 0.500000 0.500000 0.000000
O O13 0.198125 0.314234 0.457849
O O14 0.963304 0.318799 0.410733
O O15 0.500000 0.500000 0.500000
#
# Coordination Sequence:
#
# PCOD8009551 Si02
#       7
#     2   2   2   2   2   2   2
#     4  11  22  39  61  85 116 157 192 239 300 345
#     4  10  22  37  58  84 116 149 194 239 284 354
#     4  10  21  39  57  85 118 150 193 241 287 346
#     4  10  23  41  59  87 122 150 197 249 285 350
#     4  11  22  41  62  87 118 155 197 243 295 350
#     4  10  21  37  57  84 115 152 188 239 291 337
#     4  10  21  37  57  83 116 148 192 238 286 345
#
# _framework density 20.308954
#
# number of rings (size 3 to 8) (size 9 to 14) (size 15 to 20)
#    0.000    1.714    1.429    2.571    0.000    3.429 
#    2.571    0.000    0.000    0.000    0.000    0.000 
#    0.000    0.000    0.000    0.000    0.000    0.000 
#
# Total GULP energy -173587.513984 kJ/mol
# GULP energy per Si atom -12399.108142 kJ/mol
# Density = 2.026273 g / cm^3
# Si number density = 20.308954 Si / 1000 Ang^3
#
#
#
# Elastic Constant Matrix: (Units=GPa)
#
#
# Indices 1 2 3 4 5 6 
#
# 1 109.3670 49.4640 29.7357 2.5680 -23.8214 -5.3153
# 2 49.4640 113.7398 28.7127 15.0406 -12.0816 -7.5066
# 3 29.7357 28.7127 91.9394 -9.9528 -7.3080 0.1461
# 4 2.5680 15.0406 -9.9528 35.6231 -10.5265 -0.5205
# 5 -23.8214 -12.0816 -7.3080 -10.5265 33.9586 2.2202
# 6 -5.3153 -7.5066 0.1461 -0.5205 2.2202 23.1527
#
#
#
# Elastic Compliance Matrix: (Units=1/GPa)
#
#
# Indices 1 2 3 4 5 6 
#
# 1 0.013667 -0.004930 -0.001893 0.003036 0.008314 0.000822
# 2 -0.004930 0.012578 -0.003169 -0.006336 -0.001826 0.002999
# 3 -0.001893 -0.003169 0.013300 0.005855 0.002329 -0.001638
# 4 0.003036 -0.006336 0.005855 0.035786 0.012344 -0.001774
# 5 0.008314 -0.001826 0.002329 0.012344 0.039099 -0.002170
# 6 0.000822 0.002999 -0.001638 -0.001774 -0.002170 0.044531
#
#
# Mechanical properties :
#
#
# Convention : Reuss Voigt Hill
#
# Bulk Modulus (GPa) = 51.12112 58.98566 55.05339
# Shear Modulus (GPa) = 26.95907 32.35581 29.65744
#
# Velocity S-wave (km/s) = 3.64737 3.99580 3.82555
# Velocity P-wave (km/s) = 6.55470 7.09899 6.83227
#
# Compressibility (1/GPa) = 0.01956139
#
# Stress axis : x y z
#
# Youngs Moduli (GPa) = 73.16728 79.50370 75.18705
#
# Poissons Ratio (x) = 0.39196 0.14229
# Poissons Ratio (y) = 0.36073 0.23830
# Poissons Ratio (z) = 0.13847 0.25198
#
# Static dielectric constant tensor:
#      x y z
#    x 3.572210 -0.269550 -0.079490 
#    y -0.269550 3.488370 -0.040110 
#    z -0.079490 -0.040110 3.945260 
# 
# 
# High freq. dielectric constant tensor:
#      x y z
#    x 1.789680 -0.019860 -0.000150 
#    y -0.019860 1.779010 -0.003350 
#    z -0.000150 -0.003350 1.818930 
# 
# From -- ./inp_files/6693.got.cif
#   From: 2010.06.25/outbox.cif.g09.slc.cpg/sg2_4_cif.got.tgz:6693.got - 2010.06.27 13:26:56.
