data_PCOD8009918
_publ_section_title
;
Structure prediction by ZEFSAII (Michael W. Deem and Ramdas Pophale) SiO2 
 PCOD8009918
Probable space group: P -1
;
_chemical_formula_sum "Si O2"
_cell_formula_units_Z 16
_cell_length_a 18.525418
_cell_length_b 9.252475
_cell_length_c 12.977457
_cell_angle_alpha 54.342919
_cell_angle_beta 44.860481
_cell_angle_gamma 29.291831
_cell_volume 763.659071
_symmetry_space_group_name_H-M "P -1"
_symmetry_group_IT_number 2
_symmetry_cell_setting 'triclinic'
loop_
_space_group_symop_operation_xyz
x,y,z
-x,-y,-z
loop_
_atom_site_type_symbol
_atom_site_label
_atom_site_fract_x
_atom_site_fract_y
_atom_site_fract_z
Si Si1 0.911485 0.583163 0.821118
Si Si2 0.532149 0.043719 0.058944
Si Si3 0.021123 0.286579 0.621908
Si Si4 0.640489 0.323791 0.551380
Si Si5 0.989180 0.152819 0.039936
Si Si6 0.606068 0.617022 0.291867
Si Si7 0.783833 0.305581 0.824748
Si Si8 0.136498 0.959973 0.354358
O O1 0.968918 0.706207 0.689702
O O2 0.943765 0.411519 0.761880
O O3 0.008356 0.335484 0.914291
O O4 0.716429 0.874320 0.932277
O O5 0.400290 0.382047 0.077219
O O6 0.517160 0.924093 0.218611
O O7 0.500000 0.000000 0.000000
O O8 0.000000 0.500000 0.500000
O O9 0.906123 0.300984 0.674311
O O10 0.219488 0.954055 0.554547
O O11 0.578586 0.597516 0.448302
O O12 0.476809 0.421231 0.681392
O O13 0.720823 0.232122 0.620882
O O14 0.806528 0.362130 0.184391
O O15 0.133538 0.926890 0.072519
O O16 0.000000 0.000000 0.000000
O O17 0.763695 0.218334 0.778196
O O18 0.000000 0.000000 0.500000
#
# Coordination Sequence:
#
# PCOD8009918 Si02
#       8
#     2   2   2   2   2   2   2   2
#     4  11  23  38  66  93 125 168 213 261 317 377
#     4  11  21  38  63  93 123 161 214 272 310 367
#     4  12  19  36  63  95 118 160 223 255 302 374
#     4  11  21  37  63  91 129 169 209 264 317 370
#     4  11  20  40  65  96 126 160 217 271 312 368
#     4  10  21  37  62  95 122 162 216 269 309 363
#     4  12  23  39  64  94 129 169 204 264 321 381
#     4  12  24  41  60  93 135 170 205 259 328 387
#
# _framework density 20.951758999999999
#
# number of rings (size 3 to 8) (size 9 to 14) (size 15 to 20)
#    0.000    0.750    6.250    2.250    0.000    1.000 
#    0.000    0.625    0.000    6.000    0.000    0.000 
#    0.000    0.000    0.000    0.000    0.000    0.000 
#
# Total GULP energy -198284.211056 kJ/mol
# GULP energy per Si atom -12392.763191 kJ/mol
# Density = 2.090407 g / cm^3
# Si number density = 20.951759 Si / 1000 Ang^3
#
#
#
# Elastic Constant Matrix: (Units=GPa)
#
#
# Indices 1 2 3 4 5 6 
#
# 1 90.4795 51.1276 41.5623 -15.9376 24.9573 1.2731
# 2 51.1276 131.7243 57.2360 -21.2758 16.4898 -9.5093
# 3 41.5623 57.2360 93.3190 -29.2911 8.7905 -2.7549
# 4 -15.9376 -21.2758 -29.2911 47.0721 6.1745 4.1451
# 5 24.9573 16.4898 8.7905 6.1745 38.5075 -3.7561
# 6 1.2731 -9.5093 -2.7549 4.1451 -3.7561 29.4844
#
#
#
# Elastic Compliance Matrix: (Units=1/GPa)
#
#
# Indices 1 2 3 4 5 6 
#
# 1 0.018727 -0.003964 -0.003791 0.003969 -0.010636 -0.004354
# 2 -0.003964 0.011821 -0.005057 0.000715 -0.001135 0.003266
# 3 -0.003791 -0.005057 0.018017 0.007841 -0.000845 -0.000994
# 4 0.003969 0.000715 0.007841 0.029487 -0.009846 -0.004608
# 5 -0.010636 -0.001135 -0.000845 -0.009846 0.035700 0.005946
# 6 -0.004354 0.003266 -0.000994 -0.004608 0.005946 0.036470
#
#
# Mechanical properties :
#
#
# Convention : Reuss Voigt Hill
#
# Bulk Modulus (GPa) = 43.58661 68.37492 55.98077
# Shear Modulus (GPa) = 27.24913 34.05260 30.65086
#
# Velocity S-wave (km/s) = 3.61025 4.03586 3.82897
# Velocity P-wave (km/s) = 6.18280 7.37718 6.80624
#
# Compressibility (1/GPa) = 0.02294282
#
# Stress axis : x y z
#
# Youngs Moduli (GPa) = 53.39796 84.59726 55.50303
#
# Poissons Ratio (x) = 0.33531 0.21039
# Poissons Ratio (y) = 0.21165 0.28068
# Poissons Ratio (z) = 0.20241 0.42780
#
# Static dielectric constant tensor:
#      x y z
#    x 4.018920 0.398660 -0.392690 
#    y 0.398660 4.566850 -1.169820 
#    z -0.392690 -1.169820 5.350050 
# 
# 
# High freq. dielectric constant tensor:
#      x y z
#    x 1.790100 -0.007970 -0.003430 
#    y -0.007970 1.825420 -0.020100 
#    z -0.003430 -0.020100 1.839130 
# 
# From -- ./inp_files/461984.got.cif
#   From: 2010.06.25/outbox.cif.g09.slc.cpg/sg2_231_cif.got.tgz:461984.got - 2010.06.27 13:26:56.
