data_PCOD8009535
_publ_section_title
;
Structure prediction by ZEFSAII (Michael W. Deem and Ramdas Pophale) SiO2 
 PCOD8009535
Probable space group: P -1
;
_chemical_formula_sum "Si O2"
_cell_formula_units_Z 14
_cell_length_a 6.388704
_cell_length_b 5.445659
_cell_length_c 22.416532
_cell_angle_alpha 110.455743
_cell_angle_beta 81.457086
_cell_angle_gamma 127.078082
_cell_volume 580.951666
_symmetry_space_group_name_H-M "P -1"
_symmetry_group_IT_number 2
_symmetry_cell_setting 'triclinic'
loop_
_space_group_symop_operation_xyz
x,y,z
-x,-y,-z
loop_
_atom_site_type_symbol
_atom_site_label
_atom_site_fract_x
_atom_site_fract_y
_atom_site_fract_z
Si Si1 0.377378 0.185322 0.419567
Si Si2 0.054258 0.380754 0.547062
Si Si3 0.489660 0.184047 0.700151
Si Si4 0.078553 0.260266 0.335477
Si Si5 0.582141 0.555381 0.069221
Si Si6 0.685220 0.265503 0.824517
Si Si7 0.150094 0.048097 0.123473
O O1 0.648240 0.517170 0.459818
O O2 0.225328 0.238429 0.382005
O O3 0.469451 0.975708 0.371320
O O4 0.169268 0.007641 0.468268
O O5 0.022686 0.528892 0.621360
O O6 0.000000 0.500000 0.500000
O O7 0.542539 0.084845 0.753050
O O8 0.711357 0.572543 0.713668
O O9 0.191775 0.086063 0.703324
O O10 0.527945 0.797914 0.122791
O O11 0.406901 0.206336 0.082403
O O12 0.500000 0.500000 0.000000
O O13 0.894729 0.737572 0.075378
O O14 0.881361 0.660635 0.837485
O O15 0.820583 0.101733 0.829896
#
# Coordination Sequence:
#
# PCOD8009535 Si02
#       7
#     2   2   2   2   2   2   2
#     4  10  21  37  57  83 113 154 190 241 298 351
#     4  10  21  37  56  85 115 147 195 241 290 359
#     4  10  23  37  59  83 118 149 197 246 293 363
#     4  10  22  39  57  85 114 153 194 241 300 353
#     4  10  24  43  65  94 127 166 210 260 312 372
#     4  10  26  41  65  94 126 166 211 257 315 370
#     4  10  25  41  65  93 127 162 212 254 317 368
#
# _framework density 24.098390999999999
#
# number of rings (size 3 to 8) (size 9 to 14) (size 15 to 20)
#    0.857    1.143    0.000    1.714    6.000    2.286 
#    0.000    0.000    0.000    0.000    0.000    0.000 
#    0.000    0.000    0.000    0.000    0.000    0.000 
#
# Total GULP energy -173440.465490 kJ/mol
# GULP energy per Si atom -12388.604678 kJ/mol
# Density = 2.404354 g / cm^3
# Si number density = 24.098391 Si / 1000 Ang^3
#
#
#
# Elastic Constant Matrix: (Units=GPa)
#
#
# Indices 1 2 3 4 5 6 
#
# 1 112.7584 89.5672 32.9430 -1.2178 46.1704 24.8243
# 2 89.5672 184.6802 58.4059 -13.1952 32.5184 37.7603
# 3 32.9430 58.4059 94.3892 -4.4215 32.3439 12.6233
# 4 -1.2178 -13.1952 -4.4215 17.9739 -1.4314 14.5358
# 5 46.1704 32.5184 32.3439 -1.4314 52.1646 4.0435
# 6 24.8243 37.7603 12.6233 14.5358 4.0435 53.8324
#
#
#
# Elastic Compliance Matrix: (Units=1/GPa)
#
#
# Indices 1 2 3 4 5 6 
#
# 1 0.021640 -0.008326 0.003309 -0.002665 -0.015855 -0.003004
# 2 -0.008326 0.013215 -0.004389 0.015394 0.002955 -0.008780
# 3 0.003309 -0.004389 0.015850 0.001626 -0.009831 -0.001865
# 4 -0.002665 0.015394 0.001626 0.095700 -0.002862 -0.035576
# 5 -0.015855 0.002955 -0.009831 -0.002862 0.036949 0.005541
# 6 -0.003004 -0.008780 -0.001865 -0.035576 0.005541 0.035747
#
#
# Mechanical properties :
#
#
# Convention : Reuss Voigt Hill
#
# Bulk Modulus (GPa) = 31.35406 83.74001 57.54703
# Shear Modulus (GPa) = 20.11720 38.85497 29.48609
#
# Velocity S-wave (km/s) = 2.89242 4.01976 3.50175
# Velocity P-wave (km/s) = 4.91872 7.50795 6.34678
#
# Compressibility (1/GPa) = 0.03189379
#
# Stress axis : x y z
#
# Youngs Moduli (GPa) = 46.21041 75.66889 63.09315
#
# Poissons Ratio (x) = 0.63003 -0.20880
# Poissons Ratio (y) = 0.38475 0.27691
# Poissons Ratio (z) = -0.15292 0.33210
#
# Static dielectric constant tensor:
#      x y z
#    x 4.348570 0.485270 -0.147670 
#    y 0.485270 4.817040 -0.030910 
#    z -0.147670 -0.030910 4.130980 
# 
# 
# High freq. dielectric constant tensor:
#      x y z
#    x 1.942010 0.020270 0.003950 
#    y 0.020270 1.965620 -0.002470 
#    z 0.003950 -0.002470 1.954530 
# 
# From -- ./inp_files/9367.got.cif
#   From: 2010.06.25/outbox.cif.g09.slc.cpg/sg2_5_cif.got.tgz:9367.got - 2010.06.27 13:26:56.
