data_PCOD8009004
_publ_section_title
;
Structure prediction by ZEFSAII (Michael W. Deem and Ramdas Pophale) SiO2 
 PCOD8009004
Probable space group: P -1
;
_chemical_formula_sum "Si O2"
_cell_formula_units_Z 14
_cell_length_a 7.187390
_cell_length_b 8.115058
_cell_length_c 14.827840
_cell_angle_alpha 63.575353
_cell_angle_beta 84.820834
_cell_angle_gamma 124.288588
_cell_volume 567.890314
_symmetry_space_group_name_H-M "P -1"
_symmetry_group_IT_number 2
_symmetry_cell_setting 'triclinic'
loop_
_space_group_symop_operation_xyz
x,y,z
-x,-y,-z
loop_
_atom_site_type_symbol
_atom_site_label
_atom_site_fract_x
_atom_site_fract_y
_atom_site_fract_z
Si Si1 0.979350 0.206144 0.449732
Si Si2 0.553247 0.336143 0.914371
Si Si3 0.696285 0.990830 0.681797
Si Si4 0.966825 0.143472 0.271663
Si Si5 0.274122 0.454910 0.788961
Si Si6 0.707167 0.110974 0.847777
Si Si7 0.526628 0.609653 0.374353
O O1 0.249497 0.484670 0.384771
O O2 0.897323 0.207371 0.351552
O O3 0.000000 0.000000 0.500000
O O4 0.784449 0.154574 0.546230
O O5 0.360177 0.360919 0.880972
O O6 0.555459 0.185573 0.871809
O O7 0.838029 0.603470 0.857403
O O8 0.447261 0.178829 0.049863
O O9 0.404816 0.733854 0.745290
O O10 0.886741 0.946598 0.690779
O O11 0.731214 0.140186 0.731797
O O12 0.702509 0.911660 0.291850
O O13 0.360942 0.464425 0.681524
O O14 0.974337 0.279437 0.847037
O O15 0.500000 0.500000 0.500000
#
# Coordination Sequence:
#
# PCOD8009004 Si02
#       7
#     2   2   2   2   2   2   2
#     4  10  16  31  55  90 124 149 199 245 293 362
#     4  10  24  44  60  87 128 157 204 259 301 356
#     4  10  19  35  61  92 118 159 204 246 299 364
#     4  10  19  34  57  90 121 158 196 248 299 358
#     4  11  21  39  63  94 116 159 208 246 300 369
#     4  11  23  44  62  86 123 164 202 257 305 350
#     4  12  17  30  63  93 117 163 196 235 310 359
#
# _framework density 24.652647999999999
#
# number of rings (size 3 to 8) (size 9 to 14) (size 15 to 20)
#    0.000    1.429    8.571    0.429    0.000    2.286 
#    5.143    2.143    0.000    4.286    0.000    0.000 
#    0.000    0.000    0.000    0.000    0.000    0.000 
#
# Total GULP energy -173566.424386 kJ/mol
# GULP energy per Si atom -12397.601742 kJ/mol
# Density = 2.459654 g / cm^3
# Si number density = 24.652648 Si / 1000 Ang^3
#
#
#
# Elastic Constant Matrix: (Units=GPa)
#
#
# Indices 1 2 3 4 5 6 
#
# 1 34.7494 23.0627 14.0000 -10.1442 -9.0137 12.1749
# 2 23.0627 137.7252 21.2899 -19.1379 -13.2521 35.8592
# 3 14.0000 21.2899 67.0348 -13.1832 -21.7884 9.1998
# 4 -10.1442 -19.1379 -13.1832 51.7145 1.4556 -17.7682
# 5 -9.0137 -13.2521 -21.7884 1.4556 23.3593 -7.0213
# 6 12.1749 35.8592 9.1998 -17.7682 -7.0213 26.3696
#
#
#
# Elastic Compliance Matrix: (Units=1/GPa)
#
#
# Indices 1 2 3 4 5 6 
#
# 1 0.037424 -0.002266 -0.002937 0.002204 0.007354 -0.009730
# 2 -0.002266 0.011654 -0.001547 -0.001879 -0.000278 -0.015602
# 3 -0.002937 -0.001547 0.023263 0.005852 0.020771 0.004817
# 4 0.002204 -0.001879 0.005852 0.027335 0.009701 0.020498
# 5 0.007354 -0.000278 0.020771 0.009701 0.068632 0.014547
# 6 -0.009730 -0.015602 0.004817 0.020498 0.014547 0.079636
#
#
# Mechanical properties :
#
#
# Convention : Reuss Voigt Hill
#
# Bulk Modulus (GPa) = 16.99459 39.57940 28.28700
# Shear Modulus (GPa) = 17.78990 32.36580 25.07785
#
# Velocity S-wave (km/s) = 2.68922 3.62729 3.19289
# Velocity P-wave (km/s) = 4.06830 5.79937 5.00918
#
# Compressibility (1/GPa) = 0.05884224
#
# Stress axis : x y z
#
# Youngs Moduli (GPa) = 26.72050 85.80963 42.98584
#
# Poissons Ratio (x) = 0.19441 0.12627
# Poissons Ratio (y) = 0.06054 0.06648
# Poissons Ratio (z) = 0.07849 0.13272
#
# Static dielectric constant tensor:
#      x y z
#    x 3.970260 0.174280 -0.190790 
#    y 0.174280 4.754220 -0.109580 
#    z -0.190790 -0.109580 4.763610 
# 
# 
# High freq. dielectric constant tensor:
#      x y z
#    x 1.948890 0.003460 -0.012500 
#    y 0.003460 1.988090 -0.009410 
#    z -0.012500 -0.009410 1.983500 
# 
# From -- ./inp_files/186417.got.cif
#   From: 2010.06.25/outbox.cif.g09.slc.cpg/sg2_94_cif.got.tgz:186417.got - 2010.06.27 13:26:56.
