data_PCOD8009629
_publ_section_title
;
Structure prediction by ZEFSAII (Michael W. Deem and Ramdas Pophale) SiO2 
 PCOD8009629
Probable space group: P -1
;
_chemical_formula_sum "Si O2"
_cell_formula_units_Z 16
_cell_length_a 8.929194
_cell_length_b 9.045222
_cell_length_c 14.723200
_cell_angle_alpha 131.970899
_cell_angle_beta 97.749644
_cell_angle_gamma 68.693263
_cell_volume 813.575914
_symmetry_space_group_name_H-M "P -1"
_symmetry_group_IT_number 2
_symmetry_cell_setting 'triclinic'
loop_
_space_group_symop_operation_xyz
x,y,z
-x,-y,-z
loop_
_atom_site_type_symbol
_atom_site_label
_atom_site_fract_x
_atom_site_fract_y
_atom_site_fract_z
Si Si1 0.371673 0.437313 0.197155
Si Si2 0.500807 0.272149 0.436696
Si Si3 0.010704 0.550158 0.626831
Si Si4 0.951016 0.237654 0.630432
Si Si5 0.689929 0.854428 0.778108
Si Si6 0.263098 0.178661 0.729626
Si Si7 0.361069 0.398595 0.664356
Si Si8 0.439872 0.318709 0.954282
O O1 0.231673 0.666932 0.305070
O O2 0.355886 0.250439 0.180492
O O3 0.549625 0.448482 0.227595
O O4 0.352332 0.376299 0.067447
O O5 0.500000 0.500000 0.500000
O O6 0.362257 0.230835 0.352573
O O7 0.468081 0.259398 0.534740
O O8 0.671759 0.077360 0.353027
O O9 0.963291 0.370984 0.599357
O O10 0.883963 0.781594 0.747001
O O11 0.000000 0.500000 0.500000
O O12 0.186281 0.546351 0.669813
O O13 0.070760 0.255039 0.727660
O O14 0.000000 0.000000 0.500000
O O15 0.603609 0.107556 0.884785
O O16 0.350453 0.236617 0.673981
O O17 0.301828 0.294615 0.867657
O O18 0.500000 0.500000 0.000000
#
# Coordination Sequence:
#
# PCOD8009629 Si02
#       8
#     2   2   2   2   2   2   2   2
#     4  11  22  40  64  85 121 164 202 251 301 349
#     4  11  20  33  60  89 119 155 195 248 304 370
#     4  10  21  37  58  90 125 152 191 245 305 367
#     4  10  23  39  62  92 127 154 193 253 312 366
#     4  10  22  39  60  89 119 156 202 253 302 354
#     4  10  23  39  59  89 121 161 205 245 303 356
#     4  11  20  36  61  88 122 157 195 244 311 361
#     4  11  23  42  65  83 120 165 216 249 286 356
#
# _framework density 19.666267000000001
#
# number of rings (size 3 to 8) (size 9 to 14) (size 15 to 20)
#    0.000    1.500    3.750    1.500    1.750    2.500 
#    0.000    0.625    2.750    0.000    0.000    0.000 
#    0.000    0.000    0.000    0.000    0.000    0.000 
#
# Total GULP energy -198382.995959 kJ/mol
# GULP energy per Si atom -12398.937247 kJ/mol
# Density = 1.962151 g / cm^3
# Si number density = 19.666267 Si / 1000 Ang^3
#
#
#
# Elastic Constant Matrix: (Units=GPa)
#
#
# Indices 1 2 3 4 5 6 
#
# 1 104.9756 40.4398 44.2705 5.6482 3.6193 -17.6393
# 2 40.4398 107.7534 59.5252 2.2843 3.4905 -8.2826
# 3 44.2705 59.5252 125.0116 -2.8879 5.0646 -4.7990
# 4 5.6482 2.2843 -2.8879 44.8518 -5.5379 0.5701
# 5 3.6193 3.4905 5.0646 -5.5379 20.4807 -1.3546
# 6 -17.6393 -8.2826 -4.7990 0.5701 -1.3546 28.8307
#
#
#
# Elastic Compliance Matrix: (Units=1/GPa)
#
#
# Indices 1 2 3 4 5 6 
#
# 1 0.013134 -0.002586 -0.003158 -0.001957 -0.001182 0.006750
# 2 -0.002586 0.013370 -0.005392 -0.000795 -0.000614 0.001348
# 3 -0.003158 -0.005392 0.011701 0.001302 -0.001171 -0.001614
# 4 -0.001957 -0.000795 0.001302 0.023476 0.006417 -0.001372
# 5 -0.001182 -0.000614 -0.001171 0.006417 0.051243 0.001186
# 6 0.006750 0.001348 -0.001614 -0.001372 0.001186 0.039017
#
#
# Mechanical properties :
#
#
# Convention : Reuss Voigt Hill
#
# Bulk Modulus (GPa) = 62.76476 69.57906 66.17191
# Shear Modulus (GPa) = 27.85125 31.73300 29.79212
#
# Velocity S-wave (km/s) = 3.76732 4.02129 3.89637
# Velocity P-wave (km/s) = 7.13497 7.55101 7.34594
#
# Compressibility (1/GPa) = 0.01593251
#
# Stress axis : x y z
#
# Youngs Moduli (GPa) = 76.13544 74.79339 85.46462
#
# Poissons Ratio (x) = 0.19342 0.26991
# Poissons Ratio (y) = 0.19689 0.46085
# Poissons Ratio (z) = 0.24045 0.40330
#
# Static dielectric constant tensor:
#      x y z
#    x 3.597970 -0.187530 -0.014940 
#    y -0.187530 3.774590 -0.147390 
#    z -0.014940 -0.147390 3.553620 
# 
# 
# High freq. dielectric constant tensor:
#      x y z
#    x 1.760390 -0.010680 -0.001230 
#    y -0.010680 1.780720 -0.009980 
#    z -0.001230 -0.009980 1.760910 
# 
# From -- ./inp_files/207681.got.cif
#   From: 2010.06.25/outbox.cif.g09.slc.cpg/sg2_104_cif.got.tgz:207681.got - 2010.06.27 13:26:56.
