data_PCOD8009978
_publ_section_title
;
Structure prediction by ZEFSAII (Michael W. Deem and Ramdas Pophale) SiO2 
 PCOD8009978
Probable space group: P -1
;
_chemical_formula_sum "Si O2"
_cell_formula_units_Z 12
_cell_length_a 11.500567
_cell_length_b 17.263291
_cell_length_c 14.624398
_cell_angle_alpha 156.779248
_cell_angle_beta 29.054122
_cell_angle_gamma 145.324601
_cell_volume 553.187476
_symmetry_space_group_name_H-M "P -1"
_symmetry_group_IT_number 2
_symmetry_cell_setting 'triclinic'
loop_
_space_group_symop_operation_xyz
x,y,z
-x,-y,-z
loop_
_atom_site_type_symbol
_atom_site_label
_atom_site_fract_x
_atom_site_fract_y
_atom_site_fract_z
Si Si1 0.956165 0.635975 0.385030
Si Si2 0.163918 0.727349 0.057841
Si Si3 0.567810 0.229924 0.697052
Si Si4 0.249409 0.147785 0.394390
Si Si5 0.546152 0.498608 0.643200
Si Si6 0.724214 0.477648 0.694614
O O1 0.851581 0.814439 0.595856
O O2 0.804181 0.598720 0.541756
O O3 0.228913 0.699957 0.293072
O O4 0.934514 0.438229 0.125505
O O5 0.936216 0.793189 0.337799
O O6 0.298737 0.918677 0.120816
O O7 0.342700 0.643030 0.916266
O O8 0.656064 0.281315 0.588834
O O9 0.500000 0.000000 0.500000
O O10 0.331648 0.337052 0.002514
O O11 0.493193 0.290881 0.400195
O O12 0.554025 0.463184 0.707271
O O13 0.000000 0.500000 0.500000
#
# Coordination Sequence:
#
# PCOD8009978 Si02
#       6
#     2   2   2   2   2   2
#     4  11  22  40  62  91 131 167 211 271 325 383
#     4  10  21  38  62  93 126 166 212 264 325 387
#     4  11  26  46  70  98 131 176 227 274 327 392
#     4  10  21  37  63  94 123 166 213 263 324 389
#     4  11  22  39  63  92 130 167 212 267 326 386
#     4  11  24  47  69  95 133 177 221 275 331 385
#
# _framework density 21.692464999999999
#
# number of rings (size 3 to 8) (size 9 to 14) (size 15 to 20)
#    0.000    1.333    1.667    6.000    0.000   10.000 
#    3.000    0.000    0.000    0.000    0.000    0.000 
#    0.000    0.000    0.000    0.000    0.000    0.000 
#
# Total GULP energy -148840.077965 kJ/mol
# GULP energy per Si atom -12403.339830 kJ/mol
# Density = 2.164309 g / cm^3
# Si number density = 21.692465 Si / 1000 Ang^3
#
#
#
# Elastic Constant Matrix: (Units=GPa)
#
#
# Indices 1 2 3 4 5 6 
#
# 1 151.9498 59.2394 46.3576 17.8288 -4.7762 -18.1922
# 2 59.2394 123.3166 56.3319 21.2941 -13.9429 -12.8396
# 3 46.3576 56.3319 92.1871 19.1320 -12.4897 -1.4509
# 4 17.8288 21.2941 19.1320 44.1029 -10.9904 -7.7162
# 5 -4.7762 -13.9429 -12.4897 -10.9904 21.1700 -0.9106
# 6 -18.1922 -12.8396 -1.4509 -7.7162 -0.9106 42.0173
#
#
#
# Elastic Compliance Matrix: (Units=1/GPa)
#
#
# Indices 1 2 3 4 5 6 
#
# 1 0.008887 -0.002750 -0.002782 -0.001059 -0.001882 0.002676
# 2 -0.002750 0.012952 -0.005691 -0.001249 0.004008 0.002428
# 3 -0.002782 -0.005691 0.016819 -0.002946 0.003896 -0.002819
# 4 -0.001059 -0.001249 -0.002946 0.028882 0.012393 0.004631
# 5 -0.001882 0.004008 0.003896 0.012393 0.058360 0.004085
# 6 0.002676 0.002428 -0.002819 0.004631 0.004085 0.026542
#
#
# Mechanical properties :
#
#
# Convention : Reuss Voigt Hill
#
# Bulk Modulus (GPa) = 61.68058 76.81236 69.24647
# Shear Modulus (GPa) = 27.73289 35.15969 31.44629
#
# Velocity S-wave (km/s) = 3.57943 4.03031 3.81155
# Velocity P-wave (km/s) = 6.75122 7.55940 7.16671
#
# Compressibility (1/GPa) = 0.01621256
#
# Stress axis : x y z
#
# Youngs Moduli (GPa) = 112.51853 77.21092 59.45736
#
# Poissons Ratio (x) = 0.21232 0.16540
# Poissons Ratio (y) = 0.30941 0.33836
# Poissons Ratio (z) = 0.31302 0.43939
#
# Static dielectric constant tensor:
#      x y z
#    x 4.106040 -0.185490 -0.099250 
#    y -0.185490 4.296500 0.127460 
#    z -0.099250 0.127460 3.853770 
# 
# 
# High freq. dielectric constant tensor:
#      x y z
#    x 1.855110 -0.015330 -0.006820 
#    y -0.015330 1.866410 -0.010370 
#    z -0.006820 -0.010370 1.845120 
# 
# From -- ./inp_files/251407.got.cif
#   From: 2010.06.25/outbox.cif.g09.slc.cpg/sg2_126_cif.got.tgz:251407.got - 2010.06.27 13:26:56.
