data_PCOD8009513
_publ_section_title
;
Structure prediction by ZEFSAII (Michael W. Deem and Ramdas Pophale) SiO2 
 PCOD8009513
Probable space group: P -1
;
_chemical_formula_sum "Si O2"
_cell_formula_units_Z 16
_cell_length_a 16.433194
_cell_length_b 19.847280
_cell_length_c 9.030867
_cell_angle_alpha 143.544049
_cell_angle_beta 147.372312
_cell_angle_gamma 37.177693
_cell_volume 875.713901
_symmetry_space_group_name_H-M "P -1"
_symmetry_group_IT_number 2
_symmetry_cell_setting 'triclinic'
loop_
_space_group_symop_operation_xyz
x,y,z
-x,-y,-z
loop_
_atom_site_type_symbol
_atom_site_label
_atom_site_fract_x
_atom_site_fract_y
_atom_site_fract_z
Si Si1 0.505005 0.993235 0.745823
Si Si2 0.152167 0.570407 0.561271
Si Si3 0.729889 0.435807 0.963272
Si Si4 0.594436 0.145111 0.398502
Si Si5 0.745644 0.864840 0.630790
Si Si6 0.803147 0.605842 0.150579
Si Si7 0.896690 0.199107 0.949711
Si Si8 0.588957 0.598417 0.552624
O O1 0.459316 0.900123 0.613604
O O2 0.651356 0.917314 0.729203
O O3 0.349821 0.071268 0.549232
O O4 0.561671 0.080891 0.089104
O O5 0.262543 0.510294 0.485154
O O6 0.978578 0.557160 0.254389
O O7 0.242336 0.504071 0.733345
O O8 0.124338 0.714807 0.783954
O O9 0.834934 0.289327 0.871188
O O10 0.540021 0.459163 0.692441
O O11 0.792058 0.493460 0.026335
O O12 0.787611 0.116971 0.654136
O O13 0.495982 0.290790 0.495301
O O14 0.783912 0.720037 0.429075
O O15 0.914868 0.887527 0.934660
O O16 0.658909 0.649394 0.887395
#
# Coordination Sequence:
#
# PCOD8009513 Si02
#       8
#     2   2   2   2   2   2   2   2
#     4  10  22  37  56  76  98 135 184 214 256 300
#     4   9  20  33  53  79 106 136 171 200 253 318
#     4   9  20  33  53  79 106 136 171 200 253 318
#     4  10  21  37  55  77 102 136 173 218 256 299
#     4  10  21  37  55  77 102 136 173 218 256 299
#     4  11  20  34  53  78 110 137 166 211 255 303
#     4   8  20  35  56  76 108 131 170 210 258 308
#     4  11  20  34  53  78 110 137 166 211 255 303
#
# _framework density 18.270807999999999
#
# number of rings (size 3 to 8) (size 9 to 14) (size 15 to 20)
#    0.750    1.500    1.250    1.500    1.750    1.000 
#    0.000    0.000    0.000    0.000    0.000    0.000 
#    0.000    0.000    0.000    0.000    0.000    0.000 
#
# Total GULP energy -198347.711175 kJ/mol
# GULP energy per Si atom -12396.731948 kJ/mol
# Density = 1.822922 g / cm^3
# Si number density = 18.270808 Si / 1000 Ang^3
#
#
#
# Elastic Constant Matrix: (Units=GPa)
#
#
# Indices 1 2 3 4 5 6 
#
# 1 59.0761 26.7808 21.1159 -6.2525 -5.3994 -5.8044
# 2 26.7808 55.7333 21.0708 -7.7369 8.0188 -13.2397
# 3 21.1159 21.0708 71.6236 -21.2126 5.4301 -2.5697
# 4 -6.2525 -7.7369 -21.2126 23.9772 -1.9280 7.5072
# 5 -5.3994 8.0188 5.4301 -1.9280 20.2247 -1.9430
# 6 -5.8044 -13.2397 -2.5697 7.5072 -1.9430 26.7344
#
#
#
# Elastic Compliance Matrix: (Units=1/GPa)
#
#
# Indices 1 2 3 4 5 6 
#
# 1 0.025401 -0.012211 -0.005126 -0.000861 0.012932 0.000157
# 2 -0.012211 0.029721 -0.004353 -0.002018 -0.012985 0.011272
# 3 -0.005126 -0.004353 0.022439 0.018856 -0.004517 -0.006735
# 4 -0.000861 -0.002018 0.018856 0.062833 -0.000138 -0.017028
# 5 0.012932 -0.012985 -0.004517 -0.000138 0.059273 0.000290
# 6 0.000157 0.011272 -0.006735 -0.017028 0.000290 0.047177
#
#
# Mechanical properties :
#
#
# Convention : Reuss Voigt Hill
#
# Bulk Modulus (GPa) = 29.25436 36.04089 32.64762
# Shear Modulus (GPa) = 16.57731 22.01830 19.29781
#
# Velocity S-wave (km/s) = 3.01543 3.47523 3.25346
# Velocity P-wave (km/s) = 5.30755 5.98930 5.65870
#
# Compressibility (1/GPa) = 0.03418294
#
# Stress axis : x y z
#
# Youngs Moduli (GPa) = 39.36807 33.64571 44.56523
#
# Poissons Ratio (x) = 0.41083 0.22845
# Poissons Ratio (y) = 0.48071 0.19397
# Poissons Ratio (z) = 0.20181 0.14644
#
# Static dielectric constant tensor:
#      x y z
#    x 3.090230 -0.009510 0.063780 
#    y -0.009510 3.164910 -0.162600 
#    z 0.063780 -0.162600 3.548290 
# 
# 
# High freq. dielectric constant tensor:
#      x y z
#    x 1.691210 -0.003280 0.009870 
#    y -0.003280 1.692110 -0.012700 
#    z 0.009870 -0.012700 1.722360 
# 
# From -- ./inp_files/319129.got.cif
#   From: 2010.06.25/outbox.cif.g09.slc.cpg/sg2_160_cif.got.tgz:319129.got - 2010.06.27 13:26:56.
