data_PCOD8009669
_publ_section_title
;
Structure prediction by ZEFSAII (Michael W. Deem and Ramdas Pophale) SiO2 
 PCOD8009669
Probable space group: P -1
;
_chemical_formula_sum "Si O2"
_cell_formula_units_Z 14
_cell_length_a 8.787470
_cell_length_b 18.711185
_cell_length_c 6.174297
_cell_angle_alpha 97.081410
_cell_angle_beta 131.531747
_cell_angle_gamma 62.912872
_cell_volume 651.856741
_symmetry_space_group_name_H-M "P -1"
_symmetry_group_IT_number 2
_symmetry_cell_setting 'triclinic'
loop_
_space_group_symop_operation_xyz
x,y,z
-x,-y,-z
loop_
_atom_site_type_symbol
_atom_site_label
_atom_site_fract_x
_atom_site_fract_y
_atom_site_fract_z
Si Si1 0.336054 0.679907 0.196565
Si Si2 0.972601 0.386751 0.908800
Si Si3 0.176994 0.465345 0.457292
Si Si4 0.320158 0.041698 0.648837
Si Si5 0.587383 0.100763 0.620771
Si Si6 0.190819 0.833828 0.827229
Si Si7 0.458722 0.247315 0.255309
O O1 0.559634 0.605225 0.253960
O O2 0.413269 0.707762 0.496602
O O3 0.166201 0.647362 0.099903
O O4 0.201381 0.755386 0.929531
O O5 0.807231 0.458194 0.609185
O O6 0.077551 0.424475 0.187332
O O7 0.192266 0.312862 0.957803
O O8 0.000000 0.500000 0.500000
O O9 0.407301 0.088369 0.590803
O O10 0.060445 0.111829 0.510160
O O11 0.287458 0.973197 0.462423
O O12 0.500000 0.000000 0.000000
O O13 0.436415 0.186868 0.383554
O O14 0.781993 0.105902 0.952976
O O15 0.398192 0.803097 0.837963
#
# Coordination Sequence:
#
# PCOD8009669 Si02
#       7
#     2   2   2   2   2   2   2
#     4  10  22  38  59  87 118 156 197 239 292 351
#     4  10  21  38  58  85 121 153 192 242 289 345
#     4  10  21  37  59  87 118 153 195 241 288 343
#     4  11  24  40  62  89 117 156 201 246 300 356
#     4  10  23  41  60  86 121 154 197 247 297 352
#     4  11  23  40  62  87 119 158 199 245 298 354
#     4  10  22  38  59  87 118 155 196 241 293 349
#
# _framework density 21.477112000000002
#
# number of rings (size 3 to 8) (size 9 to 14) (size 15 to 20)
#    0.000    1.714    0.000    3.429    0.000   10.857 
#    0.000    0.000    0.000    0.000    0.000    0.000 
#    0.000    0.000    0.000    0.000    0.000    0.000 
#
# Total GULP energy -173613.719191 kJ/mol
# GULP energy per Si atom -12400.979942 kJ/mol
# Density = 2.142823 g / cm^3
# Si number density = 21.477112 Si / 1000 Ang^3
#
#
#
# Elastic Constant Matrix: (Units=GPa)
#
#
# Indices 1 2 3 4 5 6 
#
# 1 115.9176 65.4152 40.7518 -3.2045 3.9844 -10.1079
# 2 65.4152 120.8841 60.5187 -19.5596 9.6927 -5.4785
# 3 40.7518 60.5187 95.2059 -22.7295 1.9975 -9.6275
# 4 -3.2045 -19.5596 -22.7295 19.8269 -10.4930 4.1194
# 5 3.9844 9.6927 1.9975 -10.4930 27.8253 -2.7893
# 6 -10.1079 -5.4785 -9.6275 4.1194 -2.7893 47.9501
#
#
#
# Elastic Compliance Matrix: (Units=1/GPa)
#
#
# Indices 1 2 3 4 5 6 
#
# 1 0.013999 -0.007096 -0.003933 -0.011470 -0.003361 0.002140
# 2 -0.007096 0.016190 -0.005406 0.008271 -0.001268 -0.001516
# 3 -0.003933 -0.005406 0.021063 0.023063 0.009769 0.001369
# 4 -0.011470 0.008271 0.023063 0.102704 0.035475 -0.003602
# 5 -0.003361 -0.001268 0.009769 0.035475 0.049633 0.000947
# 6 0.002140 -0.001516 0.001369 -0.003602 0.000947 0.021773
#
#
# Mechanical properties :
#
#
# Convention : Reuss Voigt Hill
#
# Bulk Modulus (GPa) = 54.40014 73.93100 64.16557
# Shear Modulus (GPa) = 18.91373 30.14193 24.52783
#
# Velocity S-wave (km/s) = 2.97079 3.75032 3.38308
# Velocity P-wave (km/s) = 6.09523 7.29734 6.72320
#
# Compressibility (1/GPa) = 0.01838231
#
# Stress axis : x y z
#
# Youngs Moduli (GPa) = 71.43437 61.76654 47.47660
#
# Poissons Ratio (x) = 0.43828 0.18672
# Poissons Ratio (y) = 0.50688 0.25667
# Poissons Ratio (z) = 0.28094 0.33392
#
# Static dielectric constant tensor:
#      x y z
#    x 3.746940 0.006220 -0.025310 
#    y 0.006220 4.394330 -0.187720 
#    z -0.025310 -0.187720 3.815700 
# 
# 
# High freq. dielectric constant tensor:
#      x y z
#    x 1.845610 0.005500 -0.000570 
#    y 0.005500 1.863840 -0.010940 
#    z -0.000570 -0.010940 1.828800 
# 
# From -- ./inp_files/7374.got.cif
#   From: 2010.06.25/outbox.cif.g09.slc.cpg/sg2_4_cif.got.tgz:7374.got - 2010.06.27 13:26:56.
