data_PCOD8009270
_publ_section_title
;
Structure prediction by ZEFSAII (Michael W. Deem and Ramdas Pophale) SiO2 
 PCOD8009270
Probable space group: P -1
;
_chemical_formula_sum "Si O2"
_cell_formula_units_Z 12
_cell_length_a 16.426771
_cell_length_b 14.825416
_cell_length_c 11.830665
_cell_angle_alpha 152.408948
_cell_angle_beta 33.742843
_cell_angle_gamma 152.925988
_cell_volume 594.954069
_symmetry_space_group_name_H-M "P -1"
_symmetry_group_IT_number 2
_symmetry_cell_setting 'triclinic'
loop_
_space_group_symop_operation_xyz
x,y,z
-x,-y,-z
loop_
_atom_site_type_symbol
_atom_site_label
_atom_site_fract_x
_atom_site_fract_y
_atom_site_fract_z
Si Si1 0.667182 0.171930 0.653154
Si Si2 0.072133 0.432710 0.564843
Si Si3 0.361432 0.868801 0.114707
Si Si4 0.040263 0.327210 0.889320
Si Si5 0.083591 0.952924 0.510871
Si Si6 0.425879 0.657971 0.254830
O O1 0.561694 0.125741 0.843579
O O2 0.627483 0.330417 0.799072
O O3 0.884459 0.315129 0.580528
O O4 0.590105 0.921792 0.401820
O O5 0.065371 0.235089 0.433499
O O6 0.243682 0.545198 0.412082
O O7 0.097959 0.642252 0.848755
O O8 0.275714 0.014840 0.396761
O O9 0.214395 0.589010 0.938373
O O10 0.500000 0.000000 0.000000
O O11 0.946136 0.162961 0.706875
O O12 0.096731 0.195785 0.761914
O O13 0.500000 0.500000 0.000000
#
# Coordination Sequence:
#
# PCOD8009270 Si02
#       6
#     2   2   2   2   2   2
#     4   9  23  41  58  90 120 156 203 246 299 356
#     4  10  21  39  64  82 122 161 194 251 303 349
#     4  10  21  36  60  86 123 156 189 246 300 354
#     4   9  19  36  57  87 120 151 201 236 295 360
#     4   9  19  35  57  90 114 157 197 236 292 367
#     4  11  24  41  62  89 118 157 206 252 296 354
#
# _framework density 20.169623000000001
#
# number of rings (size 3 to 8) (size 9 to 14) (size 15 to 20)
#    0.000    2.667    0.000    2.500    4.667    9.333 
#    3.000    0.000    0.000    0.000    0.000    0.000 
#    0.000    0.000    0.000    0.000    0.000    0.000 
#
# Total GULP energy -148702.488052 kJ/mol
# GULP energy per Si atom -12391.874004 kJ/mol
# Density = 2.012372 g / cm^3
# Si number density = 20.169623 Si / 1000 Ang^3
#
#
#
# Elastic Constant Matrix: (Units=GPa)
#
#
# Indices 1 2 3 4 5 6 
#
# 1 112.3470 39.5580 48.8159 -16.3989 -5.3652 -26.7166
# 2 39.5580 75.2275 55.0151 -15.3589 -6.7406 -24.0296
# 3 48.8159 55.0151 97.9528 -2.6865 -13.2867 -25.9241
# 4 -16.3989 -15.3589 -2.6865 24.2101 -13.5633 3.8736
# 5 -5.3652 -6.7406 -13.2867 -13.5633 36.3271 6.9641
# 6 -26.7166 -24.0296 -25.9241 3.8736 6.9641 41.5765
#
#
#
# Elastic Compliance Matrix: (Units=1/GPa)
#
#
# Indices 1 2 3 4 5 6 
#
# 1 0.013640 0.000194 -0.005094 0.009810 0.003030 0.004280
# 2 0.000194 0.030099 -0.013954 0.020795 0.007185 0.005679
# 3 -0.005094 -0.013954 0.021015 -0.010462 -0.000090 0.002755
# 4 0.009810 0.020795 -0.010462 0.077051 0.030338 -0.000461
# 5 0.003030 0.007185 -0.000090 0.030338 0.041312 -0.003702
# 6 0.004280 0.005679 0.002755 -0.000461 -0.003702 0.032465
#
#
# Mechanical properties :
#
#
# Convention : Reuss Voigt Hill
#
# Bulk Modulus (GPa) = 36.97331 63.58946 50.28139
# Shear Modulus (GPa) = 19.06163 29.89862 24.48012
#
# Velocity S-wave (km/s) = 3.07753 3.85432 3.48762
# Velocity P-wave (km/s) = 5.56769 7.16962 6.41883
#
# Compressibility (1/GPa) = 0.02704653
#
# Stress axis : x y z
#
# Youngs Moduli (GPa) = 73.31140 33.22348 47.58522
#
# Poissons Ratio (x) = -0.00645 0.24241
# Poissons Ratio (y) = -0.01423 0.66400
# Poissons Ratio (z) = 0.37346 0.46359
#
# Static dielectric constant tensor:
#      x y z
#    x 4.281240 -0.312960 -0.178670 
#    y -0.312960 3.624580 0.179810 
#    z -0.178670 0.179810 3.594750 
# 
# 
# High freq. dielectric constant tensor:
#      x y z
#    x 1.810720 -0.015140 -0.000300 
#    y -0.015140 1.778570 0.010710 
#    z -0.000300 0.010710 1.771010 
# 
# From -- ./inp_files/100080.got.cif
#   From: 2010.06.25/outbox.cif.g09.slc.cpg/sg2_51_cif.got.tgz:100080.got - 2010.06.27 13:26:56.
