data_PCOD8009955
_publ_section_title
;
Structure prediction by ZEFSAII (Michael W. Deem and Ramdas Pophale) SiO2 
 PCOD8009955
Probable space group: P -1
;
_chemical_formula_sum "Si O2"
_cell_formula_units_Z 16
_cell_length_a 7.504903
_cell_length_b 17.687355
_cell_length_c 16.275282
_cell_angle_alpha 32.708994
_cell_angle_beta 48.176248
_cell_angle_gamma 69.205008
_cell_volume 747.420001
_symmetry_space_group_name_H-M "P -1"
_symmetry_group_IT_number 2
_symmetry_cell_setting 'triclinic'
loop_
_space_group_symop_operation_xyz
x,y,z
-x,-y,-z
loop_
_atom_site_type_symbol
_atom_site_label
_atom_site_fract_x
_atom_site_fract_y
_atom_site_fract_z
Si Si1 0.864586 0.167623 0.688428
Si Si2 0.588887 0.306809 0.137138
Si Si3 0.279961 0.084041 0.181838
Si Si4 0.578274 0.547597 0.799274
Si Si5 0.927559 0.687172 0.931000
Si Si6 0.682873 0.020791 0.565073
Si Si7 0.702837 0.899017 0.110796
Si Si8 0.234523 0.928758 0.907651
O O1 0.614584 0.208302 0.724505
O O2 0.150346 0.337864 0.442241
O O3 0.843611 0.052362 0.724898
O O4 0.844841 0.077766 0.861317
O O5 0.443663 0.348850 0.215368
O O6 0.904750 0.359523 0.014673
O O7 0.400645 0.113745 0.357204
O O8 0.602710 0.398565 0.964653
O O9 0.206557 0.222828 0.060232
O O10 0.155000 0.003003 0.385118
O O11 0.618825 0.164617 0.010411
O O12 0.311486 0.477788 0.886085
O O13 0.134465 0.801188 0.691500
O O14 0.393513 0.003943 0.703559
O O15 0.707359 0.921486 0.187073
O O16 0.897071 0.821758 0.097833
#
# Coordination Sequence:
#
# PCOD8009955 Si02
#       8
#     2   2   2   2   2   2   2   2
#     4  10  21  37  63  90 115 157 195 255 296 348
#     4  11  25  39  60  89 124 165 194 236 294 366
#     4   9  20  34  62  87 122 151 196 244 290 343
#     4  11  25  41  56  89 131 153 197 240 302 356
#     4  12  23  40  60  91 123 163 197 236 290 367
#     4  10  21  38  62  89 122 154 202 240 288 348
#     4   9  18  37  59  90 114 145 210 248 297 343
#     4   8  18  33  58  92 112 146 190 263 292 330
#
# _framework density 21.406973000000001
#
# number of rings (size 3 to 8) (size 9 to 14) (size 15 to 20)
#    0.750    1.250    1.250    1.875    7.000    0.000 
#    6.750    0.000    0.000   15.000    0.000    0.000 
#    0.000    0.000    0.000    0.000    0.000    0.000 
#
# Total GULP energy -198282.680921 kJ/mol
# GULP energy per Si atom -12392.667558 kJ/mol
# Density = 2.135825 g / cm^3
# Si number density = 21.406973 Si / 1000 Ang^3
#
#
#
# Elastic Constant Matrix: (Units=GPa)
#
#
# Indices 1 2 3 4 5 6 
#
# 1 89.2677 13.2705 20.3279 5.1252 -19.8122 -10.3257
# 2 13.2705 67.3253 26.5079 11.8063 -10.3622 -8.2809
# 3 20.3279 26.5079 104.4071 7.3016 -24.3005 2.9546
# 4 5.1252 11.8063 7.3016 16.2606 -4.4409 -12.0785
# 5 -19.8122 -10.3622 -24.3005 -4.4409 24.5435 1.6314
# 6 -10.3257 -8.2809 2.9546 -12.0785 1.6314 35.5561
#
#
#
# Elastic Compliance Matrix: (Units=1/GPa)
#
#
# Indices 1 2 3 4 5 6 
#
# 1 0.014184 -0.000911 -0.000274 0.002477 0.010958 0.004268
# 2 -0.000911 0.018605 -0.003401 -0.010754 0.001766 0.000617
# 3 -0.000274 -0.003401 0.013446 -0.003006 0.011347 -0.003530
# 4 0.002477 -0.010754 -0.003006 0.095022 0.009662 0.030300
# 5 0.010958 0.001766 0.011347 0.009662 0.063116 0.003037
# 6 0.004268 0.000617 -0.003530 0.030300 0.003037 0.039955
#
#
# Mechanical properties :
#
#
# Convention : Reuss Voigt Hill
#
# Bulk Modulus (GPa) = 26.98030 42.35699 34.66865
# Shear Modulus (GPa) = 18.80745 28.66495 23.73620
#
# Velocity S-wave (km/s) = 2.96728 3.66327 3.33349
# Velocity P-wave (km/s) = 4.93665 6.14184 5.57193
#
# Compressibility (1/GPa) = 0.03706407
#
# Stress axis : x y z
#
# Youngs Moduli (GPa) = 70.50399 53.74824 74.37378
#
# Poissons Ratio (x) = 0.04895 0.02036
# Poissons Ratio (y) = 0.06421 0.25292
# Poissons Ratio (z) = 0.01930 0.18278
#
# Static dielectric constant tensor:
#      x y z
#    x 4.053410 -0.225320 -0.173110 
#    y -0.225320 3.929730 0.360040 
#    z -0.173110 0.360040 3.483790 
# 
# 
# High freq. dielectric constant tensor:
#      x y z
#    x 1.852790 -0.008220 -0.018550 
#    y -0.008220 1.837970 0.030820 
#    z -0.018550 0.030820 1.791750 
# 
# From -- ./inp_files/591494.got.cif
#   From: 2010.06.25/outbox.cif.g09.slc.cpg/sg2_296_cif.got.tgz:591494.got - 2010.06.27 13:26:56.
