data_PCOD8009612
_publ_section_title
;
Structure prediction by ZEFSAII (Michael W. Deem and Ramdas Pophale) SiO2 
 PCOD8009612
Probable space group: P -1
;
_chemical_formula_sum "Si O2"
_cell_formula_units_Z 16
_cell_length_a 6.588740
_cell_length_b 14.596368
_cell_length_c 14.654183
_cell_angle_alpha 141.179174
_cell_angle_beta 114.528206
_cell_angle_gamma 60.970874
_cell_volume 770.724527
_symmetry_space_group_name_H-M "P -1"
_symmetry_group_IT_number 2
_symmetry_cell_setting 'triclinic'
loop_
_space_group_symop_operation_xyz
x,y,z
-x,-y,-z
loop_
_atom_site_type_symbol
_atom_site_label
_atom_site_fract_x
_atom_site_fract_y
_atom_site_fract_z
Si Si1 0.509713 0.635896 0.315370
Si Si2 0.986260 0.136933 0.037183
Si Si3 0.747136 0.689082 0.667729
Si Si4 0.017949 0.366235 0.517496
Si Si5 0.894881 0.855459 0.134805
Si Si6 0.481438 0.307706 0.030154
Si Si7 0.598689 0.321308 0.866993
Si Si8 0.273807 0.813433 0.582394
O O1 0.778888 0.581704 0.352973
O O2 0.408213 0.490660 0.172039
O O3 0.490780 0.723019 0.281595
O O4 0.356439 0.750960 0.449249
O O5 0.175817 0.221097 0.166740
O O6 0.725954 0.247108 0.080264
O O7 0.049479 0.080555 0.902305
O O8 0.000000 0.000000 0.000000
O O9 0.887486 0.711935 0.621382
O O10 0.473692 0.756009 0.651109
O O11 0.800883 0.513030 0.570934
O O12 0.942486 0.245658 0.472884
O O13 0.121219 0.736179 0.127040
O O14 0.803431 0.003304 0.296715
O O15 0.705848 0.763267 0.014380
O O16 0.502991 0.253351 0.885355
O O17 0.500000 0.500000 0.000000
#
# Coordination Sequence:
#
# PCOD8009612 Si02
#       8
#     2   2   2   2   2   2   2   2
#     4  10  22  40  65  92 116 162 210 254 307 362
#     4  11  22  38  62  88 128 167 205 247 306 362
#     4  10  21  37  58  87 120 170 206 246 300 360
#     4  10  21  39  59  86 126 159 211 253 297 359
#     4  11  25  41  61  96 127 159 203 256 311 366
#     4  10  22  41  65  91 123 156 210 257 299 367
#     4   9  22  43  66  90 120 160 207 256 310 362
#     4  11  24  38  59  93 128 158 203 254 309 367
#
# _framework density 20.759685000000001
#
# number of rings (size 3 to 8) (size 9 to 14) (size 15 to 20)
#    0.000    1.750    1.250    1.875    1.750    9.500 
#    0.000    1.250    0.000    0.000    0.000    0.000 
#    0.000    0.000    0.000    0.000    0.000    0.000 
#
# Total GULP energy -198406.802127 kJ/mol
# GULP energy per Si atom -12400.425133 kJ/mol
# Density = 2.071244 g / cm^3
# Si number density = 20.759685 Si / 1000 Ang^3
#
#
#
# Elastic Constant Matrix: (Units=GPa)
#
#
# Indices 1 2 3 4 5 6 
#
# 1 78.3885 36.8291 39.5869 5.8695 2.4486 -8.2438
# 2 36.8291 99.7338 48.9291 -6.0636 -8.3843 -1.7203
# 3 39.5869 48.9291 100.2683 1.9011 -10.8075 -8.8740
# 4 5.8695 -6.0636 1.9011 37.0196 5.6340 -5.5074
# 5 2.4486 -8.3843 -10.8075 5.6340 27.2303 4.1297
# 6 -8.2438 -1.7203 -8.8740 -5.5074 4.1297 23.1790
#
#
#
# Elastic Compliance Matrix: (Units=1/GPa)
#
#
# Indices 1 2 3 4 5 6 
#
# 1 0.018374 -0.004805 -0.005040 -0.001900 -0.005462 0.004770
# 2 -0.004805 0.014734 -0.005272 0.002666 0.002701 -0.002482
# 3 -0.005040 -0.005272 0.015297 -0.001197 0.004764 0.002539
# 4 -0.001900 0.002666 -0.001197 0.029947 -0.006800 0.007391
# 5 -0.005462 0.002701 0.004764 -0.006800 0.042732 -0.009148
# 6 0.004770 -0.002482 0.002539 0.007391 -0.009148 0.049013
#
#
# Mechanical properties :
#
#
# Convention : Reuss Voigt Hill
#
# Bulk Modulus (GPa) = 55.03319 58.78676 56.90997
# Shear Modulus (GPa) = 24.22636 27.68879 25.95758
#
# Velocity S-wave (km/s) = 3.41983 3.65605 3.53991
# Velocity P-wave (km/s) = 6.49314 6.79717 6.64689
#
# Compressibility (1/GPa) = 0.01817085
#
# Stress axis : x y z
#
# Youngs Moduli (GPa) = 54.42338 67.87169 65.37406
#
# Poissons Ratio (x) = 0.32612 0.32950
# Poissons Ratio (y) = 0.26150 0.34464
# Poissons Ratio (z) = 0.27431 0.35780
#
# Static dielectric constant tensor:
#      x y z
#    x 3.684780 -0.013800 -0.344980 
#    y -0.013800 3.916660 -0.121530 
#    z -0.344980 -0.121530 4.633800 
# 
# 
# High freq. dielectric constant tensor:
#      x y z
#    x 1.807770 -0.003690 -0.008850 
#    y -0.003690 1.814710 -0.007830 
#    z -0.008850 -0.007830 1.806980 
# 
# From -- ./inp_files/77246.got.cif
#   From: 2010.06.25/outbox.cif.g09.slc.cpg/sg2_39_cif.got.tgz:77246.got - 2010.06.27 13:26:56.
