data_PCOD8009319
_publ_section_title
;
Structure prediction by ZEFSAII (Michael W. Deem and Ramdas Pophale) SiO2 
 PCOD8009319
Probable space group: P -1
;
_chemical_formula_sum "Si O2"
_cell_formula_units_Z 16
_cell_length_a 12.732907
_cell_length_b 12.149341
_cell_length_c 11.840157
_cell_angle_alpha 126.365614
_cell_angle_beta 124.524439
_cell_angle_gamma 99.620273
_cell_volume 791.985856
_symmetry_space_group_name_H-M "P -1"
_symmetry_group_IT_number 2
_symmetry_cell_setting 'triclinic'
loop_
_space_group_symop_operation_xyz
x,y,z
-x,-y,-z
loop_
_atom_site_type_symbol
_atom_site_label
_atom_site_fract_x
_atom_site_fract_y
_atom_site_fract_z
Si Si1 0.872005 0.023487 0.669163
Si Si2 0.301488 0.605057 0.894145
Si Si3 0.725717 0.941973 0.289820
Si Si4 0.749336 0.184154 0.150302
Si Si5 0.469598 0.814483 0.362936
Si Si6 0.694684 0.218166 0.388620
Si Si7 0.018362 0.859031 0.644208
Si Si8 0.861543 0.501309 0.861277
O O1 0.828053 0.958305 0.470475
O O2 0.679203 0.910786 0.551070
O O3 0.948655 0.940645 0.713267
O O4 0.039635 0.271311 0.936895
O O5 0.194310 0.651283 0.803556
O O6 0.160743 0.360672 0.661691
O O7 0.494035 0.720426 0.009896
O O8 0.351574 0.681304 0.098480
O O9 0.748958 0.123381 0.429806
O O10 0.818933 0.967999 0.245123
O O11 0.764775 0.267432 0.332913
O O12 0.896246 0.174580 0.229194
O O13 0.537677 0.948810 0.851464
O O14 0.345524 0.661539 0.300000
O O15 0.500000 0.000000 0.500000
O O16 0.811779 0.430077 0.656363
O O17 0.000000 0.500000 0.000000
#
# Coordination Sequence:
#
# PCOD8009319 Si02
#       8
#     2   2   2   2   2   2   2   2
#     4  11  23  36  54  90 120 151 192 239 297 347
#     4  10  21  36  61  87 115 156 199 239 289 337
#     4   9  18  35  56  83 119 149 189 245 292 337
#     4   9  19  37  60  86 116 154 195 243 279 335
#     4  11  22  37  61  91 120 146 194 251 290 341
#     4   9  18  36  62  89 111 147 201 244 281 339
#     4  11  22  35  56  84 121 157 196 233 287 354
#     4  12  21  38  65  88 113 151 193 240 300 349
#
# _framework density 20.202380000000002
#
# number of rings (size 3 to 8) (size 9 to 14) (size 15 to 20)
#    0.000    1.750    2.500    3.750    1.750    3.000 
#    0.000    0.625    0.000    5.250    0.000    0.000 
#    0.000    0.000    0.000    0.000    0.000    0.000 
#
# Total GULP energy -198416.663398 kJ/mol
# GULP energy per Si atom -12401.041462 kJ/mol
# Density = 2.015640 g / cm^3
# Si number density = 20.202380 Si / 1000 Ang^3
#
#
#
# Elastic Constant Matrix: (Units=GPa)
#
#
# Indices 1 2 3 4 5 6 
#
# 1 112.4212 34.6434 48.3560 4.2585 9.2887 -25.4168
# 2 34.6434 54.8779 32.6536 0.8163 -0.3584 -18.8942
# 3 48.3560 32.6536 104.5023 5.6040 -6.7544 -14.9521
# 4 4.2585 0.8163 5.6040 24.9986 3.6125 -3.2318
# 5 9.2887 -0.3584 -6.7544 3.6125 23.7625 6.4628
# 6 -25.4168 -18.8942 -14.9521 -3.2318 6.4628 33.3810
#
#
#
# Elastic Compliance Matrix: (Units=1/GPa)
#
#
# Indices 1 2 3 4 5 6 
#
# 1 0.015121 -0.003178 -0.005397 0.001441 -0.010276 0.009427
# 2 -0.003178 0.027665 -0.005911 0.002984 -0.003625 0.011582
# 3 -0.005397 -0.005911 0.014166 -0.003498 0.007360 -0.002874
# 4 0.001441 0.002984 -0.003498 0.042835 -0.010011 0.007305
# 5 -0.010276 -0.003625 0.007360 -0.010011 0.054587 -0.018116
# 6 0.009427 0.011582 -0.002874 0.007305 -0.018116 0.046618
#
#
# Mechanical properties :
#
#
# Convention : Reuss Voigt Hill
#
# Bulk Modulus (GPa) = 35.73867 55.90082 45.81974
# Shear Modulus (GPa) = 20.89517 26.83832 23.86675
#
# Velocity S-wave (km/s) = 3.21953 3.64878 3.44085
# Velocity P-wave (km/s) = 5.61687 6.74403 6.20609
#
# Compressibility (1/GPa) = 0.02798090
#
# Stress axis : x y z
#
# Youngs Moduli (GPa) = 66.13173 36.14644 70.59315
#
# Poissons Ratio (x) = 0.11486 0.38098
# Poissons Ratio (y) = 0.21014 0.41729
# Poissons Ratio (z) = 0.35690 0.21367
#
# Static dielectric constant tensor:
#      x y z
#    x 3.665320 0.010480 0.240270 
#    y 0.010480 3.593440 0.006430 
#    z 0.240270 0.006430 3.746120 
# 
# 
# High freq. dielectric constant tensor:
#      x y z
#    x 1.776580 0.001860 0.017950 
#    y 0.001860 1.769370 0.002770 
#    z 0.017950 0.002770 1.795310 
# 
# From -- ./inp_files/425113.got.cif
#   From: 2010.06.25/outbox.cif.g09.slc.cpg/sg2_213_cif.got.tgz:425113.got - 2010.06.27 13:26:56.
