data_PCOD8009836
_publ_section_title
;
Structure prediction by ZEFSAII (Michael W. Deem and Ramdas Pophale) SiO2 
 PCOD8009836
Probable space group: P -1
;
_chemical_formula_sum "Si O2"
_cell_formula_units_Z 16
_cell_length_a 9.650174
_cell_length_b 8.769441
_cell_length_c 11.789974
_cell_angle_alpha 85.957078
_cell_angle_beta 46.642787
_cell_angle_gamma 88.716146
_cell_volume 723.178218
_symmetry_space_group_name_H-M "P -1"
_symmetry_group_IT_number 2
_symmetry_cell_setting 'triclinic'
loop_
_space_group_symop_operation_xyz
x,y,z
-x,-y,-z
loop_
_atom_site_type_symbol
_atom_site_label
_atom_site_fract_x
_atom_site_fract_y
_atom_site_fract_z
Si Si1 0.543515 0.284710 0.761743
Si Si2 0.134189 0.180022 0.690208
Si Si3 0.116352 0.820596 0.756695
Si Si4 0.722167 0.816587 0.877085
Si Si5 0.123406 0.903881 0.350076
Si Si6 0.911139 0.350665 0.994952
Si Si7 0.501382 0.585132 0.876682
Si Si8 0.505147 0.321488 0.530747
O O1 0.742487 0.201382 0.646806
O O2 0.588605 0.465805 0.746204
O O3 0.442884 0.275569 0.696589
O O4 0.413576 0.203707 0.936064
O O5 0.352509 0.233775 0.540013
O O6 0.017251 0.204852 0.639484
O O7 0.056006 0.291830 0.823750
O O8 0.128247 0.002776 0.735727
O O9 0.287629 0.739468 0.603942
O O10 0.926636 0.753696 0.802872
O O11 0.118752 0.781988 0.889569
O O12 0.637671 0.734374 0.814778
O O13 0.749425 0.992943 0.815114
O O14 0.000000 0.000000 0.500000
O O15 0.709970 0.377207 0.046400
O O16 0.000000 0.500000 0.000000
O O17 0.500000 0.500000 0.000000
O O18 0.500000 0.500000 0.500000
#
# Coordination Sequence:
#
# PCOD8009836 Si02
#       8
#     2   2   2   2   2   2   2   2
#     4  11  22  41  66  93 127 170 216 265 321 389
#     4  11  24  44  66  93 129 173 218 269 330 396
#     4  11  24  42  63  94 130 171 217 272 328 387
#     4  10  22  42  66  95 128 168 217 268 322 387
#     4  11  25  44  66  98 134 170 212 268 326 390
#     4  12  23  41  67  98 131 170 221 273 325 391
#     4  10  21  37  61  94 126 165 215 270 320 377
#     4  12  26  43  64  95 133 175 220 273 331 389
#
# _framework density 22.124559000000001
#
# number of rings (size 3 to 8) (size 9 to 14) (size 15 to 20)
#    0.000    1.000    0.000    8.625    0.000    6.000 
#    0.000    1.875    0.000    0.000    0.000    0.000 
#    0.000    0.000    0.000    0.000    0.000    0.000 
#
# Total GULP energy -198375.335356 kJ/mol
# GULP energy per Si atom -12398.458460 kJ/mol
# Density = 2.207420 g / cm^3
# Si number density = 22.124559 Si / 1000 Ang^3
#
#
#
# Elastic Constant Matrix: (Units=GPa)
#
#
# Indices 1 2 3 4 5 6 
#
# 1 179.4335 61.2580 39.1596 -2.2648 -25.2177 7.7724
# 2 61.2580 91.6261 28.3236 15.7771 -18.3957 -0.0238
# 3 39.1596 28.3236 87.2505 16.5772 -9.0844 4.3427
# 4 -2.2648 15.7771 16.5772 41.0805 -6.3569 -1.1326
# 5 -25.2177 -18.3957 -9.0844 -6.3569 39.4950 1.1445
# 6 7.7724 -0.0238 4.3427 -1.1326 1.1445 44.5713
#
#
#
# Elastic Compliance Matrix: (Units=1/GPa)
#
#
# Indices 1 2 3 4 5 6 
#
# 1 0.008292 -0.004791 -0.002495 0.003755 0.003128 -0.001190
# 2 -0.004791 0.016230 -0.001828 -0.005240 0.003213 0.000807
# 3 -0.002495 -0.001828 0.014218 -0.005200 0.000021 -0.001084
# 4 0.003755 -0.005240 -0.005200 0.029208 0.003447 0.000503
# 5 0.003128 0.003213 0.000021 0.003447 0.029408 -0.001213
# 6 -0.001190 0.000807 -0.001084 0.000503 -0.001213 0.022793
#
#
# Mechanical properties :
#
#
# Convention : Reuss Voigt Hill
#
# Bulk Modulus (GPa) = 48.75282 68.42140 58.58711
# Shear Modulus (GPa) = 34.43169 40.33395 37.38282
#
# Velocity S-wave (km/s) = 3.94923 4.27434 4.11500
# Velocity P-wave (km/s) = 6.54818 7.43994 7.00826
#
# Compressibility (1/GPa) = 0.02051163
#
# Stress axis : x y z
#
# Youngs Moduli (GPa) = 120.60038 61.61430 70.33151
#
# Poissons Ratio (x) = 0.29522 0.17545
# Poissons Ratio (y) = 0.57785 0.12858
# Poissons Ratio (z) = 0.30086 0.11264
#
# Static dielectric constant tensor:
#      x y z
#    x 4.625360 0.331530 0.012270 
#    y 0.331530 4.412200 0.033170 
#    z 0.012270 0.033170 3.925830 
# 
# 
# High freq. dielectric constant tensor:
#      x y z
#    x 1.898110 -0.004100 -0.002160 
#    y -0.004100 1.873250 0.004740 
#    z -0.002160 0.004740 1.862790 
# 
# From -- ./inp_files/382209.got.cif
#   From: 2010.06.25/outbox.cif.g09.slc.cpg/sg2_192_cif.got.tgz:382209.got - 2010.06.27 13:26:56.
