data_PCOD8009747
_publ_section_title
;
Structure prediction by ZEFSAII (Michael W. Deem and Ramdas Pophale) SiO2 
 PCOD8009747
Probable space group: P -1
;
_chemical_formula_sum "Si O2"
_cell_formula_units_Z 16
_cell_length_a 19.798640
_cell_length_b 9.244380
_cell_length_c 26.476684
_cell_angle_alpha 149.358458
_cell_angle_beta 161.853022
_cell_angle_gamma 38.686576
_cell_volume 748.043529
_symmetry_space_group_name_H-M "P -1"
_symmetry_group_IT_number 2
_symmetry_cell_setting 'triclinic'
loop_
_space_group_symop_operation_xyz
x,y,z
-x,-y,-z
loop_
_atom_site_type_symbol
_atom_site_label
_atom_site_fract_x
_atom_site_fract_y
_atom_site_fract_z
Si Si1 0.682004 0.694408 0.385426
Si Si2 0.243872 0.344309 0.272279
Si Si3 0.897535 0.158613 0.212650
Si Si4 0.847918 0.555027 0.607255
Si Si5 0.387517 0.467718 0.196485
Si Si6 0.897387 0.093483 0.876439
Si Si7 0.123244 0.822369 0.393841
Si Si8 0.253116 0.832310 0.785955
O O1 0.456586 0.544070 0.209512
O O2 0.802534 0.456352 0.374807
O O3 0.863231 0.884689 0.610084
O O4 0.657862 0.926825 0.393898
O O5 0.500000 0.500000 0.500000
O O6 0.097173 0.542754 0.255023
O O7 0.227261 0.052539 0.205510
O O8 0.146143 0.266309 0.122932
O O9 0.761455 0.257787 0.192073
O O10 0.960900 0.409023 0.289535
O O11 0.757820 0.858638 0.000005
O O12 0.601750 0.500834 0.393573
O O13 0.851510 0.274770 0.559903
O O14 0.908703 0.858647 0.771578
O O15 0.239659 0.683211 0.176167
O O16 0.905537 0.951643 0.274460
O O17 0.500000 0.000000 0.000000
#
# Coordination Sequence:
#
# PCOD8009747 Si02
#       8
#     2   2   2   2   2   2   2   2
#     4  10  21  39  67  91 118 155 212 265 306 359
#     4  10  21  37  60  95 124 160 209 257 308 354
#     4  10  21  39  60  87 125 157 205 252 305 367
#     4  10  24  40  57  91 133 168 201 248 313 374
#     4  11  21  39  63  91 124 171 211 247 304 367
#     4  10  21  37  60  89 129 163 209 253 298 366
#     4  10  21  41  62  91 129 158 201 266 307 359
#     4  11  21  41  69  95 112 158 215 262 312 365
#
# _framework density 21.389130000000002
#
# number of rings (size 3 to 8) (size 9 to 14) (size 15 to 20)
#    0.000    1.750    1.250    4.125    0.000    3.500 
#    4.500    6.250    0.000    0.000    0.000    0.000 
#    0.000    0.000    0.000    0.000    0.000    0.000 
#
# Total GULP energy -198317.212910 kJ/mol
# GULP energy per Si atom -12394.825807 kJ/mol
# Density = 2.134045 g / cm^3
# Si number density = 21.389130 Si / 1000 Ang^3
#
#
#
# Elastic Constant Matrix: (Units=GPa)
#
#
# Indices 1 2 3 4 5 6 
#
# 1 104.5675 37.9079 35.4652 -3.6388 2.8930 24.4999
# 2 37.9079 91.4801 41.9530 3.2252 -6.9083 13.0890
# 3 35.4652 41.9530 129.6050 -2.3285 -2.2833 11.6947
# 4 -3.6388 3.2252 -2.3285 23.5187 -0.5461 3.9134
# 5 2.8930 -6.9083 -2.2833 -0.5461 35.3634 10.9144
# 6 24.4999 13.0890 11.6947 3.9134 10.9144 36.1221
#
#
#
# Elastic Compliance Matrix: (Units=1/GPa)
#
#
# Indices 1 2 3 4 5 6 
#
# 1 0.013437 -0.003783 -0.001676 0.003734 0.000505 -0.007757
# 2 -0.003783 0.014843 -0.003520 -0.002461 0.003725 -0.002532
# 3 -0.001676 -0.003520 0.009424 0.001312 0.000352 -0.000887
# 4 0.003734 -0.002461 0.001312 0.044890 0.002349 -0.007639
# 5 0.000505 0.003725 0.000352 0.002349 0.032710 -0.011945
# 6 -0.007757 -0.002532 -0.000887 -0.007639 -0.011945 0.038587
#
#
# Mechanical properties :
#
#
# Convention : Reuss Voigt Hill
#
# Bulk Modulus (GPa) = 50.64330 61.81166 56.22748
# Shear Modulus (GPa) = 28.02218 33.02259 30.52238
#
# Velocity S-wave (km/s) = 3.62348 3.93351 3.78167
# Velocity P-wave (km/s) = 6.42142 7.04211 6.73891
#
# Compressibility (1/GPa) = 0.01974595
#
# Stress axis : x y z
#
# Youngs Moduli (GPa) = 74.42408 67.36975 106.11594
#
# Poissons Ratio (x) = 0.25484 0.17789
# Poissons Ratio (y) = 0.28152 0.37351
# Poissons Ratio (z) = 0.12476 0.23713
#
# Static dielectric constant tensor:
#      x y z
#    x 4.182170 0.129920 0.032450 
#    y 0.129920 3.745190 0.250780 
#    z 0.032450 0.250780 3.956630 
# 
# 
# High freq. dielectric constant tensor:
#      x y z
#    x 1.841760 0.004550 0.007560 
#    y 0.004550 1.816500 0.015000 
#    z 0.007560 0.015000 1.848950 
# 
# From -- ./inp_files/620696.got.cif
#   From: 2010.06.25/outbox.cif.g09.slc.cpg/sg2_311_cif.got.tgz:620696.got - 2010.06.27 13:26:56.
