data_PCOD8009540
_publ_section_title
;
Structure prediction by ZEFSAII (Michael W. Deem and Ramdas Pophale) SiO2 
 PCOD8009540
Probable space group: P -1
;
_chemical_formula_sum "Si O2"
_cell_formula_units_Z 16
_cell_length_a 14.209816
_cell_length_b 11.762342
_cell_length_c 15.122013
_cell_angle_alpha 29.938234
_cell_angle_beta 126.563457
_cell_angle_gamma 138.634694
_cell_volume 822.075138
_symmetry_space_group_name_H-M "P -1"
_symmetry_group_IT_number 2
_symmetry_cell_setting 'triclinic'
loop_
_space_group_symop_operation_xyz
x,y,z
-x,-y,-z
loop_
_atom_site_type_symbol
_atom_site_label
_atom_site_fract_x
_atom_site_fract_y
_atom_site_fract_z
Si Si1 0.325280 0.108336 0.905005
Si Si2 0.709050 0.433898 0.018183
Si Si3 0.533392 0.089162 0.316257
Si Si4 0.618691 0.870759 0.276347
Si Si5 0.883740 0.869290 0.446753
Si Si6 0.985577 0.265535 0.085388
Si Si7 0.469752 0.327657 0.279704
Si Si8 0.645950 0.264150 0.701347
O O1 0.398217 0.211986 0.779736
O O2 0.375030 0.394341 0.790328
O O3 0.153772 0.879916 0.957347
O O4 0.385521 0.965217 0.090044
O O5 0.662942 0.317360 0.171015
O O6 0.649804 0.176410 0.091804
O O7 0.650178 0.611411 0.833741
O O8 0.882105 0.626940 0.978628
O O9 0.490646 0.247707 0.248439
O O10 0.583729 0.926704 0.510304
O O11 0.390482 0.868092 0.327622
O O12 0.756216 0.902544 0.376203
O O13 0.467906 0.658959 0.389309
O O14 0.809741 0.538922 0.613088
O O15 0.967709 0.025438 0.299312
O O16 0.000000 0.000000 0.500000
O O17 0.000000 0.500000 0.000000
#
# Coordination Sequence:
#
# PCOD8009540 Si02
#       8
#     2   2   2   2   2   2   2   2
#     4  11  21  37  61  88 125 166 194 254 314 358
#     4  11  22  40  65  91 125 164 203 253 307 372
#     4  10  23  43  67  94 118 156 216 261 308 356
#     4  10  21  37  56  89 126 156 204 253 302 375
#     4  11  23  35  57  87 128 168 199 248 304 373
#     4  11  22  40  54  85 135 166 198 240 307 380
#     4  11  23  42  70  90 120 158 210 268 306 353
#     4  11  22  37  61  90 119 163 206 255 304 365
#
# _framework density 19.46294
#
# number of rings (size 3 to 8) (size 9 to 14) (size 15 to 20)
#    0.000    1.250    5.000    3.375    0.000    3.000 
#    0.000    0.625    0.000    2.250    0.000    0.000 
#    0.000    0.000    0.000    0.000    0.000    0.000 
#
# Total GULP energy -198355.448209 kJ/mol
# GULP energy per Si atom -12397.215513 kJ/mol
# Density = 1.941864 g / cm^3
# Si number density = 19.462940 Si / 1000 Ang^3
#
#
#
# Elastic Constant Matrix: (Units=GPa)
#
#
# Indices 1 2 3 4 5 6 
#
# 1 94.7643 71.3678 37.2478 -3.4003 -4.6084 -0.5253
# 2 71.3678 138.4935 36.8178 -0.8782 -3.7592 -9.3513
# 3 37.2478 36.8178 87.0867 8.0142 -3.7835 2.6489
# 4 -3.4003 -0.8782 8.0142 31.0394 3.4157 -2.6122
# 5 -4.6084 -3.7592 -3.7835 3.4157 33.4345 -5.6203
# 6 -0.5253 -9.3513 2.6489 -2.6122 -5.6203 30.3368
#
#
#
# Elastic Compliance Matrix: (Units=1/GPa)
#
#
# Indices 1 2 3 4 5 6 
#
# 1 0.019005 -0.008624 -0.004673 0.002850 0.000566 -0.001571
# 2 -0.008624 0.012388 -0.001648 0.000089 0.000672 0.003945
# 3 -0.004673 -0.001648 0.014710 -0.004638 0.000957 -0.002095
# 4 0.002850 0.000089 -0.004638 0.034316 -0.003148 0.002853
# 5 0.000566 0.000672 0.000957 -0.003148 0.031449 0.005689
# 6 -0.001571 0.003945 -0.002095 0.002853 0.005689 0.035635
#
#
# Mechanical properties :
#
#
# Convention : Reuss Voigt Hill
#
# Bulk Modulus (GPa) = 61.67354 67.91236 64.79295
# Shear Modulus (GPa) = 27.35293 30.62287 28.98790
#
# Velocity S-wave (km/s) = 3.75291 3.97091 3.86345
# Velocity P-wave (km/s) = 7.10884 7.48285 7.29824
#
# Compressibility (1/GPa) = 0.01621441
#
# Stress axis : x y z
#
# Youngs Moduli (GPa) = 52.61782 80.72415 67.98081
#
# Poissons Ratio (x) = 0.69617 0.31764
# Poissons Ratio (y) = 0.45378 0.11201
# Poissons Ratio (z) = 0.24586 0.13301
#
# Static dielectric constant tensor:
#      x y z
#    x 3.596820 0.287570 -0.012290 
#    y 0.287570 3.992060 -0.067720 
#    z -0.012290 -0.067720 3.771100 
# 
# 
# High freq. dielectric constant tensor:
#      x y z
#    x 1.733280 0.003380 -0.002630 
#    y 0.003380 1.757600 -0.004040 
#    z -0.002630 -0.004040 1.779750 
# 
# From -- ./inp_files/331382.got.cif
#   From: 2010.06.25/outbox.cif.g09.slc.cpg/sg2_166_cif.got.tgz:331382.got - 2010.06.27 13:26:56.
