data_PCOD8009016
_publ_section_title
;
Structure prediction by ZEFSAII (Michael W. Deem and Ramdas Pophale) SiO2 
 PCOD8009016
Probable space group: P -1
;
_chemical_formula_sum "Si O2"
_cell_formula_units_Z 16
_cell_length_a 16.989403
_cell_length_b 11.937218
_cell_length_c 7.429614
_cell_angle_alpha 121.153397
_cell_angle_beta 58.283392
_cell_angle_gamma 149.768360
_cell_volume 638.311993
_symmetry_space_group_name_H-M "P -1"
_symmetry_group_IT_number 2
_symmetry_cell_setting 'triclinic'
loop_
_space_group_symop_operation_xyz
x,y,z
-x,-y,-z
loop_
_atom_site_type_symbol
_atom_site_label
_atom_site_fract_x
_atom_site_fract_y
_atom_site_fract_z
Si Si1 0.841414 0.131376 0.965750
Si Si2 0.892396 0.539926 0.459873
Si Si3 0.082111 0.986981 0.517080
Si Si4 0.379228 0.454668 0.705878
Si Si5 0.625989 0.171551 0.751246
Si Si6 0.874042 0.401892 0.908373
Si Si7 0.499073 0.287760 0.876684
Si Si8 0.381605 0.669563 0.590419
O O1 0.841985 0.288857 0.042196
O O2 0.830090 0.018933 0.719510
O O3 0.018263 0.338645 0.014041
O O4 0.692540 0.921440 0.097554
O O5 0.784023 0.365869 0.604779
O O6 0.783196 0.437815 0.323563
O O7 0.038947 0.609400 0.326553
O O8 0.958166 0.763353 0.603595
O O9 0.203443 0.193350 0.681337
O O10 0.000000 0.000000 0.500000
O O11 0.500000 0.500000 0.500000
O O12 0.382892 0.598612 0.720011
O O13 0.428003 0.520857 0.913562
O O14 0.695168 0.233465 0.920519
O O15 0.516901 0.171675 0.863855
O O16 0.532058 0.936190 0.608300
O O17 0.594406 0.403412 0.669464
#
# Coordination Sequence:
#
# PCOD8009016 Si02
#       8
#     2   2   2   2   2   2   2   2
#     4  10  21  39  60  92 131 169 216 270 325 390
#     4  10  21  41  63  91 131 171 208 268 332 383
#     4  11  23  43  66  88 131 179 215 268 325 381
#     4  12  26  46  68  96 132 177 228 263 318 396
#     4  11  23  39  67 101 131 166 218 276 334 384
#     4  10  21  35  63  96 128 169 216 266 334 386
#     4  11  24  43  66  98 131 171 222 268 329 391
#     4  11  24  44  71  96 135 173 212 278 331 385
#
# _framework density 25.066112
#
# number of rings (size 3 to 8) (size 9 to 14) (size 15 to 20)
#    0.000    1.250    2.500    4.125    3.500    3.500 
#    0.000    2.500    0.000    0.000    0.000    0.000 
#    0.000    0.000    0.000    0.000    0.000    0.000 
#
# Total GULP energy -198247.787057 kJ/mol
# GULP energy per Si atom -12390.486691 kJ/mol
# Density = 2.500906 g / cm^3
# Si number density = 25.066112 Si / 1000 Ang^3
#
#
#
# Elastic Constant Matrix: (Units=GPa)
#
#
# Indices 1 2 3 4 5 6 
#
# 1 42.7556 2.9930 -14.5186 10.0931 -2.5891 12.2807
# 2 2.9930 137.1305 2.3832 25.1535 -3.1397 12.4728
# 3 -14.5186 2.3832 46.6578 16.4500 -5.9904 10.1558
# 4 10.0931 25.1535 16.4500 35.7128 6.7830 3.6109
# 5 -2.5891 -3.1397 -5.9904 6.7830 31.0401 4.4850
# 6 12.2807 12.4728 10.1558 3.6109 4.4850 40.4620
#
#
#
# Elastic Compliance Matrix: (Units=1/GPa)
#
#
# Indices 1 2 3 4 5 6 
#
# 1 0.061139 0.010422 0.046611 -0.048589 0.030465 -0.032509
# 2 0.010422 0.011013 0.011837 -0.017005 0.009290 -0.009042
# 3 0.046611 0.011837 0.066643 -0.055454 0.034897 -0.033442
# 4 -0.048589 -0.017005 -0.055454 0.083584 -0.039189 0.030793
# 5 0.030465 0.009290 0.034897 -0.039189 0.054377 -0.023399
# 6 -0.032509 -0.009042 -0.033442 0.030793 -0.023399 0.045608
#
#
# Mechanical properties :
#
#
# Convention : Reuss Voigt Hill
#
# Bulk Modulus (GPa) = 3.61616 23.13989 13.37802
# Shear Modulus (GPa) = 18.06344 37.15540 27.60942
#
# Velocity S-wave (km/s) = 2.68737 3.85424 3.32243
# Velocity P-wave (km/s) = 3.32792 5.39059 4.47959
#
# Compressibility (1/GPa) = 0.27653654
#
# Stress axis : x y z
#
# Youngs Moduli (GPa) = 16.35605 90.79793 15.00536
#
# Poissons Ratio (x) = -0.94634 -0.69941
# Poissons Ratio (y) = -0.17047 -0.17762
# Poissons Ratio (z) = -0.76237 -1.07477
#
# Static dielectric constant tensor:
#      x y z
#    x 4.612340 0.123960 -0.057760 
#    y 0.123960 4.958600 0.306860 
#    z -0.057760 0.306860 4.363500 
# 
# 
# High freq. dielectric constant tensor:
#      x y z
#    x 1.984240 0.017480 -0.013130 
#    y 0.017480 2.010400 0.006720 
#    z -0.013130 0.006720 1.996640 
# 
# From -- ./inp_files/278603.got.cif
#   From: 2010.06.25/outbox.cif.g09.slc.cpg/sg2_140_cif.got.tgz:278603.got - 2010.06.27 13:26:56.
