data_PCOD8009109
_publ_section_title
;
Structure prediction by ZEFSAII (Michael W. Deem and Ramdas Pophale) SiO2 
 PCOD8009109
Probable space group: P -1
;
_chemical_formula_sum "Si O2"
_cell_formula_units_Z 14
_cell_length_a 19.157555
_cell_length_b 11.979789
_cell_length_c 5.255420
_cell_angle_alpha 116.945452
_cell_angle_beta 85.304603
_cell_angle_gamma 131.822565
_cell_volume 755.906822
_symmetry_space_group_name_H-M "P -1"
_symmetry_group_IT_number 2
_symmetry_cell_setting 'triclinic'
loop_
_space_group_symop_operation_xyz
x,y,z
-x,-y,-z
loop_
_atom_site_type_symbol
_atom_site_label
_atom_site_fract_x
_atom_site_fract_y
_atom_site_fract_z
Si Si1 0.872287 0.701055 0.253698
Si Si2 0.219851 0.056274 0.903397
Si Si3 0.872473 0.304635 0.590538
Si Si4 0.903045 0.488606 0.270556
Si Si5 0.301438 0.382387 0.952200
Si Si6 0.389138 0.407673 0.440324
Si Si7 0.051378 0.972965 0.149671
O O1 0.869859 0.591182 0.356351
O O2 0.767671 0.580273 0.008308
O O3 0.966956 0.790596 0.140625
O O4 0.879861 0.850380 0.519244
O O5 0.213137 0.908242 0.639847
O O6 0.230652 0.169738 0.787675
O O7 0.117520 0.951313 0.976585
O O8 0.314631 0.193948 0.206041
O O9 0.862708 0.391337 0.453353
O O10 0.978619 0.371620 0.630268
O O11 0.853328 0.348106 0.909310
O O12 0.369480 0.454555 0.757545
O O13 0.370921 0.481369 0.285856
O O14 0.500000 0.500000 0.500000
O O15 0.000000 0.000000 0.000000
#
# Coordination Sequence:
#
# PCOD8009109 Si02
#       7
#     2   2   2   2   2   2   2
#     4  11  22  33  52  82 114 152 185 223 276 325
#     4  10  22  33  59  79 117 139 190 223 277 331
#     4  10  23  38  49  77 107 160 193 225 251 315
#     4  10  24  35  53  71 115 155 197 218 256 309
#     4  10  21  36  56  86 110 140 176 230 283 343
#     4  10  21  37  58  86 112 136 174 234 298 339
#     4  11  20  32  51  81 116 149 179 224 276 332
#
# _framework density 18.520799
#
# number of rings (size 3 to 8) (size 9 to 14) (size 15 to 20)
#    0.857    0.857    2.857    1.286   12.000    0.000 
#    0.000    0.000    0.000    0.000    0.000    6.000 
#    0.000    0.000    0.000    0.000    0.000    0.000 
#
# Total GULP energy -173526.552034 kJ/mol
# GULP energy per Si atom -12394.753717 kJ/mol
# Density = 1.847865 g / cm^3
# Si number density = 18.520799 Si / 1000 Ang^3
#
#
#
# Elastic Constant Matrix: (Units=GPa)
#
#
# Indices 1 2 3 4 5 6 
#
# 1 108.4068 46.1261 25.5313 -5.5265 16.9124 -4.5234
# 2 46.1261 57.7155 26.7629 -11.9479 3.7276 -7.5270
# 3 25.5313 26.7629 76.8805 -17.8567 8.4980 5.2080
# 4 -5.5265 -11.9479 -17.8567 29.7014 -3.5449 3.1503
# 5 16.9124 3.7276 8.4980 -3.5449 25.3478 -8.4361
# 6 -4.5234 -7.5270 5.2080 3.1503 -8.4361 30.2482
#
#
#
# Elastic Compliance Matrix: (Units=1/GPa)
#
#
# Indices 1 2 3 4 5 6 
#
# 1 0.016282 -0.013421 -0.000115 -0.003321 -0.010466 -0.003458
# 2 -0.013421 0.033529 -0.007525 0.006699 0.010794 0.009945
# 3 -0.000115 -0.007525 0.018860 0.008336 -0.006583 -0.007841
# 4 -0.003321 0.006699 0.008336 0.041513 0.002992 -0.003754
# 5 -0.010466 0.010794 -0.006583 0.002992 0.053043 0.016736
# 6 -0.003458 0.009945 -0.007841 -0.003754 0.016736 0.041426
#
#
# Mechanical properties :
#
#
# Convention : Reuss Voigt Hill
#
# Bulk Modulus (GPa) = 37.66877 48.87148 43.27012
# Shear Modulus (GPa) = 19.55997 26.69832 23.12914
#
# Velocity S-wave (km/s) = 3.25331 3.80087 3.53770
# Velocity P-wave (km/s) = 5.87323 6.76068 6.33252
#
# Compressibility (1/GPa) = 0.02654719
#
# Stress axis : x y z
#
# Youngs Moduli (GPa) = 61.41937 29.82501 53.02187
#
# Poissons Ratio (x) = 0.40029 0.00610
# Poissons Ratio (y) = 0.82433 0.39901
# Poissons Ratio (z) = 0.00706 0.22444
#
# Static dielectric constant tensor:
#      x y z
#    x 3.126440 -0.127890 0.149670 
#    y -0.127890 3.196330 -0.135220 
#    z 0.149670 -0.135220 3.553090 
# 
# 
# High freq. dielectric constant tensor:
#      x y z
#    x 1.697690 -0.015500 0.011790 
#    y -0.015500 1.688720 -0.026130 
#    z 0.011790 -0.026130 1.720100 
# 
# From -- ./inp_files/79685.got.cif
#   From: 2010.06.25/outbox.cif.g09.slc.cpg/sg2_40_cif.got.tgz:79685.got - 2010.06.27 13:26:56.
