data_PCOD8009433
_publ_section_title
;
Structure prediction by ZEFSAII (Michael W. Deem and Ramdas Pophale) SiO2 
 PCOD8009433
Probable space group: P -1
;
_chemical_formula_sum "Si O2"
_cell_formula_units_Z 16
_cell_length_a 14.339566
_cell_length_b 18.056501
_cell_length_c 8.216623
_cell_angle_alpha 137.682351
_cell_angle_beta 150.210417
_cell_angle_gamma 40.378199
_cell_volume 664.156569
_symmetry_space_group_name_H-M "P -1"
_symmetry_group_IT_number 2
_symmetry_cell_setting 'triclinic'
loop_
_space_group_symop_operation_xyz
x,y,z
-x,-y,-z
loop_
_atom_site_type_symbol
_atom_site_label
_atom_site_fract_x
_atom_site_fract_y
_atom_site_fract_z
Si Si1 0.002594 0.058609 0.350095
Si Si2 0.982292 0.673776 0.847372
Si Si3 0.371439 0.054777 0.738564
Si Si4 0.712528 0.297613 0.390537
Si Si5 0.757782 0.938145 0.957463
Si Si6 0.028670 0.553790 0.405834
Si Si7 0.381569 0.301279 0.114353
Si Si8 0.389557 0.497755 0.661998
O O1 0.161912 0.026576 0.385905
O O2 0.859295 0.194833 0.332878
O O3 0.138153 0.038130 0.683870
O O4 0.858352 0.981331 0.024657
O O5 0.889184 0.578350 0.611417
O O6 0.803159 0.800095 0.778045
O O7 0.068334 0.640427 0.740858
O O8 0.164681 0.666189 0.226276
O O9 0.512485 0.002233 0.707348
O O10 0.309763 0.196155 0.890743
O O11 0.500000 0.000000 0.000000
O O12 0.563703 0.245342 0.173150
O O13 0.576167 0.412910 0.271939
O O14 0.150828 0.552070 0.424028
O O15 0.795501 0.595930 0.076459
O O16 0.453367 0.364191 0.474428
O O17 0.500000 0.500000 0.000000
#
# Coordination Sequence:
#
# PCOD8009433 Si02
#       8
#     2   2   2   2   2   2   2   2
#     4   9  18  35  63  93 133 169 222 268 330 396
#     4  10  23  41  71  93 139 173 222 274 340 395
#     4  10  21  36  64 103 126 172 228 272 327 403
#     4  11  22  42  67  98 132 181 213 276 340 402
#     4   9  18  37  61  99 128 175 215 275 331 391
#     4  11  25  43  64 101 133 178 224 278 330 400
#     4  12  24  42  71  96 136 178 220 276 339 396
#     4  12  27  42  64  99 135 174 227 277 333 400
#
# _framework density 24.090705
#
# number of rings (size 3 to 8) (size 9 to 14) (size 15 to 20)
#    0.000    1.500    2.500    2.250   10.500    0.000 
#    0.000    0.625    2.750    1.500    0.000    0.000 
#    0.000    0.000    0.000    0.000    0.000    0.000 
#
# Total GULP energy -198346.037107 kJ/mol
# GULP energy per Si atom -12396.627319 kJ/mol
# Density = 2.403587 g / cm^3
# Si number density = 24.090705 Si / 1000 Ang^3
#
#
#
# Elastic Constant Matrix: (Units=GPa)
#
#
# Indices 1 2 3 4 5 6 
#
# 1 132.2649 49.7670 33.9757 5.2619 34.5928 -14.0076
# 2 49.7670 126.3384 42.9833 17.4728 15.3151 -8.6671
# 3 33.9757 42.9833 65.7010 2.3283 14.6723 -3.2787
# 4 5.2619 17.4728 2.3283 25.9728 -1.8257 4.8972
# 5 34.5928 15.3151 14.6723 -1.8257 36.7695 -9.2759
# 6 -14.0076 -8.6671 -3.2787 4.8972 -9.2759 32.2834
#
#
#
# Elastic Compliance Matrix: (Units=1/GPa)
#
#
# Indices 1 2 3 4 5 6 
#
# 1 0.011555 -0.002374 -0.002369 -0.001491 -0.008528 0.001911
# 2 -0.002374 0.012290 -0.006396 -0.007741 -0.000013 0.002790
# 3 -0.002369 -0.006396 0.021311 0.003003 -0.004014 -0.002190
# 4 -0.001491 -0.007741 0.003003 0.045559 0.003597 -0.008298
# 5 -0.008528 -0.000013 -0.004014 0.003597 0.038631 0.006442
# 6 0.001911 0.002790 -0.002190 -0.008298 0.006442 0.035441
#
#
# Mechanical properties :
#
#
# Convention : Reuss Voigt Hill
#
# Bulk Modulus (GPa) = 43.71304 64.19513 53.95409
# Shear Modulus (GPa) = 25.68147 32.17705 28.92926
#
# Velocity S-wave (km/s) = 3.26856 3.65864 3.46908
# Velocity P-wave (km/s) = 5.69466 6.67477 6.20410
#
# Compressibility (1/GPa) = 0.02287647
#
# Stress axis : x y z
#
# Youngs Moduli (GPa) = 86.54386 81.36493 46.92445
#
# Poissons Ratio (x) = 0.19320 0.11117
# Poissons Ratio (y) = 0.20550 0.30014
# Poissons Ratio (z) = 0.20503 0.52043
#
# Static dielectric constant tensor:
#      x y z
#    x 4.778720 -0.259940 0.398370 
#    y -0.259940 4.506060 -0.045440 
#    z 0.398370 -0.045440 4.073250 
# 
# 
# High freq. dielectric constant tensor:
#      x y z
#    x 1.960520 -0.005430 0.015330 
#    y -0.005430 1.957420 0.000770 
#    z 0.015330 0.000770 1.936460 
# 
# From -- ./inp_files/318189.got.cif
#   From: 2010.06.25/outbox.cif.g09.slc.cpg/sg2_160_cif.got.tgz:318189.got - 2010.06.27 13:26:56.
