data_PCOD8009985
_publ_section_title
;
Structure prediction by ZEFSAII (Michael W. Deem and Ramdas Pophale) SiO2 
 PCOD8009985
Probable space group: P -1
;
_chemical_formula_sum "Si O2"
_cell_formula_units_Z 16
_cell_length_a 12.708089
_cell_length_b 10.201412
_cell_length_c 13.534899
_cell_angle_alpha 81.854505
_cell_angle_beta 138.782932
_cell_angle_gamma 67.612866
_cell_volume 760.504976
_symmetry_space_group_name_H-M "P -1"
_symmetry_group_IT_number 2
_symmetry_cell_setting 'triclinic'
loop_
_space_group_symop_operation_xyz
x,y,z
-x,-y,-z
loop_
_atom_site_type_symbol
_atom_site_label
_atom_site_fract_x
_atom_site_fract_y
_atom_site_fract_z
Si Si1 0.232451 0.498900 0.099485
Si Si2 0.570334 0.527693 0.340345
Si Si3 0.332105 0.315735 0.989066
Si Si4 0.459948 0.884468 0.221964
Si Si5 0.676091 0.473757 0.194555
Si Si6 0.106000 0.195059 0.792009
Si Si7 0.792238 0.870971 0.356101
Si Si8 0.312070 0.160315 0.267271
O O1 0.386032 0.528726 0.243516
O O2 0.261507 0.466952 0.005435
O O3 0.329334 0.306946 0.242727
O O4 0.957520 0.704537 0.904249
O O5 0.502452 0.713382 0.317814
O O6 0.572258 0.545758 0.222508
O O7 0.829507 0.323988 0.586180
O O8 0.605847 0.102082 0.226954
O O9 0.311595 0.387798 0.857278
O O10 0.147815 0.307963 0.866362
O O11 0.706737 0.787866 0.357880
O O12 0.368728 0.042903 0.222422
O O13 0.258701 0.992437 0.982314
O O14 0.945714 0.246429 0.408583
O O15 0.500000 0.500000 0.000000
O O16 0.207770 0.149815 0.758979
O O17 0.500000 0.000000 0.500000
#
# Coordination Sequence:
#
# PCOD8009985 Si02
#       8
#     2   2   2   2   2   2   2   2
#     4  11  25  46  65  96 130 163 222 273 326 375
#     4  11  24  40  65 101 135 169 206 269 329 379
#     4  11  20  39  66  88 133 177 210 259 314 388
#     4  11  22  42  67  95 126 172 220 266 320 385
#     4  11  22  36  58 101 140 172 206 257 320 390
#     4  10  21  39  65  95 135 170 213 257 318 394
#     4  10  21  37  63  95 129 176 218 248 315 393
#     4  11  27  46  72  93 121 173 228 271 325 386
#
# _framework density 21.038651000000002
#
# number of rings (size 3 to 8) (size 9 to 14) (size 15 to 20)
#    0.000    1.250    3.750    3.750    3.500    4.000 
#    2.250    1.250    0.000    0.000    0.000    0.000 
#    0.000    0.000    0.000    0.000    0.000    0.000 
#
# Total GULP energy -198405.541001 kJ/mol
# GULP energy per Si atom -12400.346313 kJ/mol
# Density = 2.099077 g / cm^3
# Si number density = 21.038651 Si / 1000 Ang^3
#
#
#
# Elastic Constant Matrix: (Units=GPa)
#
#
# Indices 1 2 3 4 5 6 
#
# 1 99.8633 38.7616 57.1257 -11.3342 14.7751 7.6112
# 2 38.7616 82.0370 38.8657 -6.6089 16.0563 -3.2888
# 3 57.1257 38.8657 145.5659 -0.9276 14.9600 -3.1840
# 4 -11.3342 -6.6089 -0.9276 24.7074 -2.0003 -1.6000
# 5 14.7751 16.0563 14.9600 -2.0003 32.9292 1.8193
# 6 7.6112 -3.2888 -3.1840 -1.6000 1.8193 16.8044
#
#
#
# Elastic Compliance Matrix: (Units=1/GPa)
#
#
# Indices 1 2 3 4 5 6 
#
# 1 0.016339 -0.004872 -0.005076 0.005294 -0.001853 -0.008611
# 2 -0.004872 0.016849 -0.001892 0.002151 -0.005367 0.005931
# 3 -0.005076 -0.001892 0.009587 -0.002358 -0.001502 0.003683
# 4 0.005294 0.002151 -0.002358 0.043515 0.000196 0.001698
# 5 -0.001853 -0.005367 -0.001502 0.000196 0.034745 -0.004239
# 6 -0.008611 0.005931 0.003683 0.001698 -0.004239 0.065888
#
#
# Mechanical properties :
#
#
# Convention : Reuss Voigt Hill
#
# Bulk Modulus (GPa) = 52.36428 66.33022 59.34725
# Shear Modulus (GPa) = 23.04495 27.73575 25.39035
#
# Velocity S-wave (km/s) = 3.31322 3.63481 3.47773
# Velocity P-wave (km/s) = 6.29127 7.01513 6.66304
#
# Compressibility (1/GPa) = 0.01909699
#
# Stress axis : x y z
#
# Youngs Moduli (GPa) = 61.20177 59.34986 104.31149
#
# Poissons Ratio (x) = 0.28913 0.52946
# Poissons Ratio (y) = 0.29815 0.19734
# Poissons Ratio (z) = 0.31064 0.11228
#
# Static dielectric constant tensor:
#      x y z
#    x 3.923190 0.018350 -0.154140 
#    y 0.018350 3.715750 -0.092370 
#    z -0.154140 -0.092370 4.018280 
# 
# 
# High freq. dielectric constant tensor:
#      x y z
#    x 1.817300 -0.001580 -0.001550 
#    y -0.001580 1.814880 -0.005060 
#    z -0.001550 -0.005060 1.834800 
# 
# From -- ./inp_files/350220.got.cif
#   From: 2010.06.25/outbox.cif.g09.slc.cpg/sg2_176_cif.got.tgz:350220.got - 2010.06.27 13:26:56.
