data_PCOD8009376
_publ_section_title
;
Structure prediction by ZEFSAII (Michael W. Deem and Ramdas Pophale) SiO2 
 PCOD8009376
Probable space group: P -1
;
_chemical_formula_sum "Si O2"
_cell_formula_units_Z 16
_cell_length_a 12.069828
_cell_length_b 8.280668
_cell_length_c 8.526817
_cell_angle_alpha 111.852456
_cell_angle_beta 67.512203
_cell_angle_gamma 111.005040
_cell_volume 707.260782
_symmetry_space_group_name_H-M "P -1"
_symmetry_group_IT_number 2
_symmetry_cell_setting 'triclinic'
loop_
_space_group_symop_operation_xyz
x,y,z
-x,-y,-z
loop_
_atom_site_type_symbol
_atom_site_label
_atom_site_fract_x
_atom_site_fract_y
_atom_site_fract_z
Si Si1 0.168770 0.078609 0.519711
Si Si2 0.056074 0.103018 0.259395
Si Si3 0.427191 0.873537 0.628804
Si Si4 0.806171 0.279737 0.768929
Si Si5 0.207310 0.863079 0.944542
Si Si6 0.959832 0.417084 0.287782
Si Si7 0.725569 0.448835 0.605280
Si Si8 0.594941 0.670338 0.581332
O O1 0.113365 0.142898 0.415512
O O2 0.289482 0.234897 0.561670
O O3 0.197787 0.886315 0.405361
O O4 0.074287 0.048516 0.706357
O O5 0.041483 0.290543 0.269680
O O6 0.138408 0.020285 0.065875
O O7 0.327065 0.952875 0.805254
O O8 0.356590 0.692945 0.517561
O O9 0.519227 0.823990 0.694132
O O10 0.500000 0.000000 0.500000
O O11 0.718269 0.390920 0.771136
O O12 0.946701 0.400539 0.759590
O O13 0.749184 0.206373 0.940090
O O14 0.119958 0.687767 0.849197
O O15 0.870153 0.474811 0.486162
O O16 0.664370 0.620732 0.682545
O O17 0.500000 0.500000 0.500000
#
# Coordination Sequence:
#
# PCOD8009376 Si02
#       8
#     2   2   2   2   2   2   2   2
#     4  10  21  36  63  97 127 165 214 260 317 377
#     4  10  21  37  61  97 133 163 206 262 324 382
#     4  10  22  44  65  87 119 168 221 264 310 372
#     4  11  21  38  61  95 132 169 201 261 321 380
#     4  10  24  40  59  95 131 167 213 262 324 373
#     4  11  21  37  59  94 136 169 201 252 323 389
#     4  10  21  36  62  91 121 165 217 251 310 377
#     4  10  22  40  63  92 123 164 223 264 302 371
#
# _framework density 22.622489999999999
#
# number of rings (size 3 to 8) (size 9 to 14) (size 15 to 20)
#    0.000    1.750    1.250    2.625    7.000    0.000 
#    2.250    7.500    0.000    0.000    0.000    0.000 
#    0.000    0.000    0.000    0.000    0.000    0.000 
#
# Total GULP energy -198211.171896 kJ/mol
# GULP energy per Si atom -12388.198244 kJ/mol
# Density = 2.257100 g / cm^3
# Si number density = 22.622490 Si / 1000 Ang^3
#
#
#
# Elastic Constant Matrix: (Units=GPa)
#
#
# Indices 1 2 3 4 5 6 
#
# 1 107.4153 60.3691 40.4280 -11.8898 -14.6374 -27.3383
# 2 60.3691 113.1434 39.0404 -16.1334 -16.4618 5.2898
# 3 40.4280 39.0404 106.8112 -14.4063 -17.5468 -6.2667
# 4 -11.8898 -16.1334 -14.4063 25.2937 4.0092 -3.1785
# 5 -14.6374 -16.4618 -17.5468 4.0092 29.3133 -13.9113
# 6 -27.3383 5.2898 -6.2667 -3.1785 -13.9113 45.2904
#
#
#
# Elastic Compliance Matrix: (Units=1/GPa)
#
#
# Indices 1 2 3 4 5 6 
#
# 1 0.022350 -0.009970 -0.000983 0.003836 0.013423 0.018911
# 2 -0.009970 0.015493 -0.002330 0.003134 -0.002182 -0.008600
# 3 -0.000983 -0.002330 0.012573 0.004600 0.006935 0.003871
# 4 0.003836 0.003134 0.004600 0.046288 0.003356 0.006865
# 5 0.013423 -0.002182 0.006935 0.003356 0.055976 0.026746
# 6 0.018911 -0.008600 0.003871 0.006865 0.026746 0.043732
#
#
# Mechanical properties :
#
#
# Convention : Reuss Voigt Hill
#
# Bulk Modulus (GPa) = 41.92896 67.44941 54.68919
# Shear Modulus (GPa) = 21.65169 32.48163 27.06666
#
# Velocity S-wave (km/s) = 3.09704 3.79332 3.46273
# Velocity P-wave (km/s) = 5.60029 7.00469 6.34149
#
# Compressibility (1/GPa) = 0.02384986
#
# Stress axis : x y z
#
# Youngs Moduli (GPa) = 44.74288 64.54407 79.53677
#
# Poissons Ratio (x) = 0.64351 0.07821
# Poissons Ratio (y) = 0.44609 0.18530
# Poissons Ratio (z) = 0.04400 0.15037
#
# Static dielectric constant tensor:
#      x y z
#    x 4.920630 0.162340 -0.153520 
#    y 0.162340 4.651630 -0.248110 
#    z -0.153520 -0.248110 3.746100 
# 
# 
# High freq. dielectric constant tensor:
#      x y z
#    x 1.910150 -0.003100 0.005660 
#    y -0.003100 1.906790 -0.012580 
#    z 0.005660 -0.012580 1.840010 
# 
# From -- ./inp_files/239637.got.cif
#   From: 2010.06.25/outbox.cif.g09.slc.cpg/sg2_120_cif.got.tgz:239637.got - 2010.06.27 13:26:56.
