data_PCOD8009440
_publ_section_title
;
Structure prediction by ZEFSAII (Michael W. Deem and Ramdas Pophale) SiO2 
 PCOD8009440
Probable space group: P -1
;
_chemical_formula_sum "Si O2"
_cell_formula_units_Z 16
_cell_length_a 8.662181
_cell_length_b 13.053175
_cell_length_c 18.595250
_cell_angle_alpha 35.561146
_cell_angle_beta 104.020831
_cell_angle_gamma 76.147757
_cell_volume 751.739238
_symmetry_space_group_name_H-M "P -1"
_symmetry_group_IT_number 2
_symmetry_cell_setting 'triclinic'
loop_
_space_group_symop_operation_xyz
x,y,z
-x,-y,-z
loop_
_atom_site_type_symbol
_atom_site_label
_atom_site_fract_x
_atom_site_fract_y
_atom_site_fract_z
Si Si1 0.565514 0.383665 0.154094
Si Si2 0.656114 0.016276 0.471350
Si Si3 0.940397 0.810303 0.135169
Si Si4 0.158124 0.765439 0.386236
Si Si5 0.289092 0.785536 0.241993
Si Si6 0.852953 0.518811 0.236944
Si Si7 0.121309 0.883761 0.472030
Si Si8 0.337730 0.877655 0.936361
O O1 0.532627 0.203616 0.276090
O O2 0.500000 0.500000 0.000000
O O3 0.409564 0.626378 0.055867
O O4 0.863291 0.159843 0.325202
O O5 0.925474 0.696683 0.671477
O O6 0.500000 0.000000 0.500000
O O7 0.669840 0.166466 0.443390
O O8 0.931142 0.606243 0.251613
O O9 0.213535 0.656006 0.275031
O O10 0.736348 0.068814 0.018812
O O11 0.866809 0.930275 0.977861
O O12 0.206330 0.864821 0.270762
O O13 0.414200 0.432849 0.611002
O O14 0.099615 0.926881 0.359086
O O15 0.915366 0.847127 0.293506
O O16 0.805770 0.382286 0.355427
O O17 0.587732 0.787485 0.011270
#
# Coordination Sequence:
#
# PCOD8009440 Si02
#       8
#     2   2   2   2   2   2   2   2
#     4  11  21  42  68  93 128 166 217 263 323 384
#     4  11  25  41  67  96 127 171 216 270 325 384
#     4  10  22  38  66  90 125 170 216 264 316 384
#     4  10  21  36  64  90 126 173 202 258 331 373
#     4   9  21  41  57  94 132 164 206 266 328 377
#     4  11  22  41  63  95 124 166 222 261 311 389
#     4  11  21  41  68  89 125 169 216 265 317 388
#     4  11  20  38  64  92 122 172 216 260 313 385
#
# _framework density 21.283975999999999
#
# number of rings (size 3 to 8) (size 9 to 14) (size 15 to 20)
#    0.000    1.500    3.750    1.875    1.750    2.000 
#    0.000    8.750    0.000    0.000    0.000    0.000 
#    0.000    0.000    0.000    0.000    0.000    0.000 
#
# Total GULP energy -198211.460325 kJ/mol
# GULP energy per Si atom -12388.216270 kJ/mol
# Density = 2.123553 g / cm^3
# Si number density = 21.283976 Si / 1000 Ang^3
#
#
#
# Elastic Constant Matrix: (Units=GPa)
#
#
# Indices 1 2 3 4 5 6 
#
# 1 130.3980 51.2176 57.6568 3.0740 0.8759 8.1140
# 2 51.2176 112.9525 39.5976 0.6074 -7.3864 -3.7961
# 3 57.6568 39.5976 98.0018 12.4944 12.5634 3.3137
# 4 3.0740 0.6074 12.4944 31.5522 -4.6199 -1.5516
# 5 0.8759 -7.3864 12.5634 -4.6199 37.3502 0.0623
# 6 8.1140 -3.7961 3.3137 -1.5516 0.0623 34.2693
#
#
#
# Elastic Compliance Matrix: (Units=1/GPa)
#
#
# Indices 1 2 3 4 5 6 
#
# 1 0.011605 -0.003267 -0.005732 0.001250 0.001169 -0.002501
# 2 -0.003267 0.012015 -0.003831 0.002320 0.004024 0.002573
# 3 -0.005732 -0.003831 0.017006 -0.007211 -0.007234 -0.001025
# 4 0.001250 0.002320 -0.007211 0.035555 0.007249 0.002255
# 5 0.001169 0.004024 -0.007234 0.007249 0.030870 0.001141
# 6 -0.002501 0.002573 -0.001025 0.002255 0.001141 0.030257
#
#
# Mechanical properties :
#
#
# Convention : Reuss Voigt Hill
#
# Bulk Modulus (GPa) = 66.82313 70.92180 68.87246
# Shear Modulus (GPa) = 29.76978 33.49304 31.63141
#
# Velocity S-wave (km/s) = 3.74397 3.97120 3.85926
# Velocity P-wave (km/s) = 7.08194 7.37708 7.23101
#
# Compressibility (1/GPa) = 0.01496488
#
# Stress axis : x y z
#
# Youngs Moduli (GPa) = 86.17132 83.22996 58.80449
#
# Poissons Ratio (x) = 0.27191 0.33707
# Poissons Ratio (y) = 0.28152 0.22529
# Poissons Ratio (z) = 0.49393 0.31887
#
# Static dielectric constant tensor:
#      x y z
#    x 3.808930 -0.087790 0.335550 
#    y -0.087790 3.887130 0.200060 
#    z 0.335550 0.200060 4.045490 
# 
# 
# High freq. dielectric constant tensor:
#      x y z
#    x 1.813540 -0.017380 0.025960 
#    y -0.017380 1.836300 0.005820 
#    z 0.025960 0.005820 1.830130 
# 
# From -- ./inp_files/205958.got.cif
#   From: 2010.06.25/outbox.cif.g09.slc.cpg/sg2_103_cif.got.tgz:205958.got - 2010.06.27 13:26:56.
