data_PCOD8009656
_publ_section_title
;
Structure prediction by ZEFSAII (Michael W. Deem and Ramdas Pophale) SiO2 
 PCOD8009656
Probable space group: P -1
;
_chemical_formula_sum "Si O2"
_cell_formula_units_Z 14
_cell_length_a 23.865032
_cell_length_b 13.031002
_cell_length_c 20.269866
_cell_angle_alpha 145.462530
_cell_angle_beta 14.864197
_cell_angle_gamma 153.048059
_cell_volume 693.102943
_symmetry_space_group_name_H-M "P -1"
_symmetry_group_IT_number 2
_symmetry_cell_setting 'triclinic'
loop_
_space_group_symop_operation_xyz
x,y,z
-x,-y,-z
loop_
_atom_site_type_symbol
_atom_site_label
_atom_site_fract_x
_atom_site_fract_y
_atom_site_fract_z
Si Si1 0.682985 0.765351 0.406031
Si Si2 0.222898 0.607760 0.212402
Si Si3 0.642874 0.142589 0.676083
Si Si4 0.317583 0.572188 0.604861
Si Si5 0.165723 0.872619 0.318011
Si Si6 0.732950 0.686986 0.597354
Si Si7 0.852687 0.146143 0.002548
O O1 0.500000 0.500000 0.500000
O O2 0.632555 0.735344 0.368602
O O3 0.014871 0.928072 0.136586
O O4 0.561240 0.886082 0.639364
O O5 0.400184 0.785491 0.166528
O O6 0.065386 0.688718 0.394873
O O7 0.969123 0.339893 0.383799
O O8 0.448636 0.608024 0.915705
O O9 0.418314 0.098458 0.854135
O O10 0.355242 0.523470 0.461853
O O11 0.081498 0.324204 0.780250
O O12 0.222507 0.728464 0.797485
O O13 0.973579 0.732845 0.397065
O O14 0.139688 0.076079 0.466024
O O15 0.500000 0.000000 0.000000
#
# Coordination Sequence:
#
# PCOD8009656 Si02
#       7
#     2   2   2   2   2   2   2
#     4   9  19  36  58  86 108 149 193 239 286 326
#     4  10  23  39  55  86 119 158 186 230 288 346
#     4  10  22  38  58  83 122 150 192 234 281 350
#     4   9  19  34  56  86 111 140 189 246 283 335
#     4   9  21  36  54  85 114 150 191 228 287 336
#     4  10  21  37  59  85 116 149 192 239 283 339
#     4   9  19  34  56  83 113 147 189 236 289 328
#
# _framework density 20.199020000000001
#
# number of rings (size 3 to 8) (size 9 to 14) (size 15 to 20)
#    0.000    2.571    0.000    0.857   10.000    3.429 
#    0.000    5.714    0.000    5.143    0.000    0.000 
#    0.000    0.000    0.000    0.000    0.000    0.000 
#
# Total GULP energy -173437.930388 kJ/mol
# GULP energy per Si atom -12388.423599 kJ/mol
# Density = 2.015305 g / cm^3
# Si number density = 20.199020 Si / 1000 Ang^3
#
#
#
# Elastic Constant Matrix: (Units=GPa)
#
#
# Indices 1 2 3 4 5 6 
#
# 1 126.8547 43.2851 65.9205 16.7596 -24.1062 37.8984
# 2 43.2851 65.0458 23.2717 4.3342 3.4338 24.8498
# 3 65.9205 23.2717 82.7922 9.5834 -12.4506 20.6401
# 4 16.7596 4.3342 9.5834 19.9385 4.7558 3.3569
# 5 -24.1062 3.4338 -12.4506 4.7558 44.5329 -1.7616
# 6 37.8984 24.8498 20.6401 3.3569 -1.7616 44.0825
#
#
#
# Elastic Compliance Matrix: (Units=1/GPa)
#
#
# Indices 1 2 3 4 5 6 
#
# 1 0.022056 -0.007449 -0.010200 -0.013135 0.010726 -0.008558
# 2 -0.007449 0.023238 -0.000298 0.004136 -0.006631 -0.007136
# 3 -0.010200 -0.000298 0.020642 -0.001271 0.000384 -0.000616
# 4 -0.013135 0.004136 -0.001271 0.063650 -0.014418 0.004132
# 5 0.010726 -0.006631 0.000384 -0.014418 0.030287 -0.003354
# 6 -0.008558 -0.007136 -0.000616 0.004132 -0.003354 0.033904
#
#
# Mechanical properties :
#
#
# Convention : Reuss Voigt Hill
#
# Bulk Modulus (GPa) = 33.28792 59.96081 46.62436
# Shear Modulus (GPa) = 20.86070 31.19180 26.02625
#
# Velocity S-wave (km/s) = 3.21714 3.93392 3.59345
# Velocity P-wave (km/s) = 5.50597 7.09815 6.35215
#
# Compressibility (1/GPa) = 0.03004093
#
# Stress axis : x y z
#
# Youngs Moduli (GPa) = 45.33977 43.03273 48.44452
#
# Poissons Ratio (x) = 0.32057 0.49416
# Poissons Ratio (y) = 0.33775 0.01442
# Poissons Ratio (z) = 0.46249 0.01281
#
# Static dielectric constant tensor:
#      x y z
#    x 4.117260 0.010160 -0.565180 
#    y 0.010160 3.662170 0.003540 
#    z -0.565180 0.003540 3.639930 
# 
# 
# High freq. dielectric constant tensor:
#      x y z
#    x 1.788860 0.016590 -0.033540 
#    y 0.016590 1.779880 0.007920 
#    z -0.033540 0.007920 1.771310 
# 
# From -- ./inp_files/428200.got.cif
#   From: 2010.06.25/outbox.cif.g09.slc.cpg/sg2_215_cif.got.tgz:428200.got - 2010.06.27 13:26:56.
