data_PCOD8009903
_publ_section_title
;
Structure prediction by ZEFSAII (Michael W. Deem and Ramdas Pophale) SiO2 
 PCOD8009903
Probable space group: P -1
;
_chemical_formula_sum "Si O2"
_cell_formula_units_Z 14
_cell_length_a 13.676873
_cell_length_b 10.729653
_cell_length_c 6.176237
_cell_angle_alpha 52.104008
_cell_angle_beta 66.356544
_cell_angle_gamma 76.562101
_cell_volume 655.067346
_symmetry_space_group_name_H-M "P -1"
_symmetry_group_IT_number 2
_symmetry_cell_setting 'triclinic'
loop_
_space_group_symop_operation_xyz
x,y,z
-x,-y,-z
loop_
_atom_site_type_symbol
_atom_site_label
_atom_site_fract_x
_atom_site_fract_y
_atom_site_fract_z
Si Si1 0.297759 0.260374 0.170050
Si Si2 0.222788 0.510637 0.293292
Si Si3 0.304058 0.752343 0.297822
Si Si4 0.117464 0.668508 0.843749
Si Si5 0.518639 0.812692 0.212635
Si Si6 0.117023 0.341948 0.943800
Si Si7 0.613560 0.952503 0.355929
O O1 0.289547 0.418968 0.150270
O O2 0.301119 0.103643 0.482938
O O3 0.412571 0.270442 0.943721
O O4 0.203212 0.233976 0.105917
O O5 0.296031 0.600960 0.308693
O O6 0.149374 0.382436 0.624198
O O7 0.153618 0.642609 0.088663
O O8 0.199741 0.776051 0.515187
O O9 0.403274 0.724438 0.403612
O O10 0.325700 0.907570 0.972232
O O11 0.109984 0.499181 0.920701
O O12 0.999620 0.744933 0.865399
O O13 0.584166 0.800578 0.391433
O O14 0.500000 0.000000 0.000000
O O15 0.500000 0.000000 0.500000
#
# Coordination Sequence:
#
# PCOD8009903 Si02
#       7
#     2   2   2   2   2   2   2
#     4  11  21  38  63  89 122 161 198 248 294 356
#     4  10  21  37  62  93 122 154 199 249 298 356
#     4  10  22  37  61  94 119 156 205 244 295 358
#     4   9  19  36  62  86 124 159 193 248 298 352
#     4  10  21  38  58  83 117 158 201 240 292 351
#     4   9  19  38  58  90 121 159 199 241 300 354
#     4  11  22  40  63  84 115 167 202 236 297 364
#
# _framework density 21.371846000000001
#
# number of rings (size 3 to 8) (size 9 to 14) (size 15 to 20)
#    0.000    2.000    2.857    1.286    2.000    1.714 
#    0.000    7.857    0.000   10.286    0.000    0.000 
#    0.000    0.000    0.000    0.000    0.000    0.000 
#
# Total GULP energy -173481.819237 kJ/mol
# GULP energy per Si atom -12391.558517 kJ/mol
# Density = 2.132320 g / cm^3
# Si number density = 21.371846 Si / 1000 Ang^3
#
#
#
# Elastic Constant Matrix: (Units=GPa)
#
#
# Indices 1 2 3 4 5 6 
#
# 1 148.5483 37.1261 87.0490 2.3279 -12.8702 -14.6082
# 2 37.1261 58.8715 24.3676 16.4294 -9.0183 8.4745
# 3 87.0490 24.3676 147.6744 1.3553 -8.0838 3.9183
# 4 2.3279 16.4294 1.3553 24.2724 -1.5353 11.1011
# 5 -12.8702 -9.0183 -8.0838 -1.5353 42.9896 -4.5314
# 6 -14.6082 8.4745 3.9183 11.1011 -4.5314 20.3625
#
#
#
# Elastic Compliance Matrix: (Units=1/GPa)
#
#
# Indices 1 2 3 4 5 6 
#
# 1 0.015737 -0.007436 -0.008329 -0.004603 0.003451 0.019265
# 2 -0.007436 0.026789 0.000433 -0.013250 0.002065 -0.008884
# 3 -0.008329 0.000433 0.011801 0.004992 -0.001209 -0.011417
# 4 -0.004603 -0.013250 0.004992 0.066524 -0.004643 -0.036049
# 5 0.003451 0.002065 -0.001209 -0.004643 0.025392 0.010031
# 6 0.019265 -0.008884 -0.011417 -0.036049 0.010031 0.090711
#
#
# Mechanical properties :
#
#
# Convention : Reuss Voigt Hill
#
# Bulk Modulus (GPa) = 42.26063 72.46439 57.36251
# Shear Modulus (GPa) = 18.14835 31.29499 24.72167
#
# Velocity S-wave (km/s) = 2.91722 3.83078 3.40478
# Velocity P-wave (km/s) = 5.58245 7.31755 6.50809
#
# Compressibility (1/GPa) = 0.02366268
#
# Stress axis : x y z
#
# Youngs Moduli (GPa) = 63.54403 37.32811 84.73883
#
# Poissons Ratio (x) = 0.27759 0.70582
# Poissons Ratio (y) = 0.47254 -0.03673
# Poissons Ratio (z) = 0.52928 -0.01618
#
# Static dielectric constant tensor:
#      x y z
#    x 4.682030 0.141370 0.202380 
#    y 0.141370 3.599540 0.335650 
#    z 0.202380 0.335650 4.057200 
# 
# 
# High freq. dielectric constant tensor:
#      x y z
#    x 1.848300 0.002560 0.010390 
#    y 0.002560 1.805050 0.026420 
#    z 0.010390 0.026420 1.836400 
# 
# From -- ./inp_files/68317.got.cif
#   From: 2010.06.25/outbox.cif.g09.slc.cpg/sg2_35_cif.got.tgz:68317.got - 2010.06.27 13:26:56.
