data_PCOD8009117
_publ_section_title
;
Structure prediction by ZEFSAII (Michael W. Deem and Ramdas Pophale) SiO2 
 PCOD8009117
Probable space group: P -1
;
_chemical_formula_sum "Si O2"
_cell_formula_units_Z 14
_cell_length_a 8.371273
_cell_length_b 23.658672
_cell_length_c 12.958399
_cell_angle_alpha 156.371379
_cell_angle_beta 122.810451
_cell_angle_gamma 43.030847
_cell_volume 620.545427
_symmetry_space_group_name_H-M "P -1"
_symmetry_group_IT_number 2
_symmetry_cell_setting 'triclinic'
loop_
_space_group_symop_operation_xyz
x,y,z
-x,-y,-z
loop_
_atom_site_type_symbol
_atom_site_label
_atom_site_fract_x
_atom_site_fract_y
_atom_site_fract_z
Si Si1 0.764280 0.928922 0.778791
Si Si2 0.220998 0.726214 0.902329
Si Si3 0.482415 0.306760 0.869956
Si Si4 0.700296 0.346041 0.729308
Si Si5 0.350432 0.921173 0.664490
Si Si6 0.687790 0.276953 0.303837
Si Si7 0.737579 0.851779 0.412935
O O1 0.596044 0.899734 0.735195
O O2 0.691825 0.954952 0.676948
O O3 0.076435 0.745755 0.605573
O O4 0.685617 0.129548 0.117496
O O5 0.399592 0.493746 0.581060
O O6 0.249381 0.781316 0.892274
O O7 0.311956 0.793655 0.131659
O O8 0.916433 0.848628 0.029672
O O9 0.630124 0.165314 0.584924
O O10 0.245463 0.324625 0.851336
O O11 0.361295 0.527423 0.181757
O O12 0.661610 0.197738 0.451746
O O13 0.992152 0.232398 0.683775
O O14 0.500000 0.500000 0.000000
O O15 0.500000 0.000000 0.500000
#
# Coordination Sequence:
#
# PCOD8009117 Si02
#       7
#     2   2   2   2   2   2   2
#     4  10  22  42  62  86 118 161 205 239 298 358
#     4  11  22  39  62  90 121 154 200 250 297 350
#     4  10  21  38  63  91 120 156 198 245 305 356
#     4  10  21  36  56  88 124 154 189 238 302 361
#     4  10  22  39  62  90 119 153 197 256 305 347
#     4  10  23  41  62  85 119 165 203 240 287 361
#     4  11  21  37  64  91 120 155 196 250 302 355
#
# _framework density 22.560798999999999
#
# number of rings (size 3 to 8) (size 9 to 14) (size 15 to 20)
#    0.000    1.714    0.000    4.286    0.000    8.000 
#    0.000    2.857    0.000    0.000    0.000    0.000 
#    0.000    0.000    0.000    0.000    0.000    0.000 
#
# Total GULP energy -173511.437489 kJ/mol
# GULP energy per Si atom -12393.674106 kJ/mol
# Density = 2.250945 g / cm^3
# Si number density = 22.560799 Si / 1000 Ang^3
#
#
#
# Elastic Constant Matrix: (Units=GPa)
#
#
# Indices 1 2 3 4 5 6 
#
# 1 153.9404 53.7800 74.2177 12.6161 26.3745 -33.6075
# 2 53.7800 114.0873 38.9742 8.5793 8.0989 -8.7727
# 3 74.2177 38.9742 92.6070 19.1407 10.9332 -18.0332
# 4 12.6161 8.5793 19.1407 33.6812 -3.8835 -7.3858
# 5 26.3745 8.0989 10.9332 -3.8835 40.9783 -2.1129
# 6 -33.6075 -8.7727 -18.0332 -7.3858 -2.1129 41.0640
#
#
#
# Elastic Compliance Matrix: (Units=1/GPa)
#
#
# Indices 1 2 3 4 5 6 
#
# 1 0.013803 -0.002901 -0.008001 0.001002 -0.005718 0.007050
# 2 -0.002901 0.010886 -0.002403 -0.000554 0.000243 -0.001191
# 3 -0.008001 -0.002403 0.019914 -0.007693 -0.000403 0.000279
# 4 0.001002 -0.000554 -0.007693 0.035273 0.005062 0.003928
# 5 -0.005718 0.000243 -0.000403 0.005062 0.028497 -0.002428
# 6 0.007050 -0.001191 0.000279 0.003928 -0.002428 0.030572
#
#
# Mechanical properties :
#
#
# Convention : Reuss Voigt Hill
#
# Bulk Modulus (GPa) = 55.57270 77.17540 66.37405
# Shear Modulus (GPa) = 29.14561 36.05556 32.60059
#
# Velocity S-wave (km/s) = 3.59816 4.00202 3.80545
# Velocity P-wave (km/s) = 6.47674 7.45902 6.98517
#
# Compressibility (1/GPa) = 0.01799445
#
# Stress axis : x y z
#
# Youngs Moduli (GPa) = 72.44602 91.85769 50.21690
#
# Poissons Ratio (x) = 0.26648 0.40177
# Poissons Ratio (y) = 0.21017 0.12066
# Poissons Ratio (z) = 0.57962 0.22071
#
# Static dielectric constant tensor:
#      x y z
#    x 4.460080 0.284750 0.386680 
#    y 0.284750 4.025560 0.196000 
#    z 0.386680 0.196000 4.174770 
# 
# 
# High freq. dielectric constant tensor:
#      x y z
#    x 1.891970 0.001120 0.003170 
#    y 0.001120 1.884000 0.002460 
#    z 0.003170 0.002460 1.890060 
# 
# From -- ./inp_files/201387.got.cif
#   From: 2010.06.25/outbox.cif.g09.slc.cpg/sg2_101_cif.got.tgz:201387.got - 2010.06.27 13:26:56.
