data_PCOD8009657
_publ_section_title
;
Structure prediction by ZEFSAII (Michael W. Deem and Ramdas Pophale) SiO2 
 PCOD8009657
Probable space group: P -1
;
_chemical_formula_sum "Si O2"
_cell_formula_units_Z 16
_cell_length_a 14.995132
_cell_length_b 8.686910
_cell_length_c 13.163450
_cell_angle_alpha 113.844202
_cell_angle_beta 130.888334
_cell_angle_gamma 106.278459
_cell_volume 729.857694
_symmetry_space_group_name_H-M "P -1"
_symmetry_group_IT_number 2
_symmetry_cell_setting 'triclinic'
loop_
_space_group_symop_operation_xyz
x,y,z
-x,-y,-z
loop_
_atom_site_type_symbol
_atom_site_label
_atom_site_fract_x
_atom_site_fract_y
_atom_site_fract_z
Si Si1 0.631805 0.761348 0.487500
Si Si2 0.322927 0.579925 0.067414
Si Si3 0.897361 0.999151 0.568958
Si Si4 0.588059 0.782322 0.146599
Si Si5 0.587306 0.326096 0.367046
Si Si6 0.136597 0.418172 0.534651
Si Si7 0.726544 0.099331 0.135591
Si Si8 0.416903 0.006251 0.346284
O O1 0.436937 0.599290 0.241925
O O2 0.600021 0.540019 0.446571
O O3 0.683447 0.938873 0.669730
O O4 0.814771 0.974894 0.607042
O O5 0.459003 0.750552 0.116062
O O6 0.274020 0.714008 0.105825
O O7 0.125958 0.266919 0.808528
O O8 0.805868 0.006491 0.411554
O O9 0.832464 0.731767 0.434695
O O10 0.592175 0.876712 0.066194
O O11 0.500000 0.500000 0.000000
O O12 0.762282 0.449539 0.464524
O O13 0.586852 0.247559 0.458788
O O14 0.387106 0.048013 0.092305
O O15 0.223074 0.649397 0.739836
O O16 0.914162 0.197896 0.291115
O O17 0.500000 0.000000 0.500000
#
# Coordination Sequence:
#
# PCOD8009657 Si02
#       8
#     2   2   2   2   2   2   2   2
#     4   9  20  39  60  85 113 148 193 241 288 337
#     4  10  21  38  59  86 119 153 192 236 282 336
#     4  10  21  37  59  85 117 156 193 231 281 337
#     4  11  22  36  57  87 122 156 192 231 276 336
#     4  11  21  39  62  81 113 152 190 234 287 342
#     4  10  22  38  57  85 119 153 191 231 276 336
#     4  11  23  37  56  86 119 153 192 231 276 337
#     4  10  22  40  63  86 111 146 190 244 298 341
#
# _framework density 21.922082
#
# number of rings (size 3 to 8) (size 9 to 14) (size 15 to 20)
#    0.000    1.750    0.000    5.250    0.000    6.500 
#    0.000    2.500    0.000    9.000    0.000    0.000 
#    0.000    0.000    0.000    0.000    0.000    0.000 
#
# Total GULP energy -198413.694520 kJ/mol
# GULP energy per Si atom -12400.855908 kJ/mol
# Density = 2.187219 g / cm^3
# Si number density = 21.922082 Si / 1000 Ang^3
#
#
#
# Elastic Constant Matrix: (Units=GPa)
#
#
# Indices 1 2 3 4 5 6 
#
# 1 108.0448 15.6260 26.4292 -0.6839 -6.5118 -10.9092
# 2 15.6260 79.5383 21.7527 -7.1105 -2.9168 10.8902
# 3 26.4292 21.7527 67.1007 7.5011 9.4023 1.8863
# 4 -0.6839 -7.1105 7.5011 27.2316 1.5181 -9.1324
# 5 -6.5118 -2.9168 9.4023 1.5181 32.9523 7.7343
# 6 -10.9092 10.8902 1.8863 -9.1324 7.7343 30.1448
#
#
#
# Elastic Compliance Matrix: (Units=1/GPa)
#
#
# Indices 1 2 3 4 5 6 
#
# 1 0.011283 -0.001276 -0.004798 0.002886 0.002139 0.005170
# 2 -0.001276 0.015479 -0.005261 0.003340 0.003800 -0.005688
# 3 -0.004798 -0.005261 0.020264 -0.007267 -0.006475 -0.001644
# 4 0.002886 0.003340 -0.007267 0.044660 -0.002514 0.014468
# 5 0.002139 0.003800 -0.006475 -0.002514 0.035427 -0.010045
# 6 0.005170 -0.005688 -0.001644 0.014468 -0.010045 0.044162
#
#
# Mechanical properties :
#
#
# Convention : Reuss Voigt Hill
#
# Bulk Modulus (GPa) = 41.05882 42.47772 41.76827
# Shear Modulus (GPa) = 24.74456 30.79079 27.76768
#
# Velocity S-wave (km/s) = 3.36333 3.75181 3.56287
# Velocity P-wave (km/s) = 5.81831 6.17955 6.00165
#
# Compressibility (1/GPa) = 0.02435531
#
# Stress axis : x y z
#
# Youngs Moduli (GPa) = 88.63020 64.60457 49.34761
#
# Poissons Ratio (x) = 0.08242 0.23678
# Poissons Ratio (y) = 0.11306 0.25964
# Poissons Ratio (z) = 0.42527 0.33991
#
# Static dielectric constant tensor:
#      x y z
#    x 4.528480 -0.126310 -0.236450 
#    y -0.126310 3.984590 0.051620 
#    z -0.236450 0.051620 3.799310 
# 
# 
# High freq. dielectric constant tensor:
#      x y z
#    x 1.876260 -0.007960 -0.007630 
#    y -0.007960 1.870560 0.006470 
#    z -0.007630 0.006470 1.837760 
# 
# From -- ./inp_files/333292.got.cif
#   From: 2010.06.25/outbox.cif.g09.slc.cpg/sg2_167_cif.got.tgz:333292.got - 2010.06.27 13:26:56.
