data_PCOD8009156
_publ_section_title
;
Structure prediction by ZEFSAII (Michael W. Deem and Ramdas Pophale) SiO2 
 PCOD8009156
Probable space group: P -1
;
_chemical_formula_sum "Si O2"
_cell_formula_units_Z 16
_cell_length_a 7.626431
_cell_length_b 7.788283
_cell_length_c 12.400661
_cell_angle_alpha 86.996517
_cell_angle_beta 108.680842
_cell_angle_gamma 73.047053
_cell_volume 658.739361
_symmetry_space_group_name_H-M "P -1"
_symmetry_group_IT_number 2
_symmetry_cell_setting 'triclinic'
loop_
_space_group_symop_operation_xyz
x,y,z
-x,-y,-z
loop_
_atom_site_type_symbol
_atom_site_label
_atom_site_fract_x
_atom_site_fract_y
_atom_site_fract_z
Si Si1 0.768427 0.108667 0.758816
Si Si2 0.398004 0.830193 0.061153
Si Si3 0.782878 0.754297 0.028869
Si Si4 0.128873 0.792653 0.836868
Si Si5 0.962077 0.185282 0.420758
Si Si6 0.130397 0.450473 0.158048
Si Si7 0.660705 0.310272 0.522658
Si Si8 0.665858 0.804899 0.624733
O O1 0.650505 0.237906 0.829473
O O2 0.776600 0.239693 0.657865
O O3 0.659491 0.966919 0.700512
O O4 0.987093 0.990663 0.841967
O O5 0.278793 0.045157 0.039546
O O6 0.631783 0.768845 0.097292
O O7 0.328649 0.747168 0.944727
O O8 0.764556 0.619344 0.933253
O O9 0.009284 0.670141 0.121872
O O10 0.158021 0.809758 0.713953
O O11 0.041944 0.635044 0.852656
O O12 0.815647 0.335331 0.464573
O O13 0.166975 0.217791 0.433641
O O14 0.000000 0.000000 0.500000
O O15 0.280287 0.385727 0.289496
O O16 0.500000 0.500000 0.500000
O O17 0.547693 0.166105 0.469972
#
# Coordination Sequence:
#
# PCOD8009156 Si02
#       8
#     2   2   2   2   2   2   2   2
#     4  10  21  41  60  90 131 164 202 260 314 373
#     4  11  22  37  61  95 122 159 207 256 302 366
#     4  10  21  36  57  89 123 156 209 244 302 378
#     4  10  21  38  66  87 124 165 203 252 309 370
#     4  10  21  43  67  93 122 169 221 244 314 394
#     4   9  20  41  57  85 125 162 199 250 316 368
#     4  12  26  42  66  99 124 162 217 271 317 366
#     4  10  22  43  69  87 128 174 205 262 317 377
#
# _framework density 24.288817000000002
#
# number of rings (size 3 to 8) (size 9 to 14) (size 15 to 20)
#    0.000    2.000    5.000    0.750    1.750    4.000 
#    2.250    0.000    0.000    0.000    0.000    0.000 
#    0.000    0.000    0.000    0.000    0.000    0.000 
#
# Total GULP energy -198257.671552 kJ/mol
# GULP energy per Si atom -12391.104472 kJ/mol
# Density = 2.423353 g / cm^3
# Si number density = 24.288817 Si / 1000 Ang^3
#
#
#
# Elastic Constant Matrix: (Units=GPa)
#
#
# Indices 1 2 3 4 5 6 
#
# 1 65.7133 -5.1668 41.1224 7.7608 -22.9567 -27.3648
# 2 -5.1668 68.5867 0.4907 -2.1776 -12.0761 -23.5384
# 3 41.1224 0.4907 128.9108 3.2503 -31.6325 -23.5963
# 4 7.7608 -2.1776 3.2503 23.7523 -8.6667 -0.8854
# 5 -22.9567 -12.0761 -31.6325 -8.6667 45.7102 8.4428
# 6 -27.3648 -23.5384 -23.5963 -0.8854 8.4428 31.8571
#
#
#
# Elastic Compliance Matrix: (Units=1/GPa)
#
#
# Indices 1 2 3 4 5 6 
#
# 1 0.046771 0.025005 -0.000484 -0.003936 0.019208 0.053092
# 2 0.025005 0.035480 0.004507 0.002366 0.016887 0.046623
# 3 -0.000484 0.004507 0.011409 0.002098 0.007497 0.009435
# 4 -0.003936 0.002366 0.002098 0.046615 0.009162 -0.001211
# 5 0.019208 0.016887 0.007497 0.009162 0.038363 0.024618
# 6 0.053092 0.046623 0.009435 -0.001211 0.024618 0.111875
#
#
# Mechanical properties :
#
#
# Convention : Reuss Voigt Hill
#
# Bulk Modulus (GPa) = 6.59137 37.34482 21.96809
# Shear Modulus (GPa) = 17.66596 35.38155 26.52376
#
# Velocity S-wave (km/s) = 2.69983 3.82082 3.30815
# Velocity P-wave (km/s) = 3.52681 5.90538 4.86374
#
# Compressibility (1/GPa) = 0.15171350
#
# Stress axis : x y z
#
# Youngs Moduli (GPa) = 21.38094 28.18450 87.65331
#
# Poissons Ratio (x) = -0.70474 0.04245
# Poissons Ratio (y) = -0.53462 -0.39503
# Poissons Ratio (z) = 0.01036 -0.12702
#
# Static dielectric constant tensor:
#      x y z
#    x 4.499890 -0.176640 -0.188050 
#    y -0.176640 4.403920 -0.204370 
#    z -0.188050 -0.204370 4.835160 
# 
# 
# High freq. dielectric constant tensor:
#      x y z
#    x 1.942300 -0.010440 -0.011280 
#    y -0.010440 1.956090 -0.011860 
#    z -0.011280 -0.011860 1.976520 
# 
# From -- ./inp_files/379225.got.cif
#   From: 2010.06.25/outbox.cif.g09.slc.cpg/sg2_190_cif.got.tgz:379225.got - 2010.06.27 13:26:56.
