data_PCOD8009967
_publ_section_title
;
Structure prediction by ZEFSAII (Michael W. Deem and Ramdas Pophale) SiO2 
 PCOD8009967
Probable space group: P -1
;
_chemical_formula_sum "Si O2"
_cell_formula_units_Z 16
_cell_length_a 11.912177
_cell_length_b 11.984277
_cell_length_c 9.098685
_cell_angle_alpha 67.422412
_cell_angle_beta 127.252533
_cell_angle_gamma 128.750366
_cell_volume 806.296726
_symmetry_space_group_name_H-M "P -1"
_symmetry_group_IT_number 2
_symmetry_cell_setting 'triclinic'
loop_
_space_group_symop_operation_xyz
x,y,z
-x,-y,-z
loop_
_atom_site_type_symbol
_atom_site_label
_atom_site_fract_x
_atom_site_fract_y
_atom_site_fract_z
Si Si1 0.382759 0.711841 0.473529
Si Si2 0.880374 0.722858 0.156293
Si Si3 0.376157 0.176664 0.138331
Si Si4 0.410198 0.562854 0.990651
Si Si5 0.923725 0.567438 0.510610
Si Si6 0.387741 0.544159 0.311630
Si Si7 0.193280 0.850539 0.143412
Si Si8 0.987818 0.625433 0.859574
O O1 0.560733 0.800115 0.654053
O O2 0.265879 0.559872 0.539615
O O3 0.410663 0.682043 0.343416
O O4 0.293891 0.800406 0.346720
O O5 0.926742 0.702510 0.369348
O O6 0.041396 0.825814 0.136076
O O7 0.765693 0.788626 0.021829
O O8 0.787070 0.558232 0.106038
O O9 0.311118 0.017327 0.116519
O O10 0.540201 0.285153 0.116642
O O11 0.464956 0.592444 0.187275
O O12 0.500000 0.500000 0.000000
O O13 0.000000 0.500000 0.500000
O O14 0.024515 0.631149 0.711250
O O15 0.500000 0.500000 0.500000
O O16 0.196878 0.408739 0.234324
O O17 0.126829 0.772089 0.973758
O O18 0.000000 0.500000 0.000000
#
# Coordination Sequence:
#
# PCOD8009967 Si02
#       8
#     2   2   2   2   2   2   2   2
#     4  11  23  40  63  93 127 167 207 259 314 371
#     4  11  21  40  66  93 121 164 215 258 302 371
#     4  11  25  40  63  95 130 164 208 256 319 370
#     4  10  21  37  63  91 123 157 209 255 304 359
#     4  11  21  37  68  97 120 156 219 264 301 363
#     4  11  22  37  64  95 122 154 215 264 303 358
#     4  12  23  44  62  92 132 168 202 257 318 383
#     4  11  22  39  64  93 123 162 208 255 310 369
#
# _framework density 19.843812
#
# number of rings (size 3 to 8) (size 9 to 14) (size 15 to 20)
#    0.000    1.000    6.250    2.250    5.250    0.000 
#    0.000    2.500    0.000    0.000    0.000    0.000 
#    0.000    0.000    0.000    0.000    0.000    0.000 
#
# Total GULP energy -198329.229015 kJ/mol
# GULP energy per Si atom -12395.576813 kJ/mol
# Density = 1.979865 g / cm^3
# Si number density = 19.843812 Si / 1000 Ang^3
#
#
#
# Elastic Constant Matrix: (Units=GPa)
#
#
# Indices 1 2 3 4 5 6 
#
# 1 77.3896 14.5354 37.2750 1.9145 -16.2833 -5.5157
# 2 14.5354 117.1567 35.5478 11.7203 -12.2064 -2.2240
# 3 37.2750 35.5478 138.8345 4.0433 -16.2541 -9.0518
# 4 1.9145 11.7203 4.0433 26.0959 -6.2934 -2.4082
# 5 -16.2833 -12.2064 -16.2541 -6.2934 44.0538 -1.1811
# 6 -5.5157 -2.2240 -9.0518 -2.4082 -1.1811 19.7199
#
#
#
# Elastic Compliance Matrix: (Units=1/GPa)
#
#
# Indices 1 2 3 4 5 6 
#
# 1 0.015843 -0.000485 -0.003399 0.001013 0.004699 0.003222
# 2 -0.000485 0.009737 -0.002142 -0.003759 0.001180 -0.000409
# 3 -0.003399 -0.002142 0.009045 0.000494 0.001642 0.003118
# 4 0.001013 -0.003759 0.000494 0.041723 0.005623 0.005518
# 5 0.004699 0.001180 0.001642 0.005623 0.026292 0.004462
# 6 0.003222 -0.000409 0.003118 0.005518 0.004462 0.053937
#
#
# Mechanical properties :
#
#
# Convention : Reuss Voigt Hill
#
# Bulk Modulus (GPa) = 44.29981 56.45523 50.37752
# Shear Modulus (GPa) = 28.38447 34.37544 31.37996
#
# Velocity S-wave (km/s) = 3.78616 4.16661 3.98093
# Velocity P-wave (km/s) = 6.44097 7.18742 6.82441
#
# Compressibility (1/GPa) = 0.02257346
#
# Stress axis : x y z
#
# Youngs Moduli (GPa) = 63.11971 102.70235 110.55986
#
# Poissons Ratio (x) = 0.04980 0.37577
# Poissons Ratio (y) = 0.03061 0.23681
# Poissons Ratio (z) = 0.21453 0.21998
#
# Static dielectric constant tensor:
#      x y z
#    x -0.575970 -0.085140 0.026740 
#    y -0.085140 3.559720 0.039270 
#    z 0.026740 0.039270 4.049430 
# 
# 
# High freq. dielectric constant tensor:
#      x y z
#    x 1.767760 0.000460 0.001960 
#    y 0.000460 1.742820 -0.002630 
#    z 0.001960 -0.002630 1.797030 
# 
# From -- ./inp_files/262145.got.cif
#   From: 2010.06.25/outbox.cif.g09.slc.cpg/sg2_132_cif.got.tgz:262145.got - 2010.06.27 13:26:56.
