data_PCOD8009841
_publ_section_title
;
Structure prediction by ZEFSAII (Michael W. Deem and Ramdas Pophale) SiO2 
 PCOD8009841
Probable space group: P -1
;
_chemical_formula_sum "Si O2"
_cell_formula_units_Z 16
_cell_length_a 17.260631
_cell_length_b 13.802794
_cell_length_c 8.716393
_cell_angle_alpha 134.432691
_cell_angle_beta 133.499012
_cell_angle_gamma 32.520354
_cell_volume 770.752987
_symmetry_space_group_name_H-M "P -1"
_symmetry_group_IT_number 2
_symmetry_cell_setting 'triclinic'
loop_
_space_group_symop_operation_xyz
x,y,z
-x,-y,-z
loop_
_atom_site_type_symbol
_atom_site_label
_atom_site_fract_x
_atom_site_fract_y
_atom_site_fract_z
Si Si1 0.113765 0.334993 0.725026
Si Si2 0.332286 0.151126 0.548686
Si Si3 0.601409 0.489539 0.008765
Si Si4 0.406580 0.906808 0.130682
Si Si5 0.668460 0.349412 0.622164
Si Si6 0.825632 0.940397 0.267260
Si Si7 0.850845 0.416341 0.780024
Si Si8 0.784223 0.532622 0.484954
O O1 0.191849 0.285464 0.614496
O O2 0.204953 0.146315 0.741686
O O3 0.955937 0.411132 0.554294
O O4 0.098014 0.491996 0.963654
O O5 0.479303 0.076324 0.752840
O O6 0.312212 0.260779 0.489061
O O7 0.357340 0.978796 0.321297
O O8 0.669726 0.338178 0.796971
O O9 0.500000 0.500000 0.000000
O O10 0.493260 0.689560 0.996109
O O11 0.738219 0.435279 0.227205
O O12 0.259600 0.034519 0.970966
O O13 0.500000 0.500000 0.500000
O O14 0.749636 0.415395 0.751789
O O15 0.763056 0.139517 0.456995
O O16 0.000779 0.796400 0.305630
O O17 0.755047 0.540883 0.636467
#
# Coordination Sequence:
#
# PCOD8009841 Si02
#       8
#     2   2   2   2   2   2   2   2
#     4  11  23  40  68  97 128 171 220 266 326 386
#     4  10  21  37  61  96 129 165 216 265 328 379
#     4  11  24  42  64  90 130 174 216 265 326 384
#     4  10  21  39  59  90 130 168 209 271 319 382
#     4  12  25  45  67  96 131 175 223 263 325 392
#     4  11  24  42  66  98 133 166 223 266 325 386
#     4  11  23  44  69  97 131 176 213 271 325 386
#     4  10  21  40  64  92 126 167 210 269 323 380
#
# _framework density 20.758921000000001
#
# number of rings (size 3 to 8) (size 9 to 14) (size 15 to 20)
#    0.000    1.250    1.250    6.000    1.750    1.500 
#    2.250    2.500    0.000    0.000    0.000    0.000 
#    0.000    0.000    0.000    0.000    0.000    0.000 
#
# Total GULP energy -198381.367442 kJ/mol
# GULP energy per Si atom -12398.835465 kJ/mol
# Density = 2.071167 g / cm^3
# Si number density = 20.758921 Si / 1000 Ang^3
#
#
#
# Elastic Constant Matrix: (Units=GPa)
#
#
# Indices 1 2 3 4 5 6 
#
# 1 131.0161 28.2609 54.1151 -4.4780 -2.7414 -14.1331
# 2 28.2609 74.5132 35.2797 -1.3196 5.2817 -7.8704
# 3 54.1151 35.2797 125.4675 -7.0117 4.4294 -12.8479
# 4 -4.4780 -1.3196 -7.0117 37.2521 -4.1664 -2.4418
# 5 -2.7414 5.2817 4.4294 -4.1664 32.5777 2.7339
# 6 -14.1331 -7.8704 -12.8479 -2.4418 2.7339 26.0752
#
#
#
# Elastic Compliance Matrix: (Units=1/GPa)
#
#
# Indices 1 2 3 4 5 6 
#
# 1 0.009829 -0.001886 -0.003406 0.000833 0.001450 0.003006
# 2 -0.001886 0.016186 -0.003425 -0.000428 -0.002574 0.002406
# 3 -0.003406 -0.003425 0.010811 0.001545 -0.001232 0.002721
# 4 0.000833 -0.000428 0.001545 0.027798 0.003203 0.003351
# 5 0.001450 -0.002574 -0.001232 0.003203 0.032120 -0.003666
# 6 0.003006 0.002406 0.002721 0.003351 -0.003666 0.042745
#
#
# Mechanical properties :
#
#
# Convention : Reuss Voigt Hill
#
# Bulk Modulus (GPa) = 51.56493 62.92314 57.24404
# Shear Modulus (GPa) = 30.60237 33.40374 32.00306
#
# Velocity S-wave (km/s) = 3.84367 4.01574 3.93065
# Velocity P-wave (km/s) = 6.67774 7.20269 6.94518
#
# Compressibility (1/GPa) = 0.01939302
#
# Stress axis : x y z
#
# Youngs Moduli (GPa) = 101.73587 61.78127 92.50181
#
# Poissons Ratio (x) = 0.11651 0.31506
# Poissons Ratio (y) = 0.19186 0.31678
# Poissons Ratio (z) = 0.34651 0.21158
#
# Static dielectric constant tensor:
#      x y z
#    x 3.806880 0.049640 -0.014200 
#    y 0.049640 3.747260 -0.070020 
#    z -0.014200 -0.070020 3.919010 
# 
# 
# High freq. dielectric constant tensor:
#      x y z
#    x 1.807380 -0.007170 -0.001090 
#    y -0.007170 1.812970 -0.003650 
#    z -0.001090 -0.003650 1.827870 
# 
# From -- ./inp_files/184086.got.cif
#   From: 2010.06.25/outbox.cif.g09.slc.cpg/sg2_93_cif.got.tgz:184086.got - 2010.06.27 13:26:56.
