data_PCOD8009981
_publ_section_title
;
Structure prediction by ZEFSAII (Michael W. Deem and Ramdas Pophale) SiO2 
 PCOD8009981
Probable space group: P -1
;
_chemical_formula_sum "Si O2"
_cell_formula_units_Z 16
_cell_length_a 15.294488
_cell_length_b 11.239465
_cell_length_c 9.988348
_cell_angle_alpha 98.996203
_cell_angle_beta 113.328563
_cell_angle_gamma 28.706209
_cell_volume 682.629773
_symmetry_space_group_name_H-M "P -1"
_symmetry_group_IT_number 2
_symmetry_cell_setting 'triclinic'
loop_
_space_group_symop_operation_xyz
x,y,z
-x,-y,-z
loop_
_atom_site_type_symbol
_atom_site_label
_atom_site_fract_x
_atom_site_fract_y
_atom_site_fract_z
Si Si1 0.680781 0.872438 0.663523
Si Si2 0.080989 0.000084 0.747633
Si Si3 0.414165 0.747765 0.389756
Si Si4 0.817789 0.337790 0.395880
Si Si5 0.410849 0.811153 0.869814
Si Si6 0.685320 0.394740 0.740624
Si Si7 0.894237 0.652466 0.320393
Si Si8 0.578619 0.805489 0.187293
O O1 0.920226 0.550658 0.717576
O O2 0.500000 0.000000 0.500000
O O3 0.689415 0.003147 0.648686
O O4 0.626850 0.918837 0.797091
O O5 0.014578 0.124251 0.581554
O O6 0.897494 0.226280 0.789495
O O7 0.292023 0.838628 0.884868
O O8 0.128569 0.803432 0.727204
O O9 0.625072 0.489277 0.381885
O O10 0.478501 0.657742 0.567549
O O11 0.259775 0.811533 0.262865
O O12 0.750833 0.547149 0.347277
O O13 0.236338 0.073506 0.710867
O O14 0.618596 0.520178 0.867441
O O15 0.495849 0.808670 0.027771
O O16 0.708067 0.766567 0.189231
O O17 0.000000 0.500000 0.500000
#
# Coordination Sequence:
#
# PCOD8009981 Si02
#       8
#     2   2   2   2   2   2   2   2
#     4  11  24  43  68  97 126 166 223 273 316 383
#     4  10  21  37  67  95 125 175 216 269 317 382
#     4   9  19  38  63  96 125 162 216 273 317 367
#     4   9  19  40  64  92 129 163 226 263 316 378
#     4  12  26  42  62  99 139 169 213 266 337 388
#     4  10  21  37  63  94 132 165 211 271 316 384
#     4  12  25  43  72  94 124 176 224 267 319 385
#     4  11  26  44  64  96 135 175 207 275 330 388
#
# _framework density 23.438766999999999
#
# number of rings (size 3 to 8) (size 9 to 14) (size 15 to 20)
#    0.000    1.500    2.500    1.875    7.000    2.000 
#    0.000    0.625    0.000    0.000    0.000    0.000 
#    0.000    0.000    0.000    0.000    0.000    0.000 
#
# Total GULP energy -198361.564812 kJ/mol
# GULP energy per Si atom -12397.597801 kJ/mol
# Density = 2.338542 g / cm^3
# Si number density = 23.438767 Si / 1000 Ang^3
#
#
#
# Elastic Constant Matrix: (Units=GPa)
#
#
# Indices 1 2 3 4 5 6 
#
# 1 125.9930 46.2155 20.9041 17.7193 23.8496 -19.0533
# 2 46.2155 112.7820 21.1909 28.0595 9.5266 -20.6733
# 3 20.9041 21.1909 56.3067 29.3654 18.8805 -13.6427
# 4 17.7193 28.0595 29.3654 33.3589 6.7930 -9.6146
# 5 23.8496 9.5266 18.8805 6.7930 30.8954 -4.1942
# 6 -19.0533 -20.6733 -13.6427 -9.6146 -4.1942 41.4182
#
#
#
# Elastic Compliance Matrix: (Units=1/GPa)
#
#
# Indices 1 2 3 4 5 6 
#
# 1 0.010977 -0.003097 0.001378 -0.002128 -0.007526 0.002702
# 2 -0.003097 0.012920 0.002835 -0.010620 -0.000524 0.003440
# 3 0.001378 0.002835 0.042089 -0.034531 -0.019259 0.005947
# 4 -0.002128 -0.010620 -0.034531 0.067985 0.010968 -0.000762
# 5 -0.007526 -0.000524 -0.019259 0.010968 0.047326 -0.002729
# 6 0.002702 0.003440 0.005947 -0.000762 -0.002729 0.028609
#
#
# Mechanical properties :
#
#
# Convention : Reuss Voigt Hill
#
# Bulk Modulus (GPa) = 14.65874 52.41143 33.53508
# Shear Modulus (GPa) = 21.70031 34.91926 28.30978
#
# Velocity S-wave (km/s) = 3.04605 3.86399 3.47914
# Velocity P-wave (km/s) = 4.31727 6.50513 5.52067
#
# Compressibility (1/GPa) = 0.06821871
#
# Stress axis : x y z
#
# Youngs Moduli (GPa) = 91.10299 77.39989 23.75925
#
# Poissons Ratio (x) = 0.23967 -0.03274
# Poissons Ratio (y) = 0.28211 -0.06736
# Poissons Ratio (z) = -0.12555 -0.21944
#
# Static dielectric constant tensor:
#      x y z
#    x 4.439180 -0.062870 -0.056910 
#    y -0.062870 4.401530 0.092530 
#    z -0.056910 0.092530 3.848460 
# 
# 
# High freq. dielectric constant tensor:
#      x y z
#    x 1.941610 -0.002960 0.008940 
#    y -0.002960 1.927330 0.014870 
#    z 0.008940 0.014870 1.895260 
# 
# From -- ./inp_files/307802.got.cif
#   From: 2010.06.25/outbox.cif.g09.slc.cpg/sg2_154_cif.got.tgz:307802.got - 2010.06.27 13:26:56.
