data_PCOD8009859
_publ_section_title
;
Structure prediction by ZEFSAII (Michael W. Deem and Ramdas Pophale) SiO2 
 PCOD8009859
Probable space group: P -1
;
_chemical_formula_sum "Si O2"
_cell_formula_units_Z 14
_cell_length_a 15.777003
_cell_length_b 6.770648
_cell_length_c 14.964546
_cell_angle_alpha 125.506530
_cell_angle_beta 36.159113
_cell_angle_gamma 125.812296
_cell_volume 744.980203
_symmetry_space_group_name_H-M "P -1"
_symmetry_group_IT_number 2
_symmetry_cell_setting 'triclinic'
loop_
_space_group_symop_operation_xyz
x,y,z
-x,-y,-z
loop_
_atom_site_type_symbol
_atom_site_label
_atom_site_fract_x
_atom_site_fract_y
_atom_site_fract_z
Si Si1 0.482635 0.744389 0.034462
Si Si2 0.323168 0.756494 0.998999
Si Si3 0.546542 0.901380 0.706321
Si Si4 0.258836 0.378650 0.629083
Si Si5 0.985137 0.581221 0.867632
Si Si6 0.411469 0.940057 0.650959
Si Si7 0.837382 0.909571 0.193274
O O1 0.401194 0.653532 0.987674
O O2 0.389959 0.881575 0.217508
O O3 0.500000 0.500000 0.000000
O O4 0.643885 0.940858 0.933541
O O5 0.152092 0.615040 0.110814
O O6 0.399950 0.712885 0.826947
O O7 0.672215 0.750952 0.544086
O O8 0.502528 0.035091 0.688688
O O9 0.367566 0.643413 0.626604
O O10 0.255208 0.195061 0.667986
O O11 0.096723 0.411191 0.752527
O O12 0.935137 0.715827 0.032401
O O13 0.060719 0.811480 0.797864
O O14 0.500000 0.000000 0.500000
O O15 0.269023 0.058083 0.791324
#
# Coordination Sequence:
#
# PCOD8009859 Si02
#       7
#     2   2   2   2   2   2   2
#     4   9  21  39  62  90 109 145 208 252 290 339
#     4   9  21  40  61  88 110 150 203 247 291 342
#     4  10  21  37  62  87 116 155 190 254 294 329
#     4  11  22  38  53  89 126 152 194 235 294 360
#     4  10  22  37  60  81 122 165 187 237 290 356
#     4  11  22  33  56  91 120 155 194 237 290 349
#     4  10  22  37  55  88 122 159 203 225 284 367
#
# _framework density 18.792445000000001
#
# number of rings (size 3 to 8) (size 9 to 14) (size 15 to 20)
#    0.857    1.143    1.429    1.714    4.000    3.429 
#    0.000    0.714    0.000    1.714    0.000    0.000 
#    0.000    0.000    0.000    0.000    0.000    0.000 
#
# Total GULP energy -173438.343071 kJ/mol
# GULP energy per Si atom -12388.453077 kJ/mol
# Density = 1.874967 g / cm^3
# Si number density = 18.792445 Si / 1000 Ang^3
#
#
#
# Elastic Constant Matrix: (Units=GPa)
#
#
# Indices 1 2 3 4 5 6 
#
# 1 100.6715 48.3711 37.3668 -8.6425 0.8106 -9.3110
# 2 48.3711 93.4729 19.2783 -8.5194 -6.7208 -14.6590
# 3 37.3668 19.2783 84.9165 4.0936 -3.3343 -12.3208
# 4 -8.6425 -8.5194 4.0936 32.6091 -7.4480 -1.3688
# 5 0.8106 -6.7208 -3.3343 -7.4480 29.7891 -5.7267
# 6 -9.3110 -14.6590 -12.3208 -1.3688 -5.7267 30.8389
#
#
#
# Elastic Compliance Matrix: (Units=1/GPa)
#
#
# Indices 1 2 3 4 5 6 
#
# 1 0.015487 -0.006987 -0.005607 0.002419 -0.002250 -0.001196
# 2 -0.006987 0.016144 0.000491 0.004033 0.006261 0.007102
# 3 -0.005607 0.000491 0.015047 -0.002529 0.002249 0.004858
# 4 0.002419 0.004033 -0.002529 0.035260 0.010362 0.005126
# 5 -0.002250 0.006261 0.002249 0.010362 0.040017 0.011086
# 6 -0.001196 0.007102 0.004858 0.005126 0.011086 0.039668
#
#
# Mechanical properties :
#
#
# Convention : Reuss Voigt Hill
#
# Bulk Modulus (GPa) = 44.49818 54.34370 49.42094
# Shear Modulus (GPa) = 25.86393 30.25040 28.05717
#
# Velocity S-wave (km/s) = 3.71387 4.01647 3.86813
# Velocity P-wave (km/s) = 6.49004 7.10563 6.80480
#
# Compressibility (1/GPa) = 0.02247283
#
# Stress axis : x y z
#
# Youngs Moduli (GPa) = 64.57176 61.94242 66.45770
#
# Poissons Ratio (x) = 0.43277 0.37264
# Poissons Ratio (y) = 0.45114 -0.03265
# Poissons Ratio (z) = 0.36206 -0.03043
#
# Static dielectric constant tensor:
#      x y z
#    x 4.023790 0.227050 0.586770 
#    y 0.227050 3.700290 0.155910 
#    z 0.586770 0.155910 3.862740 
# 
# 
# High freq. dielectric constant tensor:
#      x y z
#    x 1.712110 -0.016620 -0.001910 
#    y -0.016620 1.737940 -0.006610 
#    z -0.001910 -0.006610 1.716160 
# 
# From -- ./inp_files/370137.got.cif
#   From: 2010.06.25/outbox.cif.g09.slc.cpg/sg2_186_cif.got.tgz:370137.got - 2010.06.27 13:26:56.
