data_PCOD8010924
_publ_section_title
;
Structure prediction by ZEFSAII (Michael W. Deem and Ramdas Pophale) SiO2 
 PCOD8010924
Probable space group: P -1
;
_chemical_formula_sum "Si O2"
_cell_formula_units_Z 16
_cell_length_a 14.965891
_cell_length_b 8.608292
_cell_length_c 24.298734
_cell_angle_alpha 50.606330
_cell_angle_beta 162.030476
_cell_angle_gamma 130.239820
_cell_volume 734.510092
_symmetry_space_group_name_H-M "P -1"
_symmetry_group_IT_number 2
_symmetry_cell_setting 'triclinic'
loop_
_space_group_symop_operation_xyz
x,y,z
-x,-y,-z
loop_
_atom_site_type_symbol
_atom_site_label
_atom_site_fract_x
_atom_site_fract_y
_atom_site_fract_z
Si Si1 0.809360 0.579355 0.109395
Si Si2 0.229330 0.403982 0.747519
Si Si3 0.331409 0.394417 0.603402
Si Si4 0.138621 0.236121 0.412905
Si Si5 0.569165 0.190284 0.581056
Si Si6 0.717390 0.840582 0.265604
Si Si7 0.358990 0.203681 0.335466
Si Si8 0.778045 0.919697 0.098833
O O1 0.691356 0.720476 0.054205
O O2 0.882144 0.371212 0.225764
O O3 0.108328 0.710027 0.229184
O O4 0.552121 0.524301 0.926555
O O5 0.246737 0.360652 0.702453
O O6 0.143462 0.177703 0.775667
O O7 0.982885 0.538354 0.585226
O O8 0.341234 0.300813 0.569778
O O9 0.382240 0.227917 0.715637
O O10 0.608573 0.583222 0.726273
O O11 0.330318 0.266384 0.462568
O O12 0.020853 0.998961 0.408535
O O13 0.557750 0.259786 0.494486
O O14 0.513811 0.944345 0.599973
O O15 0.486119 0.960116 0.074519
O O16 0.036926 0.093565 0.188975
#
# Coordination Sequence:
#
# PCOD8010924 Si02
#       8
#     2   2   2   2   2   2   2   2
#     4  11  22  38  66  97 124 155 205 270 312 354
#     4  12  23  42  66  91 127 163 213 262 306 362
#     4  12  25  43  62  92 130 171 202 252 319 376
#     4  12  22  40  65  94 127 161 211 259 306 373
#     4  10  21  38  65 101 121 159 208 264 311 359
#     4  12  27  40  63  93 128 170 208 252 312 378
#     4  10  21  40  64  90 133 161 201 259 315 367
#     4  11  22  41  65  95 124 160 210 266 309 356
#
# _framework density 21.783227
#
# number of rings (size 3 to 8) (size 9 to 14) (size 15 to 20)
#    0.000    0.750    3.750    5.625    1.750    0.500 
#    0.000    0.000    0.000    3.750    0.000    0.000 
#    0.000    0.000    0.000    0.000    0.000    0.000 
#
# Total GULP energy -198353.246869 kJ/mol
# GULP energy per Si atom -12397.077929 kJ/mol
# Density = 2.173365 g / cm^3
# Si number density = 21.783227 Si / 1000 Ang^3
#
#
#
# Elastic Constant Matrix: (Units=GPa)
#
#
# Indices 1 2 3 4 5 6 
#
# 1 80.1267 42.8259 13.1786 9.0857 6.1235 -12.3456
# 2 42.8259 99.4819 23.0244 22.9187 -5.0052 5.1991
# 3 13.1786 23.0244 42.1828 7.8972 5.0239 0.4521
# 4 9.0857 22.9187 7.8972 31.2766 -0.0191 -0.6184
# 5 6.1235 -5.0052 5.0239 -0.0191 29.5408 -1.4262
# 6 -12.3456 5.1991 0.4521 -0.6184 -1.4262 35.1886
#
#
#
# Elastic Compliance Matrix: (Units=1/GPa)
#
#
# Indices 1 2 3 4 5 6 
#
# 1 0.018750 -0.008861 -0.000784 0.001394 -0.004881 0.007724
# 2 -0.008861 0.017922 -0.005903 -0.009176 0.005600 -0.005615
# 3 -0.000784 -0.005903 0.028336 -0.002606 -0.005660 -0.000042
# 4 0.001394 -0.009176 -0.002606 0.038999 -0.001254 0.002513
# 5 -0.004881 0.005600 -0.005660 -0.001254 0.036726 -0.001001
# 6 0.007724 -0.005615 -0.000042 0.002513 -0.001001 0.031962
#
#
# Mechanical properties :
#
#
# Convention : Reuss Voigt Hill
#
# Bulk Modulus (GPa) = 29.48752 42.20547 35.84650
# Shear Modulus (GPa) = 23.24578 28.71868 25.98223
#
# Velocity S-wave (km/s) = 3.27026 3.63490 3.45739
# Velocity P-wave (km/s) = 5.27500 6.08555 5.69471
#
# Compressibility (1/GPa) = 0.03391265
#
# Stress axis : x y z
#
# Youngs Moduli (GPa) = 53.33323 55.79791 35.29131
#
# Poissons Ratio (x) = 0.49440 0.02766
# Poissons Ratio (y) = 0.47256 0.20832
# Poissons Ratio (z) = 0.04181 0.32937
#
# Static dielectric constant tensor:
#      x y z
#    x 3.805360 -0.150300 0.066120 
#    y -0.150300 4.113050 0.166790 
#    z 0.066120 0.166790 3.647480 
# 
# 
# High freq. dielectric constant tensor:
#      x y z
#    x 1.849770 -0.010530 0.017590 
#    y -0.010530 1.873370 0.020660 
#    z 0.017590 0.020660 1.829870 
# 
# From -- ./inp_files/611625.got.cif
#   From: 2010.06.25/outbox.cif.g09.slc.cpg/sg2_306_cif.got.tgz:611625.got - 2010.06.27 13:26:56.
