data_PCOD8010461
_publ_section_title
;
Structure prediction by ZEFSAII (Michael W. Deem and Ramdas Pophale) SiO2 
 PCOD8010461
Probable space group: P -1
;
_chemical_formula_sum "Si O2"
_cell_formula_units_Z 16
_cell_length_a 8.752511
_cell_length_b 16.128063
_cell_length_c 13.139069
_cell_angle_alpha 44.929690
_cell_angle_beta 109.117920
_cell_angle_gamma 71.328813
_cell_volume 695.359985
_symmetry_space_group_name_H-M "P -1"
_symmetry_group_IT_number 2
_symmetry_cell_setting 'triclinic'
loop_
_space_group_symop_operation_xyz
x,y,z
-x,-y,-z
loop_
_atom_site_type_symbol
_atom_site_label
_atom_site_fract_x
_atom_site_fract_y
_atom_site_fract_z
Si Si1 0.127176 0.736521 0.651219
Si Si2 0.750983 0.825317 0.787582
Si Si3 0.358628 0.911238 0.314987
Si Si4 0.084483 0.345619 0.578139
Si Si5 0.271669 0.653567 0.971170
Si Si6 0.014599 0.545155 0.759273
Si Si7 0.116894 0.946753 0.822562
Si Si8 0.258413 0.007499 0.988421
O O1 0.149237 0.783974 0.725729
O O2 0.048146 0.648503 0.734311
O O3 0.880292 0.945856 0.348519
O O4 0.415643 0.583365 0.781592
O O5 0.060562 0.677127 0.940721
O O6 0.500000 0.000000 0.500000
O O7 0.680865 0.935495 0.780571
O O8 0.764109 0.679701 0.946399
O O9 0.696316 0.680490 0.580667
O O10 0.208295 0.905723 0.359778
O O11 0.186839 0.005489 0.088032
O O12 0.904892 0.475796 0.322750
O O13 0.030855 0.247798 0.699322
O O14 0.000000 0.500000 0.500000
O O15 0.418978 0.139660 0.802720
O O16 0.304319 0.731320 0.999290
O O17 0.255547 0.903532 0.996722
#
# Coordination Sequence:
#
# PCOD8010461 Si02
#       8
#     2   2   2   2   2   2   2   2
#     4  11  23  41  63  91 126 164 210 258 314 367
#     4  11  24  43  65  92 123 166 212 257 312 371
#     4  10  23  41  63  93 131 164 206 257 306 372
#     4  10  21  38  60  92 129 161 202 257 307 366
#     4  10  25  41  60  90 125 164 209 260 312 369
#     4  11  23  40  64  92 122 167 206 256 313 368
#     4  11  22  40  64  91 127 165 208 254 312 367
#     4  10  21  38  63  94 124 164 209 251 306 371
#
# _framework density 23.009664000000001
#
# number of rings (size 3 to 8) (size 9 to 14) (size 15 to 20)
#    0.000    1.500    1.250    3.000    1.750    8.000 
#    0.000    0.000    0.000    8.250    0.000    0.000 
#    0.000    0.000    0.000    0.000    0.000    0.000 
#
# Total GULP energy -198363.727550 kJ/mol
# GULP energy per Si atom -12397.732972 kJ/mol
# Density = 2.295729 g / cm^3
# Si number density = 23.009664 Si / 1000 Ang^3
#
#
#
# Elastic Constant Matrix: (Units=GPa)
#
#
# Indices 1 2 3 4 5 6 
#
# 1 64.7579 12.0744 29.8806 -2.4406 -15.5993 9.7040
# 2 12.0744 131.2448 12.0434 22.1744 -15.1583 3.6767
# 3 29.8806 12.0434 86.2777 10.5797 -27.0201 -1.8333
# 4 -2.4406 22.1744 10.5797 26.3941 4.2252 1.8011
# 5 -15.5993 -15.1583 -27.0201 4.2252 37.0045 -2.0660
# 6 9.7040 3.6767 -1.8333 1.8011 -2.0660 32.0822
#
#
#
# Elastic Compliance Matrix: (Units=1/GPa)
#
#
# Indices 1 2 3 4 5 6 
#
# 1 0.020903 -0.002067 -0.007549 0.006956 0.001278 -0.006825
# 2 -0.002067 0.010135 0.002691 -0.010873 0.006523 0.000648
# 3 -0.007549 0.002691 0.020134 -0.013672 0.014452 0.004824
# 4 0.006956 -0.010873 -0.013672 0.056481 -0.018288 -0.005988
# 5 0.001278 0.006523 0.014452 -0.018288 0.043070 0.003492
# 6 -0.006825 0.000648 0.004824 -0.005988 0.003492 0.033997
#
#
# Mechanical properties :
#
#
# Convention : Reuss Voigt Hill
#
# Bulk Modulus (GPa) = 26.79327 43.36413 35.07870
# Shear Modulus (GPa) = 23.69538 34.31496 29.00517
#
# Velocity S-wave (km/s) = 3.21253 3.86596 3.55430
# Velocity P-wave (km/s) = 5.04283 6.23013 5.66766
#
# Compressibility (1/GPa) = 0.03732280
#
# Stress axis : x y z
#
# Youngs Moduli (GPa) = 47.83893 98.67048 49.66633
#
# Poissons Ratio (x) = 0.20394 0.37492
# Poissons Ratio (y) = 0.09888 -0.13365
# Poissons Ratio (z) = 0.36113 -0.26551
#
# Static dielectric constant tensor:
#      x y z
#    x 4.062980 -0.129350 -0.059990 
#    y -0.129350 4.191600 0.227990 
#    z -0.059990 0.227990 3.948710 
# 
# 
# High freq. dielectric constant tensor:
#      x y z
#    x 1.904720 -0.004260 -0.005170 
#    y -0.004260 1.918700 0.012020 
#    z -0.005170 0.012020 1.894230 
# 
# From -- ./inp_files/364767.got.cif
#   From: 2010.06.25/outbox.cif.g09.slc.cpg/sg2_183_cif.got.tgz:364767.got - 2010.06.27 13:26:56.
