data_PCOD8010795
_publ_section_title
;
Structure prediction by ZEFSAII (Michael W. Deem and Ramdas Pophale) SiO2 
 PCOD8010795
Probable space group: P -1
;
_chemical_formula_sum "Si O2"
_cell_formula_units_Z 16
_cell_length_a 18.017932
_cell_length_b 8.505469
_cell_length_c 7.948020
_cell_angle_alpha 78.599459
_cell_angle_beta 41.914852
_cell_angle_gamma 60.957569
_cell_volume 682.897150
_symmetry_space_group_name_H-M "P -1"
_symmetry_group_IT_number 2
_symmetry_cell_setting 'triclinic'
loop_
_space_group_symop_operation_xyz
x,y,z
-x,-y,-z
loop_
_atom_site_type_symbol
_atom_site_label
_atom_site_fract_x
_atom_site_fract_y
_atom_site_fract_z
Si Si1 0.882943 0.584998 0.919165
Si Si2 0.627964 0.301602 0.377704
Si Si3 0.888238 0.428100 0.310263
Si Si4 0.387462 0.851936 0.199031
Si Si5 0.644953 0.785396 0.699247
Si Si6 0.141970 0.876556 0.470560
Si Si7 0.883553 0.259479 0.820039
Si Si8 0.358395 0.053221 0.681985
O O1 0.902538 0.437711 0.771141
O O2 0.993254 0.638166 0.742401
O O3 0.897609 0.489489 0.095359
O O4 0.750763 0.779727 0.054383
O O5 0.500000 0.500000 0.500000
O O6 0.611905 0.242663 0.605121
O O7 0.647089 0.135236 0.256828
O O8 0.760264 0.305741 0.137783
O O9 0.770090 0.591645 0.579024
O O10 0.867191 0.255760 0.347253
O O11 0.277273 0.868954 0.258659
O O12 0.372204 0.056705 0.175688
O O13 0.530474 0.735725 0.899193
O O14 0.673351 0.856225 0.465256
O O15 0.144757 0.780800 0.309923
O O16 0.021452 0.080365 0.675099
O O17 0.500000 0.000000 0.500000
#
# Coordination Sequence:
#
# PCOD8010795 Si02
#       8
#     2   2   2   2   2   2   2   2
#     4  10  21  41  66  91 124 169 222 263 317 387
#     4  11  24  41  67  98 130 168 215 267 326 387
#     4  10  21  39  65  93 120 169 215 268 318 385
#     4  10  22  43  66  94 127 175 211 267 321 391
#     4   9  21  40  65  93 127 165 220 258 322 385
#     4  11  25  41  64  94 131 172 209 272 329 381
#     4  11  25  43  60  95 133 167 219 266 325 387
#     4  10  21  38  63  95 130 170 210 265 318 382
#
# _framework density 23.429589
#
# number of rings (size 3 to 8) (size 9 to 14) (size 15 to 20)
#    0.000    1.750    0.000    3.000    3.500    6.000 
#    2.250    0.000    0.000    0.000    0.000    0.000 
#    0.000    0.000    0.000    0.000    0.000    0.000 
#
# Total GULP energy -198225.273937 kJ/mol
# GULP energy per Si atom -12389.079621 kJ/mol
# Density = 2.337626 g / cm^3
# Si number density = 23.429589 Si / 1000 Ang^3
#
#
#
# Elastic Constant Matrix: (Units=GPa)
#
#
# Indices 1 2 3 4 5 6 
#
# 1 97.3207 40.1084 28.0496 16.7095 -29.1409 15.5521
# 2 40.1084 118.0626 29.9876 28.3089 -9.4180 10.9459
# 3 28.0496 29.9876 92.3358 19.4412 -24.0921 0.1778
# 4 16.7095 28.3089 19.4412 43.9784 2.1678 -6.5523
# 5 -29.1409 -9.4180 -24.0921 2.1678 43.5584 -0.4744
# 6 15.5521 10.9459 0.1778 -6.5523 -0.4744 34.4177
#
#
#
# Elastic Compliance Matrix: (Units=1/GPa)
#
#
# Indices 1 2 3 4 5 6 
#
# 1 0.017070 -0.002597 -0.000070 -0.006516 0.011057 -0.007975
# 2 -0.002597 0.011645 -0.001601 -0.006366 0.000171 -0.003731
# 3 -0.000070 -0.001601 0.014717 -0.005928 0.008036 -0.000553
# 4 -0.006516 -0.006366 -0.005928 0.034146 -0.010590 0.011354
# 5 0.011057 0.000171 0.008036 -0.010590 0.035292 -0.006622
# 6 -0.007975 -0.003731 -0.000553 0.011354 -0.006622 0.035918
#
#
# Mechanical properties :
#
#
# Convention : Reuss Voigt Hill
#
# Bulk Modulus (GPa) = 28.65634 56.00113 42.32874
# Shear Modulus (GPa) = 29.59362 38.36248 33.97805
#
# Velocity S-wave (km/s) = 3.55785 4.05081 3.81231
# Velocity P-wave (km/s) = 5.39770 6.76997 6.12240
#
# Compressibility (1/GPa) = 0.03489629
#
# Stress axis : x y z
#
# Youngs Moduli (GPa) = 58.58238 85.87394 67.94885
#
# Poissons Ratio (x) = 0.22306 0.00472
# Poissons Ratio (y) = 0.15217 0.10877
# Poissons Ratio (z) = 0.00407 0.13747
#
# Static dielectric constant tensor:
#      x y z
#    x 4.084570 0.212960 -0.303330 
#    y 0.212960 4.426540 0.229530 
#    z -0.303330 0.229530 4.285060 
# 
# 
# High freq. dielectric constant tensor:
#      x y z
#    x 1.918910 0.005080 -0.016140 
#    y 0.005080 1.937650 0.002310 
#    z -0.016140 0.002310 1.935330 
# 
# From -- ./inp_files/328803.got.cif
#   From: 2010.06.25/outbox.cif.g09.slc.cpg/sg2_165_cif.got.tgz:328803.got - 2010.06.27 13:26:56.
