data_PCOD8010133
_publ_section_title
;
Structure prediction by ZEFSAII (Michael W. Deem and Ramdas Pophale) SiO2 
 PCOD8010133
Probable space group: P -1
;
_chemical_formula_sum "Si O2"
_cell_formula_units_Z 16
_cell_length_a 9.802359
_cell_length_b 11.897699
_cell_length_c 14.701355
_cell_angle_alpha 78.357152
_cell_angle_beta 59.067086
_cell_angle_gamma 127.493137
_cell_volume 763.474427
_symmetry_space_group_name_H-M "P -1"
_symmetry_group_IT_number 2
_symmetry_cell_setting 'triclinic'
loop_
_space_group_symop_operation_xyz
x,y,z
-x,-y,-z
loop_
_atom_site_type_symbol
_atom_site_label
_atom_site_fract_x
_atom_site_fract_y
_atom_site_fract_z
Si Si1 0.536057 0.346539 0.931089
Si Si2 0.062125 0.371730 0.412019
Si Si3 0.855551 0.007351 0.484785
Si Si4 0.082108 0.381658 0.071454
Si Si5 0.747624 0.419818 0.496126
Si Si6 0.786018 0.252078 0.859944
Si Si7 0.092652 0.961471 0.747741
Si Si8 0.786138 0.440604 0.182738
O O1 0.675509 0.497856 0.772118
O O2 0.671954 0.475337 0.957382
O O3 0.643354 0.286062 0.883757
O O4 0.177226 0.135703 0.094105
O O5 0.223128 0.500384 0.430249
O O6 0.867459 0.135239 0.515599
O O7 0.841349 0.343009 0.470220
O O8 0.985751 0.097975 0.323052
O O9 0.516783 0.757435 0.624545
O O10 0.000000 0.000000 0.500000
O O11 0.880549 0.145084 0.192901
O O12 0.866255 0.358625 0.145086
O O13 0.262976 0.502883 0.894578
O O14 0.968650 0.627504 0.320888
O O15 0.402227 0.218705 0.616309
O O16 0.946911 0.340723 0.886863
O O17 0.500000 0.000000 0.000000
#
# Coordination Sequence:
#
# PCOD8010133 Si02
#       8
#     2   2   2   2   2   2   2   2
#     4  10  22  39  63  97 127 171 217 268 326 385
#     4  10  23  43  66  92 133 170 220 269 323 389
#     4  12  25  40  65  98 135 172 216 278 329 382
#     4  10  21  37  66  92 130 167 216 270 322 385
#     4  10  23  43  68  96 123 176 225 263 325 397
#     4  10  22  43  66  87 130 175 217 268 325 388
#     4  12  23  40  68  96 131 172 218 268 331 391
#     4  10  22  39  61  99 125 166 225 265 320 386
#
# _framework density 20.956824999999998
#
# number of rings (size 3 to 8) (size 9 to 14) (size 15 to 20)
#    0.000    1.500    2.500    1.875    1.750    8.500 
#    2.250    1.250    0.000    0.000    0.000    0.000 
#    0.000    0.000    0.000    0.000    0.000    0.000 
#
# Total GULP energy -198289.255507 kJ/mol
# GULP energy per Si atom -12393.078469 kJ/mol
# Density = 2.090913 g / cm^3
# Si number density = 20.956825 Si / 1000 Ang^3
#
#
#
# Elastic Constant Matrix: (Units=GPa)
#
#
# Indices 1 2 3 4 5 6 
#
# 1 76.0449 31.9020 51.0143 4.7408 10.7126 13.1626
# 2 31.9020 91.1326 51.0522 -11.9117 2.6002 6.0934
# 3 51.0143 51.0522 152.3279 -10.1880 2.5993 11.0778
# 4 4.7408 -11.9117 -10.1880 38.0303 7.8979 0.8577
# 5 10.7126 2.6002 2.5993 7.8979 39.8912 -2.9939
# 6 13.1626 6.0934 11.0778 0.8577 -2.9939 7.0636
#
#
#
# Elastic Compliance Matrix: (Units=1/GPa)
#
#
# Indices 1 2 3 4 5 6 
#
# 1 0.026833 -0.004107 -0.004526 -0.002948 -0.009282 -0.042936
# 2 -0.004107 0.014885 -0.003239 0.004453 -0.000606 -0.000904
# 3 -0.004526 -0.003239 0.009610 0.002204 0.000057 -0.004086
# 4 -0.002948 0.004453 0.002204 0.030120 -0.006213 -0.008096
# 5 -0.009282 -0.000606 0.000057 -0.006213 0.031207 0.031711
# 6 -0.042936 -0.000904 -0.004086 -0.008096 0.031711 0.243192
#
#
# Mechanical properties :
#
#
# Convention : Reuss Voigt Hill
#
# Bulk Modulus (GPa) = 36.25486 65.27137 50.76311
# Shear Modulus (GPa) = 12.86057 29.36613 21.11335
#
# Velocity S-wave (km/s) = 2.47992 3.74741 3.17751
# Velocity P-wave (km/s) = 5.05345 7.06664 6.14308
#
# Compressibility (1/GPa) = 0.02758251
#
# Stress axis : x y z
#
# Youngs Moduli (GPa) = 37.26822 67.18083 104.06080
#
# Poissons Ratio (x) = 0.27593 0.47097
# Poissons Ratio (y) = 0.15307 0.33709
# Poissons Ratio (z) = 0.16867 0.21762
#
# Static dielectric constant tensor:
#      x y z
#    x 3.610530 0.061080 0.052580 
#    y 0.061080 3.586430 0.052940 
#    z 0.052580 0.052940 3.953430 
# 
# 
# High freq. dielectric constant tensor:
#      x y z
#    x 1.814520 0.007710 0.006880 
#    y 0.007710 1.807940 -0.002040 
#    z 0.006880 -0.002040 1.835960 
# 
# From -- ./inp_files/245668.got.cif
#   From: 2010.06.25/outbox.cif.g09.slc.cpg/sg2_123_cif.got.tgz:245668.got - 2010.06.27 13:26:56.
