data_PCOD8010296
_publ_section_title
;
Structure prediction by ZEFSAII (Michael W. Deem and Ramdas Pophale) SiO2 
 PCOD8010296
Probable space group: P -1
;
_chemical_formula_sum "Si O2"
_cell_formula_units_Z 16
_cell_length_a 15.552950
_cell_length_b 10.835571
_cell_length_c 12.952271
_cell_angle_alpha 82.646587
_cell_angle_beta 28.606942
_cell_angle_gamma 64.184632
_cell_volume 759.576523
_symmetry_space_group_name_H-M "P -1"
_symmetry_group_IT_number 2
_symmetry_cell_setting 'triclinic'
loop_
_space_group_symop_operation_xyz
x,y,z
-x,-y,-z
loop_
_atom_site_type_symbol
_atom_site_label
_atom_site_fract_x
_atom_site_fract_y
_atom_site_fract_z
Si Si1 0.646858 0.359446 0.444790
Si Si2 0.804641 0.463113 0.976339
Si Si3 0.897527 0.761459 0.116756
Si Si4 0.671894 0.794154 0.058814
Si Si5 0.553839 0.128994 0.509561
Si Si6 0.619282 0.182048 0.823595
Si Si7 0.052216 0.148128 0.362254
Si Si8 0.845194 0.452749 0.698843
O O1 0.500000 0.500000 0.500000
O O2 0.672826 0.206184 0.394502
O O3 0.484309 0.440581 0.712893
O O4 0.911678 0.302716 0.172341
O O5 0.883374 0.392496 0.784498
O O6 0.977643 0.319642 0.895005
O O7 0.824980 0.601863 0.955760
O O8 0.711206 0.737802 0.284867
O O9 0.743204 0.960962 0.262044
O O10 0.493564 0.919426 0.325955
O O11 0.516816 0.833205 0.117426
O O12 0.860454 0.815155 0.832166
O O13 0.851225 0.144852 0.534630
O O14 0.435864 0.372531 0.044790
O O15 0.712610 0.038978 0.824532
O O16 0.929967 0.294559 0.561235
O O17 0.000000 0.500000 0.500000
#
# Coordination Sequence:
#
# PCOD8010296 Si02
#       8
#     2   2   2   2   2   2   2   2
#     4   9  19  37  59  79 115 151 192 240 290 341
#     4   9  20  36  59  89 111 157 200 233 296 352
#     4  10  21  39  59  86 121 148 197 245 295 357
#     4  10  21  38  58  88 118 156 196 242 297 354
#     4  10  22  36  61  89 116 153 192 245 297 352
#     4  10  23  39  59  90 119 161 208 241 296 360
#     4  11  22  40  64  85 126 164 193 253 300 346
#     4  11  21  38  65  89 124 161 199 245 300 354
#
# _framework density 21.06437
#
# number of rings (size 3 to 8) (size 9 to 14) (size 15 to 20)
#    0.000    2.000    2.500    1.125    1.750    7.500 
#    0.000    2.500    5.500    0.000    0.000    0.000 
#    0.000    0.000    0.000    0.000    0.000    0.000 
#
# Total GULP energy -198272.132509 kJ/mol
# GULP energy per Si atom -12392.008282 kJ/mol
# Density = 2.101643 g / cm^3
# Si number density = 21.064370 Si / 1000 Ang^3
#
#
#
# Elastic Constant Matrix: (Units=GPa)
#
#
# Indices 1 2 3 4 5 6 
#
# 1 28.8505 4.3146 15.4442 3.8941 3.9851 -8.8670
# 2 4.3146 78.6370 36.1357 -7.6758 -4.9545 -13.5260
# 3 15.4442 36.1357 96.1696 -11.4697 -4.0329 -17.4841
# 4 3.8941 -7.6758 -11.4697 39.4408 -5.8643 -2.1143
# 5 3.9851 -4.9545 -4.0329 -5.8643 32.5216 -0.7645
# 6 -8.8670 -13.5260 -17.4841 -2.1143 -0.7645 23.3534
#
#
#
# Elastic Compliance Matrix: (Units=1/GPa)
#
#
# Indices 1 2 3 4 5 6 
#
# 1 0.043231 0.001570 -0.006418 -0.006195 -0.006695 0.011738
# 2 0.001570 0.016373 -0.004798 0.002340 0.002288 0.006774
# 3 -0.006418 -0.004798 0.015155 0.004907 0.002977 0.006672
# 4 -0.006195 0.002340 0.004907 0.029205 0.007121 0.005554
# 5 -0.006695 0.002288 0.002977 0.007121 0.033636 0.002758
# 6 0.011738 0.006774 0.006672 0.005554 0.002758 0.056789
#
#
# Mechanical properties :
#
#
# Convention : Reuss Voigt Hill
#
# Bulk Modulus (GPa) = 18.02877 35.04956 26.53917
# Shear Modulus (GPa) = 21.53599 28.91401 25.22500
#
# Velocity S-wave (km/s) = 3.20095 3.70895 3.46427
# Velocity P-wave (km/s) = 4.71582 5.91753 5.35052
#
# Compressibility (1/GPa) = 0.05546690
#
# Stress axis : x y z
#
# Youngs Moduli (GPa) = 23.13149 61.07677 65.98539
#
# Poissons Ratio (x) = -0.09588 0.42350
# Poissons Ratio (y) = -0.03631 0.31658
# Poissons Ratio (z) = 0.14846 0.29303
#
# Static dielectric constant tensor:
#      x y z
#    x 3.501780 -0.065330 0.038700 
#    y -0.065330 3.907890 -0.192380 
#    z 0.038700 -0.192380 4.628030 
# 
# 
# High freq. dielectric constant tensor:
#      x y z
#    x 1.803500 -0.002240 -0.003430 
#    y -0.002240 1.827010 -0.006420 
#    z -0.003430 -0.006420 1.839070 
# 
# From -- ./inp_files/259251.got.cif
#   From: 2010.06.25/outbox.cif.g09.slc.cpg/sg2_130_cif.got.tgz:259251.got - 2010.06.27 13:26:56.
