data_PCOD8010659
_publ_section_title
;
Structure prediction by ZEFSAII (Michael W. Deem and Ramdas Pophale) SiO2 
 PCOD8010659
Probable space group: P -1
;
_chemical_formula_sum "Si O2"
_cell_formula_units_Z 16
_cell_length_a 18.156071
_cell_length_b 5.712393
_cell_length_c 8.405503
_cell_angle_alpha 53.784771
_cell_angle_beta 97.937224
_cell_angle_gamma 93.757586
_cell_volume 696.471079
_symmetry_space_group_name_H-M "P -1"
_symmetry_group_IT_number 2
_symmetry_cell_setting 'triclinic'
loop_
_space_group_symop_operation_xyz
x,y,z
-x,-y,-z
loop_
_atom_site_type_symbol
_atom_site_label
_atom_site_fract_x
_atom_site_fract_y
_atom_site_fract_z
Si Si1 0.290330 0.088788 0.488144
Si Si2 0.048056 0.096330 0.620446
Si Si3 0.829366 0.285546 0.264812
Si Si4 0.218403 0.084898 0.122843
Si Si5 0.568203 0.200726 0.473941
Si Si6 0.097138 0.708498 0.370373
Si Si7 0.652725 0.303549 0.762521
Si Si8 0.516071 0.334794 0.903125
O O1 0.251293 0.120594 0.293062
O O2 0.310384 0.412941 0.419371
O O3 0.239531 0.932886 0.665895
O O4 0.364156 0.889491 0.584124
O O5 0.095163 0.369982 0.462451
O O6 0.989070 0.171229 0.712802
O O7 0.108633 0.844626 0.788674
O O8 0.000000 0.000000 0.500000
O O9 0.867032 0.275883 0.451610
O O10 0.803842 0.605893 0.080411
O O11 0.145564 0.884875 0.187231
O O12 0.280759 0.930469 0.090051
O O13 0.593478 0.171240 0.675501
O O14 0.540113 0.524833 0.298457
O O15 0.500000 0.000000 0.500000
O O16 0.604359 0.384230 0.872842
O O17 0.500000 0.500000 0.000000
O O18 0.500000 0.000000 0.000000
#
# Coordination Sequence:
#
# PCOD8010659 Si02
#       8
#     2   2   2   2   2   2   2   2
#     4  10  23  40  64  89 128 168 222 273 335 405
#     4   9  18  36  63  90 128 168 211 264 322 392
#     4  10  21  38  62  91 126 171 218 266 330 396
#     4  10  23  40  61  94 129 169 219 275 329 403
#     4  11  23  45  68  90 126 178 226 278 353 416
#     4   9  19  39  61  91 128 168 214 265 327 391
#     4  11  24  44  66  90 130 179 219 281 349 410
#     4  12  28  43  68 103 135 168 229 294 348 417
#
# _framework density 22.972956
#
# number of rings (size 3 to 8) (size 9 to 14) (size 15 to 20)
#    0.000    1.750    1.250    1.875    5.250    1.500 
#    0.000    5.625    0.000    0.000    0.000    0.000 
#    0.000    0.000    0.000    0.000    0.000    0.000 
#
# Total GULP energy -198289.216883 kJ/mol
# GULP energy per Si atom -12393.076055 kJ/mol
# Density = 2.292067 g / cm^3
# Si number density = 22.972956 Si / 1000 Ang^3
#
#
#
# Elastic Constant Matrix: (Units=GPa)
#
#
# Indices 1 2 3 4 5 6 
#
# 1 183.6556 63.8841 72.8492 -29.8690 -1.4232 -26.0729
# 2 63.8841 116.3546 37.4000 -33.0207 -4.8557 -8.7741
# 3 72.8492 37.4000 94.3841 -38.6265 -1.1659 -19.2799
# 4 -29.8690 -33.0207 -38.6265 42.8508 -8.1786 3.4468
# 5 -1.4232 -4.8557 -1.1659 -8.1786 27.8319 -18.9574
# 6 -26.0729 -8.7741 -19.2799 3.4468 -18.9574 54.6202
#
#
#
# Elastic Compliance Matrix: (Units=1/GPa)
#
#
# Indices 1 2 3 4 5 6 
#
# 1 0.008935 -0.003343 -0.005883 -0.001724 0.000418 0.001905
# 2 -0.003343 0.013554 0.003124 0.012255 0.008573 0.003887
# 3 -0.005883 0.003124 0.026151 0.024024 0.015824 0.010901
# 4 -0.001724 0.012255 0.024024 0.057904 0.031613 0.016943
# 5 0.000418 0.008573 0.015824 0.031613 0.066684 0.028312
# 6 0.001905 0.003887 0.010901 0.016943 0.028312 0.032447
#
#
# Mechanical properties :
#
#
# Convention : Reuss Voigt Hill
#
# Bulk Modulus (GPa) = 27.44422 82.51789 54.98105
# Shear Modulus (GPa) = 21.73681 39.74465 30.74073
#
# Velocity S-wave (km/s) = 3.07936 4.16391 3.66201
# Velocity P-wave (km/s) = 4.96140 7.68864 6.47034
#
# Compressibility (1/GPa) = 0.03643755
#
# Stress axis : x y z
#
# Youngs Moduli (GPa) = 111.92556 73.77791 38.23886
#
# Poissons Ratio (x) = 0.24662 0.22495
# Poissons Ratio (y) = 0.37414 -0.11947
# Poissons Ratio (z) = 0.65842 -0.23050
#
# Static dielectric constant tensor:
#      x y z
#    x 4.354660 -0.293820 -1.388710 
#    y -0.293820 4.272800 -0.358910 
#    z -1.388710 -0.358910 1.091340 
# 
# 
# High freq. dielectric constant tensor:
#      x y z
#    x 1.935850 -0.005210 0.003130 
#    y -0.005210 1.914140 -0.025590 
#    z 0.003130 -0.025590 1.871660 
# 
# From -- ./inp_files/57055.got.cif
#   From: 2010.06.25/outbox.cif.g09.slc.cpg/sg2_29_cif.got.tgz:57055.got - 2010.06.27 13:26:56.
