data_PCOD8010899
_publ_section_title
;
Structure prediction by ZEFSAII (Michael W. Deem and Ramdas Pophale) SiO2 
 PCOD8010899
Probable space group: P -1
;
_chemical_formula_sum "Si O2"
_cell_formula_units_Z 12
_cell_length_a 7.508314
_cell_length_b 11.553980
_cell_length_c 10.602072
_cell_angle_alpha 117.996204
_cell_angle_beta 72.911190
_cell_angle_gamma 59.917624
_cell_volume 506.920074
_symmetry_space_group_name_H-M "P -1"
_symmetry_group_IT_number 2
_symmetry_cell_setting 'triclinic'
loop_
_space_group_symop_operation_xyz
x,y,z
-x,-y,-z
loop_
_atom_site_type_symbol
_atom_site_label
_atom_site_fract_x
_atom_site_fract_y
_atom_site_fract_z
Si Si1 0.347069 0.440187 0.992272
Si Si2 0.707759 0.019765 0.601689
Si Si3 0.283624 0.495000 0.551994
Si Si4 0.135828 0.667369 0.920706
Si Si5 0.785642 0.408320 0.650544
Si Si6 0.635748 0.063858 0.350642
O O1 0.129187 0.560585 0.979675
O O2 0.576353 0.203428 0.809219
O O3 0.500000 0.500000 0.000000
O O4 0.169007 0.518183 0.200443
O O5 0.532524 0.981759 0.640817
O O6 0.030462 0.821982 0.481793
O O7 0.715881 0.059427 0.474587
O O8 0.500000 0.500000 0.500000
O O9 0.059440 0.642948 0.788655
O O10 0.120034 0.571638 0.489925
O O11 0.449351 0.273877 0.432253
O O12 0.453958 0.552177 0.784144
O O13 0.918570 0.898364 0.121121
#
# Coordination Sequence:
#
# PCOD8010899 Si02
#       6
#     2   2   2   2   2   2
#     4  10  21  38  64  96 123 163 215 263 307 372
#     4  11  24  41  65  98 129 168 212 268 318 378
#     4  10  23  42  64  94 132 170 207 265 320 381
#     4  10  21  40  66  95 125 170 214 262 312 383
#     4  10  23  40  64  98 128 164 215 268 318 369
#     4  11  24  41  66  95 131 169 214 259 324 383
#
# _framework density 23.672370000000001
#
# number of rings (size 3 to 8) (size 9 to 14) (size 15 to 20)
#    0.000    1.667    3.333    0.000    0.000   14.667 
#    0.000    1.667    0.000    0.000    0.000    0.000 
#    0.000    0.000    0.000    0.000    0.000    0.000 
#
# Total GULP energy -148735.073889 kJ/mol
# GULP energy per Si atom -12394.589491 kJ/mol
# Density = 2.361849 g / cm^3
# Si number density = 23.672370 Si / 1000 Ang^3
#
#
#
# Elastic Constant Matrix: (Units=GPa)
#
#
# Indices 1 2 3 4 5 6 
#
# 1 30.1843 21.8405 17.7272 -2.6638 10.6048 10.4930
# 2 21.8405 179.6578 87.9348 -21.9831 45.2703 -28.7739
# 3 17.7272 87.9348 197.9652 -2.2089 56.3128 -19.8048
# 4 -2.6638 -21.9831 -2.2089 55.9475 -7.4500 19.8584
# 5 10.6048 45.2703 56.3128 -7.4500 30.8840 0.3366
# 6 10.4930 -28.7739 -19.8048 19.8584 0.3366 32.6210
#
#
#
# Elastic Compliance Matrix: (Units=1/GPa)
#
#
# Indices 1 2 3 4 5 6 
#
# 1 0.059189 -0.013558 -0.010651 0.017360 0.023684 -0.048277
# 2 -0.013558 0.015327 0.005420 -0.007660 -0.029827 0.026142
# 3 -0.010651 0.005420 0.017149 -0.012269 -0.038805 0.026488
# 4 0.017360 -0.007660 -0.012269 0.034723 0.036465 -0.041304
# 5 0.023684 -0.029827 -0.038805 0.036465 0.148405 -0.081217
# 6 -0.048277 0.026142 0.026488 -0.041304 -0.081217 0.111307
#
#
# Mechanical properties :
#
#
# Convention : Reuss Voigt Hill
#
# Bulk Modulus (GPa) = 18.48863 73.64581 46.06722
# Shear Modulus (GPa) = 11.31979 42.57748 26.94863
#
# Velocity S-wave (km/s) = 2.18912 4.24561 3.37768
# Velocity P-wave (km/s) = 3.77052 7.43045 5.89188
#
# Compressibility (1/GPa) = 0.05408729
#
# Stress axis : x y z
#
# Youngs Moduli (GPa) = 16.89509 65.24598 58.31252
#
# Poissons Ratio (x) = 0.88460 0.62108
# Poissons Ratio (y) = 0.22906 -0.31607
# Poissons Ratio (z) = 0.17995 -0.35365
#
# Static dielectric constant tensor:
#      x y z
#    x 4.168530 -0.708780 0.620180 
#    y -0.708780 5.180580 -0.984650 
#    z 0.620180 -0.984650 5.308250 
# 
# 
# High freq. dielectric constant tensor:
#      x y z
#    x 1.910200 -0.007700 0.014890 
#    y -0.007700 1.942830 -0.012040 
#    z 0.014890 -0.012040 1.955810 
# 
# From -- ./inp_files/35874.got.cif
#   From: 2010.06.25/outbox.cif.g09.slc.cpg/sg2_18_cif.got.tgz:35874.got - 2010.06.27 13:26:56.
