data_PCOD8010510
_publ_section_title
;
Structure prediction by ZEFSAII (Michael W. Deem and Ramdas Pophale) SiO2 
 PCOD8010510
Probable space group: P -1
;
_chemical_formula_sum "Si O2"
_cell_formula_units_Z 16
_cell_length_a 11.164394
_cell_length_b 16.063316
_cell_length_c 8.580472
_cell_angle_alpha 57.712477
_cell_angle_beta 67.401360
_cell_angle_gamma 112.468687
_cell_volume 790.709738
_symmetry_space_group_name_H-M "P -1"
_symmetry_group_IT_number 2
_symmetry_cell_setting 'triclinic'
loop_
_space_group_symop_operation_xyz
x,y,z
-x,-y,-z
loop_
_atom_site_type_symbol
_atom_site_label
_atom_site_fract_x
_atom_site_fract_y
_atom_site_fract_z
Si Si1 0.827586 0.335237 0.818092
Si Si2 0.668848 0.667104 0.932275
Si Si3 0.419210 0.172681 0.686235
Si Si4 0.086980 0.825215 0.198124
Si Si5 0.331158 0.332903 0.435325
Si Si6 0.580787 0.827319 0.950810
Si Si7 0.913017 0.174785 0.435541
Si Si8 0.172416 0.664763 0.816149
O O1 0.872374 0.247771 0.849452
O O2 0.627420 0.250552 0.919609
O O3 0.000000 0.500000 0.500000
O O4 0.807266 0.342115 0.004252
O O5 0.662377 0.656961 0.761849
O O6 0.880931 0.751945 0.800723
O O7 0.500002 0.500004 0.256072
O O8 0.633189 0.758018 0.906261
O O9 0.366821 0.241993 0.555477
O O10 0.424125 0.198591 0.839346
O O11 0.627410 0.250542 0.451877
O O12 0.255379 0.999130 0.899384
O O13 0.083631 0.796906 0.411277
O O14 0.880923 0.751937 0.314463
O O15 0.744606 0.000870 0.653037
O O16 0.872381 0.247777 0.282628
O O17 0.000000 0.500000 0.000000
#
# Coordination Sequence:
#
# PCOD8010510 Si02
#       8
#     2   2   2   2   2   2   2   2
#     4  12  25  41  63  89 119 156 200 249 301 359
#     4  10  21  38  61  88 120 160 204 250 298 349
#     4  11  23  39  61  89 123 161 201 247 297 353
#     4  10  22  40  61  89 125 161 199 247 300 351
#     4  10  21  38  61  88 120 160 204 250 298 349
#     4  11  23  39  61  89 123 161 201 247 297 353
#     4  10  22  40  61  89 125 161 199 247 300 351
#     4  12  25  41  63  89 119 156 200 249 301 359
#
# _framework density 20.234984000000001
#
# number of rings (size 3 to 8) (size 9 to 14) (size 15 to 20)
#    0.000    1.250    0.000    6.000    0.000    8.500 
#    0.000    0.000    0.000    0.000    0.000    0.000 
#    0.000    0.000    0.000    0.000    0.000    0.000 
#
# Total GULP energy -198492.788971 kJ/mol
# GULP energy per Si atom -12405.799311 kJ/mol
# Density = 2.018893 g / cm^3
# Si number density = 20.234984 Si / 1000 Ang^3
#
#
#
# Elastic Constant Matrix: (Units=GPa)
#
#
# Indices 1 2 3 4 5 6 
#
# 1 82.8987 -35.9002 14.0201 -33.9993 -30.9997 -25.1388
# 2 -35.9002 18.1121 -11.7343 -37.6589 -26.4283 -24.1301
# 3 14.0201 -11.7343 101.2374 -42.6909 -33.2856 -8.2212
# 4 -33.9993 -37.6589 -42.6909 27.1825 -2.1237 -5.9515
# 5 -30.9997 -26.4283 -33.2856 -2.1237 45.2152 -0.7119
# 6 -25.1388 -24.1301 -8.2212 -5.9515 -0.7119 35.1891
#
#
#
# Elastic Compliance Matrix: (Units=1/GPa)
#
#
# Indices 1 2 3 4 5 6 
#
# 1 0.007219 -0.005192 -0.004866 -0.006094 -0.001964 -0.000610
# 2 -0.005192 0.004201 -0.005712 -0.011013 -0.005892 -0.004145
# 3 -0.004866 -0.005712 0.010270 0.001150 0.000864 -0.004782
# 4 -0.006094 -0.011013 0.001150 0.012874 -0.009316 -0.009648
# 5 -0.001964 -0.005892 0.000864 -0.009316 0.017423 -0.006464
# 6 -0.000610 -0.004145 -0.004782 -0.009648 -0.006464 0.022260
#
#
# Mechanical properties :
#
#
# Convention : Reuss Voigt Hill
#
# Bulk Modulus (GPa) = -101.50857 15.00216 -43.25320
# Shear Modulus (GPa) = 48.77890 37.24151 43.01020
#
# Velocity S-wave (km/s) = 4.91514 4.29470 4.61536
# Velocity P-wave (km/s) = 4.24999 5.65886 2.64200
#
# Compressibility (1/GPa) = -0.00985139
#
# Stress axis : x y z
#
# Youngs Moduli (GPa) = 138.52442 238.05656 97.37051
#
# Poissons Ratio (x) = 1.23600 0.47383
# Poissons Ratio (y) = 0.71922 0.55620
# Poissons Ratio (z) = 0.67410 1.35983
#
# Static dielectric constant tensor:
#      x y z
#    x 3.802930 0.004250 -0.149170 
#    y 0.004250 3.716230 -0.119370 
#    z -0.149170 -0.119370 3.939970 
# 
# 
# High freq. dielectric constant tensor:
#      x y z
#    x 1.805990 -0.006180 -0.008150 
#    y -0.006180 1.796740 -0.010290 
#    z -0.008150 -0.010290 1.808110 
# 
# From -- ./inp_files/184829.got.cif
#   From: 2010.06.25/outbox.cif.g09.slc.cpg/sg2_93_cif.got.tgz:184829.got - 2010.06.27 13:26:56.
