data_PCOD8010363
_publ_section_title
;
Structure prediction by ZEFSAII (Michael W. Deem and Ramdas Pophale) SiO2 
 PCOD8010363
Probable space group: P -1
;
_chemical_formula_sum "Si O2"
_cell_formula_units_Z 16
_cell_length_a 19.434450
_cell_length_b 21.915649
_cell_length_c 11.713200
_cell_angle_alpha 31.367471
_cell_angle_beta 146.853855
_cell_angle_gamma 161.977644
_cell_volume 793.431990
_symmetry_space_group_name_H-M "P -1"
_symmetry_group_IT_number 2
_symmetry_cell_setting 'triclinic'
loop_
_space_group_symop_operation_xyz
x,y,z
-x,-y,-z
loop_
_atom_site_type_symbol
_atom_site_label
_atom_site_fract_x
_atom_site_fract_y
_atom_site_fract_z
Si Si1 0.319056 0.620123 0.240356
Si Si2 0.656669 0.154531 0.367181
Si Si3 0.158193 0.741429 0.910996
Si Si4 0.433374 0.604388 0.840947
Si Si5 0.793787 0.072882 0.540186
Si Si6 0.719204 0.606751 0.272312
Si Si7 0.677332 0.044138 0.968656
Si Si8 0.098555 0.469511 0.760334
O O1 0.375440 0.561630 0.501293
O O2 0.108403 0.432798 0.161076
O O3 0.555461 0.823826 0.175057
O O4 0.214506 0.649029 0.118376
O O5 0.830426 0.185857 0.523071
O O6 0.778732 0.372498 0.213961
O O7 0.500000 0.000000 0.500000
O O8 0.504725 0.031014 0.240591
O O9 0.243753 0.883624 0.696723
O O10 0.300592 0.881373 0.996740
O O11 0.304613 0.452339 0.796920
O O12 0.261972 0.516455 0.838683
O O13 0.579953 0.825970 0.649819
O O14 0.586566 0.624343 0.081863
O O15 0.018691 0.168128 0.695558
O O16 0.913342 0.233225 0.926682
O O17 0.000000 0.500000 0.500000
#
# Coordination Sequence:
#
# PCOD8010363 Si02
#       8
#     2   2   2   2   2   2   2   2
#     4  10  21  38  59  89 123 158 208 249 307 359
#     4  12  23  37  57  97 126 162 196 249 317 373
#     4  10  22  36  61  95 121 159 202 263 306 357
#     4  11  23  42  60  94 125 162 208 248 309 370
#     4  11  21  40  66  92 127 157 204 258 314 357
#     4  10  24  39  66  89 123 165 207 256 297 368
#     4  12  23  37  59  89 129 162 200 254 312 359
#     4  12  25  38  60  90 129 160 200 251 311 372
#
# _framework density 20.165558999999998
#
# number of rings (size 3 to 8) (size 9 to 14) (size 15 to 20)
#    0.000    1.000    3.750    3.000    7.000    0.000 
#    0.000    0.625    0.000    6.750    0.000    0.000 
#    0.000    0.000    0.000    0.000    0.000    0.000 
#
# Total GULP energy -198250.502296 kJ/mol
# GULP energy per Si atom -12390.656394 kJ/mol
# Density = 2.011966 g / cm^3
# Si number density = 20.165559 Si / 1000 Ang^3
#
#
#
# Elastic Constant Matrix: (Units=GPa)
#
#
# Indices 1 2 3 4 5 6 
#
# 1 100.3220 48.8585 52.5929 8.5438 -1.5164 7.6188
# 2 48.8585 113.2732 23.2446 -10.3977 -9.5008 14.2397
# 3 52.5929 23.2446 82.6134 2.8851 -3.7249 7.4305
# 4 8.5438 -10.3977 2.8851 34.3692 3.8165 -12.0625
# 5 -1.5164 -9.5008 -3.7249 3.8165 33.0770 0.2108
# 6 7.6188 14.2397 7.4305 -12.0625 0.2108 40.3715
#
#
#
# Elastic Compliance Matrix: (Units=1/GPa)
#
#
# Indices 1 2 3 4 5 6 
#
# 1 0.019078 -0.006714 -0.009993 -0.006209 -0.001455 -0.001240
# 2 -0.006714 0.012423 0.000939 0.004323 0.002880 -0.002011
# 3 -0.009993 0.000939 0.018426 0.000411 0.001850 -0.001723
# 4 -0.006209 0.004323 0.000411 0.035887 -0.003203 0.010311
# 5 -0.001455 0.002880 0.001850 -0.003203 0.031585 -0.002204
# 6 -0.001240 -0.002011 -0.001723 0.010311 -0.002204 0.029123
#
#
# Mechanical properties :
#
#
# Convention : Reuss Voigt Hill
#
# Bulk Modulus (GPa) = 54.37882 60.62228 57.50055
# Shear Modulus (GPa) = 27.14617 32.99772 30.07194
#
# Velocity S-wave (km/s) = 3.67299 4.04956 3.86586
# Velocity P-wave (km/s) = 6.70914 7.21060 6.96439
#
# Compressibility (1/GPa) = 0.01838951
#
# Stress axis : x y z
#
# Youngs Moduli (GPa) = 52.41771 80.49732 54.27028
#
# Poissons Ratio (x) = 0.54047 0.54233
# Poissons Ratio (y) = 0.35194 -0.05094
# Poissons Ratio (z) = 0.52382 -0.07556
#
# Static dielectric constant tensor:
#      x y z
#    x 2.982460 -0.825520 0.233850 
#    y -0.825520 4.840260 1.199080 
#    z 0.233850 1.199080 3.563790 
# 
# 
# High freq. dielectric constant tensor:
#      x y z
#    x 1.773610 0.002390 -0.027920 
#    y 0.002390 1.811540 -0.000440 
#    z -0.027920 -0.000440 1.770050 
# 
# From -- ./inp_files/427838.got.cif
#   From: 2010.06.25/outbox.cif.g09.slc.cpg/sg2_214_cif.got.tgz:427838.got - 2010.06.27 13:26:56.
