data_PCOD8010486
_publ_section_title
;
Structure prediction by ZEFSAII (Michael W. Deem and Ramdas Pophale) SiO2 
 PCOD8010486
Probable space group: P -1
;
_chemical_formula_sum "Si O2"
_cell_formula_units_Z 16
_cell_length_a 9.260908
_cell_length_b 11.727214
_cell_length_c 17.543314
_cell_angle_alpha 112.816279
_cell_angle_beta 133.038922
_cell_angle_gamma 103.078114
_cell_volume 879.025387
_symmetry_space_group_name_H-M "P -1"
_symmetry_group_IT_number 2
_symmetry_cell_setting 'triclinic'
loop_
_space_group_symop_operation_xyz
x,y,z
-x,-y,-z
loop_
_atom_site_type_symbol
_atom_site_label
_atom_site_fract_x
_atom_site_fract_y
_atom_site_fract_z
Si Si1 0.028301 0.338300 0.699071
Si Si2 0.511699 0.733263 0.923358
Si Si3 0.869157 0.044329 0.803500
Si Si4 0.922052 0.047933 0.255625
Si Si5 0.919491 0.008074 0.555892
Si Si6 0.333721 0.835580 0.340451
Si Si7 0.696995 0.275554 0.417792
Si Si8 0.930174 0.328163 0.357039
O O1 0.335839 0.540310 0.846908
O O2 0.915247 0.338405 0.740756
O O3 0.801367 0.266264 0.532520
O O4 0.060792 0.205128 0.677671
O O5 0.329273 0.719262 0.790243
O O6 0.801621 0.808853 0.008096
O O7 0.606192 0.871278 0.060622
O O8 0.805618 0.152095 0.776412
O O9 0.838152 0.926992 0.694389
O O10 0.647969 0.903803 0.754354
O O11 0.935893 0.024277 0.343637
O O12 0.987792 0.222603 0.311850
O O13 0.568650 0.846413 0.394823
O O14 0.000000 0.000000 0.500000
O O15 0.500000 0.000000 0.500000
O O16 0.842928 0.269996 0.398668
O O17 0.777801 0.457845 0.488751
#
# Coordination Sequence:
#
# PCOD8010486 Si02
#       8
#     2   2   2   2   2   2   2   2
#     4  10  17  35  59  77 108 137 180 214 259 321
#     4   9  21  35  56  77 104 150 178 210 261 314
#     4  10  19  33  55  81 104 138 182 211 269 312
#     4  10  20  34  52  80 106 138 180 214 263 313
#     4  11  20  31  57  85 107 133 171 228 272 305
#     4  10  16  32  54  80 104 133 171 219 261 314
#     4  10  19  34  56  80 100 145 175 225 262 308
#     4  10  21  35  54  76 111 137 184 219 262 305
#
# _framework density 18.201976999999999
#
# number of rings (size 3 to 8) (size 9 to 14) (size 15 to 20)
#    0.750    1.250    5.000    1.125    0.000    3.000 
#    0.000    0.000    2.750    1.500    0.000    0.000 
#    0.000    0.000    0.000    0.000    0.000    0.000 
#
# Total GULP energy -198291.606423 kJ/mol
# GULP energy per Si atom -12393.225401 kJ/mol
# Density = 1.816055 g / cm^3
# Si number density = 18.201977 Si / 1000 Ang^3
#
#
#
# Elastic Constant Matrix: (Units=GPa)
#
#
# Indices 1 2 3 4 5 6 
#
# 1 74.5074 27.0327 24.5035 4.0013 11.6823 15.1439
# 2 27.0327 90.2852 29.5441 4.6942 12.4730 7.9199
# 3 24.5035 29.5441 58.6901 10.7267 18.4216 3.6328
# 4 4.0013 4.6942 10.7267 28.0343 6.5163 0.3194
# 5 11.6823 12.4730 18.4216 6.5163 27.1544 6.3366
# 6 15.1439 7.9199 3.6328 0.3194 6.3366 29.2927
#
#
#
# Elastic Compliance Matrix: (Units=1/GPa)
#
#
# Indices 1 2 3 4 5 6 
#
# 1 0.017883 -0.002822 -0.005278 0.000285 -0.001114 -0.007590
# 2 -0.002822 0.013981 -0.005451 0.000466 -0.001302 -0.001368
# 3 -0.005278 -0.005451 0.026854 -0.005639 -0.012962 0.003738
# 4 0.000285 0.000466 -0.005639 0.039139 -0.006217 0.001344
# 5 -0.001114 -0.001302 -0.012962 -0.006217 0.050111 -0.008237
# 6 -0.007590 -0.001368 0.003738 0.001344 -0.008237 0.039736
#
#
# Mechanical properties :
#
#
# Convention : Reuss Voigt Hill
#
# Bulk Modulus (GPa) = 31.63119 42.84928 37.24023
# Shear Modulus (GPa) = 22.18805 26.38978 24.28892
#
# Velocity S-wave (km/s) = 3.49519 3.81179 3.65692
# Velocity P-wave (km/s) = 5.80552 6.55478 6.19150
#
# Compressibility (1/GPa) = 0.03161437
#
# Stress axis : x y z
#
# Youngs Moduli (GPa) = 55.91761 71.52800 37.23809
#
# Poissons Ratio (x) = 0.20189 0.19656
# Poissons Ratio (y) = 0.15783 0.20299
# Poissons Ratio (z) = 0.29515 0.38990
#
# Static dielectric constant tensor:
#      x y z
#    x 3.521190 0.231020 0.260150 
#    y 0.231020 3.440670 0.068630 
#    z 0.260150 0.068630 3.227250 
# 
# 
# High freq. dielectric constant tensor:
#      x y z
#    x 1.688110 0.011930 0.013110 
#    y 0.011930 1.711270 -0.005210 
#    z 0.013110 -0.005210 1.684440 
# 
# From -- ./inp_files/559195.got.cif
#   From: 2010.06.25/outbox.cif.g09.slc.cpg/sg2_280_cif.got.tgz:559195.got - 2010.06.27 13:26:56.
