data_PCOD8010675
_publ_section_title
;
Structure prediction by ZEFSAII (Michael W. Deem and Ramdas Pophale) SiO2 
 PCOD8010675
Probable space group: P -1
;
_chemical_formula_sum "Si O2"
_cell_formula_units_Z 16
_cell_length_a 9.217214
_cell_length_b 18.114693
_cell_length_c 13.205102
_cell_angle_alpha 135.504489
_cell_angle_beta 150.652278
_cell_angle_gamma 55.847530
_cell_volume 745.555815
_symmetry_space_group_name_H-M "P -1"
_symmetry_group_IT_number 2
_symmetry_cell_setting 'triclinic'
loop_
_space_group_symop_operation_xyz
x,y,z
-x,-y,-z
loop_
_atom_site_type_symbol
_atom_site_label
_atom_site_fract_x
_atom_site_fract_y
_atom_site_fract_z
Si Si1 0.190482 0.677048 0.232260
Si Si2 0.658094 0.529817 0.864144
Si Si3 0.031260 0.829870 0.117280
Si Si4 0.639499 0.208725 0.917836
Si Si5 0.902151 0.961775 0.514270
Si Si6 0.087574 0.607286 0.597235
Si Si7 0.678748 0.197200 0.364743
Si Si8 0.177595 0.350096 0.719453
O O1 0.450212 0.601620 0.324532
O O2 0.237613 0.768723 0.435078
O O3 0.141776 0.732306 0.149566
O O4 0.918271 0.578169 0.990811
O O5 0.406304 0.593202 0.730512
O O6 0.740800 0.558425 0.058852
O O7 0.162534 0.839085 0.092596
O O8 0.672344 0.817099 0.883484
O O9 0.154341 0.940945 0.355285
O O10 0.420298 0.118519 0.761139
O O11 0.427578 0.275981 0.795737
O O12 0.871417 0.282411 0.205885
O O13 0.178114 0.908776 0.673344
O O14 0.000000 0.000000 0.500000
O O15 0.000000 0.500000 0.500000
O O16 0.833340 0.603600 0.354032
O O17 0.842683 0.286545 0.475830
#
# Coordination Sequence:
#
# PCOD8010675 Si02
#       8
#     2   2   2   2   2   2   2   2
#     4  10  21  38  62  92 130 165 208 268 313 370
#     4   9  21  38  59  91 128 169 218 254 309 377
#     4  12  24  39  69  93 129 162 213 269 321 365
#     4  10  26  43  62  98 133 162 212 264 321 378
#     4  11  23  47  70  88 125 173 211 263 325 377
#     4  11  24  38  64  91 130 170 213 250 315 382
#     4  10  22  40  66  96 119 164 219 259 316 387
#     4   9  21  41  63  87 130 173 209 256 315 377
#
# _framework density 21.460498000000001
#
# number of rings (size 3 to 8) (size 9 to 14) (size 15 to 20)
#    0.000    1.750    1.250    2.250    7.000    1.000 
#    0.000    4.375    0.000    0.000    0.000    0.000 
#    0.000    0.000    0.000    0.000    0.000    0.000 
#
# Total GULP energy -198278.628449 kJ/mol
# GULP energy per Si atom -12392.414278 kJ/mol
# Density = 2.141165 g / cm^3
# Si number density = 21.460498 Si / 1000 Ang^3
#
#
#
# Elastic Constant Matrix: (Units=GPa)
#
#
# Indices 1 2 3 4 5 6 
#
# 1 74.3869 18.4898 2.3540 8.4518 -5.0157 -5.2617
# 2 18.4898 92.4889 10.9317 11.9372 -8.9645 -2.8788
# 3 2.3540 10.9317 41.7180 2.4337 3.8068 1.7124
# 4 8.4518 11.9372 2.4337 32.9797 6.3433 -6.6959
# 5 -5.0157 -8.9645 3.8068 6.3433 19.5349 5.0706
# 6 -5.2617 -2.8788 1.7124 -6.6959 5.0706 37.5974
#
#
#
# Elastic Compliance Matrix: (Units=1/GPa)
#
#
# Indices 1 2 3 4 5 6 
#
# 1 0.014685 -0.002012 -0.000480 -0.003599 0.003914 0.000754
# 2 -0.002012 0.013200 -0.003726 -0.005889 0.008516 -0.001298
# 3 -0.000480 -0.003726 0.025579 0.000840 -0.006979 -0.000427
# 4 -0.003599 -0.005889 0.000840 0.038569 -0.018486 0.008369
# 5 0.003914 0.008516 -0.006979 -0.018486 0.066246 -0.010709
# 6 0.000754 -0.001298 -0.000427 0.008369 -0.010709 0.029558
#
#
# Mechanical properties :
#
#
# Convention : Reuss Voigt Hill
#
# Bulk Modulus (GPa) = 24.37246 30.23830 27.30538
# Shear Modulus (GPa) = 23.37039 29.81028 26.59034
#
# Velocity S-wave (km/s) = 3.30357 3.73108 3.52381
# Velocity P-wave (km/s) = 5.09245 5.71682 5.41364
#
# Compressibility (1/GPa) = 0.04102992
#
# Stress axis : x y z
#
# Youngs Moduli (GPa) = 68.09852 75.75967 39.09431
#
# Poissons Ratio (x) = 0.15240 0.01875
# Poissons Ratio (y) = 0.13698 0.14565
# Poissons Ratio (z) = 0.03266 0.28225
#
# Static dielectric constant tensor:
#      x y z
#    x 29.217430 -42.407300 32.312850 
#    y -42.407300 74.416050 -53.545870 
#    z 32.312850 -53.545870 44.615820 
# 
# 
# High freq. dielectric constant tensor:
#      x y z
#    x 1.846940 -0.008370 0.008080 
#    y -0.008370 1.849710 0.005570 
#    z 0.008080 0.005570 1.831170 
# 
# From -- ./inp_files/47972.got.cif
#   From: 2010.06.25/outbox.cif.g09.slc.cpg/sg2_24_cif.got.tgz:47972.got - 2010.06.27 13:26:56.
