data_PCOD8010962
_publ_section_title
;
Structure prediction by ZEFSAII (Michael W. Deem and Ramdas Pophale) SiO2 
 PCOD8010962
Probable space group: P -1
;
_chemical_formula_sum "Si O2"
_cell_formula_units_Z 16
_cell_length_a 12.347393
_cell_length_b 11.098552
_cell_length_c 11.742437
_cell_angle_alpha 34.803476
_cell_angle_beta 59.605882
_cell_angle_gamma 72.996040
_cell_volume 767.100555
_symmetry_space_group_name_H-M "P -1"
_symmetry_group_IT_number 2
_symmetry_cell_setting 'triclinic'
loop_
_space_group_symop_operation_xyz
x,y,z
-x,-y,-z
loop_
_atom_site_type_symbol
_atom_site_label
_atom_site_fract_x
_atom_site_fract_y
_atom_site_fract_z
Si Si1 0.180600 0.893537 0.224673
Si Si2 0.528016 0.780001 0.698511
Si Si3 0.269175 0.287919 0.523457
Si Si4 0.369238 0.626669 0.398315
Si Si5 0.087325 0.393940 0.351171
Si Si6 0.110759 0.870728 0.027361
Si Si7 0.683984 0.621657 0.907441
Si Si8 0.349322 0.338906 0.840266
O O1 0.296773 0.816154 0.281063
O O2 0.047655 0.788132 0.443335
O O3 0.166465 0.823130 0.155881
O O4 0.223025 0.154615 0.010653
O O5 0.597800 0.671571 0.647797
O O6 0.619274 0.807446 0.742333
O O7 0.500000 0.000000 0.500000
O O8 0.391642 0.609603 0.927764
O O9 0.296054 0.417407 0.526285
O O10 0.159314 0.367856 0.450823
O O11 0.223756 0.028191 0.771955
O O12 0.362089 0.555712 0.589515
O O13 0.515649 0.728615 0.198114
O O14 0.167858 0.345373 0.236973
O O15 0.062510 0.637208 0.171233
O O16 0.000000 0.000000 0.000000
O O17 0.674072 0.612583 0.054480
#
# Coordination Sequence:
#
# PCOD8010962 Si02
#       8
#     2   2   2   2   2   2   2   2
#     4  12  24  39  64  92 127 169 207 256 318 368
#     4  10  21  38  65  92 122 162 207 259 312 368
#     4  11  20  38  65  94 123 157 206 268 319 360
#     4  11  23  42  63  92 124 163 212 263 308 369
#     4  11  24  40  64  96 127 160 210 265 313 370
#     4  12  22  37  65  98 126 158 209 265 317 367
#     4  10  23  43  61  91 129 165 206 258 310 373
#     4  11  25  43  62  90 129 168 212 251 309 380
#
# _framework density 20.857759999999999
#
# number of rings (size 3 to 8) (size 9 to 14) (size 15 to 20)
#    0.000    1.000    5.000    2.250    0.000    2.500 
#    0.000    0.625    0.000    0.000    0.000    0.000 
#    0.000    0.000    0.000    0.000    0.000    0.000 
#
# Total GULP energy -198414.622299 kJ/mol
# GULP energy per Si atom -12400.913894 kJ/mol
# Density = 2.081029 g / cm^3
# Si number density = 20.857760 Si / 1000 Ang^3
#
#
#
# Elastic Constant Matrix: (Units=GPa)
#
#
# Indices 1 2 3 4 5 6 
#
# 1 87.4371 33.2250 36.8113 10.0734 3.2327 -12.5284
# 2 33.2250 68.2140 40.7049 16.1696 8.6938 3.6054
# 3 36.8113 40.7049 119.8432 12.2472 -8.4484 -7.2153
# 4 10.0734 16.1696 12.2472 39.0676 3.6670 6.6961
# 5 3.2327 8.6938 -8.4484 3.6670 47.6102 0.4159
# 6 -12.5284 3.6054 -7.2153 6.6961 0.4159 30.8273
#
#
#
# Elastic Compliance Matrix: (Units=1/GPa)
#
#
# Indices 1 2 3 4 5 6 
#
# 1 0.016047 -0.006427 -0.002117 -0.002033 -0.000198 0.007222
# 2 -0.006427 0.023477 -0.006182 -0.004716 -0.004534 -0.005719
# 3 -0.002117 -0.006182 0.011644 -0.001353 0.003418 0.002836
# 4 -0.002033 -0.004716 -0.001353 0.029844 -0.001478 -0.007054
# 5 -0.000198 -0.004534 0.003418 -0.001478 0.022555 0.001267
# 6 0.007222 -0.005719 0.002836 -0.007054 0.001267 0.038221
#
#
# Mechanical properties :
#
#
# Convention : Reuss Voigt Hill
#
# Bulk Modulus (GPa) = 46.05020 55.21963 50.63491
# Shear Modulus (GPa) = 28.01439 34.48457 31.24948
#
# Velocity S-wave (km/s) = 3.66883 4.07052 3.87488
# Velocity P-wave (km/s) = 6.33034 6.97309 6.65948
#
# Compressibility (1/GPa) = 0.02171543
#
# Stress axis : x y z
#
# Youngs Moduli (GPa) = 62.31807 42.59476 85.87919
#
# Poissons Ratio (x) = 0.27375 0.18185
# Poissons Ratio (y) = 0.40051 0.53090
# Poissons Ratio (z) = 0.13196 0.26332
#
# Static dielectric constant tensor:
#      x y z
#    x 3.845800 -0.126490 -0.032780 
#    y -0.126490 3.366980 0.153780 
#    z -0.032780 0.153780 4.036690 
# 
# 
# High freq. dielectric constant tensor:
#      x y z
#    x 1.815510 -0.011020 -0.000250 
#    y -0.011020 1.786210 0.010210 
#    z -0.000250 0.010210 1.838540 
# 
# From -- ./inp_files/69921.got.cif
#   From: 2010.06.25/outbox.cif.g09.slc.cpg/sg2_35_cif.got.tgz:69921.got - 2010.06.27 13:26:56.
