data_PCOD8010577
_publ_section_title
;
Structure prediction by ZEFSAII (Michael W. Deem and Ramdas Pophale) SiO2 
 PCOD8010577
Probable space group: P -1
;
_chemical_formula_sum "Si O2"
_cell_formula_units_Z 14
_cell_length_a 15.973266
_cell_length_b 28.454107
_cell_length_c 16.629859
_cell_angle_alpha 16.095976
_cell_angle_beta 25.820576
_cell_angle_gamma 18.351086
_cell_volume 653.724599
_symmetry_space_group_name_H-M "P -1"
_symmetry_group_IT_number 2
_symmetry_cell_setting 'triclinic'
loop_
_space_group_symop_operation_xyz
x,y,z
-x,-y,-z
loop_
_atom_site_type_symbol
_atom_site_label
_atom_site_fract_x
_atom_site_fract_y
_atom_site_fract_z
Si Si1 0.643481 0.666337 0.754285
Si Si2 0.438771 0.791703 0.444368
Si Si3 0.930149 0.694144 0.139821
Si Si4 0.334751 0.128674 0.350473
Si Si5 0.281894 0.552194 0.662017
Si Si6 0.755575 0.315717 0.347936
Si Si7 0.241062 0.785635 0.788395
O O1 0.435019 0.665704 0.894003
O O2 0.888797 0.539629 0.688296
O O3 0.498586 0.931931 0.461968
O O4 0.746399 0.514007 0.997255
O O5 0.724588 0.705121 0.347967
O O6 0.432805 0.690835 0.531679
O O7 0.398888 0.697903 0.710892
O O8 0.208778 0.078124 0.171294
O O9 0.089283 0.699133 0.063124
O O10 0.029953 0.241684 0.436800
O O11 0.500000 0.000000 0.500000
O O12 0.341719 0.318300 0.006582
O O13 0.500000 0.500000 0.500000
O O14 0.331648 0.625618 0.580401
O O15 0.057174 0.064030 0.495595
#
# Coordination Sequence:
#
# PCOD8010577 Si02
#       7
#     2   2   2   2   2   2   2
#     4  12  22  40  68  96 130 178 215 275 332 391
#     4  10  21  39  63  95 132 179 212 262 320 398
#     4  10  21  38  61  93 133 174 218 262 318 391
#     4  11  25  47  73 100 133 173 232 286 347 403
#     4  11  26  50  72  98 135 180 225 290 347 409
#     4  11  21  43  67  93 135 172 216 274 338 388
#     4  11  21  41  62  91 136 177 213 259 328 394
#
# _framework density 21.415747
#
# number of rings (size 3 to 8) (size 9 to 14) (size 15 to 20)
#    0.000    1.143    5.714    1.286    0.000    2.286 
#   10.286    0.000    0.000    0.000    0.000    0.000 
#    0.000    0.000    0.000    0.000    0.000    0.000 
#
# Total GULP energy -173571.890965 kJ/mol
# GULP energy per Si atom -12397.992212 kJ/mol
# Density = 2.136700 g / cm^3
# Si number density = 21.415747 Si / 1000 Ang^3
#
#
#
# Elastic Constant Matrix: (Units=GPa)
#
#
# Indices 1 2 3 4 5 6 
#
# 1 119.2322 54.6683 29.7973 -4.7094 -7.0230 12.9146
# 2 54.6683 118.1523 45.8773 -14.0878 -15.3773 6.7343
# 3 29.7973 45.8773 82.7600 -15.9834 -8.2010 3.3358
# 4 -4.7094 -14.0878 -15.9834 39.1725 3.2329 -1.3359
# 5 -7.0230 -15.3773 -8.2010 3.2329 30.9614 -4.4043
# 6 12.9146 6.7343 3.3358 -1.3359 -4.4043 33.3921
#
#
#
# Elastic Compliance Matrix: (Units=1/GPa)
#
#
# Indices 1 2 3 4 5 6 
#
# 1 0.011163 -0.004535 -0.001619 -0.001021 -0.000519 -0.003350
# 2 -0.004535 0.013220 -0.004941 0.001865 0.004061 0.000191
# 3 -0.001619 -0.004941 0.016396 0.004640 0.001082 0.000313
# 4 -0.001021 0.001865 0.004640 0.028065 -0.000928 0.000556
# 5 -0.000519 0.004061 0.001082 -0.000928 0.035132 0.003870
# 6 -0.003350 0.000191 0.000313 0.000556 0.003870 0.031706
#
#
# Mechanical properties :
#
#
# Convention : Reuss Voigt Hill
#
# Bulk Modulus (GPa) = 53.79360 64.53671 59.16516
# Shear Modulus (GPa) = 30.47548 33.35863 31.91706
#
# Velocity S-wave (km/s) = 3.77641 3.95101 3.86470
# Velocity P-wave (km/s) = 6.64743 7.14245 6.89938
#
# Compressibility (1/GPa) = 0.01858957
#
# Stress axis : x y z
#
# Youngs Moduli (GPa) = 89.58408 75.64114 60.99168
#
# Poissons Ratio (x) = 0.34300 0.09874
# Poissons Ratio (y) = 0.40623 0.30137
# Poissons Ratio (z) = 0.14503 0.37375
#
# Static dielectric constant tensor:
#      x y z
#    x 4.040800 -0.170020 -0.000940 
#    y -0.170020 3.902660 -0.392650 
#    z -0.000940 -0.392650 3.883260 
# 
# 
# High freq. dielectric constant tensor:
#      x y z
#    x 1.848540 -0.008920 0.004650 
#    y -0.008920 1.833150 -0.027880 
#    z 0.004650 -0.027880 1.847550 
# 
# From -- ./inp_files/535360.got.cif
#   From: 2010.06.25/outbox.cif.g09.slc.cpg/sg2_268_cif.got.tgz:535360.got - 2010.06.27 13:26:56.
