data_PCOD8010881
_publ_section_title
;
Structure prediction by ZEFSAII (Michael W. Deem and Ramdas Pophale) SiO2 
 PCOD8010881
Probable space group: P -1
;
_chemical_formula_sum "Si O2"
_cell_formula_units_Z 16
_cell_length_a 12.726338
_cell_length_b 13.851568
_cell_length_c 8.617784
_cell_angle_alpha 33.256587
_cell_angle_beta 68.930639
_cell_angle_gamma 81.398554
_cell_volume 742.742771
_symmetry_space_group_name_H-M "P -1"
_symmetry_group_IT_number 2
_symmetry_cell_setting 'triclinic'
loop_
_space_group_symop_operation_xyz
x,y,z
-x,-y,-z
loop_
_atom_site_type_symbol
_atom_site_label
_atom_site_fract_x
_atom_site_fract_y
_atom_site_fract_z
Si Si1 0.552649 0.917623 0.445218
Si Si2 0.852017 0.489539 0.430698
Si Si3 0.690811 0.140176 0.810998
Si Si4 0.340279 0.664847 0.731966
Si Si5 0.747908 0.738637 0.645003
Si Si6 0.948385 0.992785 0.365080
Si Si7 0.880178 0.337401 0.951068
Si Si8 0.185628 0.175212 0.851692
O O1 0.450991 0.737132 0.689168
O O2 0.668650 0.875524 0.502986
O O3 0.500000 0.000000 0.500000
O O4 0.588758 0.070211 0.085763
O O5 0.787262 0.324407 0.573457
O O6 0.848649 0.418010 0.701930
O O7 0.794198 0.661294 0.246836
O O8 0.985980 0.562038 0.199277
O O9 0.632424 0.203261 0.608526
O O10 0.737919 0.966569 0.972815
O O11 0.333606 0.454373 0.985365
O O12 0.211837 0.653197 0.881257
O O13 0.860008 0.797134 0.623235
O O14 0.793188 0.729130 0.457241
O O15 0.000000 0.000000 0.500000
O O16 0.865807 0.124206 0.218858
O O17 0.050615 0.051382 0.103576
#
# Coordination Sequence:
#
# PCOD8010881 Si02
#       8
#     2   2   2   2   2   2   2   2
#     4  11  25  48  70  88 125 179 228 270 326 393
#     4  10  21  40  64 100 131 178 217 263 320 408
#     4  11  25  42  69  96 135 170 216 275 348 373
#     4  12  24  42  66 100 132 165 225 280 324 381
#     4  11  24  41  69  94 128 175 220 269 326 392
#     4  11  23  38  62 102 138 172 212 267 335 391
#     4  10  21  38  64  93 137 169 221 260 319 397
#     4  10  22  41  66  94 139 172 220 255 326 409
#
# _framework density 21.541778000000001
#
# number of rings (size 3 to 8) (size 9 to 14) (size 15 to 20)
#    0.000    1.250    1.250    4.875    5.250    0.500 
#    0.000    0.625    0.000    0.000    0.000    0.000 
#    0.000    0.000    0.000    0.000    0.000    0.000 
#
# Total GULP energy -198328.324565 kJ/mol
# GULP energy per Si atom -12395.520285 kJ/mol
# Density = 2.149275 g / cm^3
# Si number density = 21.541778 Si / 1000 Ang^3
#
#
#
# Elastic Constant Matrix: (Units=GPa)
#
#
# Indices 1 2 3 4 5 6 
#
# 1 78.3405 35.2811 32.3411 -0.1355 -5.2970 9.2300
# 2 35.2811 57.3349 17.3364 -0.0120 5.1185 -2.3647
# 3 32.3411 17.3364 105.9569 -2.9510 6.1658 6.8520
# 4 -0.1355 -0.0120 -2.9510 38.6881 2.9987 -13.1182
# 5 -5.2970 5.1185 6.1658 2.9987 29.2784 -7.3635
# 6 9.2300 -2.3647 6.8520 -13.1182 -7.3635 26.0796
#
#
#
# Elastic Compliance Matrix: (Units=1/GPa)
#
#
# Indices 1 2 3 4 5 6 
#
# 1 0.021624 -0.012780 -0.004416 -0.003328 0.005460 -0.007784
# 2 -0.012780 0.026200 -0.000443 0.002665 -0.005351 0.006845
# 3 -0.004416 -0.000443 0.011232 0.000349 -0.003700 -0.002298
# 4 -0.003328 0.002665 0.000349 0.031724 -0.000047 0.017272
# 5 0.005460 -0.005351 -0.003700 -0.000047 0.039282 0.009623
# 6 -0.007784 0.006845 -0.002298 0.017272 0.009623 0.053728
#
#
# Mechanical properties :
#
#
# Convention : Reuss Voigt Hill
#
# Bulk Modulus (GPa) = 42.05692 45.72771 43.89232
# Shear Modulus (GPa) = 22.02698 29.25414 25.64056
#
# Velocity S-wave (km/s) = 3.20116 3.68913 3.45377
# Velocity P-wave (km/s) = 5.76446 6.27852 6.02697
#
# Compressibility (1/GPa) = 0.02377730
#
# Stress axis : x y z
#
# Youngs Moduli (GPa) = 46.24482 38.16770 89.03242
#
# Poissons Ratio (x) = 0.48779 0.39319
# Poissons Ratio (y) = 0.59102 0.03944
# Poissons Ratio (z) = 0.20423 0.01691
#
# Static dielectric constant tensor:
#      x y z
#    x 5.942160 -0.194280 -1.447730 
#    y -0.194280 3.888450 -0.071650 
#    z -1.447730 -0.071650 5.049680 
# 
# 
# High freq. dielectric constant tensor:
#      x y z
#    x 1.831880 -0.006460 -0.005360 
#    y -0.006460 1.843160 -0.007060 
#    z -0.005360 -0.007060 1.863000 
# 
# From -- ./inp_files/271343.got.cif
#   From: 2010.06.25/outbox.cif.g09.slc.cpg/sg2_136_cif.got.tgz:271343.got - 2010.06.27 13:26:56.
