data_PCOD8010866
_publ_section_title
;
Structure prediction by ZEFSAII (Michael W. Deem and Ramdas Pophale) SiO2 
 PCOD8010866
Probable space group: P -1
;
_chemical_formula_sum "Si O2"
_cell_formula_units_Z 12
_cell_length_a 9.012445
_cell_length_b 10.526883
_cell_length_c 9.521641
_cell_angle_alpha 120.642030
_cell_angle_beta 118.278570
_cell_angle_gamma 43.623329
_cell_volume 527.783355
_symmetry_space_group_name_H-M "P -1"
_symmetry_group_IT_number 2
_symmetry_cell_setting 'triclinic'
loop_
_space_group_symop_operation_xyz
x,y,z
-x,-y,-z
loop_
_atom_site_type_symbol
_atom_site_label
_atom_site_fract_x
_atom_site_fract_y
_atom_site_fract_z
Si Si1 0.166801 0.500697 0.875668
Si Si2 0.374904 0.809860 0.585656
Si Si3 0.157072 0.840686 0.094661
Si Si4 0.247262 0.385372 0.144073
Si Si5 0.537287 0.807228 0.372391
Si Si6 0.974437 0.191099 0.687557
O O1 0.229544 0.367761 0.691407
O O2 0.900487 0.658639 0.871988
O O3 0.239960 0.631396 0.964938
O O4 0.291408 0.349510 0.977318
O O5 0.522835 0.715402 0.736475
O O6 0.527399 0.726919 0.470749
O O7 0.205919 0.767479 0.481341
O O8 0.221276 0.041233 0.654404
O O9 0.358770 0.840948 0.203558
O O10 0.037183 0.895278 0.221908
O O11 0.000000 0.000000 0.000000
O O12 0.070952 0.614580 0.202393
O O13 0.500000 0.000000 0.500000
#
# Coordination Sequence:
#
# PCOD8010866 Si02
#       6
#     2   2   2   2   2   2
#     4  10  23  43  63  96 129 162 223 265 309 396
#     4  10  21  38  64  92 129 170 205 264 330 371
#     4  10  23  42  65  93 128 174 211 262 326 376
#     4  10  21  40  66  91 123 171 213 266 319 373
#     4  11  24  42  63  97 133 165 214 267 318 388
#     4   9  20  41  60  96 127 161 222 262 310 395
#
# _framework density 22.736599999999999
#
# number of rings (size 3 to 8) (size 9 to 14) (size 15 to 20)
#    0.000    2.000    0.000    2.000    4.667    0.667 
#    9.000    3.333    0.000    0.000    0.000    0.000 
#    0.000    0.000    0.000    0.000    0.000    0.000 
#
# Total GULP energy -148701.660853 kJ/mol
# GULP energy per Si atom -12391.805071 kJ/mol
# Density = 2.268485 g / cm^3
# Si number density = 22.736600 Si / 1000 Ang^3
#
#
#
# Elastic Constant Matrix: (Units=GPa)
#
#
# Indices 1 2 3 4 5 6 
#
# 1 71.3427 41.2248 34.8464 2.4375 2.7624 -3.1480
# 2 41.2248 63.9508 46.9441 -0.9677 3.5877 -6.3655
# 3 34.8464 46.9441 106.5301 -0.3724 6.7134 -6.8686
# 4 2.4375 -0.9677 -0.3724 61.1374 -3.6923 4.6840
# 5 2.7624 3.5877 6.7134 -3.6923 30.2416 13.9948
# 6 -3.1480 -6.3655 -6.8686 4.6840 13.9948 26.9716
#
#
#
# Elastic Compliance Matrix: (Units=1/GPa)
#
#
# Indices 1 2 3 4 5 6 
#
# 1 0.022576 -0.013584 -0.001464 -0.001053 0.000129 -0.000828
# 2 -0.013584 0.031666 -0.009017 0.000444 -0.002745 0.004939
# 3 -0.001464 -0.009017 0.014269 -0.000458 -0.003519 0.003240
# 4 -0.001053 0.000444 -0.000458 0.017125 0.004836 -0.005618
# 5 0.000129 -0.002745 -0.003519 0.004836 0.047177 -0.026848
# 6 -0.000828 0.004939 0.003240 -0.005618 -0.026848 0.053876
#
#
# Mechanical properties :
#
#
# Convention : Reuss Voigt Hill
#
# Bulk Modulus (GPa) = 49.06966 54.20604 51.63785
# Shear Modulus (GPa) = 20.69431 31.59066 26.14249
#
# Velocity S-wave (km/s) = 3.02019 3.73153 3.39455
# Velocity P-wave (km/s) = 5.81297 6.51601 6.17451
#
# Compressibility (1/GPa) = 0.02037919
#
# Stress axis : x y z
#
# Youngs Moduli (GPa) = 44.29540 31.58009 70.08387
#
# Poissons Ratio (x) = 0.42899 0.10258
# Poissons Ratio (y) = 0.60171 0.63198
# Poissons Ratio (z) = 0.06484 0.28477
#
# Static dielectric constant tensor:
#      x y z
#    x 4.225890 -0.113030 -0.039010 
#    y -0.113030 3.742800 0.227490 
#    z -0.039010 0.227490 4.351680 
# 
# 
# High freq. dielectric constant tensor:
#      x y z
#    x 1.898210 -0.007370 0.005530 
#    y -0.007370 1.869090 0.011210 
#    z 0.005530 0.011210 1.910180 
# 
# From -- ./inp_files/190310.got.cif
#   From: 2010.06.25/outbox.cif.g09.slc.cpg/sg2_96_cif.got.tgz:190310.got - 2010.06.27 13:26:56.
