data_PCOD8010229
_publ_section_title
;
Structure prediction by ZEFSAII (Michael W. Deem and Ramdas Pophale) SiO2 
 PCOD8010229
Probable space group: P -1
;
_chemical_formula_sum "Si O2"
_cell_formula_units_Z 16
_cell_length_a 14.694633
_cell_length_b 11.589882
_cell_length_c 14.375976
_cell_angle_alpha 49.502391
_cell_angle_beta 38.813855
_cell_angle_gamma 30.230891
_cell_volume 770.454577
_symmetry_space_group_name_H-M "P -1"
_symmetry_group_IT_number 2
_symmetry_cell_setting 'triclinic'
loop_
_space_group_symop_operation_xyz
x,y,z
-x,-y,-z
loop_
_atom_site_type_symbol
_atom_site_label
_atom_site_fract_x
_atom_site_fract_y
_atom_site_fract_z
Si Si1 0.276550 0.715462 0.113722
Si Si2 0.922181 0.229311 0.926015
Si Si3 0.210850 0.114260 0.904087
Si Si4 0.517557 0.127101 0.691055
Si Si5 0.925260 0.354706 0.172934
Si Si6 0.474708 0.581395 0.208712
Si Si7 0.681841 0.972704 0.834355
Si Si8 0.629232 0.325166 0.403593
O O1 0.099135 0.748448 0.182006
O O2 0.291545 0.661699 0.239460
O O3 0.500000 0.500000 0.000000
O O4 0.248495 0.917863 0.017278
O O5 0.103822 0.199332 0.841300
O O6 0.697779 0.437782 0.050292
O O7 0.000000 0.000000 0.000000
O O8 0.436474 0.032611 0.759546
O O9 0.049692 0.322694 0.999224
O O10 0.304041 0.379783 0.770625
O O11 0.691933 0.952880 0.724838
O O12 0.642384 0.133952 0.512076
O O13 0.867487 0.220991 0.266371
O O14 0.078453 0.250018 0.196863
O O15 0.389764 0.803603 0.200703
O O16 0.505937 0.440540 0.342490
O O17 0.500000 0.000000 0.000000
O O18 0.500000 0.500000 0.500000
#
# Coordination Sequence:
#
# PCOD8010229 Si02
#       8
#     2   2   2   2   2   2   2   2
#     4   9  19  33  54  87 107 137 193 252 283 328
#     4   9  19  32  57  84 103 141 197 244 287 328
#     4  11  18  34  58  84 109 147 186 242 297 319
#     4  11  23  38  52  85 127 146 192 231 276 354
#     4  11  21  34  58  82 115 161 191 220 285 342
#     4  11  18  35  56  78 123 147 184 239 283 338
#     4  12  22  32  56  89 118 151 189 234 286 338
#     4  10  21  38  55  80 120 167 183 221 277 355
#
# _framework density 20.766960000000001
#
# number of rings (size 3 to 8) (size 9 to 14) (size 15 to 20)
#    0.000    1.500    6.250    0.375    1.750    0.500 
#    0.000    0.000    0.000    7.500    0.000    0.000 
#    0.000    0.000    0.000    0.000    0.000    0.000 
#
# Total GULP energy -198214.371782 kJ/mol
# GULP energy per Si atom -12388.398236 kJ/mol
# Density = 2.071969 g / cm^3
# Si number density = 20.766960 Si / 1000 Ang^3
#
#
#
# Elastic Constant Matrix: (Units=GPa)
#
#
# Indices 1 2 3 4 5 6 
#
# 1 208.6397 11.7016 44.0920 -24.9130 14.0680 -47.1529
# 2 11.7016 25.5426 -9.9591 -2.4676 2.3410 -16.2059
# 3 44.0920 -9.9591 71.3792 -24.0028 1.5889 -15.7111
# 4 -24.9130 -2.4676 -24.0028 21.8636 -10.3285 9.2054
# 5 14.0680 2.3410 1.5889 -10.3285 26.3103 -6.1775
# 6 -47.1529 -16.2059 -15.7111 9.2054 -6.1775 37.3693
#
#
#
# Elastic Compliance Matrix: (Units=1/GPa)
#
#
# Indices 1 2 3 4 5 6 
#
# 1 0.007345 0.002097 -0.001204 0.003268 -0.000704 0.008750
# 2 0.002097 0.079715 0.029901 0.031681 0.012770 0.044095
# 3 -0.001204 0.029901 0.037173 0.042713 0.017055 0.019374
# 4 0.003268 0.031681 0.042713 0.112932 0.040644 0.014719
# 5 -0.000704 0.012770 0.017055 0.040644 0.054722 0.010854
# 6 0.008750 0.044095 0.019374 0.014719 0.010854 0.063237
#
#
# Mechanical properties :
#
#
# Convention : Reuss Voigt Hill
#
# Bulk Modulus (GPa) = 5.38150 44.13673 24.75911
# Shear Modulus (GPa) = 14.06566 34.42375 24.24470
#
# Velocity S-wave (km/s) = 2.60534 4.07581 3.42053
# Velocity P-wave (km/s) = 3.41283 6.59159 5.24864
#
# Compressibility (1/GPa) = 0.18582187
#
# Stress axis : x y z
#
# Youngs Moduli (GPa) = 136.14874 12.54474 26.90109
#
# Poissons Ratio (x) = -0.02631 0.03239
# Poissons Ratio (y) = -0.28556 -0.80437
# Poissons Ratio (z) = 0.16393 -0.37510
#
# Static dielectric constant tensor:
#      x y z
#    x 5.292730 -0.474480 -0.115070 
#    y -0.474480 3.898270 -0.195320 
#    z -0.115070 -0.195320 3.844770 
# 
# 
# High freq. dielectric constant tensor:
#      x y z
#    x 1.838370 -0.014780 0.001590 
#    y -0.014780 1.802600 -0.008850 
#    z 0.001590 -0.008850 1.761950 
# 
# From -- ./inp_files/519376.got.cif
#   From: 2010.06.25/outbox.cif.g09.slc.cpg/sg2_260_cif.got.tgz:519376.got - 2010.06.27 13:26:56.
