data_PCOD8010227
_publ_section_title
;
Structure prediction by ZEFSAII (Michael W. Deem and Ramdas Pophale) SiO2 
 PCOD8010227
Probable space group: P -1
;
_chemical_formula_sum "Si O2"
_cell_formula_units_Z 14
_cell_length_a 5.309932
_cell_length_b 10.609798
_cell_length_c 11.826106
_cell_angle_alpha 87.435912
_cell_angle_beta 116.679778
_cell_angle_gamma 75.508630
_cell_volume 566.792913
_symmetry_space_group_name_H-M "P -1"
_symmetry_group_IT_number 2
_symmetry_cell_setting 'triclinic'
loop_
_space_group_symop_operation_xyz
x,y,z
-x,-y,-z
loop_
_atom_site_type_symbol
_atom_site_label
_atom_site_fract_x
_atom_site_fract_y
_atom_site_fract_z
Si Si1 0.681399 0.704528 0.783657
Si Si2 0.561324 0.052812 0.837713
Si Si3 0.198047 0.595991 0.246044
Si Si4 0.110055 0.165870 0.942972
Si Si5 0.682769 0.385729 0.125639
Si Si6 0.650601 0.033674 0.417438
Si Si7 0.823661 0.553088 0.350206
O O1 0.713322 0.560461 0.743537
O O2 0.514253 0.708268 0.871367
O O3 0.496864 0.813127 0.653428
O O4 0.020223 0.708272 0.871362
O O5 0.321765 0.116227 0.880851
O O6 0.823774 0.116207 0.880835
O O7 0.404516 0.062801 0.685919
O O8 0.706848 0.893494 0.903597
O O9 0.494532 0.640708 0.317098
O O10 0.010470 0.673900 0.097420
O O11 0.998950 0.640710 0.317096
O O12 0.786744 0.443085 0.258300
O O13 0.500000 0.500000 0.000000
O O14 0.500000 0.000000 0.500000
O O15 0.000000 0.000000 0.500000
O O16 0.000000 0.500000 0.500000
#
# Coordination Sequence:
#
# PCOD8010227 Si02
#       7
#     2   2   2   2   2   2   2
#     4  10  23  43  65  97 131 168 219 279 322 387
#     4  10  23  43  67  95 132 172 220 277 316 393
#     4  10  21  41  65  98 125 165 205 267 333 386
#     4  10  21  43  68 100 128 167 220 272 340 387
#     4  10  21  39  64  94 130 167 207 264 337 398
#     4  12  26  47  67  93 132 185 233 267 326 396
#     4  10  21  38  54  88 134 161 202 249 323 389
#
# _framework density 24.700378000000001
#
# number of rings (size 3 to 8) (size 9 to 14) (size 15 to 20)
#    0.000    1.714    0.000    3.429    0.000    4.571 
#   30.857    2.857    0.000    0.000    0.000    0.000 
#    0.000    0.000    0.000    0.000    0.000    0.000 
#
# Total GULP energy -173466.330536 kJ/mol
# GULP energy per Si atom -12390.452181 kJ/mol
# Density = 2.464416 g / cm^3
# Si number density = 24.700378 Si / 1000 Ang^3
#
#
#
# Elastic Constant Matrix: (Units=GPa)
#
#
# Indices 1 2 3 4 5 6 
#
# 1 283.8887 26.3912 66.3634 -24.9974 0.3775 8.2979
# 2 26.3912 80.1122 46.4779 -40.9903 1.0240 -1.2580
# 3 66.3634 46.4779 173.7677 -20.8461 1.0171 0.7684
# 4 -24.9974 -40.9903 -20.8461 56.4229 -0.3382 0.6599
# 5 0.3775 1.0240 1.0171 -0.3382 43.9018 -10.1268
# 6 8.2979 -1.2580 0.7684 0.6599 -10.1268 16.6280
#
#
#
# Elastic Compliance Matrix: (Units=1/GPa)
#
#
# Indices 1 2 3 4 5 6 
#
# 1 0.004027 0.000188 -0.001404 0.001426 -0.000528 -0.002309
# 2 0.000188 0.022549 -0.004326 0.014852 -0.000036 0.001201
# 3 -0.001404 -0.004326 0.007321 -0.001061 -0.000055 0.000044
# 4 0.001426 0.014852 -0.001061 0.028761 -0.000313 -0.000871
# 5 -0.000528 -0.000036 -0.000055 -0.000313 0.026580 0.016463
# 6 -0.002309 0.001201 0.000044 -0.000871 0.016463 0.071442
#
#
# Mechanical properties :
#
#
# Convention : Reuss Voigt Hill
#
# Bulk Modulus (GPa) = 43.83584 90.69261 67.26422
# Shear Modulus (GPa) = 27.87555 49.95960 38.91758
#
# Velocity S-wave (km/s) = 3.36303 4.50224 3.97367
# Velocity P-wave (km/s) = 5.73285 7.98897 6.95303
#
# Compressibility (1/GPa) = 0.02281239
#
# Stress axis : x y z
#
# Youngs Moduli (GPa) = 248.32785 44.34755 136.59405
#
# Poissons Ratio (x) = -0.00833 0.19175
# Poissons Ratio (y) = -0.04665 0.59095
# Poissons Ratio (z) = 0.34861 0.19186
#
# Static dielectric constant tensor:
#      x y z
#    x 7.357130 0.107570 -0.014700 
#    y 0.107570 4.484990 -0.413690 
#    z -0.014700 -0.413690 4.440310 
# 
# 
# High freq. dielectric constant tensor:
#      x y z
#    x 2.032440 0.002190 0.000190 
#    y 0.002190 1.971260 -0.018240 
#    z 0.000190 -0.018240 1.983440 
# 
# From -- ./inp_files/362998.got.cif
#   From: 2010.06.25/outbox.cif.g09.slc.cpg/sg2_182_cif.got.tgz:362998.got - 2010.06.27 13:26:56.
