data_PCOD8010770
_publ_section_title
;
Structure prediction by ZEFSAII (Michael W. Deem and Ramdas Pophale) SiO2 
 PCOD8010770
Probable space group: P -1
;
_chemical_formula_sum "Si O2"
_cell_formula_units_Z 12
_cell_length_a 14.465310
_cell_length_b 19.646279
_cell_length_c 12.691994
_cell_angle_alpha 27.259342
_cell_angle_beta 19.920953
_cell_angle_gamma 26.026654
_cell_volume 515.240041
_symmetry_space_group_name_H-M "P -1"
_symmetry_group_IT_number 2
_symmetry_cell_setting 'triclinic'
loop_
_space_group_symop_operation_xyz
x,y,z
-x,-y,-z
loop_
_atom_site_type_symbol
_atom_site_label
_atom_site_fract_x
_atom_site_fract_y
_atom_site_fract_z
Si Si1 0.910192 0.709915 0.773484
Si Si2 0.940584 0.019998 0.361153
Si Si3 0.864992 0.873723 0.190051
Si Si4 0.561011 0.554298 0.227971
Si Si5 0.392061 0.786513 0.361785
Si Si6 0.391327 0.783710 0.905918
O O1 0.857858 0.895838 0.546543
O O2 0.265137 0.600812 0.556078
O O3 0.781487 0.631545 0.929432
O O4 0.743548 0.716620 0.054415
O O5 0.219424 0.913915 0.280488
O O6 0.663367 0.125459 0.586800
O O7 0.017518 0.139740 0.037167
O O8 0.660911 0.772673 0.556145
O O9 0.681783 0.063357 0.149214
O O10 0.123832 0.793065 0.106887
O O11 0.717873 0.360090 0.315210
O O12 0.463676 0.626135 0.117154
#
# Coordination Sequence:
#
# PCOD8010770 Si02
#       6
#     2   2   2   2   2   2
#     4  12  23  43  66  99 127 170 218 262 319 382
#     4  11  25  44  66  98 132 174 213 261 329 387
#     4  10  21  38  63  92 124 165 212 265 309 381
#     4  12  25  42  69  99 130 166 219 270 319 375
#     4  11  26  44  65  97 137 171 210 267 327 387
#     4  10  21  38  63  94 122 163 216 265 312 366
#
# _framework density 23.290115
#
# number of rings (size 3 to 8) (size 9 to 14) (size 15 to 20)
#    0.000    1.000    3.333    2.500    9.333    0.000 
#    0.000    1.667    0.000    0.000    0.000    0.000 
#    0.000    0.000    0.000    0.000    0.000    0.000 
#
# Total GULP energy -148813.030244 kJ/mol
# GULP energy per Si atom -12401.085854 kJ/mol
# Density = 2.323711 g / cm^3
# Si number density = 23.290115 Si / 1000 Ang^3
#
#
#
# Elastic Constant Matrix: (Units=GPa)
#
#
# Indices 1 2 3 4 5 6 
#
# 1 37.9490 15.4253 1.5167 5.6247 -0.7658 1.5307
# 2 15.4253 69.2332 12.9602 -0.3619 -4.7598 9.6697
# 3 1.5167 12.9602 93.8685 13.7371 -4.9539 4.7385
# 4 5.6247 -0.3619 13.7371 21.2055 2.4861 -3.0124
# 5 -0.7658 -4.7598 -4.9539 2.4861 45.1864 0.6045
# 6 1.5307 9.6697 4.7385 -3.0124 0.6045 20.1566
#
#
#
# Elastic Compliance Matrix: (Units=1/GPa)
#
#
# Indices 1 2 3 4 5 6 
#
# 1 0.030639 -0.007091 0.001977 -0.009713 0.000535 -0.000857
# 2 -0.007091 0.017535 -0.002236 0.002462 0.001440 -0.007023
# 3 0.001977 -0.002236 0.012575 -0.009409 0.001741 -0.003492
# 4 -0.009713 0.002462 -0.009409 0.057869 -0.004262 0.010545
# 5 0.000535 0.001440 0.001741 -0.004262 0.022750 -0.002460
# 6 -0.000857 -0.007023 -0.003492 0.010545 -0.002460 0.055516
#
#
# Mechanical properties :
#
#
# Convention : Reuss Voigt Hill
#
# Bulk Modulus (GPa) = 21.71581 28.98390 25.34985
# Shear Modulus (GPa) = 22.03280 28.71961 25.37621
#
# Velocity S-wave (km/s) = 3.07907 3.51540 3.30444
# Velocity P-wave (km/s) = 4.68884 5.38044 5.04650
#
# Compressibility (1/GPa) = 0.04604940
#
# Stress axis : x y z
#
# Youngs Moduli (GPa) = 32.63774 57.02818 79.52213
#
# Poissons Ratio (x) = 0.40438 -0.15721
# Poissons Ratio (y) = 0.23143 0.17783
# Poissons Ratio (z) = -0.06452 0.12753
#
# Static dielectric constant tensor:
#      x y z
#    x 3.885600 -0.004930 0.023410 
#    y -0.004930 4.147930 -0.010080 
#    z 0.023410 -0.010080 4.509920 
# 
# 
# High freq. dielectric constant tensor:
#      x y z
#    x 1.908270 -0.011020 -0.000510 
#    y -0.011020 1.894130 -0.000920 
#    z -0.000510 -0.000920 1.939230 
# 
# From -- ./inp_files/23462.got.cif
#   From: 2010.06.25/outbox.cif.g09.slc.cpg/sg2_12_cif.got.tgz:23462.got - 2010.06.27 13:26:56.
