data_PCOD8010009
_publ_section_title
;
Structure prediction by ZEFSAII (Michael W. Deem and Ramdas Pophale) SiO2 
 PCOD8010009
Probable space group: P -1
;
_chemical_formula_sum "Si O2"
_cell_formula_units_Z 12
_cell_length_a 9.177468
_cell_length_b 26.459399
_cell_length_c 12.208532
_cell_angle_alpha 27.370751
_cell_angle_beta 48.915655
_cell_angle_gamma 32.873667
_cell_volume 691.516230
_symmetry_space_group_name_H-M "P -1"
_symmetry_group_IT_number 2
_symmetry_cell_setting 'triclinic'
loop_
_space_group_symop_operation_xyz
x,y,z
-x,-y,-z
loop_
_atom_site_type_symbol
_atom_site_label
_atom_site_fract_x
_atom_site_fract_y
_atom_site_fract_z
Si Si1 0.739453 0.297260 0.385963
Si Si2 0.912095 0.394384 0.948346
Si Si3 0.803224 0.494449 0.388879
Si Si4 0.214100 0.690489 0.402831
Si Si5 0.862336 0.678272 0.244020
Si Si6 0.196722 0.954941 0.087739
O O1 0.418050 0.440163 0.226673
O O2 0.764797 0.322380 0.451693
O O3 0.829307 0.131491 0.642874
O O4 0.947498 0.286851 0.231088
O O5 0.072912 0.436758 0.828217
O O6 0.047943 0.289711 0.969362
O O7 0.486334 0.640188 0.315369
O O8 0.798329 0.429399 0.402997
O O9 0.997040 0.341344 0.673716
O O10 0.930123 0.873603 0.144247
O O11 0.522436 0.825576 0.136169
O O12 0.000000 0.500000 0.500000
O O13 0.000000 0.000000 0.000000
#
# Coordination Sequence:
#
# PCOD8010009 Si02
#       6
#     2   2   2   2   2   2
#     4  10  18  32  52  77 101 129 168 211 247 295
#     4  10  18  31  55  75  98 133 171 205 245 300
#     4  10  19  35  53  75  99 138 170 203 246 304
#     4  10  21  34  52  76 105 130 168 211 252 286
#     4  10  16  32  52  74  98 131 174 197 241 303
#     4  10  18  32  52  77 103 127 168 214 244 291
#
# _framework density 17.353173000000002
#
# number of rings (size 3 to 8) (size 9 to 14) (size 15 to 20)
#    0.000    2.000    5.000    3.000    0.000    1.333 
#    0.000    7.500    0.000    1.000    0.000    0.000 
#    0.000    0.000    0.000    0.000    0.000    0.000 
#
# Total GULP energy -148679.146095 kJ/mol
# GULP energy per Si atom -12389.928841 kJ/mol
# Density = 1.731368 g / cm^3
# Si number density = 17.353173 Si / 1000 Ang^3
#
#
#
# Elastic Constant Matrix: (Units=GPa)
#
#
# Indices 1 2 3 4 5 6 
#
# 1 43.5404 21.3621 8.8760 7.3139 0.7632 -6.4823
# 2 21.3621 103.0490 56.5256 6.9652 -2.8119 -14.3185
# 3 8.8760 56.5256 91.9900 11.1768 -1.1697 -5.2524
# 4 7.3139 6.9652 11.1768 41.1480 -9.4838 5.2368
# 5 0.7632 -2.8119 -1.1697 -9.4838 17.4201 1.5799
# 6 -6.4823 -14.3185 -5.2524 5.2368 1.5799 26.4420
#
#
#
# Elastic Compliance Matrix: (Units=1/GPa)
#
#
# Indices 1 2 3 4 5 6 
#
# 1 0.027406 -0.005633 0.001861 -0.006546 -0.006066 0.005697
# 2 -0.005633 0.016933 -0.009572 0.000497 0.002094 0.005663
# 3 0.001861 -0.009572 0.016984 -0.003855 -0.002545 -0.000438
# 4 -0.006546 0.000497 -0.003855 0.031860 0.018315 -0.009506
# 5 -0.006066 0.002094 -0.002545 0.018315 0.068587 -0.008584
# 6 0.005697 0.005663 -0.000438 -0.009506 -0.008584 0.044590
#
#
# Mechanical properties :
#
#
# Convention : Reuss Voigt Hill
#
# Bulk Modulus (GPa) = 28.87366 45.78966 37.33166
# Shear Modulus (GPa) = 20.44213 27.12307 23.78260
#
# Velocity S-wave (km/s) = 3.43593 3.95777 3.70605
# Velocity P-wave (km/s) = 5.69349 6.87964 6.31448
#
# Compressibility (1/GPa) = 0.03463364
#
# Stress axis : x y z
#
# Youngs Moduli (GPa) = 36.48861 59.05743 58.88019
#
# Poissons Ratio (x) = 0.33270 -0.10956
# Poissons Ratio (y) = 0.20556 0.56357
# Poissons Ratio (z) = -0.06790 0.56527
#
# Static dielectric constant tensor:
#      x y z
#    x 3.294150 0.037400 0.076890 
#    y 0.037400 3.592860 -0.043300 
#    z 0.076890 -0.043300 3.904800 
# 
# 
# High freq. dielectric constant tensor:
#      x y z
#    x 1.660620 -0.011570 0.013090 
#    y -0.011570 1.669310 -0.002630 
#    z 0.013090 -0.002630 1.657670 
# 
# From -- ./inp_files/145905.got.cif
#   From: 2010.06.25/outbox.cif.g09.slc.cpg/sg2_73_cif.got.tgz:145905.got - 2010.06.27 13:26:56.
