data_PCOD8010070
_publ_section_title
;
Structure prediction by ZEFSAII (Michael W. Deem and Ramdas Pophale) SiO2 
 PCOD8010070
Probable space group: P -1
;
_chemical_formula_sum "Si O2"
_cell_formula_units_Z 16
_cell_length_a 12.955764
_cell_length_b 10.105097
_cell_length_c 19.010693
_cell_angle_alpha 35.427315
_cell_angle_beta 36.728423
_cell_angle_gamma 32.676022
_cell_volume 723.833147
_symmetry_space_group_name_H-M "P -1"
_symmetry_group_IT_number 2
_symmetry_cell_setting 'triclinic'
loop_
_space_group_symop_operation_xyz
x,y,z
-x,-y,-z
loop_
_atom_site_type_symbol
_atom_site_label
_atom_site_fract_x
_atom_site_fract_y
_atom_site_fract_z
Si Si1 0.297574 0.211890 0.978123
Si Si2 0.788014 0.253945 0.141775
Si Si3 0.191372 0.620814 0.409429
Si Si4 0.350632 0.840970 0.608759
Si Si5 0.201782 0.367574 0.377036
Si Si6 0.174357 0.201595 0.900055
Si Si7 0.988224 0.214954 0.244099
Si Si8 0.463015 0.703241 0.870196
O O1 0.097611 0.217218 0.111234
O O2 0.268667 0.498460 0.883101
O O3 0.319946 0.153526 0.908012
O O4 0.500000 0.000000 0.000000
O O5 0.749666 0.069209 0.296207
O O6 0.630996 0.360557 0.116856
O O7 0.016332 0.112596 0.046354
O O8 0.411192 0.403093 0.415569
O O9 0.175829 0.608285 0.337624
O O10 0.014993 0.579155 0.553937
O O11 0.137793 0.924025 0.326987
O O12 0.228597 0.748758 0.667538
O O13 0.332560 0.101578 0.470614
O O14 0.321250 0.343072 0.251204
O O15 0.053699 0.520567 0.803351
O O16 0.312425 0.015176 0.841390
O O17 0.500000 0.500000 0.000000
#
# Coordination Sequence:
#
# PCOD8010070 Si02
#       8
#     2   2   2   2   2   2   2   2
#     4  11  20  35  65 100 130 168 223 274 318 384
#     4  11  21  40  65  99 124 173 222 265 328 375
#     4  10  21  38  66  98 123 163 222 286 312 367
#     4  11  19  40  70  98 125 163 225 284 318 369
#     4  10  24  40  63 100 127 169 221 275 327 382
#     4  11  23  41  61  99 137 176 208 270 330 405
#     4  10  21  37  64  98 129 164 220 272 320 376
#     4  12  27  44  62  94 142 176 211 262 339 408
#
# _framework density 22.104541999999999
#
# number of rings (size 3 to 8) (size 9 to 14) (size 15 to 20)
#    0.000    1.250    3.750    3.000    1.750    1.000 
#    2.250    2.500    0.000    1.500    0.000    0.000 
#    0.000    0.000    0.000    0.000    0.000    0.000 
#
# Total GULP energy -198353.698805 kJ/mol
# GULP energy per Si atom -12397.106175 kJ/mol
# Density = 2.205423 g / cm^3
# Si number density = 22.104542 Si / 1000 Ang^3
#
#
#
# Elastic Constant Matrix: (Units=GPa)
#
#
# Indices 1 2 3 4 5 6 
#
# 1 72.4401 15.0468 31.0637 6.2046 -7.0795 -15.7874
# 2 15.0468 106.9014 55.1309 12.5029 -11.5564 -12.6903
# 3 31.0637 55.1309 122.1364 14.0706 2.3579 3.5954
# 4 6.2046 12.5029 14.0706 40.1474 -2.7089 1.4563
# 5 -7.0795 -11.5564 2.3579 -2.7089 26.9910 1.0047
# 6 -15.7874 -12.6903 3.5954 1.4563 1.0047 23.8519
#
#
#
# Elastic Compliance Matrix: (Units=1/GPa)
#
#
# Indices 1 2 3 4 5 6 
#
# 1 0.020643 0.003856 -0.007391 -0.001940 0.006896 0.016657
# 2 0.003856 0.015598 -0.008236 -0.002479 0.007717 0.011919
# 3 -0.007391 -0.008236 0.014394 -0.001370 -0.006447 -0.011088
# 4 -0.001940 -0.002479 -0.001370 0.026702 0.001382 -0.004085
# 5 0.006896 0.007717 -0.006447 0.001382 0.042575 0.007764
# 6 0.016657 0.011919 -0.011088 -0.004085 0.007764 0.060886
#
#
# Mechanical properties :
#
#
# Convention : Reuss Voigt Hill
#
# Bulk Modulus (GPa) = 36.90956 55.99562 46.45259
# Shear Modulus (GPa) = 23.43354 31.54715 27.49034
#
# Velocity S-wave (km/s) = 3.25949 3.78190 3.53037
# Velocity P-wave (km/s) = 5.55874 6.66765 6.13829
#
# Compressibility (1/GPa) = 0.02709325
#
# Stress axis : x y z
#
# Youngs Moduli (GPa) = 48.44206 64.11098 69.47578
#
# Poissons Ratio (x) = -0.24719 0.51348
# Poissons Ratio (y) = -0.18678 0.57218
# Poissons Ratio (z) = 0.35802 0.52799
#
# Static dielectric constant tensor:
#      x y z
#    x 3.731190 -0.180970 -0.251340 
#    y -0.180970 4.174460 -0.122870 
#    z -0.251340 -0.122870 4.185090 
# 
# 
# High freq. dielectric constant tensor:
#      x y z
#    x 1.848270 -0.023990 -0.024480 
#    y -0.023990 1.866680 -0.009830 
#    z -0.024480 -0.009830 1.872320 
# 
# From -- ./inp_files/566414.got.cif
#   From: 2010.06.25/outbox.cif.g09.slc.cpg/sg2_284_cif.got.tgz:566414.got - 2010.06.27 13:26:56.
