data_PCOD8010376
_publ_section_title
;
Structure prediction by ZEFSAII (Michael W. Deem and Ramdas Pophale) SiO2 
 PCOD8010376
Probable space group: P -1
;
_chemical_formula_sum "Si O2"
_cell_formula_units_Z 14
_cell_length_a 12.758502
_cell_length_b 6.218601
_cell_length_c 12.825467
_cell_angle_alpha 69.687994
_cell_angle_beta 137.663931
_cell_angle_gamma 115.155564
_cell_volume 619.411154
_symmetry_space_group_name_H-M "P -1"
_symmetry_group_IT_number 2
_symmetry_cell_setting 'triclinic'
loop_
_space_group_symop_operation_xyz
x,y,z
-x,-y,-z
loop_
_atom_site_type_symbol
_atom_site_label
_atom_site_fract_x
_atom_site_fract_y
_atom_site_fract_z
Si Si1 0.638188 0.609692 0.667357
Si Si2 0.426638 0.257177 0.177536
Si Si3 0.054051 0.009881 0.208295
Si Si4 0.230021 0.604573 0.690277
Si Si5 0.008098 0.126128 0.592905
Si Si6 0.206049 0.763244 0.079440
Si Si7 0.161387 0.490602 0.882307
O O1 0.500000 0.500000 0.500000
O O2 0.548810 0.623486 0.709160
O O3 0.768123 0.450753 0.793754
O O4 0.752939 0.875094 0.682758
O O5 0.584970 0.308990 0.216533
O O6 0.365197 0.972581 0.184696
O O7 0.299858 0.353557 0.002956
O O8 0.009035 0.047091 0.290241
O O9 0.046137 0.857701 0.966533
O O10 0.007195 0.723590 0.198992
O O11 0.133477 0.739681 0.521841
O O12 0.183397 0.651820 0.767393
O O13 0.179738 0.320661 0.685957
O O14 0.000000 0.000000 0.500000
O O15 0.186879 0.676476 0.961818
#
# Coordination Sequence:
#
# PCOD8010376 Si02
#       7
#     2   2   2   2   2   2   2
#     4  11  26  42  60  92 124 162 205 254 308 356
#     4  10  23  39  62  91 127 158 205 250 301 368
#     4  10  22  41  63  88 122 160 208 252 295 368
#     4  10  21  38  59  94 125 157 200 252 302 362
#     4  10  22  37  62  89 122 164 202 245 307 361
#     4  10  22  41  64  91 118 166 203 248 310 357
#     4   9  20  40  64  92 121 158 203 251 306 360
#
# _framework density 22.602112000000002
#
# number of rings (size 3 to 8) (size 9 to 14) (size 15 to 20)
#    0.000    2.000    0.000    1.714    4.000    8.571 
#    0.000    0.000    0.000    0.000    0.000    0.000 
#    0.000    0.000    0.000    0.000    0.000    0.000 
#
# Total GULP energy -173503.274254 kJ/mol
# GULP energy per Si atom -12393.091018 kJ/mol
# Density = 2.255067 g / cm^3
# Si number density = 22.602112 Si / 1000 Ang^3
#
#
#
# Elastic Constant Matrix: (Units=GPa)
#
#
# Indices 1 2 3 4 5 6 
#
# 1 55.7425 28.3174 18.0009 12.9282 7.5994 15.2790
# 2 28.3174 68.9636 31.9344 12.5260 3.7350 10.6819
# 3 18.0009 31.9344 103.1937 14.7607 -7.9162 10.8387
# 4 12.9282 12.5260 14.7607 42.4766 1.3308 -0.7683
# 5 7.5994 3.7350 -7.9162 1.3308 35.6970 14.7602
# 6 15.2790 10.6819 10.8387 -0.7683 14.7602 35.9324
#
#
#
# Elastic Compliance Matrix: (Units=1/GPa)
#
#
# Indices 1 2 3 4 5 6 
#
# 1 0.025833 -0.008089 -0.000477 -0.005418 -0.001230 -0.008047
# 2 -0.008089 0.020520 -0.004644 -0.001960 -0.001016 -0.000884
# 3 -0.000477 -0.004644 0.012527 -0.003086 0.005319 -0.004446
# 4 -0.005418 -0.001960 -0.003086 0.027022 -0.002590 0.005459
# 5 -0.001230 -0.001016 0.005319 -0.002590 0.036142 -0.015681
# 6 -0.008047 -0.000884 -0.004446 0.005459 -0.015681 0.039414
#
#
# Mechanical properties :
#
#
# Convention : Reuss Voigt Hill
#
# Bulk Modulus (GPa) = 30.80733 42.71169 36.75951
# Shear Modulus (GPa) = 25.16381 32.79768 28.98074
#
# Velocity S-wave (km/s) = 3.34029 3.81345 3.58469
# Velocity P-wave (km/s) = 5.34197 6.19097 5.78207
#
# Compressibility (1/GPa) = 0.03245981
#
# Stress axis : x y z
#
# Youngs Moduli (GPa) = 38.71019 48.73207 79.82611
#
# Poissons Ratio (x) = 0.39421 0.03808
# Poissons Ratio (y) = 0.31314 0.37071
# Poissons Ratio (z) = 0.01847 0.22631
#
# Static dielectric constant tensor:
#      x y z
#    x 3.677370 0.061530 -0.091190 
#    y 0.061530 4.280440 -0.035960 
#    z -0.091190 -0.035960 4.307110 
# 
# 
# High freq. dielectric constant tensor:
#      x y z
#    x 1.870080 0.003260 -0.010520 
#    y 0.003260 1.898410 0.005530 
#    z -0.010520 0.005530 1.900040 
# 
# From -- ./inp_files/68878.got.cif
#   From: 2010.06.25/outbox.cif.g09.slc.cpg/sg2_35_cif.got.tgz:68878.got - 2010.06.27 13:26:56.
