data_PCOD8010067
_publ_section_title
;
Structure prediction by ZEFSAII (Michael W. Deem and Ramdas Pophale) SiO2 
 PCOD8010067
Probable space group: P -1
;
_chemical_formula_sum "Si O2"
_cell_formula_units_Z 14
_cell_length_a 8.807206
_cell_length_b 15.319133
_cell_length_c 8.261663
_cell_angle_alpha 142.018433
_cell_angle_beta 108.984741
_cell_angle_gamma 73.692789
_cell_volume 648.084468
_symmetry_space_group_name_H-M "P -1"
_symmetry_group_IT_number 2
_symmetry_cell_setting 'triclinic'
loop_
_space_group_symop_operation_xyz
x,y,z
-x,-y,-z
loop_
_atom_site_type_symbol
_atom_site_label
_atom_site_fract_x
_atom_site_fract_y
_atom_site_fract_z
Si Si1 0.319739 0.366797 0.627986
Si Si2 0.509904 0.875047 0.189805
Si Si3 0.219557 0.948962 0.986328
Si Si4 0.046685 0.834505 0.275288
Si Si5 0.229121 0.177005 0.045126
Si Si6 0.946132 0.799781 0.539089
Si Si7 0.617202 0.310433 0.868247
O O1 0.311332 0.304597 0.353369
O O2 0.163583 0.322321 0.608853
O O3 0.486007 0.304413 0.671227
O O4 0.312610 0.535482 0.865517
O O5 0.394803 0.897882 0.028896
O O6 0.469107 0.729589 0.053215
O O7 0.500000 0.000000 0.500000
O O8 0.685003 0.859460 0.149170
O O9 0.228319 0.037342 0.952256
O O10 0.145761 0.046212 0.248238
O O11 0.111601 0.812501 0.718033
O O12 0.237442 0.803649 0.281590
O O13 0.985592 0.763225 0.314686
O O14 0.000000 0.000000 0.500000
O O15 0.952138 0.771805 0.996319
#
# Coordination Sequence:
#
# PCOD8010067 Si02
#       7
#     2   2   2   2   2   2   2
#     4  10  25  48  65  91 128 184 223 259 321 394
#     4  12  24  39  65  98 130 173 215 275 333 378
#     4  10  21  37  64  97 130 167 216 268 318 389
#     4  12  23  39  67 102 132 164 210 278 329 381
#     4  11  23  40  67  94 131 170 219 268 325 391
#     4  10  21  39  64  90 133 169 212 265 324 381
#     4  11  26  45  67  93 134 171 222 272 319 389
#
# _framework density 21.602122000000001
#
# number of rings (size 3 to 8) (size 9 to 14) (size 15 to 20)
#    0.000    1.143    1.429    5.571    6.000    1.714 
#    0.000    0.000    0.000    0.000    0.000    0.000 
#    0.000    0.000    0.000    0.000    0.000    0.000 
#
# Total GULP energy -173601.582406 kJ/mol
# GULP energy per Si atom -12400.113029 kJ/mol
# Density = 2.155295 g / cm^3
# Si number density = 21.602122 Si / 1000 Ang^3
#
#
#
# Elastic Constant Matrix: (Units=GPa)
#
#
# Indices 1 2 3 4 5 6 
#
# 1 103.3785 40.6039 35.0418 -1.5632 7.3096 3.2554
# 2 40.6039 91.9062 40.6826 -5.3480 8.2011 2.2943
# 3 35.0418 40.6826 110.2784 -1.9679 23.6051 5.8826
# 4 -1.5632 -5.3480 -1.9679 34.7204 4.9819 3.1517
# 5 7.3096 8.2011 23.6051 4.9819 36.9024 -4.8581
# 6 3.2554 2.2943 5.8826 3.1517 -4.8581 40.5882
#
#
#
# Elastic Compliance Matrix: (Units=1/GPa)
#
#
# Indices 1 2 3 4 5 6 
#
# 1 0.012162 -0.004390 -0.002220 -0.000214 -0.000036 -0.000393
# 2 -0.004390 0.014695 -0.003964 0.001864 -0.000121 -0.000063
# 3 -0.002220 -0.003964 0.012997 0.001327 -0.007499 -0.002482
# 4 -0.000214 0.001864 0.001327 0.030280 -0.005746 -0.003320
# 5 -0.000036 -0.000121 -0.007499 -0.005746 0.033435 0.005545
# 6 -0.000393 -0.000063 -0.002482 -0.003320 0.005545 0.025954
#
#
# Mechanical properties :
#
#
# Convention : Reuss Voigt Hill
#
# Bulk Modulus (GPa) = 53.45676 59.80218 56.62947
# Shear Modulus (GPa) = 31.86617 35.05783 33.46200
#
# Velocity S-wave (km/s) = 3.84492 4.03288 3.94002
# Velocity P-wave (km/s) = 6.67166 7.03058 6.85347
#
# Compressibility (1/GPa) = 0.01870671
#
# Stress axis : x y z
#
# Youngs Moduli (GPa) = 82.22632 68.04821 76.94067
#
# Poissons Ratio (x) = 0.29870 0.17082
# Poissons Ratio (y) = 0.36094 0.30499
# Poissons Ratio (z) = 0.18256 0.26974
#
# Static dielectric constant tensor:
#      x y z
#    x 4.057310 0.042380 0.332200 
#    y 0.042380 3.931800 -0.288970 
#    z 0.332200 -0.288970 3.887470 
# 
# 
# High freq. dielectric constant tensor:
#      x y z
#    x 1.857380 0.008880 0.027340 
#    y 0.008880 1.843170 -0.025490 
#    z 0.027340 -0.025490 1.838220 
# 
# From -- ./inp_files/175447.got.cif
#   From: 2010.06.25/outbox.cif.g09.slc.cpg/sg2_88_cif.got.tgz:175447.got - 2010.06.27 13:26:56.
