data_PCOD8010693
_publ_section_title
;
Structure prediction by ZEFSAII (Michael W. Deem and Ramdas Pophale) SiO2 
 PCOD8010693
Probable space group: P -1
;
_chemical_formula_sum "Si O2"
_cell_formula_units_Z 16
_cell_length_a 9.622903
_cell_length_b 14.484315
_cell_length_c 12.348223
_cell_angle_alpha 65.878202
_cell_angle_beta 47.402503
_cell_angle_gamma 38.177464
_cell_volume 753.758551
_symmetry_space_group_name_H-M "P -1"
_symmetry_group_IT_number 2
_symmetry_cell_setting 'triclinic'
loop_
_space_group_symop_operation_xyz
x,y,z
-x,-y,-z
loop_
_atom_site_type_symbol
_atom_site_label
_atom_site_fract_x
_atom_site_fract_y
_atom_site_fract_z
Si Si1 0.366739 0.446928 0.217088
Si Si2 0.302099 0.700264 0.095357
Si Si3 0.701148 0.260441 0.332852
Si Si4 0.707485 0.874565 0.856412
Si Si5 0.218392 0.994945 0.662861
Si Si6 0.730632 0.854839 0.607562
Si Si7 0.815028 0.601719 0.948176
Si Si8 0.911491 0.483761 0.379437
O O1 0.231616 0.610058 0.179044
O O2 0.562602 0.380134 0.251055
O O3 0.096629 0.481148 0.364022
O O4 0.583145 0.314287 0.076344
O O5 0.020996 0.879273 0.183148
O O6 0.554242 0.627521 0.080308
O O7 0.433478 0.358384 0.510321
O O8 0.966938 0.214301 0.264903
O O9 0.819656 0.103831 0.308538
O O10 0.604601 0.935041 0.755907
O O11 0.690753 0.763806 0.941887
O O12 0.500000 0.000000 0.000000
O O13 0.183657 0.078107 0.533639
O O14 0.513252 0.885238 0.627220
O O15 0.004308 0.668035 0.569848
O O16 0.008393 0.509655 0.784352
O O17 0.000000 0.500000 0.000000
#
# Coordination Sequence:
#
# PCOD8010693 Si02
#       8
#     2   2   2   2   2   2   2   2
#     4  10  21  38  62  94 123 158 212 259 304 368
#     4  10  22  38  62  92 123 165 210 256 309 371
#     4  12  24  38  67  95 119 172 207 256 319 369
#     4  11  26  44  63  92 130 166 208 261 315 376
#     4  11  24  39  65  92 125 169 208 260 312 368
#     4  10  24  43  61  91 131 167 205 259 318 363
#     4  10  22  42  63  90 125 167 206 258 316 367
#     4  10  22  41  63  92 129 160 210 263 304 378
#
# _framework density 21.226956000000001
#
# number of rings (size 3 to 8) (size 9 to 14) (size 15 to 20)
#    0.000    1.500    1.250    2.625    5.250    5.000 
#    0.000    0.000    0.000    0.000    0.000    0.000 
#    0.000    0.000    0.000    0.000    0.000    0.000 
#
# Total GULP energy -198338.255595 kJ/mol
# GULP energy per Si atom -12396.140975 kJ/mol
# Density = 2.117864 g / cm^3
# Si number density = 21.226956 Si / 1000 Ang^3
#
#
#
# Elastic Constant Matrix: (Units=GPa)
#
#
# Indices 1 2 3 4 5 6 
#
# 1 82.0398 13.6006 24.4096 -4.8882 2.2772 -0.1341
# 2 13.6006 60.7760 35.7306 13.5861 10.5593 5.2042
# 3 24.4096 35.7306 97.4899 14.4788 4.0627 4.9125
# 4 -4.8882 13.5861 14.4788 36.6514 -1.3193 10.7157
# 5 2.2772 10.5593 4.0627 -1.3193 27.2515 0.7005
# 6 -0.1341 5.2042 4.9125 10.7157 0.7005 37.0536
#
#
#
# Elastic Compliance Matrix: (Units=1/GPa)
#
#
# Indices 1 2 3 4 5 6 
#
# 1 0.013736 -0.002077 -0.003270 0.004022 0.000349 -0.000395
# 2 -0.002077 0.023947 -0.006905 -0.006616 -0.008386 -0.000384
# 3 -0.003270 -0.006905 0.014085 -0.003437 0.000681 0.000072
# 4 0.004022 -0.006616 -0.003437 0.034315 0.004622 -0.008612
# 5 0.000349 -0.008386 0.000681 0.004622 0.040064 -0.001005
# 6 -0.000395 -0.000384 0.000072 -0.008612 -0.001005 0.029540
#
#
# Mechanical properties :
#
#
# Convention : Reuss Voigt Hill
#
# Bulk Modulus (GPa) = 36.67903 43.08747 39.88325
# Shear Modulus (GPa) = 26.41591 31.29565 28.85578
#
# Velocity S-wave (km/s) = 3.53150 3.84387 3.69099
# Velocity P-wave (km/s) = 5.82629 6.32795 6.08230
#
# Compressibility (1/GPa) = 0.02726353
#
# Stress axis : x y z
#
# Youngs Moduli (GPa) = 72.80280 41.75845 70.99526
#
# Poissons Ratio (x) = 0.08675 0.23213
# Poissons Ratio (y) = 0.15125 0.49024
# Poissons Ratio (z) = 0.23804 0.28835
#
# Static dielectric constant tensor:
#      x y z
#    x 3.997800 0.047600 0.135990 
#    y 0.047600 3.654100 -0.001300 
#    z 0.135990 -0.001300 3.908990 
# 
# 
# High freq. dielectric constant tensor:
#      x y z
#    x 1.838410 0.009870 0.004720 
#    y 0.009870 1.825120 -0.002870 
#    z 0.004720 -0.002870 1.841400 
# 
# From -- ./inp_files/209516.got.cif
#   From: 2010.06.25/outbox.cif.g09.slc.cpg/sg2_105_cif.got.tgz:209516.got - 2010.06.27 13:26:56.
