data_PCOD8010680
_publ_section_title
;
Structure prediction by ZEFSAII (Michael W. Deem and Ramdas Pophale) SiO2 
 PCOD8010680
Probable space group: P -1
;
_chemical_formula_sum "Si O2"
_cell_formula_units_Z 12
_cell_length_a 10.123743
_cell_length_b 13.706402
_cell_length_c 8.805614
_cell_angle_alpha 44.568688
_cell_angle_beta 43.469337
_cell_angle_gamma 49.244374
_cell_volume 566.085182
_symmetry_space_group_name_H-M "P -1"
_symmetry_group_IT_number 2
_symmetry_cell_setting 'triclinic'
loop_
_space_group_symop_operation_xyz
x,y,z
-x,-y,-z
loop_
_atom_site_type_symbol
_atom_site_label
_atom_site_fract_x
_atom_site_fract_y
_atom_site_fract_z
Si Si1 0.780549 0.353596 0.834251
Si Si2 0.060066 0.214248 0.518747
Si Si3 0.633345 0.664058 0.711875
Si Si4 0.194535 0.103761 0.223085
Si Si5 0.433853 0.129014 0.724503
Si Si6 0.952751 0.931770 0.919804
O O1 0.787341 0.505954 0.732163
O O2 0.870535 0.338407 0.604644
O O3 0.553792 0.347875 0.019651
O O4 0.916922 0.226717 0.964617
O O5 0.263946 0.234179 0.393037
O O6 0.067118 0.218485 0.324945
O O7 0.034582 0.060639 0.775008
O O8 0.559281 0.732016 0.533525
O O9 0.043478 0.056356 0.283422
O O10 0.338993 0.971558 0.345139
O O11 0.341586 0.174243 0.921003
O O12 0.280342 0.049302 0.860403
#
# Coordination Sequence:
#
# PCOD8010680 Si02
#       6
#     2   2   2   2   2   2
#     4  11  25  42  61  88 122 160 205 241 304 355
#     4  12  22  37  66  92 120 154 203 252 291 358
#     4  11  25  42  61  86 124 163 196 253 294 352
#     4   9  21  37  61  95 123 153 193 254 300 346
#     4   9  20  39  63  87 127 154 198 241 304 352
#     4  10  21  38  62  93 119 156 198 242 301 356
#
# _framework density 21.198222999999999
#
# number of rings (size 3 to 8) (size 9 to 14) (size 15 to 20)
#    1.000    0.667    1.667    2.500    2.333    1.333 
#    0.000    3.333    0.000    5.000    0.000    0.000 
#    0.000    0.000    0.000    0.000    0.000    0.000 
#
# Total GULP energy -148714.573449 kJ/mol
# GULP energy per Si atom -12392.881121 kJ/mol
# Density = 2.114998 g / cm^3
# Si number density = 21.198223 Si / 1000 Ang^3
#
#
#
# Elastic Constant Matrix: (Units=GPa)
#
#
# Indices 1 2 3 4 5 6 
#
# 1 87.5534 59.1877 22.3111 -11.2444 -18.4095 -1.3202
# 2 59.1877 98.4186 27.5356 12.4636 -6.7478 3.5564
# 3 22.3111 27.5356 56.9345 6.1054 -7.8186 9.3507
# 4 -11.2444 12.4636 6.1054 39.6765 -2.2700 0.5619
# 5 -18.4095 -6.7478 -7.8186 -2.2700 25.9372 0.5368
# 6 -1.3202 3.5564 9.3507 0.5619 0.5368 24.9128
#
#
#
# Elastic Compliance Matrix: (Units=1/GPa)
#
#
# Indices 1 2 3 4 5 6 
#
# 1 0.030292 -0.018337 -0.003111 0.015734 0.017072 0.004668
# 2 -0.018337 0.023223 -0.003553 -0.012430 -0.009081 -0.002477
# 3 -0.003111 -0.003553 0.022654 -0.002929 0.003609 -0.008172
# 4 0.015734 -0.012430 -0.002929 0.034553 0.010019 0.002713
# 5 0.017072 -0.009081 0.003609 0.010019 0.050284 -0.000463
# 6 0.004668 -0.002477 -0.008172 0.002713 -0.000463 0.043757
#
#
# Mechanical properties :
#
#
# Convention : Reuss Voigt Hill
#
# Bulk Modulus (GPa) = 38.21882 51.21947 44.71915
# Shear Modulus (GPa) = 18.97620 27.03009 23.00314
#
# Velocity S-wave (km/s) = 2.99520 3.57474 3.29773
# Velocity P-wave (km/s) = 5.47997 6.42285 5.97005
#
# Compressibility (1/GPa) = 0.02616512
#
# Stress axis : x y z
#
# Youngs Moduli (GPa) = 33.01252 43.05985 44.14306
#
# Poissons Ratio (x) = 0.78960 0.13735
# Poissons Ratio (y) = 0.60536 0.15685
# Poissons Ratio (z) = 0.10272 0.15300
#
# Static dielectric constant tensor:
#      x y z
#    x 3.684930 0.035000 0.000730 
#    y 0.035000 3.702650 0.273380 
#    z 0.000730 0.273380 4.008020 
# 
# 
# High freq. dielectric constant tensor:
#      x y z
#    x 1.819870 0.001130 -0.007470 
#    y 0.001130 1.806340 0.024320 
#    z -0.007470 0.024320 1.849180 
# 
# From -- ./inp_files/173924.got.cif
#   From: 2010.06.25/outbox.cif.g09.slc.cpg/sg2_87_cif.got.tgz:173924.got - 2010.06.27 13:26:56.
