data_PCOD8010696
_publ_section_title
;
Structure prediction by ZEFSAII (Michael W. Deem and Ramdas Pophale) SiO2 
 PCOD8010696
Probable space group: P -1
;
_chemical_formula_sum "Si O2"
_cell_formula_units_Z 16
_cell_length_a 24.437005
_cell_length_b 15.703224
_cell_length_c 6.585716
_cell_angle_alpha 72.058812
_cell_angle_beta 107.435941
_cell_angle_gamma 161.962940
_cell_volume 744.257261
_symmetry_space_group_name_H-M "P -1"
_symmetry_group_IT_number 2
_symmetry_cell_setting 'triclinic'
loop_
_space_group_symop_operation_xyz
x,y,z
-x,-y,-z
loop_
_atom_site_type_symbol
_atom_site_label
_atom_site_fract_x
_atom_site_fract_y
_atom_site_fract_z
Si Si1 0.709060 0.792323 0.044077
Si Si2 0.257343 0.831366 0.568503
Si Si3 0.714137 0.364641 0.693364
Si Si4 0.416398 0.671917 0.158315
Si Si5 0.086899 0.902683 0.561844
Si Si6 0.494837 0.105221 0.290477
Si Si7 0.094703 0.776162 0.317924
Si Si8 0.862213 0.871977 0.860684
O O1 0.776659 0.802053 0.001285
O O2 0.817914 0.038727 0.902094
O O3 0.500000 0.500000 0.000000
O O4 0.746869 0.837404 0.293546
O O5 0.181981 0.808635 0.401622
O O6 0.113146 0.551216 0.713520
O O7 0.397942 0.069137 0.717271
O O8 0.343403 0.904522 0.428207
O O9 0.689064 0.399373 0.817263
O O10 0.668288 0.333325 0.440269
O O11 0.918624 0.639251 0.714266
O O12 0.583269 0.088645 0.797458
O O13 0.294383 0.405168 0.238315
O O14 0.449471 0.731693 0.911217
O O15 0.123168 0.868087 0.495678
O O16 0.049904 0.931693 0.349109
O O17 0.000000 0.000000 0.000000
#
# Coordination Sequence:
#
# PCOD8010696 Si02
#       8
#     2   2   2   2   2   2   2   2
#     4  11  28  44  71  98 132 180 227 277 330 399
#     4  10  23  41  66  96 129 172 214 276 324 399
#     4  10  21  39  61  96 126 172 210 267 333 393
#     4  11  24  37  67  95 131 169 217 271 335 391
#     4  11  24  44  71  91 138 176 219 273 338 385
#     4  10  21  38  62  94 134 164 211 269 328 397
#     4  10  24  44  65  97 132 166 226 268 329 398
#     4  11  26  46  67 102 135 177 230 277 325 399
#
# _framework density 21.497944
#
# number of rings (size 3 to 8) (size 9 to 14) (size 15 to 20)
#    0.000    1.500    1.250    1.875    7.000    5.000 
#    0.000    2.500    0.000    0.000    0.000    0.000 
#    0.000    0.000    0.000    0.000    0.000    0.000 
#
# Total GULP energy -198403.461443 kJ/mol
# GULP energy per Si atom -12400.216340 kJ/mol
# Density = 2.144901 g / cm^3
# Si number density = 21.497944 Si / 1000 Ang^3
#
#
#
# Elastic Constant Matrix: (Units=GPa)
#
#
# Indices 1 2 3 4 5 6 
#
# 1 77.7876 32.7084 11.4507 6.0374 4.9059 -5.8034
# 2 32.7084 111.4316 31.8440 10.4736 -6.8540 -3.7263
# 3 11.4507 31.8440 65.8970 7.2133 4.0633 1.7157
# 4 6.0374 10.4736 7.2133 35.5079 -4.4252 1.7429
# 5 4.9059 -6.8540 4.0633 -4.4252 18.2699 2.2441
# 6 -5.8034 -3.7263 1.7157 1.7429 2.2441 38.3278
#
#
#
# Elastic Compliance Matrix: (Units=1/GPa)
#
#
# Indices 1 2 3 4 5 6 
#
# 1 0.015621 -0.004772 0.000201 -0.002263 -0.006872 0.002397
# 2 -0.004772 0.012482 -0.005541 -0.000899 0.006933 0.000374
# 3 0.000201 -0.005541 0.018592 -0.002997 -0.006895 -0.000801
# 4 -0.002263 -0.000899 -0.002997 0.030603 0.008619 -0.002192
# 5 -0.006872 0.006933 -0.006895 0.008619 0.063313 -0.004157
# 6 0.002397 0.000374 -0.000801 -0.002192 -0.004157 0.026869
#
#
# Mechanical properties :
#
#
# Convention : Reuss Voigt Hill
#
# Bulk Modulus (GPa) = 37.77983 45.23583 41.50783
# Shear Modulus (GPa) = 25.44172 30.36201 27.90187
#
# Velocity S-wave (km/s) = 3.44386 3.76216 3.60653
# Velocity P-wave (km/s) = 5.78147 6.32135 6.05743
#
# Compressibility (1/GPa) = 0.02646915
#
# Stress axis : x y z
#
# Youngs Moduli (GPa) = 64.01826 80.11609 53.78631
#
# Poissons Ratio (x) = 0.38234 -0.01081
# Poissons Ratio (y) = 0.30551 0.29805
# Poissons Ratio (z) = -0.01286 0.44395
#
# Static dielectric constant tensor:
#      x y z
#    x 3.872240 -0.032770 0.005840 
#    y -0.032770 4.056170 0.057870 
#    z 0.005840 0.057870 3.722340 
# 
# 
# High freq. dielectric constant tensor:
#      x y z
#    x 1.848120 -0.003610 -0.003590 
#    y -0.003610 1.857260 0.001640 
#    z -0.003590 0.001640 1.836290 
# 
# From -- ./inp_files/83514.got.cif
#   From: 2010.06.25/outbox.cif.g09.slc.cpg/sg2_42_cif.got.tgz:83514.got - 2010.06.27 13:26:56.
