data_PCOD8010723
_publ_section_title
;
Structure prediction by ZEFSAII (Michael W. Deem and Ramdas Pophale) SiO2 
 PCOD8010723
Probable space group: P -1
;
_chemical_formula_sum "Si O2"
_cell_formula_units_Z 16
_cell_length_a 10.698692
_cell_length_b 9.436517
_cell_length_c 10.007193
_cell_angle_alpha 64.035461
_cell_angle_beta 49.694523
_cell_angle_gamma 77.043381
_cell_volume 690.133047
_symmetry_space_group_name_H-M "P -1"
_symmetry_group_IT_number 2
_symmetry_cell_setting 'triclinic'
loop_
_space_group_symop_operation_xyz
x,y,z
-x,-y,-z
loop_
_atom_site_type_symbol
_atom_site_label
_atom_site_fract_x
_atom_site_fract_y
_atom_site_fract_z
Si Si1 0.783782 0.525074 0.294944
Si Si2 0.405545 0.132364 0.438430
Si Si3 0.482622 0.527122 0.705490
Si Si4 0.928993 0.250964 0.439069
Si Si5 0.634344 0.254829 0.810813
Si Si6 0.628033 0.948434 0.058704
Si Si7 0.229256 0.087449 0.318143
Si Si8 0.146931 0.135529 0.828334
O O1 0.628925 0.505818 0.509018
O O2 0.699633 0.521822 0.207504
O O3 0.901160 0.381719 0.289784
O O4 0.899951 0.687639 0.175679
O O5 0.515052 0.296928 0.314290
O O6 0.383937 0.106528 0.305414
O O7 0.222916 0.133958 0.628411
O O8 0.500000 0.000000 0.500000
O O9 0.524472 0.403306 0.845590
O O10 0.824681 0.300477 0.620791
O O11 0.119941 0.239236 0.350567
O O12 0.871500 0.075379 0.499247
O O13 0.623887 0.140021 0.994404
O O14 0.554667 0.142828 0.788312
O O15 0.721964 0.909506 0.872876
O O16 0.707343 0.891823 0.159918
O O17 0.000000 0.000000 0.000000
#
# Coordination Sequence:
#
# PCOD8010723 Si02
#       8
#     2   2   2   2   2   2   2   2
#     4   9  17  36  62  86 115 160 204 241 291 358
#     4  11  25  40  63  92 122 155 201 254 297 348
#     4   9  17  35  60  89 115 153 209 249 280 349
#     4   9  19  35  64  84 113 164 205 237 286 362
#     4   9  18  34  65  85 109 161 212 235 278 362
#     4  10  21  38  63  86 118 163 198 239 298 363
#     4  10  22  39  59  88 127 156 195 243 303 361
#     4  11  25  41  61  92 125 153 198 255 302 354
#
# _framework density 23.183937
#
# number of rings (size 3 to 8) (size 9 to 14) (size 15 to 20)
#    0.000    2.250    1.250    0.750   12.250    0.000 
#    2.250    4.375    0.000    0.000    0.000    0.000 
#    0.000    0.000    0.000    0.000    0.000    0.000 
#
# Total GULP energy -198236.426003 kJ/mol
# GULP energy per Si atom -12389.776625 kJ/mol
# Density = 2.313117 g / cm^3
# Si number density = 23.183937 Si / 1000 Ang^3
#
#
#
# Elastic Constant Matrix: (Units=GPa)
#
#
# Indices 1 2 3 4 5 6 
#
# 1 67.3483 30.7678 7.8397 1.6368 3.1800 -19.5498
# 2 30.7678 134.4401 24.0341 -35.5798 6.5489 -21.7711
# 3 7.8397 24.0341 58.4155 -9.5134 -5.0761 2.1514
# 4 1.6368 -35.5798 -9.5134 31.2960 2.5089 7.0255
# 5 3.1800 6.5489 -5.0761 2.5089 32.0242 -9.3610
# 6 -19.5498 -21.7711 2.1514 7.0255 -9.3610 46.9981
#
#
#
# Elastic Compliance Matrix: (Units=1/GPa)
#
#
# Indices 1 2 3 4 5 6 
#
# 1 0.020103 -0.005746 -0.002098 -0.010097 0.001883 0.007681
# 2 -0.005746 0.013521 -0.002709 0.014885 -0.003474 0.001080
# 3 -0.002098 -0.002709 0.019411 0.003383 0.002702 -0.002984
# 4 -0.010097 0.014885 0.003383 0.052578 -0.007623 -0.006838
# 5 0.001883 -0.003474 0.002702 -0.007623 0.034860 0.007133
# 6 0.007681 0.001080 -0.002984 -0.006838 0.007133 0.027552
#
#
# Mechanical properties :
#
#
# Convention : Reuss Voigt Hill
#
# Bulk Modulus (GPa) = 31.31907 42.83190 37.07549
# Shear Modulus (GPa) = 25.02822 35.23448 30.13135
#
# Velocity S-wave (km/s) = 3.28922 3.90266 3.60900
# Velocity P-wave (km/s) = 5.28806 6.23078 5.77868
#
# Compressibility (1/GPa) = 0.03192943
#
# Stress axis : x y z
#
# Youngs Moduli (GPa) = 49.74268 73.95876 51.51807
#
# Poissons Ratio (x) = 0.42495 0.10807
# Poissons Ratio (y) = 0.28581 0.13959
# Poissons Ratio (z) = 0.10434 0.20039
#
# Static dielectric constant tensor:
#      x y z
#    x 4.097750 -0.376320 0.050610 
#    y -0.376320 4.384460 -0.305910 
#    z 0.050610 -0.305910 4.025060 
# 
# 
# High freq. dielectric constant tensor:
#      x y z
#    x 1.897390 -0.028770 0.002690 
#    y -0.028770 1.916120 -0.020030 
#    z 0.002690 -0.020030 1.899540 
# 
# From -- ./inp_files/419106.got.cif
#   From: 2010.06.25/outbox.cif.g09.slc.cpg/sg2_210_cif.got.tgz:419106.got - 2010.06.27 13:26:56.
