data_PCOD8010719
_publ_section_title
;
Structure prediction by ZEFSAII (Michael W. Deem and Ramdas Pophale) SiO2 
 PCOD8010719
Probable space group: P -1
;
_chemical_formula_sum "Si O2"
_cell_formula_units_Z 14
_cell_length_a 12.599890
_cell_length_b 11.158054
_cell_length_c 8.557743
_cell_angle_alpha 93.097608
_cell_angle_beta 87.183484
_cell_angle_gamma 34.485846
_cell_volume 670.820593
_symmetry_space_group_name_H-M "P -1"
_symmetry_group_IT_number 2
_symmetry_cell_setting 'triclinic'
loop_
_space_group_symop_operation_xyz
x,y,z
-x,-y,-z
loop_
_atom_site_type_symbol
_atom_site_label
_atom_site_fract_x
_atom_site_fract_y
_atom_site_fract_z
Si Si1 0.476447 0.389781 0.930182
Si Si2 0.648490 0.212572 0.563888
Si Si3 0.858527 0.650806 0.163096
Si Si4 0.247916 0.621121 0.494530
Si Si5 0.877358 0.368393 0.180792
Si Si6 0.937655 0.798922 0.341140
Si Si7 0.248461 0.024775 0.939062
O O1 0.584096 0.271054 0.751226
O O2 0.253549 0.570647 0.938138
O O3 0.500000 0.500000 0.000000
O O4 0.561918 0.220319 0.041463
O O5 0.465613 0.373941 0.474537
O O6 0.763916 0.225480 0.518618
O O7 0.788934 0.969694 0.503110
O O8 0.792467 0.583719 0.227657
O O9 0.951156 0.642070 0.298579
O O10 0.695851 0.890656 0.114959
O O11 0.000000 0.500000 0.000000
O O12 0.131955 0.697172 0.664248
O O13 0.148151 0.648912 0.357265
O O14 0.096211 0.166947 0.101168
O O15 0.857073 0.939796 0.199318
#
# Coordination Sequence:
#
# PCOD8010719 Si02
#       7
#     2   2   2   2   2   2   2
#     4  11  25  39  62  88 120 159 197 245 294 355
#     4  10  23  39  56  88 121 151 204 238 294 352
#     4   8  19  39  60  91 117 151 201 242 292 350
#     4  10  22  38  60  84 121 159 190 248 292 348
#     4  10  21  41  61  88 119 156 204 238 292 354
#     4  10  21  38  63  84 120 158 191 243 302 341
#     4   9  22  38  61  88 118 152 198 242 294 348
#
# _framework density 20.869961
#
# number of rings (size 3 to 8) (size 9 to 14) (size 15 to 20)
#    0.857    1.429    0.000    1.286    8.000    1.714 
#    0.000    4.286    0.000    0.000    0.000    0.000 
#    0.000    0.000    0.000    0.000    0.000    0.000 
#
# Total GULP energy -173456.412550 kJ/mol
# GULP energy per Si atom -12389.743754 kJ/mol
# Density = 2.082246 g / cm^3
# Si number density = 20.869961 Si / 1000 Ang^3
#
#
#
# Elastic Constant Matrix: (Units=GPa)
#
#
# Indices 1 2 3 4 5 6 
#
# 1 52.9644 -5.2313 13.5211 6.6150 22.0552 -0.6091
# 2 -5.2313 48.4504 10.8922 -1.7459 19.7427 2.0167
# 3 13.5211 10.8922 74.6447 -4.2608 19.5253 -0.4953
# 4 6.6150 -1.7459 -4.2608 39.5742 3.6685 3.3030
# 5 22.0552 19.7427 19.5253 3.6685 40.4642 1.5584
# 6 -0.6091 2.0167 -0.4953 3.3030 1.5584 24.7227
#
#
#
# Elastic Compliance Matrix: (Units=1/GPa)
#
#
# Indices 1 2 3 4 5 6 
#
# 1 0.029582 0.011951 -0.001787 -0.002791 -0.020894 0.001408
# 2 0.011951 0.030876 -0.001075 0.001299 -0.021136 -0.001087
# 3 -0.001787 -0.001075 0.015672 0.002488 -0.006305 0.000423
# 4 -0.002791 0.001299 0.002488 0.026594 -0.002589 -0.003515
# 5 -0.020894 -0.021136 -0.006305 -0.002589 0.049757 -0.001708
# 6 0.001408 -0.001087 0.000423 -0.003515 -0.001708 0.041158
#
#
# Mechanical properties :
#
#
# Convention : Reuss Voigt Hill
#
# Bulk Modulus (GPa) = 10.60359 23.82482 17.21420
# Shear Modulus (GPa) = 24.16665 31.41070 27.78868
#
# Velocity S-wave (km/s) = 3.40658 3.88373 3.65295
# Velocity P-wave (km/s) = 4.53485 5.61710 5.10473
#
# Compressibility (1/GPa) = 0.09430772
#
# Stress axis : x y z
#
# Youngs Moduli (GPa) = 33.80387 32.38751 63.81010
#
# Poissons Ratio (x) = -0.38705 0.11403
# Poissons Ratio (y) = -0.40397 0.06857
# Poissons Ratio (z) = 0.06041 0.03481
#
# Static dielectric constant tensor:
#      x y z
#    x 3.861250 0.198110 0.103740 
#    y 0.198110 3.728930 -0.123320 
#    z 0.103740 -0.123320 3.762170 
# 
# 
# High freq. dielectric constant tensor:
#      x y z
#    x 1.801780 0.005370 0.006380 
#    y 0.005370 1.807370 -0.006310 
#    z 0.006380 -0.006310 1.820300 
# 
# From -- ./inp_files/259031.got.cif
#   From: 2010.06.25/outbox.cif.g09.slc.cpg/sg2_130_cif.got.tgz:259031.got - 2010.06.27 13:26:56.
