data_PCOD8010454
_publ_section_title
;
Structure prediction by ZEFSAII (Michael W. Deem and Ramdas Pophale) SiO2 
 PCOD8010454
Probable space group: P -1
;
_chemical_formula_sum "Si O2"
_cell_formula_units_Z 16
_cell_length_a 18.963713
_cell_length_b 25.363822
_cell_length_c 6.375195
_cell_angle_alpha 53.991085
_cell_angle_beta 126.619781
_cell_angle_gamma 161.413014
_cell_volume 781.428930
_symmetry_space_group_name_H-M "P -1"
_symmetry_group_IT_number 2
_symmetry_cell_setting 'triclinic'
loop_
_space_group_symop_operation_xyz
x,y,z
-x,-y,-z
loop_
_atom_site_type_symbol
_atom_site_label
_atom_site_fract_x
_atom_site_fract_y
_atom_site_fract_z
Si Si1 0.587410 0.997634 0.281723
Si Si2 0.694383 0.808282 0.335295
Si Si3 0.890634 0.356238 0.666492
Si Si4 0.915041 0.261176 0.595702
Si Si5 0.719946 0.691977 0.401912
Si Si6 0.988006 0.224202 0.191142
Si Si7 0.196200 0.477234 0.204832
Si Si8 0.100747 0.111121 0.102952
O O1 0.369065 0.804247 0.377683
O O2 0.691748 0.095133 0.455070
O O3 0.763283 0.076635 0.274418
O O4 0.500000 0.000000 0.000000
O O5 0.704242 0.746458 0.378730
O O6 0.452383 0.677326 0.183107
O O7 0.732750 0.819459 0.623512
O O8 0.889455 0.988425 0.164398
O O9 0.897717 0.315719 0.569166
O O10 0.000000 0.500000 0.500000
O O11 0.017327 0.407203 0.963947
O O12 0.132289 0.417413 0.469814
O O13 0.946157 0.218823 0.893279
O O14 0.500000 0.500000 0.500000
O O15 0.932490 0.796043 0.620315
O O16 0.763722 0.737140 0.124119
O O17 0.182457 0.401910 0.220605
O O18 0.000000 0.000000 0.000000
#
# Coordination Sequence:
#
# PCOD8010454 Si02
#       8
#     2   2   2   2   2   2   2   2
#     4  11  20  41  65  86 120 166 205 245 303 381
#     4  10  21  40  64  86 123 171 200 244 311 363
#     4  11  24  40  61  95 123 154 205 261 310 362
#     4  10  21  38  66  86 123 165 204 246 317 364
#     4  11  22  37  61  95 124 151 203 261 299 352
#     4  10  22  37  59  95 121 156 207 248 303 360
#     4  10  21  38  60  91 120 158 208 245 302 368
#     4   9  22  40  59  82 122 168 206 242 304 364
#
# _framework density 20.475311000000001
#
# number of rings (size 3 to 8) (size 9 to 14) (size 15 to 20)
#    0.000    1.750    5.000    0.375    1.750    5.000 
#    0.000    5.000    0.000    0.000    0.000    0.000 
#    0.000    0.000    0.000    0.000    0.000    0.000 
#
# Total GULP energy -198310.704853 kJ/mol
# GULP energy per Si atom -12394.419053 kJ/mol
# Density = 2.042871 g / cm^3
# Si number density = 20.475311 Si / 1000 Ang^3
#
#
#
# Elastic Constant Matrix: (Units=GPa)
#
#
# Indices 1 2 3 4 5 6 
#
# 1 57.1288 30.1669 44.6679 4.4357 2.6740 10.1041
# 2 30.1669 147.6071 58.6518 -6.3054 -6.9846 23.5991
# 3 44.6679 58.6518 144.4804 -2.8352 -20.0573 3.9568
# 4 4.4357 -6.3054 -2.8352 39.0656 -1.1296 6.8111
# 5 2.6740 -6.9846 -20.0573 -1.1296 27.0307 0.8506
# 6 10.1041 23.5991 3.9568 6.8111 0.8506 25.4504
#
#
#
# Elastic Compliance Matrix: (Units=1/GPa)
#
#
# Indices 1 2 3 4 5 6 
#
# 1 0.027273 -0.001458 -0.009058 -0.003063 -0.009706 -0.006923
# 2 -0.001458 0.009944 -0.003170 0.003134 0.000776 -0.009014
# 3 -0.009058 -0.003170 0.012167 0.000948 0.009016 0.004089
# 4 -0.003063 0.003134 0.000948 0.028275 0.003297 -0.009515
# 5 -0.009706 0.000776 0.009016 0.003297 0.045004 -0.000655
# 6 -0.006923 -0.009014 0.004089 -0.009515 -0.000655 0.052331
#
#
# Mechanical properties :
#
#
# Convention : Reuss Voigt Hill
#
# Bulk Modulus (GPa) = 45.42903 68.46550 56.94727
# Shear Modulus (GPa) = 23.84330 32.69134 28.26732
#
# Velocity S-wave (km/s) = 3.41616 4.00011 3.71961
# Velocity P-wave (km/s) = 6.14782 7.40575 6.80591
#
# Compressibility (1/GPa) = 0.02201236
#
# Stress axis : x y z
#
# Youngs Moduli (GPa) = 36.66640 100.56323 82.19133
#
# Poissons Ratio (x) = 0.14661 0.74447
# Poissons Ratio (y) = 0.05346 0.26054
# Poissons Ratio (z) = 0.33212 0.31878
#
# Static dielectric constant tensor:
#      x y z
#    x 3.160930 -0.224860 -0.202890 
#    y -0.224860 3.753710 -0.279080 
#    z -0.202890 -0.279080 4.197080 
# 
# 
# High freq. dielectric constant tensor:
#      x y z
#    x 1.776460 0.015130 -0.014800 
#    y 0.015130 1.810600 0.002820 
#    z -0.014800 0.002820 1.808380 
# 
# From -- ./inp_files/47433.got.cif
#   From: 2010.06.25/outbox.cif.g09.slc.cpg/sg2_24_cif.got.tgz:47433.got - 2010.06.27 13:26:56.
