data_PCOD8010964
_publ_section_title
;
Structure prediction by ZEFSAII (Michael W. Deem and Ramdas Pophale) SiO2 
 PCOD8010964
Probable space group: P -1
;
_chemical_formula_sum "Si O2"
_cell_formula_units_Z 16
_cell_length_a 8.785299
_cell_length_b 8.883879
_cell_length_c 20.638288
_cell_angle_alpha 125.712466
_cell_angle_beta 122.266233
_cell_angle_gamma 33.178563
_cell_volume 712.004527
_symmetry_space_group_name_H-M "P -1"
_symmetry_group_IT_number 2
_symmetry_cell_setting 'triclinic'
loop_
_space_group_symop_operation_xyz
x,y,z
-x,-y,-z
loop_
_atom_site_type_symbol
_atom_site_label
_atom_site_fract_x
_atom_site_fract_y
_atom_site_fract_z
Si Si1 0.968794 0.091957 0.335263
Si Si2 0.447576 0.187391 0.702877
Si Si3 0.864041 0.683050 0.759657
Si Si4 0.968089 0.497808 0.416385
Si Si5 0.383723 0.443468 0.243352
Si Si6 0.612625 0.443482 0.860618
Si Si7 0.030336 0.938224 0.916366
Si Si8 0.806008 0.297790 0.495258
O O1 0.077828 0.198717 0.351596
O O2 0.717979 0.202373 0.264480
O O3 0.839266 0.245430 0.413333
O O4 0.223372 0.749189 0.312608
O O5 0.352635 0.237837 0.618166
O O6 0.566302 0.298082 0.769264
O O7 0.167189 0.377048 0.729652
O O8 0.670152 0.858874 0.695402
O O9 0.721128 0.652635 0.767431
O O10 0.881338 0.862128 0.847240
O O11 0.000000 0.500000 0.500000
O O12 0.131475 0.538342 0.429411
O O13 0.327457 0.452453 0.155853
O O14 0.353532 0.691527 0.909791
O O15 0.878519 0.218269 0.911069
O O16 0.000000 0.000000 0.000000
O O17 0.500000 0.500000 0.500000
O O18 0.000000 0.000000 0.500000
#
# Coordination Sequence:
#
# PCOD8010964 Si02
#       8
#     2   2   2   2   2   2   2   2
#     4  11  25  41  63  88 122 173 201 267 313 373
#     4  10  21  40  62  89 118 167 211 252 319 369
#     4  10  24  38  64  94 128 160 205 265 307 365
#     4  10  24  44  64  88 126 165 215 264 321 379
#     4  12  23  41  62  95 129 155 215 253 315 363
#     4  10  21  38  65  92 124 165 206 251 302 373
#     4  10  21  42  65  95 128 167 207 245 303 375
#     4  11  26  44  60  89 121 160 217 262 324 371
#
# _framework density 22.471767
#
# number of rings (size 3 to 8) (size 9 to 14) (size 15 to 20)
#    0.000    1.500    1.250    2.625    8.750    1.000 
#    0.000    6.875    0.000    0.000    0.000    0.000 
#    0.000    0.000    0.000    0.000    0.000    0.000 
#
# Total GULP energy -198366.070226 kJ/mol
# GULP energy per Si atom -12397.879389 kJ/mol
# Density = 2.242062 g / cm^3
# Si number density = 22.471767 Si / 1000 Ang^3
#
#
#
# Elastic Constant Matrix: (Units=GPa)
#
#
# Indices 1 2 3 4 5 6 
#
# 1 113.6190 26.7760 10.5941 -1.3286 -5.3875 26.2272
# 2 26.7760 98.4419 15.7148 -4.7552 3.7598 10.5048
# 3 10.5941 15.7148 92.6562 -12.5247 -20.8009 12.4129
# 4 -1.3286 -4.7552 -12.5247 34.6022 0.3109 -7.1599
# 5 -5.3875 3.7598 -20.8009 0.3109 31.3881 -7.6268
# 6 26.2272 10.5048 12.4129 -7.1599 -7.6268 30.2348
#
#
#
# Elastic Compliance Matrix: (Units=1/GPa)
#
#
# Indices 1 2 3 4 5 6 
#
# 1 0.011532 -0.002203 0.000102 -0.001835 -0.000033 -0.009723
# 2 -0.002203 0.011486 -0.002218 0.000303 -0.003721 -0.002036
# 3 0.000102 -0.002218 0.014021 0.004330 0.009107 -0.001752
# 4 -0.001835 0.000303 0.004330 0.032136 0.004238 0.008388
# 5 -0.000033 -0.003721 0.009107 0.004238 0.040427 0.008785
# 6 -0.009723 -0.002036 -0.001752 0.008388 0.008785 0.047138
#
#
# Mechanical properties :
#
#
# Convention : Reuss Voigt Hill
#
# Bulk Modulus (GPa) = 35.20838 45.65410 40.43124
# Shear Modulus (GPa) = 28.59688 36.02049 32.30869
#
# Velocity S-wave (km/s) = 3.57118 4.00799 3.79588
# Velocity P-wave (km/s) = 5.71894 6.46367 6.10267
#
# Compressibility (1/GPa) = 0.02840233
#
# Stress axis : x y z
#
# Youngs Moduli (GPa) = 86.71242 87.06608 71.31924
#
# Poissons Ratio (x) = 0.19179 -0.00728
# Poissons Ratio (y) = 0.19101 0.15817
# Poissons Ratio (z) = -0.00886 0.19309
#
# Static dielectric constant tensor:
#      x y z
#    x 4.352530 0.161260 -0.096700 
#    y 0.161260 4.285930 -0.216410 
#    z -0.096700 -0.216410 3.955210 
# 
# 
# High freq. dielectric constant tensor:
#      x y z
#    x 1.896370 0.001030 -0.019760 
#    y 0.001030 1.900810 -0.011420 
#    z -0.019760 -0.011420 1.867430 
# 
# From -- ./inp_files/223351.got.cif
#   From: 2010.06.25/outbox.cif.g09.slc.cpg/sg2_112_cif.got.tgz:223351.got - 2010.06.27 13:26:56.
