data_PCOD8010409
_publ_section_title
;
Structure prediction by ZEFSAII (Michael W. Deem and Ramdas Pophale) SiO2 
 PCOD8010409
Probable space group: P -1
;
_chemical_formula_sum "Si O2"
_cell_formula_units_Z 12
_cell_length_a 15.678595
_cell_length_b 6.513780
_cell_length_c 11.165156
_cell_angle_alpha 65.466036
_cell_angle_beta 144.373010
_cell_angle_gamma 99.700741
_cell_volume 572.685752
_symmetry_space_group_name_H-M "P -1"
_symmetry_group_IT_number 2
_symmetry_cell_setting 'triclinic'
loop_
_space_group_symop_operation_xyz
x,y,z
-x,-y,-z
loop_
_atom_site_type_symbol
_atom_site_label
_atom_site_fract_x
_atom_site_fract_y
_atom_site_fract_z
Si Si1 0.580987 0.011502 0.270864
Si Si2 0.705575 0.578742 0.130064
Si Si3 0.795758 0.983616 0.006444
Si Si4 0.664751 0.146052 0.570810
Si Si5 0.851377 0.167375 0.561380
Si Si6 0.427411 0.635475 0.177944
O O1 0.579795 0.007729 0.418312
O O2 0.748562 0.018348 0.415912
O O3 0.536861 0.789953 0.222979
O O4 0.452371 0.260027 0.025669
O O5 0.789893 0.748489 0.123430
O O6 0.818592 0.421753 0.397644
O O7 0.670132 0.400745 0.037303
O O8 0.970751 0.987276 0.206919
O O9 0.741083 0.977116 0.808856
O O10 0.692099 0.225386 0.891439
O O11 0.796438 0.211774 0.626838
O O12 0.537939 0.386020 0.416075
#
# Coordination Sequence:
#
# PCOD8010409 Si02
#       6
#     2   2   2   2   2   2
#     4   8  20  37  61  84 110 149 193 232 274 336
#     4  10  21  39  60  84 116 152 189 230 286 341
#     4  11  22  39  59  87 117 147 189 239 284 333
#     4   9  21  39  61  83 113 153 191 230 283 338
#     4  10  21  41  59  84 117 150 189 237 283 331
#     4  10  21  38  60  87 112 153 190 233 281 342
#
# _framework density 20.953900999999998
#
# number of rings (size 3 to 8) (size 9 to 14) (size 15 to 20)
#    1.000    1.333    0.000    2.000    0.000    8.667 
#    6.000    0.833    0.000    0.000    0.000    0.000 
#    0.000    0.000    0.000    0.000    0.000    0.000 
#
# Total GULP energy -148719.839267 kJ/mol
# GULP energy per Si atom -12393.319939 kJ/mol
# Density = 2.090621 g / cm^3
# Si number density = 20.953901 Si / 1000 Ang^3
#
#
#
# Elastic Constant Matrix: (Units=GPa)
#
#
# Indices 1 2 3 4 5 6 
#
# 1 95.8265 26.1516 36.8099 -6.9300 9.5523 8.7168
# 2 26.1516 74.5827 8.7125 7.2986 11.1799 -3.3644
# 3 36.8099 8.7125 68.6822 -10.5719 17.3264 2.6644
# 4 -6.9300 7.2986 -10.5719 19.0588 7.0222 -3.7395
# 5 9.5523 11.1799 17.3264 7.0222 41.0948 -1.1937
# 6 8.7168 -3.3644 2.6644 -3.7395 -1.1937 14.6230
#
#
#
# Elastic Compliance Matrix: (Units=1/GPa)
#
#
# Indices 1 2 3 4 5 6 
#
# 1 0.015469 -0.005211 -0.007050 0.001940 0.000213 -0.008622
# 2 -0.005211 0.016389 0.000041 -0.006409 -0.002022 0.005066
# 3 -0.007050 0.000041 0.023153 0.014725 -0.010566 0.002897
# 4 0.001940 -0.006409 0.014725 0.072354 -0.016936 0.011807
# 5 0.000213 -0.002022 -0.010566 -0.016936 0.032173 -0.000372
# 6 -0.008622 0.005066 0.002897 0.011807 -0.000372 0.077152
#
#
# Mechanical properties :
#
#
# Convention : Reuss Voigt Hill
#
# Bulk Modulus (GPa) = 32.71121 42.49328 37.60224
# Shear Modulus (GPa) = 18.42836 26.11647 22.27242
#
# Velocity S-wave (km/s) = 2.96881 3.53424 3.26379
# Velocity P-wave (km/s) = 5.23418 6.08094 5.67338
#
# Compressibility (1/GPa) = 0.03057056
#
# Stress axis : x y z
#
# Youngs Moduli (GPa) = 64.64421 61.01557 43.19116
#
# Poissons Ratio (x) = 0.31796 0.30451
# Poissons Ratio (y) = 0.33687 -0.00177
# Poissons Ratio (z) = 0.45576 -0.00250
#
# Static dielectric constant tensor:
#      x y z
#    x 3.630420 0.053630 0.058680 
#    y 0.053630 3.516410 0.051470 
#    z 0.058680 0.051470 3.692130 
# 
# 
# High freq. dielectric constant tensor:
#      x y z
#    x 1.814080 0.009010 -0.001070 
#    y 0.009010 1.801620 0.001290 
#    z -0.001070 0.001290 1.818520 
# 
# From -- ./inp_files/71204.got.cif
#   From: 2010.06.25/outbox.cif.g09.slc.cpg/sg2_36_cif.got.tgz:71204.got - 2010.06.27 13:26:56.
