data_PCOD8010967
_publ_section_title
;
Structure prediction by ZEFSAII (Michael W. Deem and Ramdas Pophale) SiO2 
 PCOD8010967
Probable space group: P -1
;
_chemical_formula_sum "Si O2"
_cell_formula_units_Z 16
_cell_length_a 11.415982
_cell_length_b 14.158528
_cell_length_c 11.367106
_cell_angle_alpha 120.061343
_cell_angle_beta 45.119539
_cell_angle_gamma 86.183242
_cell_volume 820.989104
_symmetry_space_group_name_H-M "P -1"
_symmetry_group_IT_number 2
_symmetry_cell_setting 'triclinic'
loop_
_space_group_symop_operation_xyz
x,y,z
-x,-y,-z
loop_
_atom_site_type_symbol
_atom_site_label
_atom_site_fract_x
_atom_site_fract_y
_atom_site_fract_z
Si Si1 0.671971 0.147736 0.043060
Si Si2 0.447344 0.864622 0.130956
Si Si3 0.107011 0.353081 0.909864
Si Si4 0.288570 0.618966 0.808148
Si Si5 0.660527 0.845453 0.585878
Si Si6 0.834097 0.356459 0.824780
Si Si7 0.150752 0.862531 0.472584
Si Si8 0.619283 0.660954 0.087002
O O1 0.749562 0.234452 0.071855
O O2 0.499520 0.182977 0.284523
O O3 0.536242 0.193321 0.046303
O O4 0.901282 0.971391 0.771280
O O5 0.195313 0.952679 0.419109
O O6 0.638174 0.717662 0.984239
O O7 0.478466 0.980725 0.182273
O O8 0.286473 0.198134 0.615084
O O9 0.244636 0.334452 0.910040
O O10 0.000000 0.500000 0.000000
O O11 0.913815 0.357273 0.094916
O O12 0.500000 0.500000 0.500000
O O13 0.293947 0.577813 0.916071
O O14 0.899013 0.737173 0.417337
O O15 0.799457 0.255661 0.728868
O O16 0.726291 0.492784 0.897189
O O17 0.347807 0.770435 0.376469
#
# Coordination Sequence:
#
# PCOD8010967 Si02
#       8
#     2   2   2   2   2   2   2   2
#     4  12  22  40  64  97 126 164 212 259 308 366
#     4  10  22  39  63  92 122 161 209 258 309 367
#     4  11  21  42  65  86 125 169 209 246 310 382
#     4  11  23  37  67  93 119 162 213 256 299 373
#     4  11  23  37  69  89 125 170 211 251 307 381
#     4  11  20  41  67  93 122 167 207 255 317 368
#     4  10  21  38  65  92 127 156 212 254 314 363
#     4  10  23  38  66  92 124 166 208 255 318 366
#
# _framework density 19.488688
#
# number of rings (size 3 to 8) (size 9 to 14) (size 15 to 20)
#    0.750    0.500    5.000    3.375    0.000    0.500 
#    0.000    2.500    2.750    0.000    0.000    0.000 
#    0.000    0.000    0.000    0.000    0.000    0.000 
#
# Total GULP energy -198229.836916 kJ/mol
# GULP energy per Si atom -12389.364807 kJ/mol
# Density = 1.944433 g / cm^3
# Si number density = 19.488688 Si / 1000 Ang^3
#
#
#
# Elastic Constant Matrix: (Units=GPa)
#
#
# Indices 1 2 3 4 5 6 
#
# 1 129.2396 34.5985 40.6846 2.7494 -9.6265 8.8975
# 2 34.5985 94.5545 32.8964 6.4585 -10.4663 9.0740
# 3 40.6846 32.8964 95.0178 -11.6558 0.9495 0.7836
# 4 2.7494 6.4585 -11.6558 29.5328 10.0296 -7.0793
# 5 -9.6265 -10.4663 0.9495 10.0296 22.0514 5.2121
# 6 8.8975 9.0740 0.7836 -7.0793 5.2121 33.5282
#
#
#
# Elastic Compliance Matrix: (Units=1/GPa)
#
#
# Indices 1 2 3 4 5 6 
#
# 1 0.010892 0.000443 -0.005923 -0.008571 0.010616 -0.006332
# 2 0.000443 0.017595 -0.008375 -0.016271 0.018920 -0.011060
# 3 -0.005923 -0.008375 0.018276 0.018092 -0.017945 0.010021
# 4 -0.008571 -0.016271 0.018092 0.069457 -0.050640 0.028793
# 5 0.010616 0.018920 -0.017945 -0.050640 0.090394 -0.032263
# 6 -0.006332 -0.011060 0.010021 0.028793 -0.032263 0.045360
#
#
# Mechanical properties :
#
#
# Convention : Reuss Voigt Hill
#
# Bulk Modulus (GPa) = 52.48311 59.46344 55.97327
# Shear Modulus (GPa) = 17.48046 31.06464 24.27255
#
# Velocity S-wave (km/s) = 2.99817 3.99680 3.53295
# Velocity P-wave (km/s) = 6.24290 7.20259 6.73985
#
# Compressibility (1/GPa) = 0.01905375
#
# Stress axis : x y z
#
# Youngs Moduli (GPa) = 91.80755 56.83592 54.71710
#
# Poissons Ratio (x) = -0.02518 0.32407
# Poissons Ratio (y) = -0.04068 0.45825
# Poissons Ratio (z) = 0.54374 0.47600
#
# Static dielectric constant tensor:
#      x y z
#    x 3.697430 0.192060 -0.019630 
#    y 0.192060 3.649750 0.052240 
#    z -0.019630 0.052240 3.395650 
# 
# 
# High freq. dielectric constant tensor:
#      x y z
#    x 1.764150 0.026210 -0.002560 
#    y 0.026210 1.754450 0.003620 
#    z -0.002560 0.003620 1.742480 
# 
# From -- ./inp_files/434189.got.cif
#   From: 2010.06.25/outbox.cif.g09.slc.cpg/sg2_218_cif.got.tgz:434189.got - 2010.06.27 13:26:56.
