data_PCOD8010093
_publ_section_title
;
Structure prediction by ZEFSAII (Michael W. Deem and Ramdas Pophale) SiO2 
 PCOD8010093
Probable space group: P -1
;
_chemical_formula_sum "Si O2"
_cell_formula_units_Z 16
_cell_length_a 8.924591
_cell_length_b 13.447640
_cell_length_c 8.830336
_cell_angle_alpha 101.716442
_cell_angle_beta 110.960476
_cell_angle_gamma 125.794207
_cell_volume 673.386780
_symmetry_space_group_name_H-M "P -1"
_symmetry_group_IT_number 2
_symmetry_cell_setting 'triclinic'
loop_
_space_group_symop_operation_xyz
x,y,z
-x,-y,-z
loop_
_atom_site_type_symbol
_atom_site_label
_atom_site_fract_x
_atom_site_fract_y
_atom_site_fract_z
Si Si1 0.569233 0.646867 0.906178
Si Si2 0.742480 0.008243 0.845580
Si Si3 0.221200 0.760407 0.564296
Si Si4 0.836602 0.836486 0.769878
Si Si5 0.754206 0.409093 0.993694
Si Si6 0.224165 0.391834 0.484103
Si Si7 0.800058 0.450266 0.695681
Si Si8 0.002313 0.271136 0.809858
O O1 0.699124 0.763833 0.856056
O O2 0.376858 0.483371 0.716436
O O3 0.448833 0.671509 0.983617
O O4 0.747641 0.668030 0.082689
O O5 0.476023 0.906179 0.759353
O O6 0.779128 0.925396 0.722819
O O7 0.839054 0.152770 0.844992
O O8 0.890497 0.054909 0.066068
O O9 0.230482 0.648799 0.474866
O O10 0.037703 0.688004 0.610644
O O11 0.137829 0.803644 0.420655
O O12 0.758142 0.719781 0.580074
O O13 0.660535 0.354354 0.770177
O O14 0.942770 0.586193 0.104360
O O15 0.929649 0.403286 0.119412
O O16 0.307587 0.494266 0.397235
#
# Coordination Sequence:
#
# PCOD8010093 Si02
#       8
#     2   2   2   2   2   2   2   2
#     4  11  21  39  67  92 132 163 202 266 327 376
#     4  10  22  43  65  84 127 173 220 256 309 369
#     4  11  23  39  66  91 130 169 214 259 312 380
#     4  10  24  41  65  94 126 168 212 265 316 373
#     4  10  21  37  65  93 131 164 204 260 329 376
#     4  12  23  39  65 101 129 163 211 263 324 378
#     4  10  21  38  60 100 129 162 206 263 321 381
#     4  10  21  40  63  90 125 172 206 261 313 375
#
# _framework density 23.760487999999999
#
# number of rings (size 3 to 8) (size 9 to 14) (size 15 to 20)
#    0.000    1.500    2.500    3.750    1.750    1.500 
#    0.000    0.625   19.250    0.000    0.000    0.000 
#    0.000    0.000    0.000    0.000    0.000    0.000 
#
# Total GULP energy -198295.225446 kJ/mol
# GULP energy per Si atom -12393.451590 kJ/mol
# Density = 2.370641 g / cm^3
# Si number density = 23.760488 Si / 1000 Ang^3
#
#
#
# Elastic Constant Matrix: (Units=GPa)
#
#
# Indices 1 2 3 4 5 6 
#
# 1 41.6484 6.9196 27.8010 14.9910 -7.9606 18.3958
# 2 6.9196 55.3256 15.1327 11.2517 1.8555 3.0413
# 3 27.8010 15.1327 76.3604 7.2399 25.1938 17.2193
# 4 14.9910 11.2517 7.2399 29.8351 8.6428 9.2463
# 5 -7.9606 1.8555 25.1938 8.6428 48.3473 1.1211
# 6 18.3958 3.0413 17.2193 9.2463 1.1211 44.2943
#
#
#
# Elastic Compliance Matrix: (Units=1/GPa)
#
#
# Indices 1 2 3 4 5 6 
#
# 1 0.067547 0.006841 -0.031577 -0.035690 0.033918 -0.009655
# 2 0.006841 0.021557 -0.008068 -0.011870 0.006599 0.001126
# 3 -0.031577 -0.008068 0.033454 0.019052 -0.025667 -0.002664
# 4 -0.035690 -0.011870 0.019052 0.059955 -0.025983 -0.003627
# 5 0.033918 0.006599 -0.025667 -0.025983 0.044041 -0.000253
# 6 -0.009655 0.001126 -0.002664 -0.003627 -0.000253 0.028308
#
#
# Mechanical properties :
#
#
# Convention : Reuss Voigt Hill
#
# Bulk Modulus (GPa) = 17.56022 30.33791 23.94906
# Shear Modulus (GPa) = 14.72955 32.72741 23.72848
#
# Velocity S-wave (km/s) = 2.49252 3.71534 3.16358
# Velocity P-wave (km/s) = 3.96107 5.58578 4.84206
#
# Compressibility (1/GPa) = 0.05694689
#
# Stress axis : x y z
#
# Youngs Moduli (GPa) = 14.80461 46.38888 29.89173
#
# Poissons Ratio (x) = -0.31733 0.94390
# Poissons Ratio (y) = -0.10127 0.24118
# Poissons Ratio (z) = 0.46749 0.37428
#
# Static dielectric constant tensor:
#      x y z
#    x 4.257150 -0.068010 0.315550 
#    y -0.068010 4.168440 -0.062070 
#    z 0.315550 -0.062070 4.464480 
# 
# 
# High freq. dielectric constant tensor:
#      x y z
#    x 1.942370 0.002220 0.025120 
#    y 0.002220 1.916440 -0.005230 
#    z 0.025120 -0.005230 1.937860 
# 
# From -- ./inp_files/205016.got.cif
#   From: 2010.06.25/outbox.cif.g09.slc.cpg/sg2_103_cif.got.tgz:205016.got - 2010.06.27 13:26:56.
