data_PCOD8010588
_publ_section_title
;
Structure prediction by ZEFSAII (Michael W. Deem and Ramdas Pophale) SiO2 
 PCOD8010588
Probable space group: P -1
;
_chemical_formula_sum "Si O2"
_cell_formula_units_Z 14
_cell_length_a 9.707033
_cell_length_b 8.642762
_cell_length_c 11.284787
_cell_angle_alpha 119.087757
_cell_angle_beta 98.422099
_cell_angle_gamma 54.431978
_cell_volume 660.486920
_symmetry_space_group_name_H-M "P -1"
_symmetry_group_IT_number 2
_symmetry_cell_setting 'triclinic'
loop_
_space_group_symop_operation_xyz
x,y,z
-x,-y,-z
loop_
_atom_site_type_symbol
_atom_site_label
_atom_site_fract_x
_atom_site_fract_y
_atom_site_fract_z
Si Si1 0.925266 0.536724 0.684710
Si Si2 0.536065 0.242177 0.673072
Si Si3 0.687340 0.597848 0.072655
Si Si4 0.738569 0.747380 0.505335
Si Si5 0.618323 0.005537 0.114154
Si Si6 0.039993 0.172645 0.041248
Si Si7 0.653245 0.528156 0.776670
O O1 0.825132 0.587624 0.568184
O O2 0.916106 0.747642 0.805619
O O3 0.839988 0.468803 0.744731
O O4 0.124231 0.332429 0.614309
O O5 0.430137 0.384810 0.828582
O O6 0.412877 0.266488 0.562481
O O7 0.642822 0.329370 0.669550
O O8 0.671326 0.988353 0.628388
O O9 0.669372 0.826392 0.155945
O O10 0.883388 0.388090 0.035834
O O11 0.621120 0.573269 0.930069
O O12 0.497631 0.257476 0.237848
O O13 0.794092 0.954389 0.068126
O O14 0.500000 0.000000 0.000000
O O15 0.000000 0.000000 0.000000
#
# Coordination Sequence:
#
# PCOD8010588 Si02
#       7
#     2   2   2   2   2   2   2
#     4  11  23  46  62  89 132 167 213 256 310 379
#     4  11  23  42  66  96 122 166 220 255 310 379
#     4  11  22  40  66  97 131 159 203 267 325 373
#     4  10  25  43  66  84 126 181 209 257 303 369
#     4  10  21  38  61  96 126 162 196 253 337 363
#     4  12  24  38  65  97 129 164 207 258 323 377
#     4  11  24  40  69  97 127 159 211 269 324 365
#
# _framework density 21.196484000000002
#
# number of rings (size 3 to 8) (size 9 to 14) (size 15 to 20)
#    0.000    1.143    4.286    2.571    4.000    1.143 
#    0.000    0.000    0.000    0.000    0.000    0.000 
#    0.000    0.000    0.000    0.000    0.000    0.000 
#
# Total GULP energy -173599.096308 kJ/mol
# GULP energy per Si atom -12399.935451 kJ/mol
# Density = 2.114824 g / cm^3
# Si number density = 21.196484 Si / 1000 Ang^3
#
#
#
# Elastic Constant Matrix: (Units=GPa)
#
#
# Indices 1 2 3 4 5 6 
#
# 1 137.6271 27.0635 34.0941 11.3819 9.8815 15.7144
# 2 27.0635 77.4405 4.0526 -0.8264 13.8029 3.2361
# 3 34.0941 4.0526 64.9119 6.2040 5.6944 5.9558
# 4 11.3819 -0.8264 6.2040 22.5335 -1.8070 -4.3945
# 5 9.8815 13.8029 5.6944 -1.8070 30.1709 11.0439
# 6 15.7144 3.2361 5.9558 -4.3945 11.0439 28.9796
#
#
#
# Elastic Compliance Matrix: (Units=1/GPa)
#
#
# Indices 1 2 3 4 5 6 
#
# 1 0.009851 -0.003170 -0.004087 -0.004918 0.000572 -0.005111
# 2 -0.003170 0.015117 0.000894 0.001894 -0.006952 0.002783
# 3 -0.004087 0.000894 0.018125 -0.003318 -0.002228 -0.001262
# 4 -0.004918 0.001894 -0.003318 0.049937 0.000512 0.010514
# 5 0.000572 -0.006952 -0.002228 0.000512 0.042094 -0.015040
# 6 -0.005111 0.002783 -0.001262 0.010514 -0.015040 0.044553
#
#
# Mechanical properties :
#
#
# Convention : Reuss Voigt Hill
#
# Bulk Modulus (GPa) = 32.92953 45.59999 39.26476
# Shear Modulus (GPa) = 24.68831 30.65477 27.67154
#
# Velocity S-wave (km/s) = 3.41653 3.80705 3.61706
# Velocity P-wave (km/s) = 5.57966 6.39410 6.00071
#
# Compressibility (1/GPa) = 0.03036788
#
# Stress axis : x y z
#
# Youngs Moduli (GPa) = 101.51096 66.15053 55.17270
#
# Poissons Ratio (x) = 0.20967 0.22552
# Poissons Ratio (y) = 0.32175 -0.04935
# Poissons Ratio (z) = 0.41492 -0.05917
#
# Static dielectric constant tensor:
#      x y z
#    x 3.858190 0.033470 -0.077370 
#    y 0.033470 4.300900 0.301390 
#    z -0.077370 0.301390 3.773360 
# 
# 
# High freq. dielectric constant tensor:
#      x y z
#    x 1.835350 -0.007760 -0.005740 
#    y -0.007760 1.833720 0.008750 
#    z -0.005740 0.008750 1.816630 
# 
# From -- ./inp_files/174764.got.cif
#   From: 2010.06.25/outbox.cif.g09.slc.cpg/sg2_88_cif.got.tgz:174764.got - 2010.06.27 13:26:56.
