data_PCOD8010909
_publ_section_title
;
Structure prediction by ZEFSAII (Michael W. Deem and Ramdas Pophale) SiO2 
 PCOD8010909
Probable space group: P -1
;
_chemical_formula_sum "Si O2"
_cell_formula_units_Z 16
_cell_length_a 14.148880
_cell_length_b 7.614647
_cell_length_c 15.346421
_cell_angle_alpha 120.105296
_cell_angle_beta 141.365700
_cell_angle_gamma 38.706733
_cell_volume 620.350624
_symmetry_space_group_name_H-M "P -1"
_symmetry_group_IT_number 2
_symmetry_cell_setting 'triclinic'
loop_
_space_group_symop_operation_xyz
x,y,z
-x,-y,-z
loop_
_atom_site_type_symbol
_atom_site_label
_atom_site_fract_x
_atom_site_fract_y
_atom_site_fract_z
Si Si1 0.826049 0.508225 0.345717
Si Si2 0.415952 0.947919 0.047129
Si Si3 0.587688 0.619967 0.551335
Si Si4 0.374848 0.417251 0.063717
Si Si5 0.165481 0.240536 0.199356
Si Si6 0.409213 0.450612 0.657783
Si Si7 0.929344 0.938825 0.058710
Si Si8 0.876309 0.893504 0.691137
O O1 0.604010 0.812829 0.220373
O O2 0.774834 0.426328 0.373568
O O3 0.000000 0.500000 0.500000
O O4 0.946547 0.266038 0.296755
O O5 0.307763 0.261877 0.014633
O O6 0.503897 0.728692 0.976907
O O7 0.223933 0.001098 0.962324
O O8 0.500000 0.500000 0.500000
O O9 0.765519 0.588562 0.722940
O O10 0.684492 0.479680 0.490180
O O11 0.360967 0.968017 0.469695
O O12 0.532792 0.371074 0.236619
O O13 0.176240 0.764022 0.992210
O O14 0.043266 0.329637 0.226615
O O15 0.381710 0.895067 0.266483
O O16 0.011963 0.300826 0.025860
O O17 0.144470 0.844110 0.230169
#
# Coordination Sequence:
#
# PCOD8010909 Si02
#       8
#     2   2   2   2   2   2   2   2
#     4  12  22  38  67  98 129 176 227 272 332 396
#     4  11  22  39  64  98 139 175 215 275 340 390
#     4  11  25  45  66  93 135 178 224 274 338 407
#     4  10  21  38  64  98 127 177 218 269 332 402
#     4  10  21  42  66  87 126 179 217 261 339 398
#     4  10  21  40  68  89 127 175 221 261 342 393
#     4  11  21  41  69  93 133 176 225 271 336 393
#     4  11  23  40  66  97 128 172 225 273 334 392
#
# _framework density 25.791865000000001
#
# number of rings (size 3 to 8) (size 9 to 14) (size 15 to 20)
#    0.000    1.250    3.750    4.500    1.750    0.000 
#    2.250    5.625    0.000    0.000    0.000    0.000 
#    0.000    0.000    0.000    0.000    0.000    0.000 
#
# Total GULP energy -198256.083851 kJ/mol
# GULP energy per Si atom -12391.005241 kJ/mol
# Density = 2.573316 g / cm^3
# Si number density = 25.791865 Si / 1000 Ang^3
#
#
#
# Elastic Constant Matrix: (Units=GPa)
#
#
# Indices 1 2 3 4 5 6 
#
# 1 140.9988 25.7822 21.1320 16.6270 0.3266 -8.6007
# 2 25.7822 54.9596 14.5703 19.2675 -5.1389 -1.7473
# 3 21.1320 14.5703 80.3175 34.2318 19.7477 -2.0788
# 4 16.6270 19.2675 34.2318 33.5789 0.6615 6.3599
# 5 0.3266 -5.1389 19.7477 0.6615 38.5564 12.5554
# 6 -8.6007 -1.7473 -2.0788 6.3599 12.5554 43.0107
#
#
#
# Elastic Compliance Matrix: (Units=1/GPa)
#
#
# Indices 1 2 3 4 5 6 
#
# 1 0.008081 -0.002879 -0.000252 -0.002479 -0.000977 0.002139
# 2 -0.002879 0.024664 0.003019 -0.016328 0.001186 0.002641
# 3 -0.000252 0.003019 0.033424 -0.037785 -0.020372 0.013222
# 4 -0.002479 -0.016328 -0.037785 0.082590 0.022907 -0.021884
# 5 -0.000977 0.001186 -0.020372 0.022907 0.041566 -0.016653
# 6 0.002139 0.002641 0.013222 -0.021884 -0.016653 0.032521
#
#
# Mechanical properties :
#
#
# Convention : Reuss Voigt Hill
#
# Bulk Modulus (GPa) = 15.16382 44.36056 29.76219
# Shear Modulus (GPa) = 20.40378 37.34860 28.87619
#
# Velocity S-wave (km/s) = 2.81569 3.80949 3.34965
# Velocity P-wave (km/s) = 4.05745 6.04867 5.15021
#
# Compressibility (1/GPa) = 0.06594645
#
# Stress axis : x y z
#
# Youngs Moduli (GPa) = 123.74068 40.54450 29.91836
#
# Poissons Ratio (x) = 0.11671 0.00754
# Poissons Ratio (y) = 0.35621 -0.09032
# Poissons Ratio (z) = 0.03120 -0.12240
#
# Static dielectric constant tensor:
#      x y z
#    x 6.135570 -0.852800 0.112400 
#    y -0.852800 5.011790 0.132100 
#    z 0.112400 0.132100 5.480910 
# 
# 
# High freq. dielectric constant tensor:
#      x y z
#    x 2.053900 -0.006910 0.008680 
#    y -0.006910 2.001330 0.020830 
#    z 0.008680 0.020830 2.045310 
# 
# From -- ./inp_files/528960.got.cif
#   From: 2010.06.25/outbox.cif.g09.slc.cpg/sg2_265_cif.got.tgz:528960.got - 2010.06.27 13:26:56.
