data_PCOD8010966
_publ_section_title
;
Structure prediction by ZEFSAII (Michael W. Deem and Ramdas Pophale) SiO2 
 PCOD8010966
Probable space group: P -1
;
_chemical_formula_sum "Si O2"
_cell_formula_units_Z 14
_cell_length_a 11.995098
_cell_length_b 11.141288
_cell_length_c 11.159270
_cell_angle_alpha 125.432859
_cell_angle_beta 38.502506
_cell_angle_gamma 145.246752
_cell_volume 520.775726
_symmetry_space_group_name_H-M "P -1"
_symmetry_group_IT_number 2
_symmetry_cell_setting 'triclinic'
loop_
_space_group_symop_operation_xyz
x,y,z
-x,-y,-z
loop_
_atom_site_type_symbol
_atom_site_label
_atom_site_fract_x
_atom_site_fract_y
_atom_site_fract_z
Si Si1 0.542444 0.264938 0.159847
Si Si2 0.675064 0.397328 0.540880
Si Si3 0.271850 0.231986 0.595737
Si Si4 0.518695 0.130434 0.729516
Si Si5 0.815962 0.147407 0.944145
Si Si6 0.129494 0.458071 0.162608
Si Si7 0.028079 0.808120 0.645814
O O1 0.374850 0.254556 0.390673
O O2 0.341180 0.049816 0.128118
O O3 0.750192 0.278162 0.052774
O O4 0.712650 0.478281 0.056203
O O5 0.517487 0.388617 0.566940
O O6 0.471484 0.196281 0.686948
O O7 0.844870 0.619725 0.595027
O O8 0.856171 0.377210 0.320610
O O9 0.124971 0.302909 0.753271
O O10 0.047351 0.988919 0.694641
O O11 0.704714 0.332037 0.776232
O O12 0.675475 0.073701 0.537748
O O13 0.249485 0.930162 0.906134
O O14 0.085213 0.282377 0.176167
#
# Coordination Sequence:
#
# PCOD8010966 Si02
#       7
#     2   2   2   2   2   2   2
#     4  10  21  41  65  88 129 173 206 259 310 381
#     4   9  20  36  63  95 132 155 210 268 311 368
#     4  12  23  37  70  98 119 168 214 255 319 378
#     4   8  15  36  61  87 124 166 199 257 311 361
#     4  10  21  38  65  92 126 168 214 252 316 376
#     4   8  17  36  65  85 128 172 200 257 321 362
#     4   9  18  39  67  94 123 165 210 262 313 369
#
# _framework density 26.882973
#
# number of rings (size 3 to 8) (size 9 to 14) (size 15 to 20)
#    0.000    2.571    1.429    2.143    2.000    3.429 
#    0.000    7.143   12.571    0.000    0.000    0.000 
#    0.000    0.000    0.000    0.000    0.000    0.000 
#
# Total GULP energy -173587.620022 kJ/mol
# GULP energy per Si atom -12399.115716 kJ/mol
# Density = 2.682179 g / cm^3
# Si number density = 26.882973 Si / 1000 Ang^3
#
#
#
# Elastic Constant Matrix: (Units=GPa)
#
#
# Indices 1 2 3 4 5 6 
#
# 1 68.1393 18.8639 58.7806 -7.4132 17.9109 -6.5424
# 2 18.8639 46.2650 21.5677 -19.9551 15.3478 -11.1192
# 3 58.7806 21.5677 156.2887 -16.5408 19.4577 -11.5706
# 4 -7.4132 -19.9551 -16.5408 33.7230 -11.9344 6.7302
# 5 17.9109 15.3478 19.4577 -11.9344 44.7965 -8.8744
# 6 -6.5424 -11.1192 -11.5706 6.7302 -8.8744 29.3075
#
#
#
# Elastic Compliance Matrix: (Units=1/GPa)
#
#
# Indices 1 2 3 4 5 6 
#
# 1 0.024272 -0.006338 -0.008092 -0.004082 -0.005272 -0.000840
# 2 -0.006338 0.033814 0.000375 0.016189 -0.003560 0.006766
# 3 -0.008092 0.000375 0.009822 0.002930 -0.000078 0.001517
# 4 -0.004082 0.016189 0.002930 0.042108 0.005724 -0.001549
# 5 -0.005272 -0.003560 -0.000078 0.005724 0.028130 0.004645
# 6 -0.000840 0.006766 0.001517 -0.001549 0.004645 0.038862
#
#
# Mechanical properties :
#
#
# Convention : Reuss Voigt Hill
#
# Bulk Modulus (GPa) = 25.12636 52.12416 38.62526
# Shear Modulus (GPa) = 22.89546 32.99746 27.94646
#
# Velocity S-wave (km/s) = 2.92151 3.50730 3.22772
# Velocity P-wave (km/s) = 4.55490 5.98606 5.31883
#
# Compressibility (1/GPa) = 0.03979884
#
# Stress axis : x y z
#
# Youngs Moduli (GPa) = 41.19955 29.57343 101.80930
#
# Poissons Ratio (x) = 0.18743 0.82384
# Poissons Ratio (y) = 0.26111 -0.03817
# Poissons Ratio (z) = 0.33339 -0.01109
#
# Static dielectric constant tensor:
#      x y z
#    x 5.040400 -0.170340 0.355320 
#    y -0.170340 4.794510 -0.271580 
#    z 0.355320 -0.271580 5.004660 
# 
# 
# High freq. dielectric constant tensor:
#      x y z
#    x 2.082020 0.007030 0.016800 
#    y 0.007030 2.089260 -0.009290 
#    z 0.016800 -0.009290 2.069720 
# 
# From -- ./inp_files/426458.got.cif
#   From: 2010.06.25/outbox.cif.g09.slc.cpg/sg2_214_cif.got.tgz:426458.got - 2010.06.27 13:26:56.
