data_PCOD8010858
_publ_section_title
;
Structure prediction by ZEFSAII (Michael W. Deem and Ramdas Pophale) SiO2 
 PCOD8010858
Probable space group: P -1
;
_chemical_formula_sum "Si O2"
_cell_formula_units_Z 16
_cell_length_a 23.289484
_cell_length_b 9.372439
_cell_length_c 9.733564
_cell_angle_alpha 29.732557
_cell_angle_beta 122.839514
_cell_angle_gamma 133.578101
_cell_volume 753.919008
_symmetry_space_group_name_H-M "P -1"
_symmetry_group_IT_number 2
_symmetry_cell_setting 'triclinic'
loop_
_space_group_symop_operation_xyz
x,y,z
-x,-y,-z
loop_
_atom_site_type_symbol
_atom_site_label
_atom_site_fract_x
_atom_site_fract_y
_atom_site_fract_z
Si Si1 0.724276 0.312859 0.104625
Si Si2 0.464331 0.693726 0.949001
Si Si3 0.565341 0.748289 0.479372
Si Si4 0.172413 0.359091 0.789801
Si Si5 0.629497 0.816613 0.986451
Si Si6 0.202493 0.114801 0.472807
Si Si7 0.908266 0.221291 0.631627
Si Si8 0.742927 0.586969 0.422452
O O1 0.749323 0.493271 0.134911
O O2 0.638658 0.980610 0.281881
O O3 0.785733 0.199654 0.231218
O O4 0.724227 0.567004 0.779437
O O5 0.557868 0.808485 0.985288
O O6 0.462769 0.033947 0.654750
O O7 0.417038 0.468426 0.208880
O O8 0.415479 0.475970 0.938206
O O9 0.500000 0.500000 0.500000
O O10 0.144594 0.625084 0.517624
O O11 0.197355 0.286076 0.736167
O O12 0.100408 0.023085 0.049856
O O13 0.688798 0.181473 0.691491
O O14 0.683374 0.729828 0.224593
O O15 0.198889 0.255685 0.500271
O O16 0.123533 0.984327 0.382805
O O17 0.000000 0.500000 0.500000
#
# Coordination Sequence:
#
# PCOD8010858 Si02
#       8
#     2   2   2   2   2   2   2   2
#     4  10  21  39  58  82 118 160 203 250 303 364
#     4  11  24  42  54  86 112 158 217 250 325 364
#     4  12  25  37  60  83 120 157 210 265 309 352
#     4  10  21  38  64  92 117 159 202 240 290 365
#     4  11  24  39  64  78 120 163 198 266 307 369
#     4  10  23  38  62  90 121 156 201 245 306 361
#     4  10  21  42  66  93 126 160 191 235 298 371
#     4  12  23  39  63  91 120 155 209 254 304 348
#
# _framework density 21.222438
#
# number of rings (size 3 to 8) (size 9 to 14) (size 15 to 20)
#    0.000    1.250    0.000    6.000    5.250    4.000 
#    0.000    1.250    0.000    0.000    0.000    0.000 
#    0.000    0.000    0.000    0.000    0.000    0.000 
#
# Total GULP energy -198407.660015 kJ/mol
# GULP energy per Si atom -12400.478751 kJ/mol
# Density = 2.117414 g / cm^3
# Si number density = 21.222438 Si / 1000 Ang^3
#
#
#
# Elastic Constant Matrix: (Units=GPa)
#
#
# Indices 1 2 3 4 5 6 
#
# 1 56.7254 45.5393 7.9317 -1.9262 -16.2328 -5.1909
# 2 45.5393 116.8856 26.6491 0.7856 -29.2398 -8.3650
# 3 7.9317 26.6491 95.7271 -5.8998 -12.7765 0.7941
# 4 -1.9262 0.7856 -5.8998 34.3722 2.5927 -8.2933
# 5 -16.2328 -29.2398 -12.7765 2.5927 33.7845 -3.3676
# 6 -5.1909 -8.3650 0.7941 -8.2933 -3.3676 32.8702
#
#
#
# Elastic Compliance Matrix: (Units=1/GPa)
#
#
# Indices 1 2 3 4 5 6 
#
# 1 0.026688 -0.009079 0.001166 0.002210 0.005536 0.003001
# 2 -0.009079 0.014852 -0.002416 -0.001157 0.007958 0.002928
# 3 0.001166 -0.002416 0.011496 0.001903 0.002676 0.000046
# 4 0.002210 -0.001157 0.001903 0.031535 -0.000855 0.007877
# 5 0.005536 0.007958 0.002676 -0.000855 0.040904 0.006810
# 6 0.003001 0.002928 0.000046 0.007877 0.006810 0.034326
#
#
# Mechanical properties :
#
#
# Convention : Reuss Voigt Hill
#
# Bulk Modulus (GPa) = 30.88383 47.73093 39.30738
# Shear Modulus (GPa) = 26.14378 32.81994 29.48186
#
# Velocity S-wave (km/s) = 3.51364 3.93679 3.73122
# Velocity P-wave (km/s) = 5.57180 6.57298 6.09299
#
# Compressibility (1/GPa) = 0.03237940
#
# Stress axis : x y z
#
# Youngs Moduli (GPa) = 37.46980 67.33322 86.98500
#
# Poissons Ratio (x) = 0.61132 -0.10145
# Poissons Ratio (y) = 0.34019 0.21012
# Poissons Ratio (z) = -0.04370 0.16265
#
# Static dielectric constant tensor:
#      x y z
#    x 3.634960 -0.100510 0.153680 
#    y -0.100510 3.812160 -0.082090 
#    z 0.153680 -0.082090 3.918620 
# 
# 
# High freq. dielectric constant tensor:
#      x y z
#    x 1.804700 -0.011570 0.004010 
#    y -0.011570 1.829940 -0.006310 
#    z 0.004010 -0.006310 1.854470 
# 
# From -- ./inp_files/116954.got.cif
#   From: 2010.06.25/outbox.cif.g09.slc.cpg/sg2_59_cif.got.tgz:116954.got - 2010.06.27 13:26:56.
