data_PCOD8010907
_publ_section_title
;
Structure prediction by ZEFSAII (Michael W. Deem and Ramdas Pophale) SiO2 
 PCOD8010907
Probable space group: P -1
;
_chemical_formula_sum "Si O2"
_cell_formula_units_Z 14
_cell_length_a 24.145760
_cell_length_b 14.379243
_cell_length_c 11.839413
_cell_angle_alpha 151.551083
_cell_angle_beta 27.707094
_cell_angle_gamma 161.388983
_cell_volume 587.141655
_symmetry_space_group_name_H-M "P -1"
_symmetry_group_IT_number 2
_symmetry_cell_setting 'triclinic'
loop_
_space_group_symop_operation_xyz
x,y,z
-x,-y,-z
loop_
_atom_site_type_symbol
_atom_site_label
_atom_site_fract_x
_atom_site_fract_y
_atom_site_fract_z
Si Si1 0.587530 0.437390 0.527124
Si Si2 0.991495 0.668101 0.850668
Si Si3 0.502775 0.225382 0.935497
Si Si4 0.093670 0.641612 0.103727
Si Si5 0.389094 0.558166 0.267243
Si Si6 0.707651 0.195075 0.679998
Si Si7 0.014338 0.974431 0.641116
O O1 0.555024 0.284189 0.543041
O O2 0.476438 0.164612 0.346223
O O3 0.504988 0.551825 0.795629
O O4 0.805841 0.709340 0.405498
O O5 0.983710 0.611278 0.937979
O O6 0.801506 0.366916 0.812090
O O7 0.162943 0.781377 0.603539
O O8 0.015509 0.935590 0.093109
O O9 0.555357 0.240166 0.725532
O O10 0.661979 0.337193 0.847583
O O11 0.310357 0.884525 0.951976
O O12 0.051189 0.793766 0.404789
O O13 0.000000 0.500000 0.000000
O O14 0.170290 0.237497 0.326335
O O15 0.500000 0.500000 0.000000
#
# Coordination Sequence:
#
# PCOD8010907 Si02
#       7
#     2   2   2   2   2   2   2
#     4  10  23  39  66  97 135 173 221 275 332 394
#     4  11  26  45  69  96 138 177 224 275 328 397
#     4  10  23  42  65  98 132 175 222 275 332 394
#     4  11  27  42  68 105 134 172 222 276 337 398
#     4  10  21  38  64  97 133 174 216 270 335 391
#     4  11  25  46  68  98 131 183 228 268 327 398
#     4  11  24  43  66  98 136 176 214 279 337 389
#
# _framework density 23.844331
#
# number of rings (size 3 to 8) (size 9 to 14) (size 15 to 20)
#    0.000    1.429    0.000    3.857   12.000    4.000 
#    0.000    6.429    0.000    0.000    0.000    0.000 
#    0.000    0.000    0.000    0.000    0.000    0.000 
#
# Total GULP energy -173527.387899 kJ/mol
# GULP energy per Si atom -12394.813421 kJ/mol
# Density = 2.379006 g / cm^3
# Si number density = 23.844331 Si / 1000 Ang^3
#
#
#
# Elastic Constant Matrix: (Units=GPa)
#
#
# Indices 1 2 3 4 5 6 
#
# 1 72.6805 9.3884 25.6498 -11.8085 1.8006 9.7295
# 2 9.3884 87.7410 15.6657 -11.7195 -3.2946 17.2649
# 3 25.6498 15.6657 125.0961 -5.0158 -6.1583 14.5747
# 4 -11.8085 -11.7195 -5.0158 34.9250 10.8011 0.6407
# 5 1.8006 -3.2946 -6.1583 10.8011 25.9183 1.0572
# 6 9.7295 17.2649 14.5747 0.6407 1.0572 39.0932
#
#
#
# Elastic Compliance Matrix: (Units=1/GPa)
#
#
# Indices 1 2 3 4 5 6 
#
# 1 0.016376 0.000077 -0.002975 0.006566 -0.004449 -0.002988
# 2 0.000077 0.013241 -0.000847 0.004504 -0.000171 -0.005620
# 3 -0.002975 -0.000847 0.009082 -0.000770 0.002673 -0.002331
# 4 0.006566 0.004504 -0.000770 0.037072 -0.015372 -0.003528
# 5 -0.004449 -0.000171 0.002673 -0.015372 0.045944 -0.000804
# 6 -0.002988 -0.005620 -0.002331 -0.003528 -0.000804 0.029754
#
#
# Mechanical properties :
#
#
# Convention : Reuss Voigt Hill
#
# Bulk Modulus (GPa) = 32.04211 42.99171 37.51691
# Shear Modulus (GPa) = 29.52233 35.64156 32.58195
#
# Velocity S-wave (km/s) = 3.52252 3.87041 3.70055
# Velocity P-wave (km/s) = 5.47827 6.16788 5.83327
#
# Compressibility (1/GPa) = 0.03120893
#
# Stress axis : x y z
#
# Youngs Moduli (GPa) = 61.06566 75.52173 110.10490
#
# Poissons Ratio (x) = -0.00580 0.32756
# Poissons Ratio (y) = -0.00469 0.09325
# Poissons Ratio (z) = 0.18167 0.06396
#
# Static dielectric constant tensor:
#      x y z
#    x 4.175630 0.095460 0.019830 
#    y 0.095460 4.432190 -0.207210 
#    z 0.019830 -0.207210 4.733320 
# 
# 
# High freq. dielectric constant tensor:
#      x y z
#    x 1.919920 0.011610 -0.014580 
#    y 0.011610 1.950780 -0.008270 
#    z -0.014580 -0.008270 1.973040 
# 
# From -- ./inp_files/475201.got.cif
#   From: 2010.06.25/outbox.cif.g09.slc.cpg/sg2_238_cif.got.tgz:475201.got - 2010.06.27 13:26:56.
