data_PCOD8010804
_publ_section_title
;
Structure prediction by ZEFSAII (Michael W. Deem and Ramdas Pophale) SiO2 
 PCOD8010804
Probable space group: P -1
;
_chemical_formula_sum "Si O2"
_cell_formula_units_Z 16
_cell_length_a 12.108556
_cell_length_b 16.384325
_cell_length_c 10.779536
_cell_angle_alpha 132.143982
_cell_angle_beta 153.400358
_cell_angle_gamma 39.002196
_cell_volume 600.465711
_symmetry_space_group_name_H-M "P -1"
_symmetry_group_IT_number 2
_symmetry_cell_setting 'triclinic'
loop_
_space_group_symop_operation_xyz
x,y,z
-x,-y,-z
loop_
_atom_site_type_symbol
_atom_site_label
_atom_site_fract_x
_atom_site_fract_y
_atom_site_fract_z
Si Si1 0.586617 0.647560 0.671395
Si Si2 0.192401 0.561914 0.110808
Si Si3 0.663786 0.539401 0.109640
Si Si4 0.540379 0.893753 0.701567
Si Si5 0.215879 0.279614 0.466915
Si Si6 0.608907 0.211107 0.138639
Si Si7 0.875914 0.804026 0.467643
Si Si8 0.997844 0.934902 0.303901
O O1 0.319940 0.655616 0.334930
O O2 0.738964 0.516597 0.772739
O O3 0.422692 0.770446 0.725468
O O4 0.833433 0.646554 0.828282
O O5 0.373257 0.459756 0.076436
O O6 0.578534 0.684840 0.212126
O O7 0.996753 0.419031 0.328972
O O8 0.500000 0.500000 0.000000
O O9 0.632286 0.829959 0.594980
O O10 0.341038 0.842785 0.511197
O O11 0.314594 0.046927 0.613640
O O12 0.815108 0.863070 0.035531
O O13 0.084138 0.221043 0.369924
O O14 0.793725 0.270161 0.328402
O O15 0.808724 0.057726 0.147128
O O16 0.281621 0.269570 0.816987
O O17 0.000000 0.000000 0.500000
#
# Coordination Sequence:
#
# PCOD8010804 Si02
#       8
#     2   2   2   2   2   2   2   2
#     4  10  21  38  65  92 118 169 209 276 321 375
#     4  10  23  40  61  89 127 159 224 269 320 381
#     4  11  28  45  64  95 134 182 224 270 339 401
#     4  10  23  42  67 100 128 168 223 269 323 396
#     4  11  26  43  67  93 130 180 219 274 331 387
#     4  10  21  38  63  97 130 166 218 265 334 390
#     4  10  22  40  68  98 132 169 217 275 325 396
#     4  10  22  40  64  96 134 169 205 266 334 399
#
# _framework density 26.645987000000002
#
# number of rings (size 3 to 8) (size 9 to 14) (size 15 to 20)
#    0.000    1.750    0.000    2.250    8.750    3.000 
#    0.000    3.750    0.000    0.000    0.000    0.000 
#    0.000    0.000    0.000    0.000    0.000    0.000 
#
# Total GULP energy -198210.414716 kJ/mol
# GULP energy per Si atom -12388.150920 kJ/mol
# Density = 2.658534 g / cm^3
# Si number density = 26.645987 Si / 1000 Ang^3
#
#
#
# Elastic Constant Matrix: (Units=GPa)
#
#
# Indices 1 2 3 4 5 6 
#
# 1 166.7680 21.0861 72.3032 23.4595 25.6820 -24.2105
# 2 21.0861 63.9592 58.5131 3.6223 18.5355 -21.4181
# 3 72.3032 58.5131 201.5216 18.6135 40.2602 -22.9509
# 4 23.4595 3.6223 18.6135 44.7710 -5.7154 -1.8254
# 5 25.6820 18.5355 40.2602 -5.7154 44.9767 5.8992
# 6 -24.2105 -21.4181 -22.9509 -1.8254 5.8992 49.1707
#
#
#
# Elastic Compliance Matrix: (Units=1/GPa)
#
#
# Indices 1 2 3 4 5 6 
#
# 1 0.008649 0.002182 -0.001634 -0.004542 -0.005601 0.004949
# 2 0.002182 0.026013 -0.005090 -0.001842 -0.009093 0.011052
# 3 -0.001634 -0.005090 0.008473 -0.002847 -0.005104 0.001440
# 4 -0.004542 -0.001842 -0.002847 0.027133 0.009947 -0.004554
# 5 -0.005601 -0.009093 -0.005104 0.009947 0.036736 -0.013139
# 6 0.004949 0.011052 0.001440 -0.004554 -0.013139 0.029668
#
#
# Mechanical properties :
#
#
# Convention : Reuss Voigt Hill
#
# Bulk Modulus (GPa) = 29.36910 81.78373 55.57642
# Shear Modulus (GPa) = 31.82518 46.47345 39.14931
#
# Velocity S-wave (km/s) = 3.45972 4.18078 3.83722
# Velocity P-wave (km/s) = 5.19667 7.35286 6.36671
#
# Compressibility (1/GPa) = 0.03404939
#
# Stress axis : x y z
#
# Youngs Moduli (GPa) = 115.61748 38.44218 118.01585
#
# Poissons Ratio (x) = -0.08387 0.19289
# Poissons Ratio (y) = -0.25225 0.60076
# Poissons Ratio (z) = 0.18897 0.19569
#
# Static dielectric constant tensor:
#      x y z
#    x 4.995270 0.155470 0.024970 
#    y 0.155470 5.093190 -0.185750 
#    z 0.024970 -0.185750 5.580580 
# 
# 
# High freq. dielectric constant tensor:
#      x y z
#    x 2.068620 0.019510 0.010610 
#    y 0.019510 2.097300 -0.013920 
#    z 0.010610 -0.013920 2.080940 
# 
# From -- ./inp_files/127147.got.cif
#   From: 2010.06.25/outbox.cif.g09.slc.cpg/sg2_64_cif.got.tgz:127147.got - 2010.06.27 13:26:56.
