data_PCOD8010775
_publ_section_title
;
Structure prediction by ZEFSAII (Michael W. Deem and Ramdas Pophale) SiO2 
 PCOD8010775
Probable space group: P -1
;
_chemical_formula_sum "Si O2"
_cell_formula_units_Z 14
_cell_length_a 11.561404
_cell_length_b 14.806499
_cell_length_c 23.748068
_cell_angle_alpha 162.123012
_cell_angle_beta 150.174981
_cell_angle_gamma 32.207687
_cell_volume 615.067339
_symmetry_space_group_name_H-M "P -1"
_symmetry_group_IT_number 2
_symmetry_cell_setting 'triclinic'
loop_
_space_group_symop_operation_xyz
x,y,z
-x,-y,-z
loop_
_atom_site_type_symbol
_atom_site_label
_atom_site_fract_x
_atom_site_fract_y
_atom_site_fract_z
Si Si1 0.401425 0.421935 0.250476
Si Si2 0.501892 0.631075 0.016933
Si Si3 0.445796 0.288694 0.401216
Si Si4 0.758080 0.099828 0.611639
Si Si5 0.799620 0.172895 0.186468
Si Si6 0.264384 0.873819 0.256311
Si Si7 0.085757 0.552615 0.716879
O O1 0.457033 0.601837 0.435087
O O2 0.204571 0.631605 0.255319
O O3 0.635270 0.338962 0.263211
O O4 0.293178 0.131603 0.051682
O O5 0.573936 0.960232 0.246619
O O6 0.500000 0.500000 0.000000
O O7 0.696853 0.429135 0.942773
O O8 0.244945 0.645269 0.889493
O O9 0.500000 0.500000 0.500000
O O10 0.170008 0.267374 0.277725
O O11 0.798616 0.214378 0.759461
O O12 0.494960 0.033316 0.449001
O O13 0.935167 0.799281 0.497135
O O14 0.796534 0.380664 0.253568
O O15 0.061013 0.108242 0.283025
#
# Coordination Sequence:
#
# PCOD8010775 Si02
#       7
#     2   2   2   2   2   2   2
#     4  11  24  41  62  96 127 159 206 259 310 358
#     4  11  23  40  63  90 126 167 205 246 304 378
#     4  12  26  42  63  92 128 165 208 253 300 370
#     4  10  21  39  66  93 121 155 208 265 307 358
#     4  11  23  41  68  93 124 160 205 263 313 360
#     4  10  21  38  63  93 123 162 206 253 311 365
#     4  11  23  43  67  91 121 165 209 253 311 364
#
# _framework density 22.761735000000002
#
# number of rings (size 3 to 8) (size 9 to 14) (size 15 to 20)
#    0.000    1.143    0.000    8.143    0.000    5.714 
#    0.000    2.143    0.000    0.000    0.000    0.000 
#    0.000    0.000    0.000    0.000    0.000    0.000 
#
# Total GULP energy -173675.278828 kJ/mol
# GULP energy per Si atom -12405.377059 kJ/mol
# Density = 2.270993 g / cm^3
# Si number density = 22.761735 Si / 1000 Ang^3
#
#
#
# Elastic Constant Matrix: (Units=GPa)
#
#
# Indices 1 2 3 4 5 6 
#
# 1 88.1103 28.3031 41.3706 4.6217 -17.9749 26.4112
# 2 28.3031 99.7208 26.6155 11.8102 -13.2508 23.1767
# 3 41.3706 26.6155 99.4392 26.7050 -30.8771 15.4207
# 4 4.6217 11.8102 26.7050 48.9786 5.2102 -0.3356
# 5 -17.9749 -13.2508 -30.8771 5.2102 40.3772 -4.1929
# 6 26.4112 23.1767 15.4207 -0.3356 -4.1929 40.5001
#
#
#
# Elastic Compliance Matrix: (Units=1/GPa)
#
#
# Indices 1 2 3 4 5 6 
#
# 1 0.017011 -0.001441 -0.005072 0.001216 0.002224 -0.008097
# 2 -0.001441 0.012661 0.000112 -0.003382 0.003410 -0.006023
# 3 -0.005072 0.000112 0.020501 -0.012314 0.014719 -0.003141
# 4 0.001216 -0.003382 -0.012314 0.029276 -0.013275 0.004699
# 5 0.002224 0.003410 0.014719 -0.013275 0.039320 -0.005045
# 6 -0.008097 -0.006023 -0.003141 0.004699 -0.005045 0.034131
#
#
# Mechanical properties :
#
#
# Convention : Reuss Voigt Hill
#
# Bulk Modulus (GPa) = 26.75903 53.31652 40.03778
# Shear Modulus (GPa) = 28.06505 38.70327 33.38416
#
# Velocity S-wave (km/s) = 3.51521 4.12802 3.83388
# Velocity P-wave (km/s) = 5.31576 6.79672 6.10134
#
# Compressibility (1/GPa) = 0.03737056
#
# Stress axis : x y z
#
# Youngs Moduli (GPa) = 58.78687 78.98509 48.77857
#
# Poissons Ratio (x) = 0.11381 0.24739
# Poissons Ratio (y) = 0.08471 -0.00546
# Poissons Ratio (z) = 0.29815 -0.00884
#
# Static dielectric constant tensor:
#      x y z
#    x 3.939760 0.163030 -0.084490 
#    y 0.163030 4.281590 0.165670 
#    z -0.084490 0.165670 4.042050 
# 
# 
# High freq. dielectric constant tensor:
#      x y z
#    x 1.889090 0.014310 -0.016790 
#    y 0.014310 1.912320 0.012230 
#    z -0.016790 0.012230 1.904930 
# 
# From -- ./inp_files/610575.got.cif
#   From: 2010.06.25/outbox.cif.g09.slc.cpg/sg2_306_cif.got.tgz:610575.got - 2010.06.27 13:26:56.
