data_PCOD8010724
_publ_section_title
;
Structure prediction by ZEFSAII (Michael W. Deem and Ramdas Pophale) SiO2 
 PCOD8010724
Probable space group: P -1
;
_chemical_formula_sum "Si O2"
_cell_formula_units_Z 16
_cell_length_a 14.984675
_cell_length_b 12.045968
_cell_length_c 10.689134
_cell_angle_alpha 90.327705
_cell_angle_beta 118.221513
_cell_angle_gamma 38.269546
_cell_volume 781.855138
_symmetry_space_group_name_H-M "P -1"
_symmetry_group_IT_number 2
_symmetry_cell_setting 'triclinic'
loop_
_space_group_symop_operation_xyz
x,y,z
-x,-y,-z
loop_
_atom_site_type_symbol
_atom_site_label
_atom_site_fract_x
_atom_site_fract_y
_atom_site_fract_z
Si Si1 0.806884 0.211025 0.468726
Si Si2 0.201964 0.705601 0.256224
Si Si3 0.572480 0.003915 0.932993
Si Si4 0.619909 0.617703 0.322037
Si Si5 0.201428 0.946229 0.171915
Si Si6 0.002555 0.390371 0.660533
Si Si7 0.715790 0.862908 0.400583
Si Si8 0.362934 0.831056 0.525265
O O1 0.875019 0.187295 0.653392
O O2 0.667462 0.444866 0.311388
O O3 0.675203 0.223309 0.392103
O O4 0.000000 0.000000 0.500000
O O5 0.271269 0.748038 0.223693
O O6 0.410248 0.420579 0.398266
O O7 0.009127 0.831203 0.053882
O O8 0.423289 0.261731 0.827138
O O9 0.504294 0.996799 0.767274
O O10 0.833123 0.778791 0.112039
O O11 0.500000 0.000000 0.000000
O O12 0.392925 0.839735 0.248653
O O13 0.822223 0.467612 0.539843
O O14 0.164401 0.020349 0.292350
O O15 0.885924 0.624011 0.593093
O O16 0.156258 0.226003 0.639964
O O17 0.627470 0.056425 0.412712
#
# Coordination Sequence:
#
# PCOD8010724 Si02
#       8
#     2   2   2   2   2   2   2   2
#     4  11  22  38  63  96 127 157 195 253 313 362
#     4  10  21  41  62  84 128 170 202 241 299 370
#     4   9  20  37  58  84 122 164 204 249 306 358
#     4  11  20  36  61  91 119 160 204 246 305 361
#     4  10  21  38  63  86 119 171 207 239 298 367
#     4   9  19  37  58  86 123 156 199 257 307 347
#     4   9  19  36  62  86 114 163 205 245 304 365
#     4  11  20  40  63  88 127 162 200 248 305 370
#
# _framework density 20.46415
#
# number of rings (size 3 to 8) (size 9 to 14) (size 15 to 20)
#    0.000    2.000    2.500    2.250    1.750    1.000 
#    0.000    9.375    0.000    4.500    0.000    0.000 
#    0.000    0.000    0.000    0.000    0.000    0.000 
#
# Total GULP energy -198237.804291 kJ/mol
# GULP energy per Si atom -12389.862768 kJ/mol
# Density = 2.041757 g / cm^3
# Si number density = 20.464150 Si / 1000 Ang^3
#
#
#
# Elastic Constant Matrix: (Units=GPa)
#
#
# Indices 1 2 3 4 5 6 
#
# 1 83.7431 28.9013 32.3289 -5.4988 4.3490 3.4067
# 2 28.9013 111.2185 40.1740 -0.2293 -2.2470 8.7638
# 3 32.3289 40.1740 144.4780 -2.1591 10.0412 7.7050
# 4 -5.4988 -0.2293 -2.1591 14.3625 2.3585 0.2221
# 5 4.3490 -2.2470 10.0412 2.3585 37.8464 -5.7945
# 6 3.4067 8.7638 7.7050 0.2221 -5.7945 29.2055
#
#
#
# Elastic Compliance Matrix: (Units=1/GPa)
#
#
# Indices 1 2 3 4 5 6 
#
# 1 0.014235 -0.002897 -0.002152 0.005362 -0.001662 -0.000594
# 2 -0.002897 0.010779 -0.002362 -0.001489 0.001388 -0.001987
# 3 -0.002152 -0.002362 0.008332 0.000815 -0.002418 -0.001724
# 4 0.005362 -0.001489 0.000815 0.072758 -0.005775 -0.002093
# 5 -0.001662 0.001388 -0.002418 -0.005775 0.028638 0.006141
# 6 -0.000594 -0.001987 -0.001724 -0.002093 0.006141 0.036595
#
#
# Mechanical properties :
#
#
# Convention : Reuss Voigt Hill
#
# Bulk Modulus (GPa) = 53.98720 60.24978 57.11849
# Shear Modulus (GPa) = 25.99666 32.15193 29.07429
#
# Velocity S-wave (km/s) = 3.56807 3.96805 3.77336
# Velocity P-wave (km/s) = 6.58889 7.10630 6.85248
#
# Compressibility (1/GPa) = 0.01852291
#
# Stress axis : x y z
#
# Youngs Moduli (GPa) = 70.25128 92.77477 120.01979
#
# Poissons Ratio (x) = 0.26880 0.25831
# Poissons Ratio (y) = 0.20354 0.28344
# Poissons Ratio (z) = 0.15120 0.21910
#
# Static dielectric constant tensor:
#      x y z
#    x 3.879800 0.199460 0.032740 
#    y 0.199460 3.289100 -0.044550 
#    z 0.032740 -0.044550 4.207020 
# 
# 
# High freq. dielectric constant tensor:
#      x y z
#    x 1.814430 0.018420 0.000440 
#    y 0.018420 1.757750 -0.007220 
#    z 0.000440 -0.007220 1.801570 
# 
# From -- ./inp_files/332544.got.cif
#   From: 2010.06.25/outbox.cif.g09.slc.cpg/sg2_167_cif.got.tgz:332544.got - 2010.06.27 13:26:56.
