data_PCOD8010304
_publ_section_title
;
Structure prediction by ZEFSAII (Michael W. Deem and Ramdas Pophale) SiO2 
 PCOD8010304
Probable space group: P -1
;
_chemical_formula_sum "Si O2"
_cell_formula_units_Z 16
_cell_length_a 25.971653
_cell_length_b 23.667523
_cell_length_c 14.713672
_cell_angle_alpha 28.525561
_cell_angle_beta 150.917681
_cell_angle_gamma 169.455707
_cell_volume 785.021909
_symmetry_space_group_name_H-M "P -1"
_symmetry_group_IT_number 2
_symmetry_cell_setting 'triclinic'
loop_
_space_group_symop_operation_xyz
x,y,z
-x,-y,-z
loop_
_atom_site_type_symbol
_atom_site_label
_atom_site_fract_x
_atom_site_fract_y
_atom_site_fract_z
Si Si1 0.426352 0.168595 0.061884
Si Si2 0.455133 0.851517 0.569117
Si Si3 0.195530 0.530318 0.945058
Si Si4 0.313227 0.170143 0.248627
Si Si5 0.358383 0.380076 0.302295
Si Si6 0.169829 0.765227 0.565519
Si Si7 0.244100 0.348956 0.366822
Si Si8 0.080741 0.096234 0.851042
O O1 0.577205 0.299537 0.206072
O O2 0.576306 0.263766 0.071700
O O3 0.431264 0.316481 0.858356
O O4 0.111887 0.791650 0.120218
O O5 0.166550 0.572263 0.464614
O O6 0.500000 0.000000 0.500000
O O7 0.720888 0.118793 0.533527
O O8 0.259954 0.731212 0.796002
O O9 0.175912 0.419163 0.158867
O O10 0.646680 0.538649 0.246464
O O11 0.291886 0.007290 0.462448
O O12 0.170365 0.064591 0.081604
O O13 0.168325 0.094706 0.210719
O O14 0.349575 0.436134 0.305441
O O15 0.514262 0.416688 0.512913
O O16 0.050552 0.054983 0.239100
O O17 0.000000 0.000000 0.500000
#
# Coordination Sequence:
#
# PCOD8010304 Si02
#       8
#     2   2   2   2   2   2   2   2
#     4  11  21  33  52  84 115 152 190 225 289 366
#     4  12  21  33  53  83 121 156 193 227 286 370
#     4  11  21  35  54  79 119 154 184 232 291 353
#     4  10  23  40  60  87 117 155 208 240 287 349
#     4  10  22  37  61  87 119 154 193 252 302 348
#     4  12  22  37  56  81 121 162 187 243 296 342
#     4  10  21  38  58  90 120 150 199 240 305 366
#     4  10  22  41  62  86 115 155 203 251 289 339
#
# _framework density 20.381595999999998
#
# number of rings (size 3 to 8) (size 9 to 14) (size 15 to 20)
#    0.000    1.250    3.750    2.625    1.750    3.000 
#    0.000    0.000    0.000    1.500    0.000    0.000 
#    0.000    0.000    0.000    0.000    0.000    0.000 
#
# Total GULP energy -198211.248294 kJ/mol
# GULP energy per Si atom -12388.203018 kJ/mol
# Density = 2.033521 g / cm^3
# Si number density = 20.381596 Si / 1000 Ang^3
#
#
#
# Elastic Constant Matrix: (Units=GPa)
#
#
# Indices 1 2 3 4 5 6 
#
# 1 28.1392 7.8601 19.0475 2.6776 1.8941 1.3318
# 2 7.8601 76.7538 31.2535 6.0999 -6.1146 -2.8522
# 3 19.0475 31.2535 174.9206 -5.0336 8.1638 -14.6242
# 4 2.6776 6.0999 -5.0336 35.6033 -4.6569 -1.7641
# 5 1.8941 -6.1146 8.1638 -4.6569 25.2669 -3.0298
# 6 1.3318 -2.8522 -14.6242 -1.7641 -3.0298 31.1638
#
#
#
# Elastic Compliance Matrix: (Units=1/GPa)
#
#
# Indices 1 2 3 4 5 6 
#
# 1 0.039906 -0.002506 -0.004220 -0.003845 -0.003479 -0.004471
# 2 -0.002506 0.014878 -0.002602 -0.002139 0.004300 0.000545
# 3 -0.004220 -0.002602 0.007042 0.001666 -0.001903 0.003156
# 4 -0.003845 -0.002139 0.001666 0.029787 0.005074 0.002930
# 5 -0.003479 0.004300 -0.001903 0.005074 0.042922 0.004109
# 6 -0.004471 0.000545 0.003156 0.002930 0.004109 0.034376
#
#
# Mechanical properties :
#
#
# Convention : Reuss Voigt Hill
#
# Bulk Modulus (GPa) = 23.16452 44.01510 33.58981
# Shear Modulus (GPa) = 24.75793 33.18363 28.97078
#
# Velocity S-wave (km/s) = 3.48906 4.03937 3.77426
# Velocity P-wave (km/s) = 5.25562 6.58770 5.95900
#
# Compressibility (1/GPa) = 0.04316948
#
# Stress axis : x y z
#
# Youngs Moduli (GPa) = 25.05910 67.21497 142.00694
#
# Poissons Ratio (x) = 0.16845 0.59922
# Poissons Ratio (y) = 0.06280 0.36951
# Poissons Ratio (z) = 0.10574 0.17490
#
# Static dielectric constant tensor:
#      x y z
#    x 3.526310 0.202080 -0.126150 
#    y 0.202080 3.850030 0.355820 
#    z -0.126150 0.355820 5.289170 
# 
# 
# High freq. dielectric constant tensor:
#      x y z
#    x 1.756750 0.030910 0.009710 
#    y 0.030910 1.795270 -0.008310 
#    z 0.009710 -0.008310 1.809660 
# 
# From -- ./inp_files/533747.got.cif
#   From: 2010.06.25/outbox.cif.g09.slc.cpg/sg2_267_cif.got.tgz:533747.got - 2010.06.27 13:26:56.
