data_PCOD8010786
_publ_section_title
;
Structure prediction by ZEFSAII (Michael W. Deem and Ramdas Pophale) SiO2 
 PCOD8010786
Probable space group: P -1
;
_chemical_formula_sum "Si O2"
_cell_formula_units_Z 16
_cell_length_a 16.045473
_cell_length_b 14.560004
_cell_length_c 5.248133
_cell_angle_alpha 88.293112
_cell_angle_beta 80.697691
_cell_angle_gamma 36.163391
_cell_volume 703.223560
_symmetry_space_group_name_H-M "P -1"
_symmetry_group_IT_number 2
_symmetry_cell_setting 'triclinic'
loop_
_space_group_symop_operation_xyz
x,y,z
-x,-y,-z
loop_
_atom_site_type_symbol
_atom_site_label
_atom_site_fract_x
_atom_site_fract_y
_atom_site_fract_z
Si Si1 0.050233 0.603126 0.539619
Si Si2 0.118341 0.033711 0.804191
Si Si3 0.338605 0.109740 0.093833
Si Si4 0.204084 0.052539 0.244662
Si Si5 0.830592 0.686014 0.346982
Si Si6 0.544995 0.535524 0.174321
Si Si7 0.811153 0.352184 0.785137
Si Si8 0.732856 0.257198 0.487875
O O1 0.125188 0.460116 0.691607
O O2 0.167263 0.576477 0.400549
O O3 0.929897 0.759369 0.759570
O O4 0.973441 0.622809 0.329941
O O5 0.189954 0.028924 0.540988
O O6 0.950227 0.211192 0.911400
O O7 0.145659 0.902907 0.725423
O O8 0.199927 0.976993 0.037722
O O9 0.250306 0.211629 0.874449
O O10 0.344455 0.993435 0.144813
O O11 0.271034 0.218816 0.362836
O O12 0.500000 0.000000 0.000000
O O13 0.636232 0.412279 0.365318
O O14 0.386223 0.712337 0.337776
O O15 0.500000 0.500000 0.000000
O O16 0.657203 0.508064 0.991520
O O17 0.812364 0.252980 0.647829
#
# Coordination Sequence:
#
# PCOD8010786 Si02
#       8
#     2   2   2   2   2   2   2   2
#     4   9  21  41  64  98 126 156 216 263 331 369
#     4  11  24  39  66  92 127 164 216 255 320 375
#     4  11  22  42  63  90 131 168 212 252 320 379
#     4  10  23  41  63  92 128 166 197 273 313 369
#     4  10  22  40  68  93 125 170 203 265 319 386
#     4   9  21  40  60  80 123 169 204 264 314 363
#     4  10  21  38  63  94 123 163 207 274 308 372
#     4  10  22  41  59  90 123 172 210 257 319 377
#
# _framework density 22.752367
#
# number of rings (size 3 to 8) (size 9 to 14) (size 15 to 20)
#    0.000    2.000    0.000    3.000    7.000    7.000 
#    2.250    2.500    0.000    0.000    0.000    0.000 
#    0.000    0.000    0.000    0.000    0.000    0.000 
#
# Total GULP energy -198219.807792 kJ/mol
# GULP energy per Si atom -12388.737987 kJ/mol
# Density = 2.270058 g / cm^3
# Si number density = 22.752367 Si / 1000 Ang^3
#
#
#
# Elastic Constant Matrix: (Units=GPa)
#
#
# Indices 1 2 3 4 5 6 
#
# 1 107.2069 4.7898 16.3049 11.8405 -32.6753 -4.4521
# 2 4.7898 27.0432 -6.2911 4.1287 -5.3698 -1.2642
# 3 16.3049 -6.2911 82.6912 2.9168 -6.8811 -8.9971
# 4 11.8405 4.1287 2.9168 31.3280 -2.4672 4.8930
# 5 -32.6753 -5.3698 -6.8811 -2.4672 32.8153 10.4913
# 6 -4.4521 -1.2642 -8.9971 4.8930 10.4913 31.5324
#
#
#
# Elastic Compliance Matrix: (Units=1/GPa)
#
#
# Indices 1 2 3 4 5 6 
#
# 1 0.014302 0.000387 -0.001746 -0.003725 0.014528 -0.002719
# 2 0.000387 0.040082 0.003885 -0.005449 0.006930 0.001310
# 3 -0.001746 0.003885 0.013236 -0.001658 0.000321 0.003836
# 4 -0.003725 -0.005449 -0.001658 0.035221 -0.000184 -0.006622
# 5 0.014528 0.006930 0.000321 -0.000184 0.050742 -0.014433
# 6 -0.002719 0.001310 0.003836 -0.006622 -0.014433 0.038306
#
#
# Mechanical properties :
#
#
# Convention : Reuss Voigt Hill
#
# Bulk Modulus (GPa) = 13.76062 27.39427 20.57745
# Shear Modulus (GPa) = 23.68971 32.61096 28.15034
#
# Velocity S-wave (km/s) = 3.23026 3.79000 3.52127
# Velocity P-wave (km/s) = 4.46922 5.58735 5.05927
#
# Compressibility (1/GPa) = 0.07267112
#
# Stress axis : x y z
#
# Youngs Moduli (GPa) = 69.91794 24.94861 75.55368
#
# Poissons Ratio (x) = -0.00965 0.13193
# Poissons Ratio (y) = -0.02705 -0.29349
# Poissons Ratio (z) = 0.12209 -0.09691
#
# Static dielectric constant tensor:
#      x y z
#    x 4.287810 -0.128730 -0.335680 
#    y -0.128730 4.097170 0.155420 
#    z -0.335680 0.155420 4.099490 
# 
# 
# High freq. dielectric constant tensor:
#      x y z
#    x 1.897540 -0.005450 -0.007320 
#    y -0.005450 1.878900 0.000830 
#    z -0.007320 0.000830 1.904410 
# 
# From -- ./inp_files/98088.got.cif
#   From: 2010.06.25/outbox.cif.g09.slc.cpg/sg2_50_cif.got.tgz:98088.got - 2010.06.27 13:26:56.
