data_PCOD8010212
_publ_section_title
;
Structure prediction by ZEFSAII (Michael W. Deem and Ramdas Pophale) SiO2 
 PCOD8010212
Probable space group: P -1
;
_chemical_formula_sum "Si O2"
_cell_formula_units_Z 12
_cell_length_a 17.789822
_cell_length_b 4.874910
_cell_length_c 8.394810
_cell_angle_alpha 52.105966
_cell_angle_beta 122.153963
_cell_angle_gamma 130.167061
_cell_volume 427.717147
_symmetry_space_group_name_H-M "P -1"
_symmetry_group_IT_number 2
_symmetry_cell_setting 'triclinic'
loop_
_space_group_symop_operation_xyz
x,y,z
-x,-y,-z
loop_
_atom_site_type_symbol
_atom_site_label
_atom_site_fract_x
_atom_site_fract_y
_atom_site_fract_z
Si Si1 0.827528 0.679866 0.902017
Si Si2 0.026920 0.557649 0.691950
Si Si3 0.855869 0.648048 0.593645
Si Si4 0.513332 0.670864 0.230548
Si Si5 0.302116 0.156046 0.072538
Si Si6 0.357761 0.679499 0.653391
O O1 0.870394 0.855181 0.710862
O O2 0.786503 0.928698 0.869228
O O3 0.732549 0.242760 0.925745
O O4 0.919030 0.686357 0.101267
O O5 0.000000 0.500000 0.500000
O O6 0.927760 0.438505 0.734564
O O7 0.107358 0.028987 0.623124
O O8 0.736067 0.343721 0.545818
O O9 0.406059 0.267892 0.247211
O O10 0.597887 0.582274 0.281764
O O11 0.554682 0.861385 0.385361
O O12 0.500000 0.000000 0.000000
O O13 0.316961 0.507879 0.845095
#
# Coordination Sequence:
#
# PCOD8010212 Si02
#       6
#     2   2   2   2   2   2
#     4  12  26  44  71 102 142 174 225 283 338 404
#     4  11  26  47  73  95 137 180 230 279 341 408
#     4  11  27  44  68 105 132 181 226 282 341 402
#     4  10  21  37  70 102 132 182 229 272 329 405
#     4  11  22  43  67 103 138 178 227 276 337 399
#     4  11  21  41  69  98 138 178 230 272 334 403
#
# _framework density 28.055924999999998
#
# number of rings (size 3 to 8) (size 9 to 14) (size 15 to 20)
#    0.000    1.000    1.667    6.500    7.000    0.667 
#    0.000    5.000    0.000    0.000    0.000    0.000 
#    0.000    0.000    0.000    0.000    0.000    0.000 
#
# Total GULP energy -148844.580721 kJ/mol
# GULP energy per Si atom -12403.715060 kJ/mol
# Density = 2.799207 g / cm^3
# Si number density = 28.055925 Si / 1000 Ang^3
#
#
#
# Elastic Constant Matrix: (Units=GPa)
#
#
# Indices 1 2 3 4 5 6 
#
# 1 163.8584 17.0113 49.3747 10.7070 33.3554 -6.6493
# 2 17.0113 85.8821 15.5967 23.3131 18.0628 8.2154
# 3 49.3747 15.5967 134.7108 32.2780 30.9902 1.7610
# 4 10.7070 23.3131 32.2780 38.7017 -0.5235 -3.1784
# 5 33.3554 18.0628 30.9902 -0.5235 49.8203 6.4448
# 6 -6.6493 8.2154 1.7610 -3.1784 6.4448 55.1246
#
#
#
# Elastic Compliance Matrix: (Units=1/GPa)
#
#
# Indices 1 2 3 4 5 6 
#
# 1 0.007572 -0.000379 -0.001735 -0.000353 -0.004048 0.001478
# 2 -0.000379 0.016356 0.002965 -0.012520 -0.007336 -0.002442
# 3 -0.001735 0.002965 0.012273 -0.011713 -0.007563 -0.000834
# 4 -0.000353 -0.012520 -0.011713 0.043681 0.012093 0.003302
# 5 -0.004048 -0.007336 -0.007563 0.012093 0.030535 -0.002026
# 6 0.001478 -0.002442 -0.000834 0.003302 -0.002026 0.019137
#
#
# Mechanical properties :
#
#
# Convention : Reuss Voigt Hill
#
# Bulk Modulus (GPa) = 26.38374 60.93517 43.65946
# Shear Modulus (GPa) = 35.59038 48.89390 42.24214
#
# Velocity S-wave (km/s) = 3.56554 4.17913 3.88447
# Velocity P-wave (km/s) = 5.13567 6.71217 5.97613
#
# Compressibility (1/GPa) = 0.03790213
#
# Stress axis : x y z
#
# Youngs Moduli (GPa) = 132.06537 61.14108 81.47820
#
# Poissons Ratio (x) = 0.02317 0.14137
# Poissons Ratio (y) = 0.05006 -0.24156
# Poissons Ratio (z) = 0.22914 -0.18127
#
# Static dielectric constant tensor:
#      x y z
#    x 4.926760 0.513890 -0.068600 
#    y 0.513890 6.296910 0.053530 
#    z -0.068600 0.053530 5.022820 
# 
# 
# High freq. dielectric constant tensor:
#      x y z
#    x 2.130610 0.019060 -0.002870 
#    y 0.019060 2.178920 -0.003380 
#    z -0.002870 -0.003380 2.143290 
# 
# From -- ./inp_files/31513.got.cif
#   From: 2010.06.25/outbox.cif.g09.slc.cpg/sg2_16_cif.got.tgz:31513.got - 2010.06.27 13:26:56.
