data_PCOD8010234
_publ_section_title
;
Structure prediction by ZEFSAII (Michael W. Deem and Ramdas Pophale) SiO2 
 PCOD8010234
Probable space group: P -1
;
_chemical_formula_sum "Si O2"
_cell_formula_units_Z 12
_cell_length_a 9.476805
_cell_length_b 12.039167
_cell_length_c 12.846006
_cell_angle_alpha 74.672942
_cell_angle_beta 49.349387
_cell_angle_gamma 115.817278
_cell_volume 597.334261
_symmetry_space_group_name_H-M "P -1"
_symmetry_group_IT_number 2
_symmetry_cell_setting 'triclinic'
loop_
_space_group_symop_operation_xyz
x,y,z
-x,-y,-z
loop_
_atom_site_type_symbol
_atom_site_label
_atom_site_fract_x
_atom_site_fract_y
_atom_site_fract_z
Si Si1 0.067807 0.900924 0.622221
Si Si2 0.468622 0.904963 0.337252
Si Si3 0.726141 0.413041 0.577620
Si Si4 0.191676 0.279958 0.980475
Si Si5 0.793286 0.155239 0.741309
Si Si6 0.288626 0.251337 0.378597
O O1 0.254382 0.875135 0.523665
O O2 0.785869 0.779352 0.701289
O O3 0.339761 0.145784 0.420099
O O4 0.888267 0.800000 0.844003
O O5 0.372568 0.719295 0.440885
O O6 0.375265 0.874369 0.270357
O O7 0.855722 0.125987 0.115505
O O8 0.397027 0.279818 0.833355
O O9 0.000000 0.500000 0.500000
O O10 0.910259 0.622666 0.397763
O O11 0.390509 0.503026 0.819595
O O12 0.959104 0.121152 0.633641
O O13 0.500000 0.000000 0.000000
#
# Coordination Sequence:
#
# PCOD8010234 Si02
#       6
#     2   2   2   2   2   2
#     4  10  21  39  59  81 118 152 188 231 282 339
#     4  10  21  38  55  89 115 142 194 232 284 343
#     4   9  20  37  58  82 111 147 197 225 273 350
#     4  11  21  38  61  83 118 151 181 243 290 321
#     4   9  19  38  59  81 112 152 189 236 277 332
#     4   9  21  38  57  87 110 147 204 225 268 355
#
# _framework density 20.089252999999999
#
# number of rings (size 3 to 8) (size 9 to 14) (size 15 to 20)
#    0.000    2.333    0.000    2.500    4.667    0.667 
#    9.000    1.667    0.000    0.000    0.000    0.000 
#    0.000    0.000    0.000    0.000    0.000    0.000 
#
# Total GULP energy -148667.027592 kJ/mol
# GULP energy per Si atom -12388.918966 kJ/mol
# Density = 2.004353 g / cm^3
# Si number density = 20.089253 Si / 1000 Ang^3
#
#
#
# Elastic Constant Matrix: (Units=GPa)
#
#
# Indices 1 2 3 4 5 6 
#
# 1 35.3720 43.8954 40.6434 5.3994 -4.6186 -9.0442
# 2 43.8954 142.9349 61.6612 -8.6549 0.3013 -18.1092
# 3 40.6434 61.6612 127.1116 5.7657 0.6659 -0.9919
# 4 5.3994 -8.6549 5.7657 33.1989 1.2055 -7.1148
# 5 -4.6186 0.3013 0.6659 1.2055 28.4573 -3.6168
# 6 -9.0442 -18.1092 -0.9919 -7.1148 -3.6168 24.2422
#
#
#
# Elastic Compliance Matrix: (Units=1/GPa)
#
#
# Indices 1 2 3 4 5 6 
#
# 1 0.069592 -0.013611 -0.015172 -0.009647 0.014037 0.014438
# 2 -0.013611 0.013646 -0.002557 0.007786 -0.001729 0.007038
# 3 -0.015172 -0.002557 0.014016 -0.002259 -0.003712 -0.008213
# 4 -0.009647 0.007786 -0.002259 0.036895 -0.001541 0.012723
# 5 0.014037 -0.001729 -0.003712 -0.001541 0.038748 0.009122
# 6 0.014438 0.007038 -0.008213 0.012723 0.009122 0.056653
#
#
# Mechanical properties :
#
#
# Convention : Reuss Voigt Hill
#
# Bulk Modulus (GPa) = 28.92324 66.42427 47.67376
# Shear Modulus (GPa) = 16.46052 27.79426 22.12739
#
# Velocity S-wave (km/s) = 2.86557 3.72363 3.32242
# Velocity P-wave (km/s) = 5.03759 7.18496 6.20487
#
# Compressibility (1/GPa) = 0.03457427
#
# Stress axis : x y z
#
# Youngs Moduli (GPa) = 14.36940 73.28173 71.34464
#
# Poissons Ratio (x) = 0.99744 1.08247
# Poissons Ratio (y) = 0.19558 0.18241
# Poissons Ratio (z) = 0.21802 0.18736
#
# Static dielectric constant tensor:
#      x y z
#    x 2.685780 -0.025870 -0.797650 
#    y -0.025870 4.354360 0.144940 
#    z -0.797650 0.144940 2.918590 
# 
# 
# High freq. dielectric constant tensor:
#      x y z
#    x 1.756580 -0.015270 -0.009870 
#    y -0.015270 1.808400 -0.002170 
#    z -0.009870 -0.002170 1.778950 
# 
# From -- ./inp_files/147898.got.cif
#   From: 2010.06.25/outbox.cif.g09.slc.cpg/sg2_74_cif.got.tgz:147898.got - 2010.06.27 13:26:56.
