data_PCOD8010480
_publ_section_title
;
Structure prediction by ZEFSAII (Michael W. Deem and Ramdas Pophale) SiO2 
 PCOD8010480
Probable space group: P -1
;
_chemical_formula_sum "Si O2"
_cell_formula_units_Z 16
_cell_length_a 17.848355
_cell_length_b 14.336375
_cell_length_c 9.356347
_cell_angle_alpha 30.005332
_cell_angle_beta 36.718077
_cell_angle_gamma 40.170289
_cell_volume 695.928793
_symmetry_space_group_name_H-M "P -1"
_symmetry_group_IT_number 2
_symmetry_cell_setting 'triclinic'
loop_
_space_group_symop_operation_xyz
x,y,z
-x,-y,-z
loop_
_atom_site_type_symbol
_atom_site_label
_atom_site_fract_x
_atom_site_fract_y
_atom_site_fract_z
Si Si1 0.858403 0.084312 0.262278
Si Si2 0.691424 0.875722 0.926795
Si Si3 0.897786 0.652044 0.121204
Si Si4 0.234207 0.085468 0.771308
Si Si5 0.666792 0.696682 0.916754
Si Si6 0.834594 0.308442 0.262881
Si Si7 0.392829 0.866991 0.043855
Si Si8 0.098054 0.777007 0.273449
O O1 0.912450 0.162107 0.220093
O O2 0.718984 0.049791 0.558749
O O3 0.842013 0.239070 0.955860
O O4 0.946853 0.877247 0.355653
O O5 0.644111 0.741210 0.062914
O O6 0.588781 0.977618 0.067814
O O7 0.822612 0.767541 0.950222
O O8 0.844036 0.744851 0.231965
O O9 0.877912 0.437401 0.420236
O O10 0.050819 0.645760 0.875193
O O11 0.263458 0.165804 0.465194
O O12 0.369155 0.982924 0.777411
O O13 0.158543 0.918120 0.090597
O O14 0.756613 0.486038 0.052699
O O15 0.525906 0.704471 0.052733
O O16 0.732904 0.219314 0.624983
#
# Coordination Sequence:
#
# PCOD8010480 Si02
#       8
#     2   2   2   2   2   2   2   2
#     4  10  21  38  60  96 129 169 203 264 322 386
#     4  10  23  41  65  94 127 166 215 272 317 383
#     4  11  25  41  65 103 131 165 209 266 338 378
#     4  11  24  43  68  96 130 167 215 273 318 383
#     4  12  23  43  67  93 126 176 221 260 317 380
#     4  11  24  40  66  94 136 165 216 267 317 392
#     4  10  25  44  65  90 129 177 217 263 316 376
#     4  11  22  38  64  95 137 164 209 256 334 389
#
# _framework density 22.990860000000001
#
# number of rings (size 3 to 8) (size 9 to 14) (size 15 to 20)
#    0.000    1.250    2.500    2.625    5.250    3.500 
#    0.000    0.000    0.000    3.000    0.000    0.000 
#    0.000    0.000    0.000    0.000    0.000    0.000 
#
# Total GULP energy -198270.159865 kJ/mol
# GULP energy per Si atom -12391.884992 kJ/mol
# Density = 2.293853 g / cm^3
# Si number density = 22.990860 Si / 1000 Ang^3
#
#
#
# Elastic Constant Matrix: (Units=GPa)
#
#
# Indices 1 2 3 4 5 6 
#
# 1 68.8987 34.4950 24.3178 4.8560 4.6343 -6.8341
# 2 34.4950 76.8105 28.7247 -12.4365 -3.9624 -16.0607
# 3 24.3178 28.7247 78.0104 -14.1088 -0.8920 6.5570
# 4 4.8560 -12.4365 -14.1088 27.1776 3.1102 0.3455
# 5 4.6343 -3.9624 -0.8920 3.1102 31.3198 -2.5458
# 6 -6.8341 -16.0607 6.5570 0.3455 -2.5458 41.3311
#
#
#
# Elastic Compliance Matrix: (Units=1/GPa)
#
#
# Indices 1 2 3 4 5 6 
#
# 1 0.022453 -0.009884 -0.005432 -0.010952 -0.003591 0.000604
# 2 -0.009884 0.022332 -0.004070 0.009328 0.003884 0.007851
# 3 -0.005432 -0.004070 0.018015 0.008586 -0.000493 -0.005440
# 4 -0.010952 0.009328 0.008586 0.047672 -0.001693 -0.000051
# 5 -0.003591 0.003884 -0.000493 -0.001693 0.033354 0.003062
# 6 0.000604 0.007851 -0.005440 -0.000051 0.003062 0.028397
#
#
# Mechanical properties :
#
#
# Convention : Reuss Voigt Hill
#
# Bulk Modulus (GPa) = 41.61929 44.31052 42.96491
# Shear Modulus (GPa) = 22.83020 29.04449 25.93735
#
# Velocity S-wave (km/s) = 3.15463 3.55816 3.36245
# Velocity P-wave (km/s) = 5.60453 6.01628 5.81405
#
# Compressibility (1/GPa) = 0.02402732
#
# Stress axis : x y z
#
# Youngs Moduli (GPa) = 44.53666 44.77790 55.50813
#
# Poissons Ratio (x) = 0.44260 0.30153
# Poissons Ratio (y) = 0.44022 0.22594
# Poissons Ratio (z) = 0.24193 0.18226
#
# Static dielectric constant tensor:
#      x y z
#    x 4.094030 0.133770 0.152070 
#    y 0.133770 4.126790 -0.058350 
#    z 0.152070 -0.058350 3.958550 
# 
# 
# High freq. dielectric constant tensor:
#      x y z
#    x 1.910700 0.008180 0.014450 
#    y 0.008180 1.900430 -0.000770 
#    z 0.014450 -0.000770 1.902080 
# 
# From -- ./inp_files/273477.got.cif
#   From: 2010.06.25/outbox.cif.g09.slc.cpg/sg2_137_cif.got.tgz:273477.got - 2010.06.27 13:26:56.
