data_PCOD8010088
_publ_section_title
;
Structure prediction by ZEFSAII (Michael W. Deem and Ramdas Pophale) SiO2 
 PCOD8010088
Probable space group: P -1
;
_chemical_formula_sum "Si O2"
_cell_formula_units_Z 12
_cell_length_a 10.891036
_cell_length_b 10.830952
_cell_length_c 11.899165
_cell_angle_alpha 128.931786
_cell_angle_beta 129.006038
_cell_angle_gamma 93.128675
_cell_volume 566.379459
_symmetry_space_group_name_H-M "P -1"
_symmetry_group_IT_number 2
_symmetry_cell_setting 'triclinic'
loop_
_space_group_symop_operation_xyz
x,y,z
-x,-y,-z
loop_
_atom_site_type_symbol
_atom_site_label
_atom_site_fract_x
_atom_site_fract_y
_atom_site_fract_z
Si Si1 0.278711 0.234372 0.084881
Si Si2 0.623294 0.784901 0.108985
Si Si3 0.761614 0.963074 0.611698
Si Si4 0.313337 0.509031 0.965248
Si Si5 0.508029 0.739222 0.558222
Si Si6 0.837719 0.237483 0.614851
O O1 0.387582 0.490722 0.300633
O O2 0.331108 0.172924 0.190806
O O3 0.400274 0.234396 0.050322
O O4 0.997101 0.032442 0.790768
O O5 0.766514 0.733914 0.202827
O O6 0.758653 0.044298 0.371039
O O7 0.364907 0.588926 0.909630
O O8 0.678256 0.942814 0.678212
O O9 0.809133 0.161645 0.684567
O O10 0.560010 0.712839 0.289928
O O11 0.114245 0.476124 0.883009
O O12 0.302420 0.706495 0.455196
#
# Coordination Sequence:
#
# PCOD8010088 Si02
#       6
#     2   2   2   2   2   2
#     4  11  24  42  63  84 124 163 199 237 299 361
#     4  10  21  38  63  89 117 159 198 245 295 352
#     4  11  21  40  66  89 117 160 201 245 293 354
#     4  10  21  37  65  93 118 150 203 249 297 347
#     4  11  25  42  58  90 124 161 196 243 297 358
#     4  11  23  38  65  92 121 149 201 255 295 342
#
# _framework density 21.187208999999999
#
# number of rings (size 3 to 8) (size 9 to 14) (size 15 to 20)
#    0.000    1.333    3.333    1.500    4.667    6.000 
#    0.000    0.833    0.000    0.000    0.000    0.000 
#    0.000    0.000    0.000    0.000    0.000    0.000 
#
# Total GULP energy -148802.825218 kJ/mol
# GULP energy per Si atom -12400.235435 kJ/mol
# Density = 2.113899 g / cm^3
# Si number density = 21.187209 Si / 1000 Ang^3
#
#
#
# Elastic Constant Matrix: (Units=GPa)
#
#
# Indices 1 2 3 4 5 6 
#
# 1 132.6003 62.5195 57.7890 -15.8421 11.7480 26.9693
# 2 62.5195 72.1680 46.8193 -17.2157 10.4267 7.7453
# 3 57.7890 46.8193 98.2789 -14.2780 9.8065 12.3411
# 4 -15.8421 -17.2157 -14.2780 19.3027 3.1490 7.9757
# 5 11.7480 10.4267 9.8065 3.1490 34.8412 -5.3698
# 6 26.9693 7.7453 12.3411 7.9757 -5.3698 29.7665
#
#
#
# Elastic Compliance Matrix: (Units=1/GPa)
#
#
# Indices 1 2 3 4 5 6 
#
# 1 0.018866 -0.007901 -0.001405 0.017262 -0.008334 -0.020583
# 2 -0.007901 0.030936 -0.005696 0.020360 -0.007658 -0.005366
# 3 -0.001405 -0.005696 0.016555 0.009884 -0.004542 -0.007576
# 4 0.017262 0.020360 0.009884 0.124050 -0.035886 -0.064747
# 5 -0.008334 -0.007658 -0.004542 -0.035886 0.042757 0.028755
# 6 -0.020583 -0.005366 -0.007576 -0.064747 0.028755 0.079317
#
#
# Mechanical properties :
#
#
# Convention : Reuss Voigt Hill
#
# Bulk Modulus (GPa) = 27.50830 70.81143 49.15986
# Shear Modulus (GPa) = 14.10024 25.84338 19.97181
#
# Velocity S-wave (km/s) = 2.58254 3.49630 3.07357
# Velocity P-wave (km/s) = 4.68021 7.05643 5.98738
#
# Compressibility (1/GPa) = 0.03635267
#
# Stress axis : x y z
#
# Youngs Moduli (GPa) = 53.00421 32.32516 60.40299
#
# Poissons Ratio (x) = 0.25541 0.08489
# Poissons Ratio (y) = 0.41880 0.34404
# Poissons Ratio (z) = 0.07449 0.18411
#
# Static dielectric constant tensor:
#      x y z
#    x 4.024760 0.368150 0.065380 
#    y 0.368150 3.768780 0.048400 
#    z 0.065380 0.048400 3.685910 
# 
# 
# High freq. dielectric constant tensor:
#      x y z
#    x 1.845470 0.020420 0.001330 
#    y 0.020420 1.813160 0.011060 
#    z 0.001330 0.011060 1.819000 
# 
# From -- ./inp_files/25587.got.cif
#   From: 2010.06.25/outbox.cif.g09.slc.cpg/sg2_13_cif.got.tgz:25587.got - 2010.06.27 13:26:56.
