data_PCOD8010593
_publ_section_title
;
Structure prediction by ZEFSAII (Michael W. Deem and Ramdas Pophale) SiO2 
 PCOD8010593
Probable space group: P -1
;
_chemical_formula_sum "Si O2"
_cell_formula_units_Z 14
_cell_length_a 9.559881
_cell_length_b 19.920207
_cell_length_c 19.710558
_cell_angle_alpha 19.667722
_cell_angle_beta 149.782812
_cell_angle_gamma 148.787530
_cell_volume 616.387525
_symmetry_space_group_name_H-M "P -1"
_symmetry_group_IT_number 2
_symmetry_cell_setting 'triclinic'
loop_
_space_group_symop_operation_xyz
x,y,z
-x,-y,-z
loop_
_atom_site_type_symbol
_atom_site_label
_atom_site_fract_x
_atom_site_fract_y
_atom_site_fract_z
Si Si1 0.548945 0.009757 0.091142
Si Si2 0.670400 0.996486 0.374574
Si Si3 0.707088 0.834487 0.047740
Si Si4 0.410452 0.664557 0.887955
Si Si5 0.915951 0.692820 0.984832
Si Si6 0.740313 0.417613 0.641010
Si Si7 0.286181 0.545092 0.671666
O O1 0.429038 0.777877 0.289199
O O2 0.374145 0.158744 0.912993
O O3 0.500000 0.000000 0.000000
O O4 0.887231 0.099820 0.163828
O O5 0.475131 0.767569 0.519921
O O6 0.552000 0.104527 0.159561
O O7 0.659710 0.128475 0.312086
O O8 0.000000 0.000000 0.500000
O O9 0.743176 0.607598 0.260279
O O10 0.000000 0.000000 0.000000
O O11 0.123463 0.497488 0.903215
O O12 0.609000 0.728687 0.843347
O O13 0.563887 0.557195 0.110326
O O14 0.076451 0.651176 0.158433
O O15 0.500000 0.500000 0.500000
O O16 0.970155 0.564258 0.547170
#
# Coordination Sequence:
#
# PCOD8010593 Si02
#       7
#     2   2   2   2   2   2   2
#     4  10  22  39  66  94 125 168 220 265 334 383
#     4  11  27  41  66  99 133 172 226 273 327 394
#     4  11  24  46  70  95 134 176 223 268 336 406
#     4   9  21  43  64  90 131 170 222 262 332 393
#     4   9  20  39  64  90 123 178 212 264 330 395
#     4  10  21  38  61  99 131 163 220 276 327 393
#     4  10  23  44  66  92 134 174 216 277 333 387
#
# _framework density 22.712983999999999
#
# number of rings (size 3 to 8) (size 9 to 14) (size 15 to 20)
#    0.000    2.000    1.429    0.000    8.000    4.000 
#    2.571    2.143    0.000    0.000    0.000    0.000 
#    0.000    0.000    0.000    0.000    0.000    0.000 
#
# Total GULP energy -173478.282152 kJ/mol
# GULP energy per Si atom -12391.305868 kJ/mol
# Density = 2.266129 g / cm^3
# Si number density = 22.712984 Si / 1000 Ang^3
#
#
#
# Elastic Constant Matrix: (Units=GPa)
#
#
# Indices 1 2 3 4 5 6 
#
# 1 149.4088 70.4402 39.2399 -22.1023 38.6196 7.7049
# 2 70.4402 181.6394 41.0065 -37.6177 28.8288 14.0722
# 3 39.2399 41.0065 72.7649 -15.5832 31.5791 8.0584
# 4 -22.1023 -37.6177 -15.5832 42.6569 -6.4737 7.5178
# 5 38.6196 28.8288 31.5791 -6.4737 34.5462 -3.4770
# 6 7.7049 14.0722 8.0584 7.5178 -3.4770 43.6845
#
#
#
# Elastic Compliance Matrix: (Units=1/GPa)
#
#
# Indices 1 2 3 4 5 6 
#
# 1 0.010780 -0.001720 0.001103 0.003287 -0.011312 -0.003017
# 2 -0.001720 0.008557 -0.000253 0.006617 -0.004136 -0.003874
# 3 0.001103 -0.000253 0.026612 0.007785 -0.024728 -0.008330
# 4 0.003287 0.006617 0.007785 0.034071 -0.011024 -0.010888
# 5 -0.011312 -0.004136 -0.024728 -0.011024 0.067105 0.015128
# 6 -0.003017 -0.003874 -0.008330 -0.010888 0.015128 0.029286
#
#
# Mechanical properties :
#
#
# Convention : Reuss Voigt Hill
#
# Bulk Modulus (GPa) = 22.61987 78.35403 50.48695
# Shear Modulus (GPa) = 25.92187 41.05262 33.48724
#
# Velocity S-wave (km/s) = 3.38195 4.25603 3.84391
# Velocity P-wave (km/s) = 5.02302 7.66316 6.47899
#
# Compressibility (1/GPa) = 0.04420892
#
# Stress axis : x y z
#
# Youngs Moduli (GPa) = 92.76582 116.86890 37.57675
#
# Poissons Ratio (x) = 0.20098 -0.04145
# Poissons Ratio (y) = 0.15953 0.00952
# Poissons Ratio (z) = -0.10234 0.02961
#
# Static dielectric constant tensor:
#      x y z
#    x -3.558180 -2.941000 -4.170090 
#    y -2.941000 3.890080 -2.033320 
#    z -4.170090 -2.033320 1.467590 
# 
# 
# High freq. dielectric constant tensor:
#      x y z
#    x 1.907850 0.000930 0.016360 
#    y 0.000930 1.922300 -0.011060 
#    z 0.016360 -0.011060 1.859300 
# 
# From -- ./inp_files/591773.got.cif
#   From: 2010.06.25/outbox.cif.g09.slc.cpg/sg2_296_cif.got.tgz:591773.got - 2010.06.27 13:26:56.
