data_PCOD8010714
_publ_section_title
;
Structure prediction by ZEFSAII (Michael W. Deem and Ramdas Pophale) SiO2 
 PCOD8010714
Probable space group: P -1
;
_chemical_formula_sum "Si O2"
_cell_formula_units_Z 12
_cell_length_a 6.307780
_cell_length_b 14.146632
_cell_length_c 13.939834
_cell_angle_alpha 30.232992
_cell_angle_beta 71.925662
_cell_angle_gamma 58.730349
_cell_volume 506.985469
_symmetry_space_group_name_H-M "P -1"
_symmetry_group_IT_number 2
_symmetry_cell_setting 'triclinic'
loop_
_space_group_symop_operation_xyz
x,y,z
-x,-y,-z
loop_
_atom_site_type_symbol
_atom_site_label
_atom_site_fract_x
_atom_site_fract_y
_atom_site_fract_z
Si Si1 0.803407 0.336441 0.119694
Si Si2 0.636333 0.171948 0.999758
Si Si3 0.920829 0.452812 0.201880
Si Si4 0.908167 0.779985 0.176576
Si Si5 0.135961 0.068456 0.634636
Si Si6 0.782785 0.429642 0.493287
O O1 0.869581 0.342175 0.215390
O O2 0.885317 0.090734 0.296893
O O3 0.500000 0.500000 0.000000
O O4 0.975189 0.391481 0.978878
O O5 0.357809 0.401090 0.830506
O O6 0.882115 0.209974 0.931417
O O7 0.669300 0.022946 0.031752
O O8 0.642425 0.061136 0.200326
O O9 0.155450 0.251791 0.407636
O O10 0.807238 0.632675 0.269224
O O11 0.035322 0.664856 0.358530
O O12 0.860213 0.230118 0.583853
O O13 0.500000 0.500000 0.500000
#
# Coordination Sequence:
#
# PCOD8010714 Si02
#       6
#     2   2   2   2   2   2
#     4  11  25  48  67  98 133 169 227 280 330 395
#     4  10  21  44  67  97 135 179 219 271 335 386
#     4  11  25  45  69  97 132 174 221 276 338 391
#     4   9  21  40  62  95 141 170 216 278 314 394
#     4  11  24  42  69  99 129 177 220 271 334 390
#     4  10  21  38  63 100 131 178 221 259 335 393
#
# _framework density 23.669318000000001
#
# number of rings (size 3 to 8) (size 9 to 14) (size 15 to 20)
#    0.000    1.667    1.667    1.500    4.667    0.667 
#    6.000    3.333    0.000    0.000    0.000    0.000 
#    0.000    0.000    0.000    0.000    0.000    0.000 
#
# Total GULP energy -148669.250958 kJ/mol
# GULP energy per Si atom -12389.104246 kJ/mol
# Density = 2.361545 g / cm^3
# Si number density = 23.669318 Si / 1000 Ang^3
#
#
#
# Elastic Constant Matrix: (Units=GPa)
#
#
# Indices 1 2 3 4 5 6 
#
# 1 50.4818 40.5554 25.4137 -19.6905 -14.7287 -9.6165
# 2 40.5554 122.2619 38.4838 -28.3918 -16.0559 -5.9780
# 3 25.4137 38.4838 118.3655 -19.2836 4.0362 0.6067
# 4 -19.6905 -28.3918 -19.2836 45.4106 11.8255 -1.5191
# 5 -14.7287 -16.0559 4.0362 11.8255 32.0508 6.0770
# 6 -9.6165 -5.9780 0.6067 -1.5191 6.0770 24.5369
#
#
#
# Elastic Compliance Matrix: (Units=1/GPa)
#
#
# Indices 1 2 3 4 5 6 
#
# 1 0.034773 -0.006882 -0.004429 0.007020 0.008531 0.010383
# 2 -0.006882 0.012097 -0.001997 0.003221 0.001957 0.000014
# 3 -0.004429 -0.001997 0.010665 0.002671 -0.005167 -0.001041
# 4 0.007020 0.003221 0.002671 0.030592 -0.008185 0.007391
# 5 0.008531 0.001957 -0.005167 -0.008185 0.041047 -0.006725
# 6 0.010383 0.000014 -0.001041 0.007391 -0.006725 0.046976
#
#
# Mechanical properties :
#
#
# Convention : Reuss Voigt Hill
#
# Bulk Modulus (GPa) = 32.34371 55.55724 43.95047
# Shear Modulus (GPa) = 23.46620 32.84341 28.15480
#
# Velocity S-wave (km/s) = 3.15210 3.72908 3.45266
# Velocity P-wave (km/s) = 5.19058 6.48573 5.87396
#
# Compressibility (1/GPa) = 0.03091791
#
# Stress axis : x y z
#
# Youngs Moduli (GPa) = 28.75833 82.66827 93.76257
#
# Poissons Ratio (x) = 0.56894 0.41525
# Poissons Ratio (y) = 0.19792 0.18727
# Poissons Ratio (z) = 0.12736 0.16511
#
# Static dielectric constant tensor:
#      x y z
#    x 3.980150 0.363650 -0.071580 
#    y 0.363650 4.669050 -0.157920 
#    z -0.071580 -0.157920 4.697060 
# 
# 
# High freq. dielectric constant tensor:
#      x y z
#    x 1.908760 0.015730 0.011350 
#    y 0.015730 1.953750 -0.005260 
#    z 0.011350 -0.005260 1.956490 
# 
# From -- ./inp_files/97238.got.cif
#   From: 2010.06.25/outbox.cif.g09.slc.cpg/sg2_49_cif.got.tgz:97238.got - 2010.06.27 13:26:56.
