data_PCOD8010443
_publ_section_title
;
Structure prediction by ZEFSAII (Michael W. Deem and Ramdas Pophale) SiO2 
 PCOD8010443
Probable space group: P -1
;
_chemical_formula_sum "Si O2"
_cell_formula_units_Z 16
_cell_length_a 8.240502
_cell_length_b 23.172791
_cell_length_c 8.257379
_cell_angle_alpha 32.084900
_cell_angle_beta 52.907602
_cell_angle_gamma 57.827403
_cell_volume 667.225986
_symmetry_space_group_name_H-M "P -1"
_symmetry_group_IT_number 2
_symmetry_cell_setting 'triclinic'
loop_
_space_group_symop_operation_xyz
x,y,z
-x,-y,-z
loop_
_atom_site_type_symbol
_atom_site_label
_atom_site_fract_x
_atom_site_fract_y
_atom_site_fract_z
Si Si1 0.636759 0.885719 0.817619
Si Si2 0.212253 0.309432 0.635124
Si Si3 0.577419 0.285721 0.244625
Si Si4 0.133751 0.558080 0.649549
Si Si5 0.739560 0.087918 0.815278
Si Si6 0.919022 0.063770 0.097315
Si Si7 0.349947 0.756999 0.060682
Si Si8 0.232315 0.488679 0.432786
O O1 0.745260 0.976811 0.436951
O O2 0.808200 0.807228 0.988430
O O3 0.483007 0.940761 0.915140
O O4 0.504754 0.811667 0.956926
O O5 0.350866 0.292414 0.434560
O O6 0.322684 0.386191 0.518518
O O7 0.995013 0.359835 0.588211
O O8 0.723847 0.197456 0.459471
O O9 0.555404 0.251813 0.152809
O O10 0.659917 0.403871 0.940215
O O11 0.297821 0.635725 0.447127
O O12 0.246489 0.471458 0.663110
O O13 0.000000 0.500000 0.000000
O O14 0.898227 0.105360 0.825195
O O15 0.851589 0.987639 0.883537
O O16 0.863405 0.167795 0.996692
O O17 0.000000 0.500000 0.500000
#
# Coordination Sequence:
#
# PCOD8010443 Si02
#       8
#     2   2   2   2   2   2   2   2
#     4  10  22  42  63  89 127 162 215 253 296 381
#     4  10  22  41  60  91 115 168 204 246 310 374
#     4  10  21  38  60  89 127 150 208 263 303 366
#     4  10  23  42  61  92 129 153 204 258 310 368
#     4   9  20  38  59  90 118 164 209 249 300 371
#     4  10  21  40  64  86 127 168 211 248 308 370
#     4  10  22  41  60  92 125 161 199 260 314 352
#     4   9  20  36  61  84 116 162 200 243 306 370
#
# _framework density 23.979880999999999
#
# number of rings (size 3 to 8) (size 9 to 14) (size 15 to 20)
#    0.000    2.250    0.000    1.875    5.250    8.500 
#   11.250    5.625    0.000    0.000    0.000    0.000 
#    0.000    0.000    0.000    0.000    0.000    0.000 
#
# Total GULP energy -198271.322490 kJ/mol
# GULP energy per Si atom -12391.957656 kJ/mol
# Density = 2.392530 g / cm^3
# Si number density = 23.979881 Si / 1000 Ang^3
#
#
#
# Elastic Constant Matrix: (Units=GPa)
#
#
# Indices 1 2 3 4 5 6 
#
# 1 27.6942 -5.6250 -0.6181 2.8491 2.1266 -4.4470
# 2 -5.6250 116.6391 9.9009 10.1081 -0.2017 6.5799
# 3 -0.6181 9.9009 88.6661 14.2544 10.0691 22.5501
# 4 2.8491 10.1081 14.2544 27.8017 0.2922 2.3483
# 5 2.1266 -0.2017 10.0691 0.2922 30.7344 -6.6443
# 6 -4.4470 6.5799 22.5501 2.3483 -6.6443 26.2152
#
#
#
# Elastic Compliance Matrix: (Units=1/GPa)
#
#
# Indices 1 2 3 4 5 6 
#
# 1 0.038148 0.001931 -0.000865 -0.004747 -0.000795 0.006954
# 2 0.001931 0.009054 0.000052 -0.003359 -0.000449 -0.001803
# 3 -0.000865 0.000052 0.017980 -0.007583 -0.009511 -0.017357
# 4 -0.004747 -0.003359 -0.007583 0.041221 0.003194 0.003678
# 5 -0.000795 -0.000449 -0.009511 0.003194 0.039543 0.017895
# 6 0.006954 -0.001803 -0.017357 0.003678 0.017895 0.058915
#
#
# Mechanical properties :
#
#
# Convention : Reuss Voigt Hill
#
# Bulk Modulus (GPa) = 14.83295 26.70164 20.76730
# Shear Modulus (GPa) = 22.21269 32.23970 27.22619
#
# Velocity S-wave (km/s) = 3.04683 3.67065 3.37319
# Velocity P-wave (km/s) = 4.31005 5.39667 4.88368
#
# Compressibility (1/GPa) = 0.06741749
#
# Stress axis : x y z
#
# Youngs Moduli (GPa) = 26.21402 110.44588 55.61757
#
# Poissons Ratio (x) = -0.21325 0.04810
# Poissons Ratio (y) = -0.05061 -0.00289
# Poissons Ratio (z) = 0.02267 -0.00574
#
# Static dielectric constant tensor:
#      x y z
#    x 4.006100 -0.064930 0.226260 
#    y -0.064930 5.263190 -0.166730 
#    z 0.226260 -0.166730 3.924270 
# 
# 
# High freq. dielectric constant tensor:
#      x y z
#    x 1.931840 -0.007490 0.010870 
#    y -0.007490 1.974750 0.001560 
#    z 0.010870 0.001560 1.941850 
# 
# From -- ./inp_files/225819.got.cif
#   From: 2010.06.25/outbox.cif.g09.slc.cpg/sg2_113_cif.got.tgz:225819.got - 2010.06.27 13:26:56.
