data_PCOD8010246
_publ_section_title
;
Structure prediction by ZEFSAII (Michael W. Deem and Ramdas Pophale) SiO2 
 PCOD8010246
Probable space group: P -1
;
_chemical_formula_sum "Si O2"
_cell_formula_units_Z 16
_cell_length_a 5.088415
_cell_length_b 12.016608
_cell_length_c 27.097643
_cell_angle_alpha 29.928819
_cell_angle_beta 110.115865
_cell_angle_gamma 112.193995
_cell_volume 764.927138
_symmetry_space_group_name_H-M "P -1"
_symmetry_group_IT_number 2
_symmetry_cell_setting 'triclinic'
loop_
_space_group_symop_operation_xyz
x,y,z
-x,-y,-z
loop_
_atom_site_type_symbol
_atom_site_label
_atom_site_fract_x
_atom_site_fract_y
_atom_site_fract_z
Si Si1 0.706635 0.442597 0.140518
Si Si2 0.341313 0.895281 0.479851
Si Si3 0.251055 0.960590 0.640461
Si Si4 0.186067 0.363332 0.656690
Si Si5 0.540816 0.287811 0.615258
Si Si6 0.786431 0.955625 0.127190
Si Si7 0.223153 0.038555 0.041313
Si Si8 0.142202 0.524269 0.051457
O O1 0.387098 0.366409 0.128161
O O2 0.934759 0.425797 0.119829
O O3 0.776073 0.305027 0.246436
O O4 0.683615 0.694107 0.058078
O O5 0.539571 0.970356 0.417545
O O6 0.264026 0.622740 0.580669
O O7 0.051560 0.988796 0.415897
O O8 0.500000 0.000000 0.500000
O O9 0.376693 0.074577 0.656179
O O10 0.412471 0.303457 0.655087
O O11 0.877088 0.296134 0.638160
O O12 0.203058 0.207596 0.764124
O O13 0.500000 0.500000 0.500000
O O14 0.477948 0.893601 0.103689
O O15 0.065799 0.947452 0.116729
O O16 0.756414 0.207794 0.043530
O O17 0.000000 0.000000 0.000000
O O18 0.000000 0.500000 0.000000
#
# Coordination Sequence:
#
# PCOD8010246 Si02
#       8
#     2   2   2   2   2   2   2   2
#     4  10  23  38  59  89 118 154 201 243 291 357
#     4  12  26  44  64  91 127 163 206 261 309 367
#     4  12  25  42  65  95 124 164 211 249 315 370
#     4  12  24  42  63  95 127 163 208 252 315 369
#     4  12  23  41  67  88 128 167 203 260 303 369
#     4  10  23  37  60  91 118 156 204 244 298 362
#     4  10  21  41  62  85 120 161 205 252 294 350
#     4  10  21  38  56  86 124 155 189 239 296 353
#
# _framework density 20.917027000000001
#
# number of rings (size 3 to 8) (size 9 to 14) (size 15 to 20)
#    0.000    1.000    2.500    3.750    3.500    2.000 
#    0.000    0.000    0.000    0.000    0.000    0.000 
#    0.000    0.000    0.000    0.000    0.000    0.000 
#
# Total GULP energy -198271.264747 kJ/mol
# GULP energy per Si atom -12391.954047 kJ/mol
# Density = 2.086942 g / cm^3
# Si number density = 20.917027 Si / 1000 Ang^3
#
#
#
# Elastic Constant Matrix: (Units=GPa)
#
#
# Indices 1 2 3 4 5 6 
#
# 1 -26.7006 64.6378 215.2819 -93.1559 98.0027 74.4695
# 2 64.6378 80.7582 -14.9141 37.2024 -12.6233 -0.9390
# 3 215.2819 -14.9141 -4.8486 95.3939 -91.2562 -51.5084
# 4 -93.1559 37.2024 95.3939 -33.2719 55.5569 38.0545
# 5 98.0027 -12.6233 -91.2562 55.5569 3.5255 -18.0784
# 6 74.4695 -0.9390 -51.5084 38.0545 -18.0784 10.2397
#
#
#
# Elastic Compliance Matrix: (Units=1/GPa)
#
#
# Indices 1 2 3 4 5 6 
#
# 1 0.005043 0.000366 0.000106 -0.008644 0.002526 0.000476
# 2 0.000366 0.012905 -0.002715 -0.003697 -0.002093 -0.005091
# 3 0.000106 -0.002715 0.005566 0.007486 -0.001132 -0.002841
# 4 -0.008644 -0.003697 0.007486 0.028233 0.006014 0.005872
# 5 0.002526 -0.002093 -0.001132 0.006014 0.019511 -0.012160
# 6 0.000476 -0.005091 -0.002841 0.005872 -0.012160 0.036150
#
#
# Mechanical properties :
#
#
# Convention : Reuss Voigt Hill
#
# Bulk Modulus (GPa) = 52.56024 64.35780 58.45902
# Shear Modulus (GPa) = 42.28810 -18.28779 12.00016
#
# Velocity S-wave (km/s) = 4.50122 -2.96007 2.39781
# Velocity P-wave (km/s) = 7.22476 4.37633 5.97283
#
# Compressibility (1/GPa) = 0.01902579
#
# Stress axis : x y z
#
# Youngs Moduli (GPa) = 198.31087 77.48861 179.67590
#
# Poissons Ratio (x) = -0.02834 -0.01900
# Poissons Ratio (y) = -0.07254 0.48787
# Poissons Ratio (z) = -0.02097 0.21040
#
# Static dielectric constant tensor:
#      x y z
#    x 2.917010 -0.675350 -0.067780 
#    y -0.675350 4.110790 0.537290 
#    z -0.067780 0.537290 4.120540 
# 
# 
# High freq. dielectric constant tensor:
#      x y z
#    x 1.844370 0.013630 0.002030 
#    y 0.013630 1.809310 0.007140 
#    z 0.002030 0.007140 1.835620 
# 
# From -- ./inp_files/604436.got.cif
#   From: 2010.06.25/outbox.cif.g09.slc.cpg/sg2_303_cif.got.tgz:604436.got - 2010.06.27 13:26:56.
