data_PCOD8010509
_publ_section_title
;
Structure prediction by ZEFSAII (Michael W. Deem and Ramdas Pophale) SiO2 
 PCOD8010509
Probable space group: P -1
;
_chemical_formula_sum "Si O2"
_cell_formula_units_Z 16
_cell_length_a 12.023068
_cell_length_b 16.510008
_cell_length_c 8.782085
_cell_angle_alpha 57.864625
_cell_angle_beta 89.999819
_cell_angle_gamma 136.430801
_cell_volume 764.044343
_symmetry_space_group_name_H-M "P -1"
_symmetry_group_IT_number 2
_symmetry_cell_setting 'triclinic'
loop_
_space_group_symop_operation_xyz
x,y,z
-x,-y,-z
loop_
_atom_site_type_symbol
_atom_site_label
_atom_site_fract_x
_atom_site_fract_y
_atom_site_fract_z
Si Si1 0.590012 0.462518 0.714767
Si Si2 0.416054 0.158286 0.163632
Si Si3 0.964733 0.262468 0.059053
Si Si4 0.583950 0.841715 0.480203
Si Si5 0.590008 0.462517 0.360196
Si Si6 0.303637 0.782874 0.045598
Si Si7 0.696360 0.217125 0.611348
Si Si8 0.035271 0.737533 0.583987
O O1 0.641918 0.489209 0.510789
O O2 0.500002 0.500000 0.716643
O O3 0.803718 0.603548 0.670371
O O4 0.410917 0.254190 0.975974
O O5 0.425232 0.186370 0.313630
O O6 0.204732 0.944334 0.330131
O O7 0.633304 0.261741 0.012509
O O8 0.954625 0.274601 0.225400
O O9 0.196288 0.396455 0.877470
O O10 0.795275 0.055668 0.218798
O O11 0.907255 0.319932 0.917853
O O12 0.589088 0.745812 0.484354
O O13 0.366701 0.738260 0.535987
O O14 0.255389 0.712998 0.287002
O O15 0.499997 0.999999 0.823150
O O16 0.907251 0.319932 0.442281
#
# Coordination Sequence:
#
# PCOD8010509 Si02
#       8
#     2   2   2   2   2   2   2   2
#     4  11  25  42  59  82 113 151 197 243 284 335
#     4  10  21  38  61  88 118 151 188 234 287 341
#     4  10  21  38  61  88 118 151 188 234 287 341
#     4  10  21  38  61  88 118 151 188 234 287 341
#     4  11  25  42  59  82 113 151 197 243 284 335
#     4   9  17  32  57  88 120 151 185 228 281 342
#     4   9  17  32  57  88 120 151 185 228 281 342
#     4  10  21  38  61  88 118 151 188 234 287 341
#
# _framework density 20.941192999999998
#
# number of rings (size 3 to 8) (size 9 to 14) (size 15 to 20)
#    0.000    2.000    0.000    3.000    0.000   10.000 
#    0.000   10.000    0.000    0.000    0.000    0.000 
#    0.000    0.000    0.000    0.000    0.000    0.000 
#
# Total GULP energy -198469.188034 kJ/mol
# GULP energy per Si atom -12404.324252 kJ/mol
# Density = 2.089353 g / cm^3
# Si number density = 20.941193 Si / 1000 Ang^3
#
#
#
# Elastic Constant Matrix: (Units=GPa)
#
#
# Indices 1 2 3 4 5 6 
#
# 1 78.8954 7.3717 5.4021 6.5308 9.3602 -7.6092
# 2 7.3717 48.8985 -8.6710 4.2271 2.1601 -3.1719
# 3 5.4021 -8.6710 44.5964 9.2008 4.2876 1.3890
# 4 6.5308 4.2271 9.2008 20.8087 4.6857 -1.3435
# 5 9.3602 2.1601 4.2876 4.6857 34.0384 -0.0910
# 6 -7.6092 -3.1719 1.3890 -1.3435 -0.0910 33.6999
#
#
#
# Elastic Compliance Matrix: (Units=1/GPa)
#
#
# Indices 1 2 3 4 5 6 
#
# 1 0.013789 -0.001762 -0.001282 -0.002503 -0.003166 0.002892
# 2 -0.001762 0.022432 0.005928 -0.006365 -0.000806 0.001213
# 3 -0.001282 0.005928 0.026451 -0.012204 -0.001679 -0.001313
# 4 -0.002503 -0.006365 -0.012204 0.056802 -0.005186 0.001589
# 5 -0.003166 -0.000806 -0.001679 -0.005186 0.031223 -0.000844
# 6 0.002892 0.001213 -0.001313 0.001589 -0.000844 0.030556
#
#
# Mechanical properties :
#
#
# Convention : Reuss Voigt Hill
#
# Bulk Modulus (GPa) = 14.61149 20.06620 17.33885
# Shear Modulus (GPa) = 25.21424 28.92858 27.07141
#
# Velocity S-wave (km/s) = 3.47371 3.72078 3.59936
# Velocity P-wave (km/s) = 4.80431 5.29735 5.05684
#
# Compressibility (1/GPa) = 0.06843928
#
# Stress axis : x y z
#
# Youngs Moduli (GPa) = 72.52021 44.57937 37.80508
#
# Poissons Ratio (x) = 0.07856 0.04847
# Poissons Ratio (y) = 0.12780 -0.22410
# Poissons Ratio (z) = 0.09299 -0.26426
#
# Static dielectric constant tensor:
#      x y z
#    x 3.807890 -0.111150 0.137800 
#    y -0.111150 3.807110 0.013810 
#    z 0.137800 0.013810 3.832680 
# 
# 
# High freq. dielectric constant tensor:
#      x y z
#    x 1.815150 -0.006140 0.005640 
#    y -0.006140 1.826550 0.003850 
#    z 0.005640 0.003850 1.826200 
# 
# From -- ./inp_files/257809.got.cif
#   From: 2010.06.25/outbox.cif.g09.slc.cpg/sg2_129_cif.got.tgz:257809.got - 2010.06.27 13:26:56.
