data_PCOD8010440
_publ_section_title
;
Structure prediction by ZEFSAII (Michael W. Deem and Ramdas Pophale) SiO2 
 PCOD8010440
Probable space group: P -1
;
_chemical_formula_sum "Si O2"
_cell_formula_units_Z 14
_cell_length_a 22.866773
_cell_length_b 14.664865
_cell_length_c 10.914834
_cell_angle_alpha 140.152815
_cell_angle_beta 33.743434
_cell_angle_gamma 160.931809
_cell_volume 660.877954
_symmetry_space_group_name_H-M "P -1"
_symmetry_group_IT_number 2
_symmetry_cell_setting 'triclinic'
loop_
_space_group_symop_operation_xyz
x,y,z
-x,-y,-z
loop_
_atom_site_type_symbol
_atom_site_label
_atom_site_fract_x
_atom_site_fract_y
_atom_site_fract_z
Si Si1 0.065910 0.341911 0.766473
Si Si2 0.841929 0.255832 0.877360
Si Si3 0.826327 0.452834 0.572457
Si Si4 0.230341 0.091534 0.961606
Si Si5 0.576813 0.190647 0.956342
Si Si6 0.020910 0.186849 0.122332
Si Si7 0.361838 0.549393 0.285686
O O1 0.215845 0.400664 0.504599
O O2 0.889189 0.184212 0.815424
O O3 0.190241 0.628873 0.884371
O O4 0.968005 0.150208 0.854901
O O5 0.034617 0.497816 0.694255
O O6 0.625739 0.958219 0.886474
O O7 0.996588 0.750839 0.653149
O O8 0.674277 0.363023 0.654312
O O9 0.675764 0.212193 0.692428
O O10 0.318094 0.353037 0.087405
O O11 0.402632 0.177140 0.791534
O O12 0.159147 0.977972 0.829130
O O13 0.752668 0.509931 0.020092
O O14 0.500000 0.000000 0.000000
O O15 0.000000 0.000000 0.000000
#
# Coordination Sequence:
#
# PCOD8010440 Si02
#       7
#     2   2   2   2   2   2   2
#     4  10  22  37  61  89 119 158 209 254 296 365
#     4  10  21  41  59  87 124 164 203 250 310 360
#     4   9  21  40  63  87 123 163 197 253 307 363
#     4  11  20  38  61  90 118 158 200 260 302 360
#     4  10  21  38  60  89 125 159 204 250 300 370
#     4  10  21  41  63  88 127 160 202 248 311 368
#     4  10  21  38  64  87 120 158 206 251 308 357
#
# _framework density 21.183941000000001
#
# number of rings (size 3 to 8) (size 9 to 14) (size 15 to 20)
#    0.857    1.143    1.429    2.143    0.000    1.714 
#    5.143    5.000    0.000    0.000    0.000    0.000 
#    0.000    0.000    0.000    0.000    0.000    0.000 
#
# Total GULP energy -173488.259903 kJ/mol
# GULP energy per Si atom -12392.018565 kJ/mol
# Density = 2.113573 g / cm^3
# Si number density = 21.183941 Si / 1000 Ang^3
#
#
#
# Elastic Constant Matrix: (Units=GPa)
#
#
# Indices 1 2 3 4 5 6 
#
# 1 113.3264 41.8526 29.8759 -8.9864 8.0976 26.0070
# 2 41.8526 82.8631 11.7234 -11.9599 -11.2875 11.5435
# 3 29.8759 11.7234 72.4504 -5.0369 -1.7982 17.0563
# 4 -8.9864 -11.9599 -5.0369 20.7368 0.1469 0.2895
# 5 8.0976 -11.2875 -1.7982 0.1469 23.0156 -11.8990
# 6 26.0070 11.5435 17.0563 0.2895 -11.8990 42.2919
#
#
#
# Elastic Compliance Matrix: (Units=1/GPa)
#
#
# Indices 1 2 3 4 5 6 
#
# 1 0.016534 -0.008243 -0.003123 0.001920 -0.015874 -0.011137
# 2 -0.008243 0.018581 0.000354 0.007080 0.013919 0.003722
# 3 -0.003123 0.000354 0.016360 0.002891 0.000062 -0.004776
# 4 0.001920 0.007080 0.002891 0.053902 0.000322 -0.004558
# 5 -0.015874 0.013919 0.000062 0.000322 0.068962 0.025338
# 6 -0.011137 0.003722 -0.004776 -0.004558 0.025338 0.038564
#
#
# Mechanical properties :
#
#
# Convention : Reuss Voigt Hill
#
# Bulk Modulus (GPa) = 33.95448 48.39374 41.17411
# Shear Modulus (GPa) = 20.42952 29.55473 24.99212
#
# Velocity S-wave (km/s) = 3.10883 3.73922 3.43850
# Velocity P-wave (km/s) = 5.38048 6.44488 5.93659
#
# Compressibility (1/GPa) = 0.02945120
#
# Stress axis : x y z
#
# Youngs Moduli (GPa) = 60.48215 53.81950 61.12476
#
# Poissons Ratio (x) = 0.44362 0.19087
# Poissons Ratio (y) = 0.49854 -0.02162
# Poissons Ratio (z) = 0.18886 -0.01904
#
# Static dielectric constant tensor:
#      x y z
#    x 4.399480 0.492030 -0.035260 
#    y 0.492030 3.748940 -0.207050 
#    z -0.035260 -0.207050 3.796110 
# 
# 
# High freq. dielectric constant tensor:
#      x y z
#    x 1.841950 0.012610 0.007300 
#    y 0.012610 1.816580 -0.010980 
#    z 0.007300 -0.010980 1.813740 
# 
# From -- ./inp_files/475177.got.cif
#   From: 2010.06.25/outbox.cif.g09.slc.cpg/sg2_238_cif.got.tgz:475177.got - 2010.06.27 13:26:56.
