data_PCOD8010644
_publ_section_title
;
Structure prediction by ZEFSAII (Michael W. Deem and Ramdas Pophale) SiO2 
 PCOD8010644
Probable space group: P -1
;
_chemical_formula_sum "Si O2"
_cell_formula_units_Z 16
_cell_length_a 8.574684
_cell_length_b 12.874934
_cell_length_c 14.866614
_cell_angle_alpha 152.471001
_cell_angle_beta 108.251623
_cell_angle_gamma 77.562907
_cell_volume 713.110425
_symmetry_space_group_name_H-M "P -1"
_symmetry_group_IT_number 2
_symmetry_cell_setting 'triclinic'
loop_
_space_group_symop_operation_xyz
x,y,z
-x,-y,-z
loop_
_atom_site_type_symbol
_atom_site_label
_atom_site_fract_x
_atom_site_fract_y
_atom_site_fract_z
Si Si1 0.120996 0.140722 0.702194
Si Si2 0.723188 0.449434 0.063837
Si Si3 0.701521 0.440261 0.396019
Si Si4 0.045405 0.909743 0.179157
Si Si5 0.529170 0.960846 0.283826
Si Si6 0.123955 0.938004 0.898421
Si Si7 0.676701 0.699337 0.425665
Si Si8 0.589987 0.850840 0.775249
O O1 0.195006 0.396672 0.884360
O O2 0.272696 0.002442 0.644875
O O3 0.025046 0.172161 0.800319
O O4 0.000000 0.000000 0.500000
O O5 0.700364 0.625824 0.272829
O O6 0.846393 0.274063 0.980979
O O7 0.547005 0.293296 0.890252
O O8 0.631703 0.480629 0.314122
O O9 0.722399 0.688829 0.638058
O O10 0.572672 0.284352 0.315002
O O11 0.873379 0.329052 0.332048
O O12 0.902352 0.924832 0.091631
O O13 0.153918 0.155586 0.396284
O O14 0.470831 0.147382 0.483076
O O15 0.466789 0.997143 0.199038
O O16 0.312904 0.998985 0.014238
O O17 0.000000 0.000000 0.000000
#
# Coordination Sequence:
#
# PCOD8010644 Si02
#       8
#     2   2   2   2   2   2   2   2
#     4  12  25  48  69  98 131 171 220 286 336 378
#     4  11  23  46  69  93 132 176 222 268 335 390
#     4  10  21  38  62  90 131 173 217 260 314 389
#     4  11  25  43  65  98 138 172 218 275 325 393
#     4  10  23  44  70  96 132 172 226 269 324 400
#     4  12  23  38  65  98 134 172 211 265 327 389
#     4  10  21  42  66  95 132 177 219 264 324 399
#     4  10  22  42  63  95 133 172 220 264 318 394
#
# _framework density 22.436919
#
# number of rings (size 3 to 8) (size 9 to 14) (size 15 to 20)
#    0.000    1.250    1.250    5.625    0.000    4.500 
#   11.250    0.000    0.000    0.000    0.000    0.000 
#    0.000    0.000    0.000    0.000    0.000    0.000 
#
# Total GULP energy -198348.071789 kJ/mol
# GULP energy per Si atom -12396.754487 kJ/mol
# Density = 2.238585 g / cm^3
# Si number density = 22.436919 Si / 1000 Ang^3
#
#
#
# Elastic Constant Matrix: (Units=GPa)
#
#
# Indices 1 2 3 4 5 6 
#
# 1 84.8149 29.9339 33.6729 -3.8573 -9.0949 -1.1712
# 2 29.9339 90.4148 32.2969 -9.2724 2.8964 6.9671
# 3 33.6729 32.2969 76.7145 -1.1603 -13.6576 -4.2612
# 4 -3.8573 -9.2724 -1.1603 33.7410 2.3796 3.9389
# 5 -9.0949 2.8964 -13.6576 2.3796 39.5118 1.0704
# 6 -1.1712 6.9671 -4.2612 3.9389 1.0704 48.4692
#
#
#
# Elastic Compliance Matrix: (Units=1/GPa)
#
#
# Indices 1 2 3 4 5 6 
#
# 1 0.015132 -0.003314 -0.004864 0.000472 0.002007 0.000332
# 2 -0.003314 0.014962 -0.005656 0.004167 -0.003985 -0.002979
# 3 -0.004864 -0.005656 0.018688 -0.002157 0.005820 0.002385
# 4 0.000472 0.004167 -0.002157 0.031337 -0.002741 -0.003263
# 5 0.002007 -0.003985 0.005820 -0.002741 0.028220 0.000733
# 6 0.000332 -0.002979 0.002385 -0.003263 0.000733 0.021527
#
#
# Mechanical properties :
#
#
# Convention : Reuss Voigt Hill
#
# Bulk Modulus (GPa) = 47.36290 49.30572 48.33431
# Shear Modulus (GPa) = 30.38170 34.74711 32.56441
#
# Velocity S-wave (km/s) = 3.68379 3.93957 3.81383
# Velocity P-wave (km/s) = 6.26490 6.53579 6.40178
#
# Compressibility (1/GPa) = 0.02111357
#
# Stress axis : x y z
#
# Youngs Moduli (GPa) = 66.08340 66.83420 53.51099
#
# Poissons Ratio (x) = 0.22148 0.26028
# Poissons Ratio (y) = 0.21900 0.30268
# Poissons Ratio (z) = 0.32143 0.37805
#
# Static dielectric constant tensor:
#      x y z
#    x 4.126070 0.112320 -0.187830 
#    y 0.112320 3.967890 0.088300 
#    z -0.187830 0.088300 4.138080 
# 
# 
# High freq. dielectric constant tensor:
#      x y z
#    x 1.890080 0.010800 -0.017900 
#    y 0.010800 1.886450 0.010850 
#    z -0.017900 0.010850 1.886080 
# 
# From -- ./inp_files/501257.got.cif
#   From: 2010.06.25/outbox.cif.g09.slc.cpg/sg2_251_cif.got.tgz:501257.got - 2010.06.27 13:26:56.
