data_PCOD8010522
_publ_section_title
;
Structure prediction by ZEFSAII (Michael W. Deem and Ramdas Pophale) SiO2 
 PCOD8010522
Probable space group: P -1
;
_chemical_formula_sum "Si O2"
_cell_formula_units_Z 16
_cell_length_a 9.626237
_cell_length_b 16.927334
_cell_length_c 9.566415
_cell_angle_alpha 62.103243
_cell_angle_beta 136.286915
_cell_angle_gamma 135.105868
_cell_volume 757.173332
_symmetry_space_group_name_H-M "P -1"
_symmetry_group_IT_number 2
_symmetry_cell_setting 'triclinic'
loop_
_space_group_symop_operation_xyz
x,y,z
-x,-y,-z
loop_
_atom_site_type_symbol
_atom_site_label
_atom_site_fract_x
_atom_site_fract_y
_atom_site_fract_z
Si Si1 0.246455 0.244333 0.408611
Si Si2 0.927287 0.160879 0.506696
Si Si3 0.099647 0.123553 0.948346
Si Si4 0.067047 0.783164 0.055103
Si Si5 0.605258 0.907798 0.421001
Si Si6 0.787361 0.560252 0.194273
Si Si7 0.388653 0.772852 0.641896
Si Si8 0.231053 0.576334 0.477100
O O1 0.218025 0.129841 0.456475
O O2 0.541451 0.353457 0.525127
O O3 0.148449 0.244503 0.489174
O O4 0.088907 0.258973 0.167450
O O5 0.799903 0.220711 0.403876
O O6 0.049495 0.147090 0.739450
O O7 0.743080 0.040226 0.393801
O O8 0.935469 0.121825 0.954550
O O9 0.399207 0.214007 0.116343
O O10 0.000000 0.000000 0.000000
O O11 0.359150 0.834816 0.199967
O O12 0.935940 0.691059 0.161796
O O13 0.517100 0.878166 0.542119
O O14 0.780918 0.526153 0.380444
O O15 0.952353 0.529019 0.251882
O O16 0.500000 0.500000 0.000000
O O17 0.264633 0.658331 0.559929
#
# Coordination Sequence:
#
# PCOD8010522 Si02
#       8
#     2   2   2   2   2   2   2   2
#     4  11  23  39  55  89 127 152 192 245 293 350
#     4  12  24  36  59  88 125 162 191 236 299 341
#     4  12  21  35  60  86 116 160 202 237 280 345
#     4  12  21  37  64  87 116 155 201 241 291 347
#     4  11  21  38  59  85 121 159 201 241 276 347
#     4  11  19  34  65  91 105 145 204 250 288 339
#     4  11  20  38  58  86 118 152 202 246 277 347
#     4  10  21  38  61  89 114 147 195 254 290 339
#
# _framework density 21.131226000000002
#
# number of rings (size 3 to 8) (size 9 to 14) (size 15 to 20)
#    0.000    0.750    8.750    1.500    0.000    1.500 
#    0.000    0.000    0.000    7.500    0.000    0.000 
#    0.000    0.000    0.000    0.000    0.000    0.000 
#
# Total GULP energy -198216.378249 kJ/mol
# GULP energy per Si atom -12388.523641 kJ/mol
# Density = 2.108313 g / cm^3
# Si number density = 21.131226 Si / 1000 Ang^3
#
#
#
# Elastic Constant Matrix: (Units=GPa)
#
#
# Indices 1 2 3 4 5 6 
#
# 1 115.3614 6.3290 34.0511 -3.2688 3.7676 18.0616
# 2 6.3290 38.5860 8.3773 -5.3908 2.4518 10.1613
# 3 34.0511 8.3773 120.6531 0.1756 25.0732 10.8376
# 4 -3.2688 -5.3908 0.1756 26.1762 6.8765 7.0726
# 5 3.7676 2.4518 25.0732 6.8765 34.4651 -0.7584
# 6 18.0616 10.1613 10.8376 7.0726 -0.7584 32.0171
#
#
#
# Elastic Compliance Matrix: (Units=1/GPa)
#
#
# Indices 1 2 3 4 5 6 
#
# 1 0.010370 0.000861 -0.002408 0.003167 -0.000207 -0.006013
# 2 0.000861 0.031072 -0.000311 0.011178 -0.004590 -0.012820
# 3 -0.002408 -0.000311 0.010976 0.002551 -0.008275 -0.003018
# 4 0.003167 0.011178 0.002551 0.049025 -0.013160 -0.017339
# 5 -0.000207 -0.004590 -0.008275 -0.013160 0.038190 0.008187
# 6 -0.006013 -0.012820 -0.003018 -0.017339 0.008187 0.043740
#
#
# Mechanical properties :
#
#
# Convention : Reuss Voigt Hill
#
# Bulk Modulus (GPa) = 20.53307 41.34616 30.93962
# Shear Modulus (GPa) = 24.59140 33.58790 29.08965
#
# Velocity S-wave (km/s) = 3.41507 3.99117 3.71431
# Velocity P-wave (km/s) = 5.02875 6.39125 5.75050
#
# Compressibility (1/GPa) = 0.04870192
#
# Stress axis : x y z
#
# Youngs Moduli (GPa) = 96.43401 32.18357 91.10411
#
# Poissons Ratio (x) = -0.02771 0.21936
# Poissons Ratio (y) = -0.08302 0.02835
# Poissons Ratio (z) = 0.23219 0.01002
#
# Static dielectric constant tensor:
#      x y z
#    x 8.677420 2.043420 8.223400 
#    y 2.043420 4.740810 2.714500 
#    z 8.223400 2.714500 16.634740 
# 
# 
# High freq. dielectric constant tensor:
#      x y z
#    x 1.803910 0.012880 0.040060 
#    y 0.012880 1.826310 -0.012470 
#    z 0.040060 -0.012470 1.829330 
# 
# From -- ./inp_files/206671.got.cif
#   From: 2010.06.25/outbox.cif.g09.slc.cpg/sg2_104_cif.got.tgz:206671.got - 2010.06.27 13:26:56.
