data_PCOD8010300
_publ_section_title
;
Structure prediction by ZEFSAII (Michael W. Deem and Ramdas Pophale) SiO2 
 PCOD8010300
Probable space group: P -1
;
_chemical_formula_sum "Si O2"
_cell_formula_units_Z 12
_cell_length_a 11.395329
_cell_length_b 11.760285
_cell_length_c 11.920989
_cell_angle_alpha 142.095968
_cell_angle_beta 142.416495
_cell_angle_gamma 41.374247
_cell_volume 564.240565
_symmetry_space_group_name_H-M "P -1"
_symmetry_group_IT_number 2
_symmetry_cell_setting 'triclinic'
loop_
_space_group_symop_operation_xyz
x,y,z
-x,-y,-z
loop_
_atom_site_type_symbol
_atom_site_label
_atom_site_fract_x
_atom_site_fract_y
_atom_site_fract_z
Si Si1 0.632226 0.510210 0.396404
Si Si2 0.102773 0.420619 0.735090
Si Si3 0.612605 0.837959 0.801186
Si Si4 0.932719 0.830680 0.865366
Si Si5 0.651460 0.748435 0.005231
Si Si6 0.352401 0.223727 0.569177
O O1 0.543526 0.677822 0.555115
O O2 0.532849 0.340812 0.196897
O O3 0.564834 0.617224 0.306785
O O4 0.878085 0.414473 0.528382
O O5 0.286694 0.275626 0.688048
O O6 0.112792 0.641157 0.899934
O O7 0.153348 0.365821 0.860687
O O8 0.766298 0.911281 0.899613
O O9 0.723301 0.739299 0.923500
O O10 0.420345 0.026643 0.832025
O O11 0.850785 0.749614 0.632884
O O12 0.000000 0.000000 0.000000
O O13 0.500000 0.000000 0.500000
#
# Coordination Sequence:
#
# PCOD8010300 Si02
#       6
#     2   2   2   2   2   2
#     4  10  22  39  61  88 123 164 199 258 306 355
#     4  10  22  39  59  94 119 157 210 247 302 379
#     4   9  22  42  58  94 123 154 217 251 291 379
#     4  10  22  37  62  88 121 160 197 260 306 352
#     4  11  22  40  67  84 126 168 197 255 311 357
#     4  10  21  38  58  89 126 152 207 257 295 372
#
# _framework density 21.267523000000001
#
# number of rings (size 3 to 8) (size 9 to 14) (size 15 to 20)
#    0.000    2.333    0.000    4.500    7.000    3.333 
#    0.000    3.333    0.000    0.000    0.000    0.000 
#    0.000    0.000    0.000    0.000    0.000    0.000 
#
# Total GULP energy -148684.067417 kJ/mol
# GULP energy per Si atom -12390.338951 kJ/mol
# Density = 2.121912 g / cm^3
# Si number density = 21.267523 Si / 1000 Ang^3
#
#
#
# Elastic Constant Matrix: (Units=GPa)
#
#
# Indices 1 2 3 4 5 6 
#
# 1 58.6410 1.0970 23.6162 -3.3826 -2.5349 15.6488
# 2 1.0970 96.6713 18.2081 -9.7376 0.6564 9.5521
# 3 23.6162 18.2081 51.8722 -2.4776 -3.9145 2.3483
# 4 -3.3826 -9.7376 -2.4776 34.4176 4.4352 -12.1697
# 5 -2.5349 0.6564 -3.9145 4.4352 30.1642 1.8163
# 6 15.6488 9.5521 2.3483 -12.1697 1.8163 39.1239
#
#
#
# Elastic Compliance Matrix: (Units=1/GPa)
#
#
# Indices 1 2 3 4 5 6 
#
# 1 0.024365 0.002759 -0.011568 -0.001446 0.001315 -0.010236
# 2 0.002759 0.011826 -0.005230 0.002322 -0.000870 -0.002914
# 3 -0.011568 -0.005230 0.026376 0.000548 0.002220 0.004388
# 4 -0.001446 0.002322 0.000548 0.034204 -0.005786 0.010887
# 5 0.001315 -0.000870 0.002220 -0.005786 0.034652 -0.003855
# 6 -0.010236 -0.002914 0.004388 0.010887 -0.003855 0.033667
#
#
# Mechanical properties :
#
#
# Convention : Reuss Voigt Hill
#
# Bulk Modulus (GPa) = 28.99483 32.55857 30.77670
# Shear Modulus (GPa) = 24.43032 31.69201 28.06116
#
# Velocity S-wave (km/s) = 3.39295 3.86445 3.63635
# Velocity P-wave (km/s) = 5.38632 5.93753 5.66863
#
# Compressibility (1/GPa) = 0.03448891
#
# Stress axis : x y z
#
# Youngs Moduli (GPa) = 41.04276 84.56022 37.91395
#
# Poissons Ratio (x) = -0.23331 0.43858
# Poissons Ratio (y) = -0.11324 0.19829
# Poissons Ratio (z) = 0.47477 0.44226
#
# Static dielectric constant tensor:
#      x y z
#    x 3.626550 0.069890 -0.424700 
#    y 0.069890 3.753290 -0.106470 
#    z -0.424700 -0.106470 3.584090 
# 
# 
# High freq. dielectric constant tensor:
#      x y z
#    x 1.831480 0.017630 -0.023340 
#    y 0.017630 1.845820 0.007880 
#    z -0.023340 0.007880 1.816470 
# 
# From -- ./inp_files/167383.got.cif
#   From: 2010.06.25/outbox.cif.g09.slc.cpg/sg2_84_cif.got.tgz:167383.got - 2010.06.27 13:26:56.
