data_PCOD8010131
_publ_section_title
;
Structure prediction by ZEFSAII (Michael W. Deem and Ramdas Pophale) SiO2 
 PCOD8010131
Probable space group: P -1
;
_chemical_formula_sum "Si O2"
_cell_formula_units_Z 14
_cell_length_a 11.075322
_cell_length_b 12.682709
_cell_length_c 11.231746
_cell_angle_alpha 37.017432
_cell_angle_beta 121.242846
_cell_angle_gamma 135.472881
_cell_volume 661.283144
_symmetry_space_group_name_H-M "P -1"
_symmetry_group_IT_number 2
_symmetry_cell_setting 'triclinic'
loop_
_space_group_symop_operation_xyz
x,y,z
-x,-y,-z
loop_
_atom_site_type_symbol
_atom_site_label
_atom_site_fract_x
_atom_site_fract_y
_atom_site_fract_z
Si Si1 0.515710 0.030535 0.839832
Si Si2 0.431473 0.307727 0.871694
Si Si3 0.310158 0.230060 0.493870
Si Si4 0.183151 0.574688 0.479167
Si Si5 0.241101 0.208391 0.212226
Si Si6 0.384444 0.563248 0.802551
Si Si7 0.126020 0.171454 0.690661
O O1 0.388523 0.090326 0.672099
O O2 0.715132 0.211639 0.741096
O O3 0.500000 0.000000 0.000000
O O4 0.469293 0.807007 0.960540
O O5 0.535183 0.516071 0.649463
O O6 0.407914 0.385078 0.915977
O O7 0.244944 0.134657 0.869169
O O8 0.207565 0.179971 0.362149
O O9 0.172300 0.171344 0.577675
O O10 0.291931 0.625940 0.609334
O O11 0.162436 0.394236 0.547031
O O12 0.000000 0.500000 0.500000
O O13 0.419654 0.226200 0.262361
O O14 0.272015 0.433526 0.979649
O O15 0.078457 0.014391 0.231339
#
# Coordination Sequence:
#
# PCOD8010131 Si02
#       7
#     2   2   2   2   2   2   2
#     4  12  22  38  68  95 123 165 211 262 316 370
#     4  10  21  37  66  90 120 165 213 257 317 359
#     4  11  21  44  61  96 129 163 213 258 315 382
#     4  11  25  41  63  99 127 158 221 272 307 372
#     4  10  21  38  64  88 123 177 204 247 324 383
#     4   9  21  43  61  84 132 168 206 257 316 380
#     4  11  21  38  65  91 126 166 206 266 312 371
#
# _framework density 21.170961999999999
#
# number of rings (size 3 to 8) (size 9 to 14) (size 15 to 20)
#    0.000    1.429    5.714    1.714    4.000    1.143 
#    0.000    5.714    0.000    6.000    0.000    0.000 
#    0.000    0.000    0.000    0.000    0.000    0.000 
#
# Total GULP energy -173454.120637 kJ/mol
# GULP energy per Si atom -12389.580045 kJ/mol
# Density = 2.112278 g / cm^3
# Si number density = 21.170962 Si / 1000 Ang^3
#
#
#
# Elastic Constant Matrix: (Units=GPa)
#
#
# Indices 1 2 3 4 5 6 
#
# 1 76.4659 1.7246 36.6643 -1.3078 8.9129 9.7332
# 2 1.7246 94.4515 25.2616 1.2016 7.7176 32.2430
# 3 36.6643 25.2616 114.8422 0.5210 4.0226 7.2667
# 4 -1.3078 1.2016 0.5210 24.6161 -7.8012 -1.3182
# 5 8.9129 7.7176 4.0226 -7.8012 34.0530 -4.0128
# 6 9.7332 32.2430 7.2667 -1.3182 -4.0128 28.5652
#
#
#
# Elastic Compliance Matrix: (Units=1/GPa)
#
#
# Indices 1 2 3 4 5 6 
#
# 1 0.018437 0.006486 -0.006198 -0.002340 -0.007656 -0.013210
# 2 0.006486 0.022179 -0.004792 -0.005514 -0.010695 -0.027782
# 3 -0.006198 -0.004792 0.011351 0.000591 0.002086 0.004953
# 4 -0.002340 -0.005514 0.000591 0.045625 0.013526 0.010876
# 5 -0.007656 -0.010695 0.002086 0.013526 0.039033 0.020257
# 6 -0.013210 -0.027782 0.004953 0.010876 0.020257 0.072955
#
#
# Mechanical properties :
#
#
# Convention : Reuss Voigt Hill
#
# Bulk Modulus (GPa) = 23.27798 45.89561 34.58680
# Shear Modulus (GPa) = 21.46765 32.25414 26.86089
#
# Velocity S-wave (km/s) = 3.18781 3.90745 3.56583
# Velocity P-wave (km/s) = 4.95668 6.48715 5.77286
#
# Compressibility (1/GPa) = 0.04295905
#
# Stress axis : x y z
#
# Youngs Moduli (GPa) = 54.23791 45.08853 88.09561
#
# Poissons Ratio (x) = -0.29244 0.54604
# Poissons Ratio (y) = -0.35179 0.42213
# Poissons Ratio (z) = 0.33618 0.21605
#
# Static dielectric constant tensor:
#      x y z
#    x 3.984190 0.098430 -0.105660 
#    y 0.098430 3.805840 0.046520 
#    z -0.105660 0.046520 3.957120 
# 
# 
# High freq. dielectric constant tensor:
#      x y z
#    x 1.816890 0.005930 -0.021390 
#    y 0.005930 1.824020 0.010860 
#    z -0.021390 0.010860 1.836620 
# 
# From -- ./inp_files/273430.got.cif
#   From: 2010.06.25/outbox.cif.g09.slc.cpg/sg2_137_cif.got.tgz:273430.got - 2010.06.27 13:26:56.
