data_PCOD8010482
_publ_section_title
;
Structure prediction by ZEFSAII (Michael W. Deem and Ramdas Pophale) SiO2 
 PCOD8010482
Probable space group: P -1
;
_chemical_formula_sum "Si O2"
_cell_formula_units_Z 16
_cell_length_a 6.446294
_cell_length_b 26.333852
_cell_length_c 18.194284
_cell_angle_alpha 18.722251
_cell_angle_beta 45.697431
_cell_angle_gamma 45.798917
_cell_volume 700.874709
_symmetry_space_group_name_H-M "P -1"
_symmetry_group_IT_number 2
_symmetry_cell_setting 'triclinic'
loop_
_space_group_symop_operation_xyz
x,y,z
-x,-y,-z
loop_
_atom_site_type_symbol
_atom_site_label
_atom_site_fract_x
_atom_site_fract_y
_atom_site_fract_z
Si Si1 0.978208 0.995220 0.392302
Si Si2 0.599061 0.241452 0.687776
Si Si3 0.833279 0.961004 0.187228
Si Si4 0.735920 0.236767 0.241089
Si Si5 0.126443 0.197426 0.448760
Si Si6 0.042251 0.485983 0.746377
Si Si7 0.463043 0.271122 0.519915
Si Si8 0.623172 0.766209 0.094196
O O1 0.793820 0.921054 0.477684
O O2 0.172499 0.849612 0.586702
O O3 0.768239 0.106149 0.347235
O O4 0.178801 0.101708 0.153630
O O5 0.798651 0.381992 0.434176
O O6 0.427942 0.222614 0.680520
O O7 0.364610 0.277803 0.761705
O O8 0.832617 0.080166 0.870561
O O9 0.849590 0.910354 0.337136
O O10 0.611669 0.868705 0.322366
O O11 0.713746 0.152159 0.952111
O O12 0.386510 0.307997 0.234902
O O13 0.937866 0.372403 0.990408
O O14 0.799688 0.297557 0.384960
O O15 0.277982 0.392881 0.759153
O O16 0.753008 0.563443 0.667407
#
# Coordination Sequence:
#
# PCOD8010482 Si02
#       8
#     2   2   2   2   2   2   2   2
#     4  10  21  38  60  97 123 150 203 253 309 355
#     4  10  23  41  64  88 123 167 200 243 307 366
#     4  10  21  41  63  93 123 153 206 258 299 354
#     4  10  21  38  62  89 127 158 195 257 298 358
#     4  11  19  38  64  88 124 159 200 248 308 358
#     4  10  24  42  59  90 128 161 201 246 302 364
#     4  10  22  42  58  88 130 158 205 245 296 372
#     4  11  20  42  65  91 124 156 201 260 302 352
#
# _framework density 22.828617999999999
#
# number of rings (size 3 to 8) (size 9 to 14) (size 15 to 20)
#    0.000    1.750    2.500    1.125    0.000    2.500 
#    9.000    8.750    0.000    0.000    0.000    0.000 
#    0.000    0.000    0.000    0.000    0.000    0.000 
#
# Total GULP energy -198339.570321 kJ/mol
# GULP energy per Si atom -12396.223145 kJ/mol
# Density = 2.277666 g / cm^3
# Si number density = 22.828618 Si / 1000 Ang^3
#
#
#
# Elastic Constant Matrix: (Units=GPa)
#
#
# Indices 1 2 3 4 5 6 
#
# 1 103.7444 43.0126 31.3643 0.8681 9.2012 6.4772
# 2 43.0126 93.3319 25.3900 -3.7774 10.9180 0.6117
# 3 31.3643 25.3900 55.6182 -1.1991 5.0276 -6.5728
# 4 0.8681 -3.7774 -1.1991 43.4338 -3.3311 7.3913
# 5 9.2012 10.9180 5.0276 -3.3311 9.9103 -3.4167
# 6 6.4772 0.6117 -6.5728 7.3913 -3.4167 32.1741
#
#
#
# Elastic Compliance Matrix: (Units=1/GPa)
#
#
# Indices 1 2 3 4 5 6 
#
# 1 0.014051 -0.003967 -0.006002 -0.000572 -0.007420 -0.004636
# 2 -0.003967 0.014901 -0.003729 0.000687 -0.011158 -0.001589
# 3 -0.006002 -0.003729 0.023834 -0.000646 -0.000474 0.006246
# 4 -0.000572 0.000687 -0.000646 0.024424 0.006608 -0.004939
# 5 -0.007420 -0.011158 -0.000474 0.006608 0.127238 0.013603
# 6 -0.004636 -0.001589 0.006246 -0.004939 0.013603 0.035900
#
#
# Mechanical properties :
#
#
# Convention : Reuss Voigt Hill
#
# Bulk Modulus (GPa) = 39.38840 50.24757 44.81798
# Shear Modulus (GPa) = 18.10235 27.29881 22.70058
#
# Velocity S-wave (km/s) = 2.81902 3.46181 3.15682
# Velocity P-wave (km/s) = 5.28084 6.16745 5.74128
#
# Compressibility (1/GPa) = 0.02538819
#
# Stress axis : x y z
#
# Youngs Moduli (GPa) = 71.17025 67.11039 41.95710
#
# Poissons Ratio (x) = 0.26625 0.25182
# Poissons Ratio (y) = 0.28236 0.15648
# Poissons Ratio (z) = 0.42715 0.25028
#
# Static dielectric constant tensor:
#      x y z
#    x 4.053840 -0.051850 0.136110 
#    y -0.051850 4.547820 -0.014970 
#    z 0.136110 -0.014970 3.857920 
# 
# 
# High freq. dielectric constant tensor:
#      x y z
#    x 1.895120 0.003830 0.008380 
#    y 0.003830 1.921960 0.015720 
#    z 0.008380 0.015720 1.879760 
# 
# From -- ./inp_files/475990.got.cif
#   From: 2010.06.25/outbox.cif.g09.slc.cpg/sg2_238_cif.got.tgz:475990.got - 2010.06.27 13:26:56.
