data_PCOD8010751
_publ_section_title
;
Structure prediction by ZEFSAII (Michael W. Deem and Ramdas Pophale) SiO2 
 PCOD8010751
Probable space group: P -1
;
_chemical_formula_sum "Si O2"
_cell_formula_units_Z 16
_cell_length_a 21.014636
_cell_length_b 11.484133
_cell_length_c 8.870676
_cell_angle_alpha 64.977479
_cell_angle_beta 138.329588
_cell_angle_gamma 143.062064
_cell_volume 769.878618
_symmetry_space_group_name_H-M "P -1"
_symmetry_group_IT_number 2
_symmetry_cell_setting 'triclinic'
loop_
_space_group_symop_operation_xyz
x,y,z
-x,-y,-z
loop_
_atom_site_type_symbol
_atom_site_label
_atom_site_fract_x
_atom_site_fract_y
_atom_site_fract_z
Si Si1 0.590320 0.876238 0.035376
Si Si2 0.214774 0.046194 0.240303
Si Si3 0.364178 0.841993 0.220222
Si Si4 0.938575 0.570918 0.910569
Si Si5 0.688270 0.635675 0.971071
Si Si6 0.675693 0.717197 0.397830
Si Si7 0.752996 0.572048 0.413947
Si Si8 0.511913 0.223586 0.754719
O O1 0.680817 0.835918 0.215020
O O2 0.569197 0.898711 0.160210
O O3 0.416070 0.680631 0.759734
O O4 0.688045 0.077828 0.989605
O O5 0.202306 0.138034 0.035200
O O6 0.214474 0.121830 0.356129
O O7 0.379776 0.146796 0.456045
O O8 0.073135 0.790327 0.122799
O O9 0.209960 0.607467 0.143102
O O10 0.428328 0.837178 0.190206
O O11 0.500000 0.000000 0.500000
O O12 0.885544 0.604344 0.658368
O O13 0.000000 0.500000 0.000000
O O14 0.512133 0.502183 0.772873
O O15 0.658992 0.482126 0.893447
O O16 0.787994 0.692869 0.260217
O O17 0.749984 0.665361 0.499313
#
# Coordination Sequence:
#
# PCOD8010751 Si02
#       8
#     2   2   2   2   2   2   2   2
#     4   9  19  39  65  98 120 152 207 268 300 353
#     4  10  22  39  62  91 129 160 191 261 310 363
#     4  12  23  38  66  88 116 174 214 247 300 365
#     4  12  28  42  56  90 134 164 209 251 305 366
#     4   9  19  37  66  95 119 156 201 260 310 354
#     4   9  19  37  65  97 121 147 206 258 308 362
#     4  10  21  38  63  91 122 159 206 256 303 362
#     4   9  20  39  66  95 123 155 210 254 307 367
#
# _framework density 20.782496999999999
#
# number of rings (size 3 to 8) (size 9 to 14) (size 15 to 20)
#    0.000    2.500    1.250    4.125    3.500    4.000 
#    2.250    2.500    0.000    0.000    0.000    0.000 
#    0.000    0.000    0.000    0.000    0.000    0.000 
#
# Total GULP energy -198327.492425 kJ/mol
# GULP energy per Si atom -12395.468277 kJ/mol
# Density = 2.073519 g / cm^3
# Si number density = 20.782497 Si / 1000 Ang^3
#
#
#
# Elastic Constant Matrix: (Units=GPa)
#
#
# Indices 1 2 3 4 5 6 
#
# 1 82.2780 31.7751 46.7536 -4.3560 -4.1167 -20.5954
# 2 31.7751 111.9456 40.6145 -13.8304 -13.1025 1.0567
# 3 46.7536 40.6145 96.6495 -15.5628 -9.5855 -10.5693
# 4 -4.3560 -13.8304 -15.5628 34.1984 -7.7172 -0.8078
# 5 -4.1167 -13.1025 -9.5855 -7.7172 20.0008 -4.6517
# 6 -20.5954 1.0567 -10.5693 -0.8078 -4.6517 24.0039
#
#
#
# Elastic Compliance Matrix: (Units=1/GPa)
#
#
# Indices 1 2 3 4 5 6 
#
# 1 0.021662 -0.003603 -0.007236 -0.001196 0.001862 0.015879
# 2 -0.003603 0.012294 -0.002159 0.005174 0.007591 -0.002938
# 3 -0.007236 -0.002159 0.017462 0.008399 0.009569 0.003712
# 4 -0.001196 0.005174 0.008399 0.040835 0.024937 0.008651
# 5 0.001862 0.007591 0.009569 0.024937 0.074383 0.020731
# 6 0.015879 -0.002938 0.003712 0.008651 0.020731 0.061356
#
#
# Mechanical properties :
#
#
# Convention : Reuss Voigt Hill
#
# Bulk Modulus (GPa) = 39.33571 58.79549 49.06560
# Shear Modulus (GPa) = 19.05041 27.08929 23.06985
#
# Velocity S-wave (km/s) = 3.03092 3.61427 3.33537
# Velocity P-wave (km/s) = 5.58722 6.76532 6.20430
#
# Compressibility (1/GPa) = 0.02542220
#
# Stress axis : x y z
#
# Youngs Moduli (GPa) = 46.16432 81.33891 57.26884
#
# Poissons Ratio (x) = 0.29306 0.41440
# Poissons Ratio (y) = 0.16633 0.12363
# Poissons Ratio (z) = 0.33405 0.17559
#
# Static dielectric constant tensor:
#      x y z
#    x 3.552640 -0.177840 -0.153110 
#    y -0.177840 3.803830 -0.207030 
#    z -0.153110 -0.207030 3.719740 
# 
# 
# High freq. dielectric constant tensor:
#      x y z
#    x 1.795030 -0.018350 -0.018990 
#    y -0.018350 1.815280 -0.019000 
#    z -0.018990 -0.019000 1.806610 
# 
# From -- ./inp_files/346101.got.cif
#   From: 2010.06.25/outbox.cif.g09.slc.cpg/sg2_174_cif.got.tgz:346101.got - 2010.06.27 13:26:56.
