data_PCOD8010380
_publ_section_title
;
Structure prediction by ZEFSAII (Michael W. Deem and Ramdas Pophale) SiO2 
 PCOD8010380
Probable space group: P -1
;
_chemical_formula_sum "Si O2"
_cell_formula_units_Z 16
_cell_length_a 8.555605
_cell_length_b 19.518133
_cell_length_c 16.939707
_cell_angle_alpha 149.787240
_cell_angle_beta 148.480644
_cell_angle_gamma 42.089315
_cell_volume 744.008698
_symmetry_space_group_name_H-M "P -1"
_symmetry_group_IT_number 2
_symmetry_cell_setting 'triclinic'
loop_
_space_group_symop_operation_xyz
x,y,z
-x,-y,-z
loop_
_atom_site_type_symbol
_atom_site_label
_atom_site_fract_x
_atom_site_fract_y
_atom_site_fract_z
Si Si1 0.304156 0.068461 0.179010
Si Si2 0.229688 0.099228 0.469483
Si Si3 0.324590 0.347392 0.539929
Si Si4 0.796696 0.925805 0.029214
Si Si5 0.142831 0.360844 0.166645
Si Si6 0.725390 0.482755 0.465546
Si Si7 0.335404 0.702493 0.213788
Si Si8 0.062487 0.034817 0.650685
O O1 0.377910 0.186514 0.389917
O O2 0.239272 0.137831 0.135694
O O3 0.575890 0.957042 0.179238
O O4 0.000000 0.000000 0.000000
O O5 0.363652 0.246069 0.650999
O O6 0.031814 0.090709 0.456311
O O7 0.500000 0.000000 0.500000
O O8 0.049820 0.040474 0.258516
O O9 0.402132 0.429566 0.575782
O O10 0.548749 0.382014 0.743427
O O11 0.978456 0.375942 0.440056
O O12 0.870559 0.802635 0.997396
O O13 0.500000 0.000000 0.000000
O O14 0.448499 0.400487 0.296509
O O15 0.124822 0.427086 0.311493
O O16 0.850299 0.398876 0.024617
O O17 0.106388 0.824590 0.261269
O O18 0.000000 0.000000 0.500000
#
# Coordination Sequence:
#
# PCOD8010380 Si02
#       8
#     2   2   2   2   2   2   2   2
#     4  12  25  37  65 101 133 167 209 262 337 394
#     4  10  21  38  59  96 135 161 198 256 327 400
#     4  11  24  45  64  93 131 171 218 273 322 374
#     4  12  22  38  66  98 128 166 214 260 330 392
#     4  11  23  45  68  91 125 174 222 269 320 377
#     4  10  26  46  66  88 129 173 230 274 301 375
#     4  11  23  41  70  94 133 168 211 266 334 390
#     4  11  22  39  57  99 139 164 195 258 332 403
#
# _framework density 21.505123999999999
#
# number of rings (size 3 to 8) (size 9 to 14) (size 15 to 20)
#    0.000    1.000    6.250    0.750    7.000    1.000 
#    0.000    0.000    0.000    0.000    0.000    0.000 
#    0.000    0.000    0.000    0.000    0.000    0.000 
#
# Total GULP energy -198288.535546 kJ/mol
# GULP energy per Si atom -12393.033472 kJ/mol
# Density = 2.145618 g / cm^3
# Si number density = 21.505124 Si / 1000 Ang^3
#
#
#
# Elastic Constant Matrix: (Units=GPa)
#
#
# Indices 1 2 3 4 5 6 
#
# 1 109.0899 31.7188 36.7698 -12.6741 -2.2668 9.8111
# 2 31.7188 76.9424 26.3963 -21.6268 -0.7406 8.6490
# 3 36.7698 26.3963 116.4512 -30.5772 -4.0795 11.9807
# 4 -12.6741 -21.6268 -30.5772 36.3032 4.2454 -6.5921
# 5 -2.2668 -0.7406 -4.0795 4.2454 34.4470 -18.4342
# 6 9.8111 8.6490 11.9807 -6.5921 -18.4342 33.9339
#
#
#
# Elastic Compliance Matrix: (Units=1/GPa)
#
#
# Indices 1 2 3 4 5 6 
#
# 1 0.011232 -0.003740 -0.002772 -0.000903 -0.000502 -0.001764
# 2 -0.003740 0.017348 -0.000293 0.008542 -0.002545 -0.002960
# 3 -0.002772 -0.000293 0.012003 0.008682 -0.001034 -0.002237
# 4 -0.000903 0.008542 0.008682 0.040205 -0.003227 0.001076
# 5 -0.000502 -0.002545 -0.001034 -0.003227 0.041594 0.023128
# 6 -0.001764 -0.002960 -0.002237 0.001076 0.023128 0.044296
#
#
# Mechanical properties :
#
#
# Convention : Reuss Voigt Hill
#
# Bulk Modulus (GPa) = 37.07416 54.69482 45.88449
# Shear Modulus (GPa) = 26.41620 34.77672 30.59646
#
# Velocity S-wave (km/s) = 3.50861 4.02573 3.77603
# Velocity P-wave (km/s) = 5.80439 6.86274 6.35563
#
# Compressibility (1/GPa) = 0.02697297
#
# Stress axis : x y z
#
# Youngs Moduli (GPa) = 89.03396 57.64280 83.31585
#
# Poissons Ratio (x) = 0.21556 0.23095
# Poissons Ratio (y) = 0.33295 0.02443
# Poissons Ratio (z) = 0.24680 0.01690
#
# Static dielectric constant tensor:
#      x y z
#    x 4.635680 -0.079940 0.470040 
#    y -0.079940 3.579630 -0.070950 
#    z 0.470040 -0.070950 3.841620 
# 
# 
# High freq. dielectric constant tensor:
#      x y z
#    x 1.857430 0.006630 -0.009430 
#    y 0.006630 1.835020 -0.031790 
#    z -0.009430 -0.031790 1.838990 
# 
# From -- ./inp_files/327745.got.cif
#   From: 2010.06.25/outbox.cif.g09.slc.cpg/sg2_164_cif.got.tgz:327745.got - 2010.06.27 13:26:56.
