data_PCOD8010148
_publ_section_title
;
Structure prediction by ZEFSAII (Michael W. Deem and Ramdas Pophale) SiO2 
 PCOD8010148
Probable space group: P -1
;
_chemical_formula_sum "Si O2"
_cell_formula_units_Z 16
_cell_length_a 8.145487
_cell_length_b 12.920363
_cell_length_c 22.530045
_cell_angle_alpha 23.007289
_cell_angle_beta 53.368299
_cell_angle_gamma 64.320498
_cell_volume 691.095090
_symmetry_space_group_name_H-M "P -1"
_symmetry_group_IT_number 2
_symmetry_cell_setting 'triclinic'
loop_
_space_group_symop_operation_xyz
x,y,z
-x,-y,-z
loop_
_atom_site_type_symbol
_atom_site_label
_atom_site_fract_x
_atom_site_fract_y
_atom_site_fract_z
Si Si1 0.933204 0.839583 0.159682
Si Si2 0.435394 0.690778 0.506231
Si Si3 0.168598 0.052825 0.379005
Si Si4 0.483649 0.649671 0.016003
Si Si5 0.393243 0.148209 0.491674
Si Si6 0.781752 0.511424 0.737697
Si Si7 0.211375 0.864178 0.870512
Si Si8 0.942188 0.720002 0.834587
O O1 0.673744 0.635891 0.319419
O O2 0.079320 0.649829 0.239784
O O3 0.960331 0.074035 0.081154
O O4 0.000000 0.000000 0.000000
O O5 0.435907 0.696854 0.575047
O O6 0.282404 0.854153 0.429208
O O7 0.673370 0.842334 0.345111
O O8 0.376137 0.304129 0.231814
O O9 0.073159 0.201079 0.272035
O O10 0.945845 0.797084 0.591697
O O11 0.398320 0.729553 0.054951
O O12 0.387582 0.761899 0.921268
O O13 0.748056 0.756867 0.897080
O O14 0.330051 0.385027 0.346156
O O15 0.500000 0.000000 0.500000
O O16 0.187114 0.924676 0.691284
O O17 0.079032 0.611949 0.985762
#
# Coordination Sequence:
#
# PCOD8010148 Si02
#       8
#     2   2   2   2   2   2   2   2
#     4  11  24  42  69  96 120 169 231 263 304 365
#     4  11  22  41  63  92 130 166 211 262 317 376
#     4   9  17  34  60  93 120 158 208 263 318 361
#     4  11  17  35  65  98 126 152 212 278 319 369
#     4  11  26  43  63  95 134 172 205 256 334 395
#     4  10  22  39  63  91 130 169 211 263 314 376
#     4  11  21  39  66  99 127 163 214 268 314 372
#     4  10  21  37  66  96 130 158 210 265 330 380
#
# _framework density 23.15166
#
# number of rings (size 3 to 8) (size 9 to 14) (size 15 to 20)
#    0.000    1.500    3.750    2.250    1.750    2.500 
#    0.000    1.250    0.000    0.000    0.000    0.000 
#    0.000    0.000    0.000    0.000    0.000    0.000 
#
# Total GULP energy -198224.751744 kJ/mol
# GULP energy per Si atom -12389.046984 kJ/mol
# Density = 2.309897 g / cm^3
# Si number density = 23.151660 Si / 1000 Ang^3
#
#
#
# Elastic Constant Matrix: (Units=GPa)
#
#
# Indices 1 2 3 4 5 6 
#
# 1 27.0969 14.2470 4.6399 -8.5861 6.5340 -13.2700
# 2 14.2470 89.5592 25.2198 10.0410 -10.7663 -13.8706
# 3 4.6399 25.2198 76.2395 20.9297 2.8744 -6.8830
# 4 -8.5861 10.0410 20.9297 45.5495 -5.3757 -0.4160
# 5 6.5340 -10.7663 2.8744 -5.3757 27.2981 3.3851
# 6 -13.2700 -13.8706 -6.8830 -0.4160 3.3851 29.4790
#
#
#
# Elastic Compliance Matrix: (Units=1/GPa)
#
#
# Indices 1 2 3 4 5 6 
#
# 1 0.063744 -0.009532 -0.001031 0.012505 -0.019721 0.026410
# 2 -0.009532 0.015203 -0.004030 -0.002329 0.008125 0.000956
# 3 -0.001031 -0.004030 0.016989 -0.007672 -0.004898 0.002061
# 4 0.012505 -0.002329 -0.007672 0.028633 0.002176 0.002896
# 5 -0.019721 0.008125 -0.004898 0.002176 0.046935 -0.011557
# 6 0.026410 0.000956 0.002061 0.002896 -0.011557 0.048109
#
#
# Mechanical properties :
#
#
# Convention : Reuss Voigt Hill
#
# Bulk Modulus (GPa) = 14.98135 31.23432 23.10783
# Shear Modulus (GPa) = 18.44683 30.38458 24.41571
#
# Velocity S-wave (km/s) = 2.82580 3.62666 3.25098
# Velocity P-wave (km/s) = 4.13906 5.57291 4.90862
#
# Compressibility (1/GPa) = 0.06674966
#
# Stress axis : x y z
#
# Youngs Moduli (GPa) = 15.68769 65.77753 58.86146
#
# Poissons Ratio (x) = 0.62702 0.06070
# Poissons Ratio (y) = 0.14954 0.23719
# Poissons Ratio (z) = 0.01618 0.26505
#
# Static dielectric constant tensor:
#      x y z
#    x 3.873660 -0.191250 -0.067840 
#    y -0.191250 4.224190 0.106850 
#    z -0.067840 0.106850 4.574650 
# 
# 
# High freq. dielectric constant tensor:
#      x y z
#    x 1.884270 -0.010280 0.009900 
#    y -0.010280 1.910450 0.023300 
#    z 0.009900 0.023300 1.928650 
# 
# From -- ./inp_files/175216.got.cif
#   From: 2010.06.25/outbox.cif.g09.slc.cpg/sg2_88_cif.got.tgz:175216.got - 2010.06.27 13:26:56.
