data_PCOD8010504
_publ_section_title
;
Structure prediction by ZEFSAII (Michael W. Deem and Ramdas Pophale) SiO2 
 PCOD8010504
Probable space group: P -1
;
_chemical_formula_sum "Si O2"
_cell_formula_units_Z 12
_cell_length_a 10.534925
_cell_length_b 21.403081
_cell_length_c 11.190423
_cell_angle_alpha 32.317302
_cell_angle_beta 153.035577
_cell_angle_gamma 149.311918
_cell_volume 549.178713
_symmetry_space_group_name_H-M "P -1"
_symmetry_group_IT_number 2
_symmetry_cell_setting 'triclinic'
loop_
_space_group_symop_operation_xyz
x,y,z
-x,-y,-z
loop_
_atom_site_type_symbol
_atom_site_label
_atom_site_fract_x
_atom_site_fract_y
_atom_site_fract_z
Si Si1 0.329288 0.291038 0.230554
Si Si2 0.034475 0.850700 0.376015
Si Si3 0.292331 0.520089 0.962436
Si Si4 0.350105 0.880833 0.156204
Si Si5 0.414934 0.039203 0.185139
Si Si6 0.728410 0.570481 0.470340
O O1 0.259913 0.379821 0.123651
O O2 0.472775 0.210173 0.556625
O O3 0.583250 0.378145 0.206080
O O4 0.013868 0.198079 0.049124
O O5 0.235646 0.967020 0.269140
O O6 0.956990 0.715974 0.464891
O O7 0.228123 0.865759 0.635732
O O8 0.727706 0.865071 0.136053
O O9 0.529411 0.574044 0.183983
O O10 0.946585 0.499863 0.738723
O O11 0.394157 0.933745 0.241660
O O12 0.500000 0.000000 0.000000
O O13 0.500000 0.500000 0.500000
#
# Coordination Sequence:
#
# PCOD8010504 Si02
#       6
#     2   2   2   2   2   2
#     4  11  24  44  69  94 126 172 221 265 313 380
#     4  10  21  38  61  87 118 161 208 252 303 370
#     4  11  24  44  69  94 126 172 221 265 313 380
#     4  12  25  41  64  97 133 167 208 266 329 381
#     4  10  21  38  61  87 118 161 208 252 303 370
#     4  12  25  41  64  97 133 167 208 266 329 381
#
# _framework density 21.850812000000001
#
# number of rings (size 3 to 8) (size 9 to 14) (size 15 to 20)
#    0.000    1.000    0.000    7.000    0.000    9.333 
#    0.000    0.000    0.000    0.000    0.000    0.000 
#    0.000    0.000    0.000    0.000    0.000    0.000 
#
# Total GULP energy -148866.315202 kJ/mol
# GULP energy per Si atom -12405.526267 kJ/mol
# Density = 2.180108 g / cm^3
# Si number density = 21.850812 Si / 1000 Ang^3
#
#
#
# Elastic Constant Matrix: (Units=GPa)
#
#
# Indices 1 2 3 4 5 6 
#
# 1 72.9003 50.2865 49.1772 -5.5172 25.0224 2.3691
# 2 50.2865 70.6144 49.9933 4.4902 -4.3534 -14.6365
# 3 49.1772 49.9933 169.5586 -0.1786 19.8402 9.6914
# 4 -5.5172 4.4902 -0.1786 45.6769 -7.6034 1.0624
# 5 25.0224 -4.3534 19.8402 -7.6034 34.7698 2.3836
# 6 2.3691 -14.6365 9.6914 1.0624 2.3836 22.9570
#
#
#
# Elastic Compliance Matrix: (Units=1/GPa)
#
#
# Indices 1 2 3 4 5 6 
#
# 1 0.228045 -0.237637 0.036942 0.022001 -0.198410 -0.171054
# 2 -0.237637 0.273046 -0.047904 -0.024784 0.213559 0.197803
# 3 0.036942 -0.047904 0.015923 0.003725 -0.038300 -0.037272
# 4 0.022001 -0.024784 0.003725 0.025078 -0.014253 -0.019325
# 5 -0.198410 0.213559 -0.038300 -0.014253 0.206604 0.152009
# 6 -0.171054 0.197803 -0.037272 -0.019325 0.152009 0.188169
#
#
# Mechanical properties :
#
#
# Convention : Reuss Voigt Hill
#
# Bulk Modulus (GPa) = 50.46671 67.99857 59.23264
# Shear Modulus (GPa) = 3.47061 31.58849 17.52955
#
# Velocity S-wave (km/s) = 1.26165 3.80629 2.83545
# Velocity P-wave (km/s) = 5.02678 7.10663 6.15519
#
# Compressibility (1/GPa) = 0.01981504
#
# Stress axis : x y z
#
# Youngs Moduli (GPa) = 4.38510 3.66239 62.80037
#
# Poissons Ratio (x) = 0.87032 -2.31997
# Poissons Ratio (y) = 1.04206 3.00842
# Poissons Ratio (z) = -0.16199 0.17544
#
# Static dielectric constant tensor:
#      x y z
#    x 3.982430 -0.325920 0.156480 
#    y -0.325920 4.177370 0.073730 
#    z 0.156480 0.073730 4.344480 
# 
# 
# High freq. dielectric constant tensor:
#      x y z
#    x 1.856250 -0.012460 0.006730 
#    y -0.012460 1.865340 0.006870 
#    z 0.006730 0.006870 1.879750 
# 
# From -- ./inp_files/229038.got.cif
#   From: 2010.06.25/outbox.cif.g09.slc.cpg/sg2_115_cif.got.tgz:229038.got - 2010.06.27 13:26:56.
