data_PCOD8010435
_publ_section_title
;
Structure prediction by ZEFSAII (Michael W. Deem and Ramdas Pophale) SiO2 
 PCOD8010435
Probable space group: P -1
;
_chemical_formula_sum "Si O2"
_cell_formula_units_Z 16
_cell_length_a 10.450297
_cell_length_b 20.319315
_cell_length_c 12.280883
_cell_angle_alpha 139.762785
_cell_angle_beta 45.283450
_cell_angle_gamma 153.138871
_cell_volume 758.819900
_symmetry_space_group_name_H-M "P -1"
_symmetry_group_IT_number 2
_symmetry_cell_setting 'triclinic'
loop_
_space_group_symop_operation_xyz
x,y,z
-x,-y,-z
loop_
_atom_site_type_symbol
_atom_site_label
_atom_site_fract_x
_atom_site_fract_y
_atom_site_fract_z
Si Si1 0.357617 0.443251 0.129460
Si Si2 0.706621 0.076680 0.720839
Si Si3 0.233252 0.663769 0.940221
Si Si4 0.280147 0.068037 0.634987
Si Si5 0.302852 0.134261 0.259921
Si Si6 0.713288 0.787140 0.400227
Si Si7 0.606221 0.348904 0.948245
Si Si8 0.248936 0.892855 0.928959
O O1 0.472728 0.594680 0.310178
O O2 0.428848 0.374448 0.070265
O O3 0.015842 0.298847 0.135152
O O4 0.500000 0.500000 0.000000
O O5 0.791888 0.231301 0.871605
O O6 0.969900 0.123460 0.668386
O O7 0.626652 0.002346 0.553526
O O8 0.400605 0.927662 0.771429
O O9 0.915115 0.489477 0.885540
O O10 0.408404 0.722154 0.798388
O O11 0.375589 0.658724 0.942915
O O12 0.298969 0.158479 0.637747
O O13 0.463421 0.187142 0.776170
O O14 0.954901 0.902082 0.658009
O O15 0.359732 0.167598 0.398449
O O16 0.146445 0.963630 0.093025
O O17 0.500000 0.000000 0.000000
#
# Coordination Sequence:
#
# PCOD8010435 Si02
#       8
#     2   2   2   2   2   2   2   2
#     4  12  22  38  61  91 119 161 194 244 307 356
#     4  10  21  38  60  89 120 154 196 246 302 348
#     4  10  24  42  63  83 118 165 204 247 286 351
#     4  11  21  38  62  93 122 153 196 250 302 355
#     4  10  21  38  60  90 119 157 195 244 301 348
#     4  11  21  38  63  93 124 155 192 246 310 354
#     4  11  23  42  61  86 121 159 206 242 296 353
#     4  11  21  35  58  90 120 152 198 245 293 359
#
# _framework density 21.085372
#
# number of rings (size 3 to 8) (size 9 to 14) (size 15 to 20)
#    0.000    1.250    3.750    3.750    1.750    2.000 
#    0.000    2.500    0.000    0.000    0.000    0.000 
#    0.000    0.000    0.000    0.000    0.000    0.000 
#
# Total GULP energy -198212.131597 kJ/mol
# GULP energy per Si atom -12388.258225 kJ/mol
# Density = 2.103738 g / cm^3
# Si number density = 21.085372 Si / 1000 Ang^3
#
#
#
# Elastic Constant Matrix: (Units=GPa)
#
#
# Indices 1 2 3 4 5 6 
#
# 1 41.4047 0.5228 -1.8795 -8.3748 -1.3363 4.5389
# 2 0.5228 114.6920 34.4371 -3.2604 13.2703 18.1062
# 3 -1.8795 34.4371 104.2102 -6.6072 -6.8976 8.0300
# 4 -8.3748 -3.2604 -6.6072 33.3015 3.4172 6.5790
# 5 -1.3363 13.2703 -6.8976 3.4172 16.2248 3.3869
# 6 4.5389 18.1062 8.0300 6.5790 3.3869 22.0516
#
#
#
# Elastic Compliance Matrix: (Units=1/GPa)
#
#
# Indices 1 2 3 4 5 6 
#
# 1 0.027216 0.000934 0.001685 0.009008 0.002392 -0.010037
# 2 0.000934 0.012610 -0.004001 0.003463 -0.010904 -0.008447
# 3 0.001685 -0.004001 0.011926 0.002173 0.008732 -0.003394
# 4 0.009008 0.003463 0.002173 0.036721 -0.005650 -0.015577
# 5 0.002392 -0.010904 0.008732 -0.005650 0.076655 -0.004807
# 6 -0.010037 -0.008447 -0.003394 -0.015577 -0.004807 0.060972
#
#
# Mechanical properties :
#
#
# Convention : Reuss Voigt Hill
#
# Bulk Modulus (GPa) = 20.41370 36.27420 28.34395
# Shear Modulus (GPa) = 20.39207 29.46401 24.92804
#
# Velocity S-wave (km/s) = 3.11323 3.74219 3.44211
# Velocity P-wave (km/s) = 4.75661 5.99273 5.41009
#
# Compressibility (1/GPa) = 0.04898671
#
# Stress axis : x y z
#
# Youngs Moduli (GPa) = 36.74310 79.30314 83.85107
#
# Poissons Ratio (x) = -0.07405 -0.14130
# Poissons Ratio (y) = -0.03431 0.33552
# Poissons Ratio (z) = -0.06192 0.31732
#
# Static dielectric constant tensor:
#      x y z
#    x 3.732670 -0.084240 -0.180610 
#    y -0.084240 4.067980 0.257150 
#    z -0.180610 0.257150 4.095100 
# 
# 
# High freq. dielectric constant tensor:
#      x y z
#    x 1.795270 0.008380 -0.004990 
#    y 0.008380 1.836240 0.002020 
#    z -0.004990 0.002020 1.836400 
# 
# From -- ./inp_files/283379.got.cif
#   From: 2010.06.25/outbox.cif.g09.slc.cpg/sg2_142_cif.got.tgz:283379.got - 2010.06.27 13:26:56.
