data_PCOD8010329
_publ_section_title
;
Structure prediction by ZEFSAII (Michael W. Deem and Ramdas Pophale) SiO2 
 PCOD8010329
Probable space group: P -1
;
_chemical_formula_sum "Si O2"
_cell_formula_units_Z 16
_cell_length_a 15.795293
_cell_length_b 30.261626
_cell_length_c 9.408819
_cell_angle_alpha 44.739184
_cell_angle_beta 36.467426
_cell_angle_gamma 18.806734
_cell_volume 830.720242
_symmetry_space_group_name_H-M "P -1"
_symmetry_group_IT_number 2
_symmetry_cell_setting 'triclinic'
loop_
_space_group_symop_operation_xyz
x,y,z
-x,-y,-z
loop_
_atom_site_type_symbol
_atom_site_label
_atom_site_fract_x
_atom_site_fract_y
_atom_site_fract_z
Si Si1 0.689878 0.105939 0.269427
Si Si2 0.682743 0.859307 0.961599
Si Si3 0.323777 0.878963 0.422570
Si Si4 0.315730 0.532847 0.787110
Si Si5 0.911962 0.617072 0.724397
Si Si6 0.620951 0.902971 0.262871
Si Si7 0.125778 0.395355 0.880140
Si Si8 0.737520 0.396407 0.785660
O O1 0.723454 0.120437 0.349738
O O2 0.382722 0.260448 0.263976
O O3 0.625943 0.056549 0.470747
O O4 0.000000 0.000000 0.000000
O O5 0.393260 0.924869 0.210603
O O6 0.750214 0.859186 0.027737
O O7 0.998348 0.698688 0.857501
O O8 0.585418 0.951499 0.766675
O O9 0.599498 0.726778 0.327807
O O10 0.000000 0.000000 0.500000
O O11 0.500000 0.500000 0.500000
O O12 0.537136 0.437243 0.845459
O O13 0.210983 0.504649 0.941293
O O14 0.093287 0.482537 0.739240
O O15 0.164747 0.573737 0.470576
O O16 0.776918 0.669296 0.948180
O O17 0.938949 0.771204 0.232497
O O18 0.500000 0.500000 0.000000
#
# Coordination Sequence:
#
# PCOD8010329 Si02
#       8
#     2   2   2   2   2   2   2   2
#     4  10  21  38  60  84 118 156 190 239 293 350
#     4   9  19  37  60  84 113 150 196 234 286 344
#     4  10  21  38  59  84 117 154 192 242 294 340
#     4  11  21  38  60  89 120 152 192 245 294 346
#     4  10  22  40  61  86 115 158 200 239 295 348
#     4   9  19  37  60  85 111 151 195 238 279 348
#     4  10  22  40  61  85 118 154 199 246 287 349
#     4  11  21  38  61  89 120 154 194 239 298 352
#
# _framework density 19.260394999999999
#
# number of rings (size 3 to 8) (size 9 to 14) (size 15 to 20)
#    0.000    2.000    2.500    0.750    1.750    2.500 
#    4.500    0.625    0.000    0.000    0.000    0.000 
#    0.000    0.000    0.000    0.000    0.000    0.000 
#
# Total GULP energy -198350.903604 kJ/mol
# GULP energy per Si atom -12396.931475 kJ/mol
# Density = 1.921656 g / cm^3
# Si number density = 19.260395 Si / 1000 Ang^3
#
#
#
# Elastic Constant Matrix: (Units=GPa)
#
#
# Indices 1 2 3 4 5 6 
#
# 1 114.5991 45.1468 33.6515 -2.7590 6.3830 -24.4850
# 2 45.1468 93.0151 38.7519 -15.9519 -6.0441 -14.0099
# 3 33.6515 38.7519 100.9163 0.3956 11.9489 -6.3432
# 4 -2.7590 -15.9519 0.3956 29.7012 -1.6882 -2.8974
# 5 6.3830 -6.0441 11.9489 -1.6882 31.2142 1.5870
# 6 -24.4850 -14.0099 -6.3432 -2.8974 1.5870 35.5202
#
#
#
# Elastic Compliance Matrix: (Units=1/GPa)
#
#
# Indices 1 2 3 4 5 6 
#
# 1 0.012683 -0.004912 -0.001528 -0.000986 -0.003349 0.006602
# 2 -0.004912 0.018420 -0.006134 0.010255 0.007306 0.003294
# 3 -0.001528 -0.006134 0.013452 -0.004077 -0.006188 -0.001126
# 4 -0.000986 0.010255 -0.004077 0.040010 0.005625 0.005650
# 5 -0.003349 0.007306 -0.006188 0.005625 0.036897 -0.001721
# 6 0.006602 0.003294 -0.001126 0.005650 -0.001721 0.034340
#
#
# Mechanical properties :
#
#
# Convention : Reuss Voigt Hill
#
# Bulk Modulus (GPa) = 51.52400 60.40341 55.96371
# Shear Modulus (GPa) = 26.67840 32.01913 29.34877
#
# Velocity S-wave (km/s) = 3.72579 4.08172 3.90781
# Velocity P-wave (km/s) = 6.73187 7.32417 7.03425
#
# Compressibility (1/GPa) = 0.01940843
#
# Stress axis : x y z
#
# Youngs Moduli (GPa) = 78.84547 54.28863 74.33912
#
# Poissons Ratio (x) = 0.26665 0.11358
# Poissons Ratio (y) = 0.38727 0.45597
# Poissons Ratio (z) = 0.12046 0.33299
#
# Static dielectric constant tensor:
#      x y z
#    x 3.759790 -0.100450 -0.086170 
#    y -0.100450 3.475150 0.002830 
#    z -0.086170 0.002830 3.749930 
# 
# 
# High freq. dielectric constant tensor:
#      x y z
#    x 1.753540 -0.010350 -0.000090 
#    y -0.010350 1.746350 -0.001500 
#    z -0.000090 -0.001500 1.754940 
# 
# From -- ./inp_files/209547.got.cif
#   From: 2010.06.25/outbox.cif.g09.slc.cpg/sg2_105_cif.got.tgz:209547.got - 2010.06.27 13:26:56.
