data_PCOD8010120
_publ_section_title
;
Structure prediction by ZEFSAII (Michael W. Deem and Ramdas Pophale) SiO2 
 PCOD8010120
Probable space group: P -1
;
_chemical_formula_sum "Si O2"
_cell_formula_units_Z 14
_cell_length_a 15.679644
_cell_length_b 8.683435
_cell_length_c 8.659942
_cell_angle_alpha 95.177032
_cell_angle_beta 87.921843
_cell_angle_gamma 35.271210
_cell_volume 665.574587
_symmetry_space_group_name_H-M "P -1"
_symmetry_group_IT_number 2
_symmetry_cell_setting 'triclinic'
loop_
_space_group_symop_operation_xyz
x,y,z
-x,-y,-z
loop_
_atom_site_type_symbol
_atom_site_label
_atom_site_fract_x
_atom_site_fract_y
_atom_site_fract_z
Si Si1 0.177154 0.409077 0.160092
Si Si2 0.955893 0.231452 0.090050
Si Si3 0.100461 0.241517 0.587015
Si Si4 0.393785 0.248178 0.336439
Si Si5 0.806067 0.936181 0.765472
Si Si6 0.275913 0.281841 0.652979
Si Si7 0.354892 0.660688 0.436577
O O1 0.311063 0.326391 0.189692
O O2 0.242318 0.135852 0.130435
O O3 0.046354 0.609284 0.312672
O O4 0.108847 0.555244 0.013969
O O5 0.824727 0.425489 0.247245
O O6 0.109829 0.065417 0.135605
O O7 0.000000 0.000000 0.000000
O O8 0.080959 0.295781 0.403707
O O9 0.176715 0.274430 0.669837
O O10 0.213890 0.926983 0.570843
O O11 0.329001 0.230274 0.469917
O O12 0.351579 0.483525 0.405874
O O13 0.572784 0.962161 0.276285
O O14 0.660308 0.233627 0.722648
O O15 0.500000 0.500000 0.500000
#
# Coordination Sequence:
#
# PCOD8010120 Si02
#       7
#     2   2   2   2   2   2   2
#     4  12  23  40  66  95 128 176 215 251 332 382
#     4  12  27  42  61  95 137 174 212 262 317 394
#     4  10  21  40  69  96 123 168 216 276 313 372
#     4  11  22  40  68  98 124 169 215 277 318 367
#     4  10  21  40  64  92 126 164 219 264 312 376
#     4  11  23  42  67  95 134 164 218 266 324 381
#     4  10  21  37  66 100 128 155 213 278 323 366
#
# _framework density 21.034457
#
# number of rings (size 3 to 8) (size 9 to 14) (size 15 to 20)
#    0.857    0.286    4.286    2.571    4.000    1.143 
#    0.000    0.000    0.000    2.571    0.000    0.000 
#    0.000    0.000    0.000    0.000    0.000    0.000 
#
# Total GULP energy -173543.634477 kJ/mol
# GULP energy per Si atom -12395.973891 kJ/mol
# Density = 2.098658 g / cm^3
# Si number density = 21.034457 Si / 1000 Ang^3
#
#
#
# Elastic Constant Matrix: (Units=GPa)
#
#
# Indices 1 2 3 4 5 6 
#
# 1 106.3030 49.2710 25.8758 -5.2350 36.2792 -8.8598
# 2 49.2710 121.9726 26.0085 -14.8214 20.2199 -10.0777
# 3 25.8758 26.0085 58.4462 -10.8073 26.0091 -7.6695
# 4 -5.2350 -14.8214 -10.8073 50.1492 1.1186 10.2513
# 5 36.2792 20.2199 26.0091 1.1186 35.6164 -4.9839
# 6 -8.8598 -10.0777 -7.6695 10.2513 -4.9839 37.1705
#
#
#
# Elastic Compliance Matrix: (Units=1/GPa)
#
#
# Indices 1 2 3 4 5 6 
#
# 1 0.016322 -0.004228 0.001845 0.001042 -0.015499 0.000759
# 2 -0.004228 0.010735 -0.002440 0.002032 0.000048 0.000846
# 3 0.001845 -0.002440 0.027870 0.005706 -0.020863 0.001158
# 4 0.001042 0.002032 0.005706 0.023173 -0.007875 -0.005470
# 5 -0.015499 0.000048 -0.020863 -0.007875 0.059625 0.002181
# 6 0.000759 0.000846 0.001158 -0.005470 0.002181 0.029353
#
#
# Mechanical properties :
#
#
# Convention : Reuss Voigt Hill
#
# Bulk Modulus (GPa) = 22.08448 54.33694 38.21071
# Shear Modulus (GPa) = 26.06617 36.95832 31.51224
#
# Velocity S-wave (km/s) = 3.52406 4.19625 3.87476
# Velocity P-wave (km/s) = 5.20391 7.02613 6.18252
#
# Compressibility (1/GPa) = 0.04528066
#
# Stress axis : x y z
#
# Youngs Moduli (GPa) = 61.26812 93.14905 35.88034
#
# Poissons Ratio (x) = 0.39382 -0.06619
# Poissons Ratio (y) = 0.25903 0.08756
# Poissons Ratio (z) = -0.11303 0.22733
#
# Static dielectric constant tensor:
#      x y z
#    x 3.303200 -0.240670 0.108080 
#    y -0.240670 3.949140 -0.154360 
#    z 0.108080 -0.154360 3.611170 
# 
# 
# High freq. dielectric constant tensor:
#      x y z
#    x 1.817040 -0.001530 0.023620 
#    y -0.001530 1.845480 -0.011120 
#    z 0.023620 -0.011120 1.802640 
# 
# From -- ./inp_files/299221.got.cif
#   From: 2010.06.25/outbox.cif.g09.slc.cpg/sg2_150_cif.got.tgz:299221.got - 2010.06.27 13:26:56.
