data_PCOD8010271
_publ_section_title
;
Structure prediction by ZEFSAII (Michael W. Deem and Ramdas Pophale) SiO2 
 PCOD8010271
Probable space group: P -1
;
_chemical_formula_sum "Si O2"
_cell_formula_units_Z 16
_cell_length_a 25.206285
_cell_length_b 9.316459
_cell_length_c 9.868545
_cell_angle_alpha 29.231498
_cell_angle_beta 42.154322
_cell_angle_gamma 45.873794
_cell_volume 750.878330
_symmetry_space_group_name_H-M "P -1"
_symmetry_group_IT_number 2
_symmetry_cell_setting 'triclinic'
loop_
_space_group_symop_operation_xyz
x,y,z
-x,-y,-z
loop_
_atom_site_type_symbol
_atom_site_label
_atom_site_fract_x
_atom_site_fract_y
_atom_site_fract_z
Si Si1 0.666999 0.945146 0.375429
Si Si2 0.223827 0.242331 0.907318
Si Si3 0.022442 0.275782 0.481951
Si Si4 0.294501 0.808176 0.337038
Si Si5 0.055605 0.626702 0.893351
Si Si6 0.248364 0.962548 0.591970
Si Si7 0.862825 0.485186 0.734192
Si Si8 0.409523 0.629317 0.037353
O O1 0.687980 0.073980 0.375538
O O2 0.745553 0.937088 0.138485
O O3 0.642678 0.620968 0.702394
O O4 0.594687 0.155134 0.263325
O O5 0.284255 0.466009 0.651853
O O6 0.141398 0.438349 0.867121
O O7 0.221608 0.013133 0.225942
O O8 0.086151 0.296756 0.462176
O O9 0.930344 0.263466 0.708149
O O10 0.053794 0.977046 0.584631
O O11 0.023171 0.573510 0.148050
O O12 0.297964 0.934536 0.379201
O O13 0.373976 0.809211 0.092299
O O14 0.000000 0.500000 0.000000
O O15 0.197089 0.292128 0.429759
O O16 0.189605 0.711591 0.914708
O O17 0.500000 0.500000 0.000000
#
# Coordination Sequence:
#
# PCOD8010271 Si02
#       8
#     2   2   2   2   2   2   2   2
#     4  10  23  38  62  95 121 155 200 247 301 362
#     4  10  21  38  58  81 117 158 205 247 300 365
#     4  11  24  41  53  85 112 157 221 244 325 363
#     4  10  21  38  64  88 113 160 201 237 294 368
#     4  12  24  37  57  81 117 157 207 265 307 351
#     4  12  22  39  62  91 121 154 208 256 308 343
#     4  11  24  38  63  78 120 164 197 269 304 370
#     4  10  21  43  66  92 126 161 191 234 298 375
#
# _framework density 21.308378000000001
#
# number of rings (size 3 to 8) (size 9 to 14) (size 15 to 20)
#    0.000    1.250    0.000    6.750    3.500    2.000 
#    0.000    1.250    0.000    0.000    0.000    0.000 
#    0.000    0.000    0.000    0.000    0.000    0.000 
#
# Total GULP energy -198343.148770 kJ/mol
# GULP energy per Si atom -12396.446798 kJ/mol
# Density = 2.125988 g / cm^3
# Si number density = 21.308378 Si / 1000 Ang^3
#
#
#
# Elastic Constant Matrix: (Units=GPa)
#
#
# Indices 1 2 3 4 5 6 
#
# 1 104.5133 64.1056 15.2551 7.7672 18.2246 1.7520
# 2 64.1056 103.3526 16.8569 -4.5144 8.4707 -9.6901
# 3 15.2551 16.8569 72.7963 -10.4692 12.8582 -1.4758
# 4 7.7672 -4.5144 -10.4692 35.4301 0.3401 5.1207
# 5 18.2246 8.4707 12.8582 0.3401 30.7287 -0.8219
# 6 1.7520 -9.6901 -1.4758 5.1207 -0.8219 32.4647
#
#
#
# Elastic Compliance Matrix: (Units=1/GPa)
#
#
# Indices 1 2 3 4 5 6 
#
# 1 0.018269 -0.011171 -0.000716 -0.005026 -0.007501 -0.003750
# 2 -0.011171 0.017278 -0.001521 0.003422 0.002601 0.005217
# 3 -0.000716 -0.001521 0.015964 0.004824 -0.005906 -0.000600
# 4 -0.005026 0.003422 0.004824 0.031698 -0.000425 -0.003499
# 5 -0.007501 0.002601 -0.005906 -0.000425 0.038803 0.001962
# 6 -0.003750 0.005217 -0.000600 -0.003499 0.001962 0.033137
#
#
# Mechanical properties :
#
#
# Convention : Reuss Voigt Hill
#
# Bulk Modulus (GPa) = 40.49442 52.56638 46.53040
# Shear Modulus (GPa) = 26.28862 32.02099 29.15481
#
# Velocity S-wave (km/s) = 3.51625 3.88073 3.70297
# Velocity P-wave (km/s) = 5.96075 6.69350 6.33773
#
# Compressibility (1/GPa) = 0.02469476
#
# Stress axis : x y z
#
# Youngs Moduli (GPa) = 54.73723 57.87594 62.64142
#
# Poissons Ratio (x) = 0.64655 0.04482
# Poissons Ratio (y) = 0.61148 0.09531
# Poissons Ratio (z) = 0.03917 0.08806
#
# Static dielectric constant tensor:
#      x y z
#    x 3.631820 -0.091920 0.211320 
#    y -0.091920 3.884780 -0.111390 
#    z 0.211320 -0.111390 4.044730 
# 
# 
# High freq. dielectric constant tensor:
#      x y z
#    x 1.810680 0.000400 0.014800 
#    y 0.000400 1.832920 -0.012200 
#    z 0.014800 -0.012200 1.848580 
# 
# From -- ./inp_files/217589.got.cif
#   From: 2010.06.25/outbox.cif.g09.slc.cpg/sg2_109_cif.got.tgz:217589.got - 2010.06.27 13:26:56.
