data_PCOD8010658
_publ_section_title
;
Structure prediction by ZEFSAII (Michael W. Deem and Ramdas Pophale) SiO2 
 PCOD8010658
Probable space group: P -1
;
_chemical_formula_sum "Si O2"
_cell_formula_units_Z 16
_cell_length_a 8.680679
_cell_length_b 8.557811
_cell_length_c 13.034522
_cell_angle_alpha 114.860745
_cell_angle_beta 118.103956
_cell_angle_gamma 96.389777
_cell_volume 714.759363
_symmetry_space_group_name_H-M "P -1"
_symmetry_group_IT_number 2
_symmetry_cell_setting 'triclinic'
loop_
_space_group_symop_operation_xyz
x,y,z
-x,-y,-z
loop_
_atom_site_type_symbol
_atom_site_label
_atom_site_fract_x
_atom_site_fract_y
_atom_site_fract_z
Si Si1 0.571973 0.405903 0.761740
Si Si2 0.920132 0.812038 0.288631
Si Si3 0.068311 0.701898 0.698392
Si Si4 0.858032 0.082081 0.028042
Si Si5 0.521832 0.709668 0.082279
Si Si6 0.174846 0.216871 0.517639
Si Si7 0.479321 0.763101 0.861885
Si Si8 0.032612 0.493500 0.191241
O O1 0.569151 0.289273 0.833399
O O2 0.401353 0.295872 0.599031
O O3 0.558706 0.602158 0.835989
O O4 0.760837 0.437353 0.770259
O O5 0.743792 0.846674 0.193804
O O6 0.866560 0.742336 0.368409
O O7 0.949924 0.651299 0.185247
O O8 0.103735 0.001999 0.401381
O O9 0.277127 0.715809 0.730385
O O10 0.930072 0.678023 0.553121
O O11 0.962385 0.521290 0.687285
O O12 0.093523 0.886031 0.826071
O O13 0.637898 0.944164 0.908359
O O14 0.897240 0.288348 0.046643
O O15 0.000000 0.000000 0.000000
O O16 0.439870 0.785017 0.978890
O O17 0.500000 0.500000 0.000000
#
# Coordination Sequence:
#
# PCOD8010658 Si02
#       8
#     2   2   2   2   2   2   2   2
#     4  10  21  38  62  91 126 167 201 260 310 366
#     4  10  21  41  62  90 121 165 208 259 303 362
#     4  10  22  37  64  94 117 170 205 256 304 366
#     4  10  21  39  59  89 132 160 192 260 314 371
#     4   9  19  35  63  88 119 160 207 259 304 360
#     4  10  22  41  63  86 128 161 215 258 295 361
#     4  11  19  39  64  91 125 157 217 253 307 368
#     4  10  22  38  61  94 125 162 205 248 324 368
#
# _framework density 22.385155000000001
#
# number of rings (size 3 to 8) (size 9 to 14) (size 15 to 20)
#    0.750    1.250    1.250    3.375    0.000    3.000 
#    0.000    9.375    0.000    0.000    0.000    0.000 
#    0.000    0.000    0.000    0.000    0.000    0.000 
#
# Total GULP energy -198231.254482 kJ/mol
# GULP energy per Si atom -12389.453405 kJ/mol
# Density = 2.233421 g / cm^3
# Si number density = 22.385155 Si / 1000 Ang^3
#
#
#
# Elastic Constant Matrix: (Units=GPa)
#
#
# Indices 1 2 3 4 5 6 
#
# 1 135.6426 43.6039 27.8406 10.1233 28.5652 13.9911
# 2 43.6039 65.9713 21.6127 4.9209 14.4506 1.2400
# 3 27.8406 21.6127 78.3924 -2.6862 24.0116 10.1857
# 4 10.1233 4.9209 -2.6862 43.9719 -3.7621 2.0616
# 5 28.5652 14.4506 24.0116 -3.7621 28.8453 19.1410
# 6 13.9911 1.2400 10.1857 2.0616 19.1410 26.0475
#
#
#
# Elastic Compliance Matrix: (Units=1/GPa)
#
#
# Indices 1 2 3 4 5 6 
#
# 1 0.011143 -0.004941 0.000275 -0.003009 -0.010640 0.002200
# 2 -0.004941 0.021893 -0.002041 -0.003094 -0.012766 0.012036
# 3 0.000275 -0.002041 0.018118 -0.000673 -0.018971 0.006858
# 4 -0.003009 -0.003094 -0.000673 0.025719 0.016492 -0.012128
# 5 -0.010640 -0.012766 -0.018971 0.016492 0.119621 -0.075468
# 6 0.002200 0.012036 0.006858 -0.012128 -0.075468 0.090373
#
#
# Mechanical properties :
#
#
# Convention : Reuss Voigt Hill
#
# Bulk Modulus (GPa) = 26.49669 51.79118 39.14394
# Shear Modulus (GPa) = 15.98155 32.23619 24.10887
#
# Velocity S-wave (km/s) = 2.67486 3.79894 3.28533
# Velocity P-wave (km/s) = 4.62625 6.51377 5.64940
#
# Compressibility (1/GPa) = 0.03774056
#
# Stress axis : x y z
#
# Youngs Moduli (GPa) = 89.74536 45.67581 55.19431
#
# Poissons Ratio (x) = 0.22569 -0.01519
# Poissons Ratio (y) = 0.44345 0.11264
# Poissons Ratio (z) = -0.02470 0.09321
#
# Static dielectric constant tensor:
#      x y z
#    x 3.949030 0.170160 0.142350 
#    y 0.170160 3.982190 0.035900 
#    z 0.142350 0.035900 4.105030 
# 
# 
# High freq. dielectric constant tensor:
#      x y z
#    x 1.874010 0.002740 0.015350 
#    y 0.002740 1.877590 0.011610 
#    z 0.015350 0.011610 1.869490 
# 
# From -- ./inp_files/495641.got.cif
#   From: 2010.06.25/outbox.cif.g09.slc.cpg/sg2_248_cif.got.tgz:495641.got - 2010.06.27 13:26:56.
