data_PCOD8010272
_publ_section_title
;
Structure prediction by ZEFSAII (Michael W. Deem and Ramdas Pophale) SiO2 
 PCOD8010272
Probable space group: P -1
;
_chemical_formula_sum "Si O2"
_cell_formula_units_Z 14
_cell_length_a 14.563490
_cell_length_b 14.928184
_cell_length_c 11.485963
_cell_angle_alpha 90.325951
_cell_angle_beta 99.739339
_cell_angle_gamma 159.984526
_cell_volume 735.246399
_symmetry_space_group_name_H-M "P -1"
_symmetry_group_IT_number 2
_symmetry_cell_setting 'triclinic'
loop_
_space_group_symop_operation_xyz
x,y,z
-x,-y,-z
loop_
_atom_site_type_symbol
_atom_site_label
_atom_site_fract_x
_atom_site_fract_y
_atom_site_fract_z
Si Si1 0.232459 0.772589 0.848306
Si Si2 0.751864 0.014136 0.525018
Si Si3 0.863495 0.969952 0.939354
Si Si4 0.143850 0.495949 0.750573
Si Si5 0.424194 0.764790 0.218765
Si Si6 0.435283 0.633138 0.655859
Si Si7 0.640386 0.424151 0.999742
O O1 0.149214 0.607488 0.756863
O O2 0.931017 0.527882 0.853009
O O3 0.346027 0.949502 0.781170
O O4 0.500000 0.000000 0.000000
O O5 0.818530 0.163456 0.620504
O O6 0.081972 0.273400 0.557909
O O7 0.534859 0.841871 0.371401
O O8 0.580807 0.781653 0.562059
O O9 0.636731 0.748713 0.776961
O O10 0.679874 0.840687 0.009527
O O11 0.000000 0.000000 0.000000
O O12 0.143577 0.291669 0.965706
O O13 0.424164 0.715812 0.730046
O O14 0.181561 0.488798 0.887362
O O15 0.442858 0.693303 0.143932
#
# Coordination Sequence:
#
# PCOD8010272 Si02
#       7
#     2   2   2   2   2   2   2
#     4  12  25  37  58  86 122 156 209 251 284 328
#     4  10  21  38  58  81 117 165 196 231 291 353
#     4  11  21  38  68  97 111 142 197 248 288 354
#     4   9  22  36  62  77 118 159 202 236 290 329
#     4  12  26  38  58  88 119 163 197 242 293 342
#     4   9  19  37  59  82 114 154 189 242 294 342
#     4  11  22  39  62  87 121 153 190 239 300 354
#
# _framework density 19.041235
#
# number of rings (size 3 to 8) (size 9 to 14) (size 15 to 20)
#    0.857    0.571    2.857    2.571    4.000    1.143 
#    0.000    0.000    0.000    5.143    0.000    0.000 
#    0.000    0.000    0.000    0.000    0.000    0.000 
#
# Total GULP energy -173563.888118 kJ/mol
# GULP energy per Si atom -12397.420580 kJ/mol
# Density = 1.899790 g / cm^3
# Si number density = 19.041235 Si / 1000 Ang^3
#
#
#
# Elastic Constant Matrix: (Units=GPa)
#
#
# Indices 1 2 3 4 5 6 
#
# 1 67.6003 21.8385 28.2796 -4.5301 12.3447 0.3617
# 2 21.8385 114.0658 12.0204 -7.3233 6.5896 2.7253
# 3 28.2796 12.0204 105.5921 -2.2019 6.7871 5.5403
# 4 -4.5301 -7.3233 -2.2019 24.3086 -0.3881 0.8218
# 5 12.3447 6.5896 6.7871 -0.3881 19.2648 -3.0343
# 6 0.3617 2.7253 5.5403 0.8218 -3.0343 23.0702
#
#
#
# Elastic Compliance Matrix: (Units=1/GPa)
#
#
# Indices 1 2 3 4 5 6 
#
# 1 0.019356 -0.002524 -0.004178 0.002321 -0.010085 -0.000411
# 2 -0.002524 0.009558 -0.000177 0.002411 -0.001756 -0.001364
# 3 -0.004178 -0.000177 0.010854 0.000219 -0.001511 -0.002727
# 4 0.002321 0.002411 0.000219 0.042359 -0.001871 -0.002129
# 5 -0.010085 -0.001756 -0.001511 -0.001871 0.060852 0.008799
# 6 -0.000411 -0.001364 -0.002727 -0.002129 0.008799 0.045401
#
#
# Mechanical properties :
#
#
# Convention : Reuss Voigt Hill
#
# Bulk Modulus (GPa) = 38.44909 45.72614 42.08762
# Shear Modulus (GPa) = 23.71827 28.33670 26.02748
#
# Velocity S-wave (km/s) = 3.53317 3.86187 3.70117
# Velocity P-wave (km/s) = 6.07296 6.62962 6.35738
#
# Compressibility (1/GPa) = 0.02600842
#
# Stress axis : x y z
#
# Youngs Moduli (GPa) = 51.66469 104.62902 92.12867
#
# Poissons Ratio (x) = 0.26408 0.38494
# Poissons Ratio (y) = 0.13040 0.01634
# Poissons Ratio (z) = 0.21587 0.01856
#
# Static dielectric constant tensor:
#      x y z
#    x 3.204090 0.024240 0.074480 
#    y 0.024240 3.690200 0.002850 
#    z 0.074480 0.002850 3.417430 
# 
# 
# High freq. dielectric constant tensor:
#      x y z
#    x 1.705100 0.007460 0.008250 
#    y 0.007460 1.758000 -0.003730 
#    z 0.008250 -0.003730 1.739930 
# 
# From -- ./inp_files/128270.got.cif
#   From: 2010.06.25/outbox.cif.g09.slc.cpg/sg2_65_cif.got.tgz:128270.got - 2010.06.27 13:26:56.
