data_PCOD8010888
_publ_section_title
;
Structure prediction by ZEFSAII (Michael W. Deem and Ramdas Pophale) SiO2 
 PCOD8010888
Probable space group: P -1
;
_chemical_formula_sum "Si O2"
_cell_formula_units_Z 16
_cell_length_a 13.542445
_cell_length_b 7.944259
_cell_length_c 8.378742
_cell_angle_alpha 77.262650
_cell_angle_beta 126.349602
_cell_angle_gamma 76.999576
_cell_volume 631.434395
_symmetry_space_group_name_H-M "P -1"
_symmetry_group_IT_number 2
_symmetry_cell_setting 'triclinic'
loop_
_space_group_symop_operation_xyz
x,y,z
-x,-y,-z
loop_
_atom_site_type_symbol
_atom_site_label
_atom_site_fract_x
_atom_site_fract_y
_atom_site_fract_z
Si Si1 0.799291 0.957225 0.728415
Si Si2 0.392295 0.598992 0.596821
Si Si3 0.582990 0.702534 0.077235
Si Si4 0.194081 0.310258 0.950473
Si Si5 0.055663 0.204781 0.592737
Si Si6 0.315248 0.515204 0.216428
Si Si7 0.671449 0.950994 0.301368
Si Si8 0.060700 0.838986 0.815234
O O1 0.731466 0.874590 0.549443
O O2 0.962413 0.859557 0.867175
O O3 0.726644 0.186971 0.587507
O O4 0.776213 0.895495 0.896189
O O5 0.378972 0.509780 0.772497
O O6 0.369074 0.474764 0.457551
O O7 0.548566 0.574663 0.745907
O O8 0.685558 0.696401 0.041698
O O9 0.586570 0.834915 0.200081
O O10 0.427645 0.815149 0.835182
O O11 0.059048 0.361858 0.694668
O O12 0.199075 0.441475 0.076968
O O13 0.211053 0.081368 0.706957
O O14 0.956885 0.290460 0.323987
O O15 0.008979 0.058543 0.662889
O O16 0.219580 0.745313 0.044219
#
# Coordination Sequence:
#
# PCOD8010888 Si02
#       8
#     2   2   2   2   2   2   2   2
#     4  11  24  42  66  93 128 170 214 259 318 382
#     4  11  25  43  66  97 129 167 216 265 315 377
#     4  10  21  38  64  94 130 168 211 263 319 377
#     4  11  24  40  63  96 131 168 211 263 320 378
#     4   9  20  39  64  94 127 166 212 259 319 383
#     4  11  25  42  65  94 130 166 213 268 318 374
#     4   9  19  37  63  93 128 168 210 261 321 379
#     4  10  22  43  67  92 127 171 213 261 318 380
#
# _framework density 25.339134000000001
#
# number of rings (size 3 to 8) (size 9 to 14) (size 15 to 20)
#    0.000    1.750    0.000    3.000    0.000   15.000 
#    0.000    2.500    0.000    0.000    0.000    0.000 
#    0.000    0.000    0.000    0.000    0.000    0.000 
#
# Total GULP energy -198218.054097 kJ/mol
# GULP energy per Si atom -12388.628381 kJ/mol
# Density = 2.528146 g / cm^3
# Si number density = 25.339134 Si / 1000 Ang^3
#
#
#
# Elastic Constant Matrix: (Units=GPa)
#
#
# Indices 1 2 3 4 5 6 
#
# 1 86.2245 4.9112 35.2388 -0.9996 -17.0178 -2.3067
# 2 4.9112 50.6461 12.6448 23.2783 0.6368 7.9649
# 3 35.2388 12.6448 121.2985 12.6158 -3.4312 7.0597
# 4 -0.9996 23.2783 12.6158 42.6702 3.9974 10.1800
# 5 -17.0178 0.6368 -3.4312 3.9974 46.4355 -6.7986
# 6 -2.3067 7.9649 7.0597 10.1800 -6.7986 23.6063
#
#
#
# Elastic Compliance Matrix: (Units=1/GPa)
#
#
# Indices 1 2 3 4 5 6 
#
# 1 0.014691 -0.001515 -0.004299 0.000835 0.005675 0.004507
# 2 -0.001515 0.026876 -0.000761 -0.013694 -0.000264 -0.003159
# 3 -0.004299 -0.000761 0.009891 -0.001888 -0.001054 -0.002610
# 4 0.000835 -0.013694 -0.001888 0.034453 -0.004193 -0.010798
# 5 0.005675 -0.000264 -0.001054 -0.004193 0.025377 0.010075
# 6 0.004507 -0.003159 -0.002610 -0.010798 0.010075 0.052207
#
#
# Mechanical properties :
#
#
# Convention : Reuss Voigt Hill
#
# Bulk Modulus (GPa) = 26.10380 40.41766 33.26073
# Shear Modulus (GPa) = 26.39728 36.23402 31.31565
#
# Velocity S-wave (km/s) = 3.23113 3.78559 3.51930
# Velocity P-wave (km/s) = 4.92386 5.92392 5.44689
#
# Compressibility (1/GPa) = 0.03830860
#
# Stress axis : x y z
#
# Youngs Moduli (GPa) = 68.06878 37.20782 101.10447
#
# Poissons Ratio (x) = 0.05638 0.43461
# Poissons Ratio (y) = 0.10314 0.07692
# Poissons Ratio (z) = 0.29260 0.02831
#
# Static dielectric constant tensor:
#      x y z
#    x 4.124970 0.068270 -0.079400 
#    y 0.068270 4.880830 0.693960 
#    z -0.079400 0.693960 4.921920 
# 
# 
# High freq. dielectric constant tensor:
#      x y z
#    x 1.984870 0.003750 -0.004030 
#    y 0.003750 2.015820 0.029410 
#    z -0.004030 0.029410 2.031510 
# 
# From -- ./inp_files/243554.got.cif
#   From: 2010.06.25/outbox.cif.g09.slc.cpg/sg2_122_cif.got.tgz:243554.got - 2010.06.27 13:26:56.
