data_PCOD8010538
_publ_section_title
;
Structure prediction by ZEFSAII (Michael W. Deem and Ramdas Pophale) SiO2 
 PCOD8010538
Probable space group: P -1
;
_chemical_formula_sum "Si O2"
_cell_formula_units_Z 16
_cell_length_a 14.372899
_cell_length_b 20.170521
_cell_length_c 9.785711
_cell_angle_alpha 92.102535
_cell_angle_beta 97.841878
_cell_angle_gamma 160.825099
_cell_volume 794.672052
_symmetry_space_group_name_H-M "P -1"
_symmetry_group_IT_number 2
_symmetry_cell_setting 'triclinic'
loop_
_space_group_symop_operation_xyz
x,y,z
-x,-y,-z
loop_
_atom_site_type_symbol
_atom_site_label
_atom_site_fract_x
_atom_site_fract_y
_atom_site_fract_z
Si Si1 0.742674 0.686410 0.949004
Si Si2 0.200189 0.624448 0.875704
Si Si3 0.721451 0.526128 0.277021
Si Si4 0.627210 0.837923 0.755011
Si Si5 0.161569 0.558796 0.435199
Si Si6 0.908799 0.294894 0.874573
Si Si7 0.173237 0.808485 0.626508
Si Si8 0.180445 0.869717 0.919319
O O1 0.515671 0.570963 0.786728
O O2 0.926075 0.750694 0.917180
O O3 0.500000 0.500000 0.000000
O O4 0.996451 0.904015 0.101608
O O5 0.398966 0.724298 0.802950
O O6 0.877424 0.442171 0.729263
O O7 0.079603 0.484544 0.947126
O O8 0.447431 0.847665 0.004517
O O9 0.473092 0.305839 0.276878
O O10 0.856572 0.593365 0.161595
O O11 0.023070 0.744090 0.458884
O O12 0.547270 0.810494 0.581591
O O13 0.000000 0.500000 0.500000
O O14 0.952446 0.350984 0.400994
O O15 0.570120 0.077530 0.707773
O O16 0.823440 0.199115 0.991583
O O17 0.057388 0.767553 0.737051
#
# Coordination Sequence:
#
# PCOD8010538 Si02
#       8
#     2   2   2   2   2   2   2   2
#     4  11  21  37  62  84 115 159 208 248 290 361
#     4   9  19  34  58  87 120 163 192 237 303 357
#     4  10  21  38  61  90 113 160 207 245 296 353
#     4   8  18  33  56  86 112 149 197 256 291 343
#     4   9  17  34  57  84 121 155 191 240 305 351
#     4  11  21  38  64  90 122 156 207 246 292 367
#     4  11  23  38  61  90 128 157 191 257 306 351
#     4  11  23  41  59  89 129 160 196 249 306 353
#
# _framework density 20.134091000000002
#
# number of rings (size 3 to 8) (size 9 to 14) (size 15 to 20)
#    0.000    2.000    2.500    1.875    0.000    2.000 
#    0.000    0.000    0.000    3.000    0.000    0.000 
#    0.000    0.000    0.000    0.000    0.000    0.000 
#
# Total GULP energy -198238.195449 kJ/mol
# GULP energy per Si atom -12389.887216 kJ/mol
# Density = 2.008826 g / cm^3
# Si number density = 20.134091 Si / 1000 Ang^3
#
#
#
# Elastic Constant Matrix: (Units=GPa)
#
#
# Indices 1 2 3 4 5 6 
#
# 1 68.1587 32.8380 40.0981 9.2624 13.5943 -18.1365
# 2 32.8380 83.6181 34.7591 4.1090 6.5874 -8.6294
# 3 40.0981 34.7591 98.3815 6.8708 16.6929 -12.1155
# 4 9.2624 4.1090 6.8708 26.8409 1.6188 3.1483
# 5 13.5943 6.5874 16.6929 1.6188 34.5691 5.5900
# 6 -18.1365 -8.6294 -12.1155 3.1483 5.5900 28.0381
#
#
#
# Elastic Compliance Matrix: (Units=1/GPa)
#
#
# Indices 1 2 3 4 5 6 
#
# 1 0.028320 -0.006048 -0.004952 -0.009009 -0.009971 0.017317
# 2 -0.006048 0.015521 -0.003368 0.000607 0.001163 -0.000890
# 3 -0.004952 -0.003368 0.014741 -0.001636 -0.004987 0.003308
# 4 -0.009009 0.000607 -0.001636 0.041832 0.004179 -0.011878
# 5 -0.009971 0.001163 -0.004987 0.004179 0.037457 -0.016184
# 6 0.017317 -0.000890 0.003308 -0.011878 -0.016184 0.052583
#
#
# Mechanical properties :
#
#
# Convention : Reuss Voigt Hill
#
# Bulk Modulus (GPa) = 33.50595 51.72764 42.61680
# Shear Modulus (GPa) = 21.82094 27.38716 24.60405
#
# Velocity S-wave (km/s) = 3.29565 3.69214 3.49952
# Velocity P-wave (km/s) = 5.58205 6.62746 6.12709
#
# Compressibility (1/GPa) = 0.02984545
#
# Stress axis : x y z
#
# Youngs Moduli (GPa) = 35.31110 64.42933 67.83954
#
# Poissons Ratio (x) = 0.38964 0.33595
# Poissons Ratio (y) = 0.21355 0.22849
# Poissons Ratio (z) = 0.17487 0.21701
#
# Static dielectric constant tensor:
#      x y z
#    x 3.400440 -0.254980 0.046460 
#    y -0.254980 3.635310 0.231550 
#    z 0.046460 0.231550 3.910820 
# 
# 
# High freq. dielectric constant tensor:
#      x y z
#    x 1.785990 -0.017520 0.005110 
#    y -0.017520 1.770430 0.008080 
#    z 0.005110 0.008080 1.789200 
# 
# From -- ./inp_files/187878.got.cif
#   From: 2010.06.25/outbox.cif.g09.slc.cpg/sg2_94_cif.got.tgz:187878.got - 2010.06.27 13:26:56.
