data_PCOD8010560
_publ_section_title
;
Structure prediction by ZEFSAII (Michael W. Deem and Ramdas Pophale) SiO2 
 PCOD8010560
Probable space group: P -1
;
_chemical_formula_sum "Si O2"
_cell_formula_units_Z 14
_cell_length_a 8.546197
_cell_length_b 18.529608
_cell_length_c 7.018753
_cell_angle_alpha 67.000933
_cell_angle_beta 103.341073
_cell_angle_gamma 145.889905
_cell_volume 564.414948
_symmetry_space_group_name_H-M "P -1"
_symmetry_group_IT_number 2
_symmetry_cell_setting 'triclinic'
loop_
_space_group_symop_operation_xyz
x,y,z
-x,-y,-z
loop_
_atom_site_type_symbol
_atom_site_label
_atom_site_fract_x
_atom_site_fract_y
_atom_site_fract_z
Si Si1 0.453947 0.717285 0.489504
Si Si2 0.056474 0.905432 0.561614
Si Si3 0.432511 0.142942 0.148803
Si Si4 0.583637 0.941292 0.148716
Si Si5 0.953378 0.214817 0.656385
Si Si6 0.470302 0.327323 0.822617
Si Si7 0.032230 0.622516 0.720115
O O1 0.487365 0.816685 0.311281
O O2 0.393892 0.632360 0.390226
O O3 0.197482 0.616154 0.672346
O O4 0.731727 0.799136 0.593725
O O5 0.110309 0.854264 0.488863
O O6 0.249197 0.054283 0.379405
O O7 0.155865 0.925565 0.783118
O O8 0.768898 0.269471 0.159384
O O9 0.337279 0.038784 0.073542
O O10 0.353513 0.198877 0.004445
O O11 0.318680 0.894900 0.160449
O O12 0.026733 0.332540 0.494750
O O13 0.208993 0.281825 0.781323
O O14 0.728754 0.469059 0.870955
#
# Coordination Sequence:
#
# PCOD8010560 Si02
#       7
#     2   2   2   2   2   2   2
#     4   9  20  37  64  92 118 166 207 252 313 362
#     4  11  21  42  63  95 129 158 209 260 314 373
#     4  11  24  39  66  95 125 164 208 260 310 371
#     4  10  21  38  61  91 129 162 203 250 319 371
#     4  10  22  40  63  91 127 168 204 255 318 369
#     4  10  22  40  64  95 124 163 214 257 308 367
#     4  11  21  42  64  90 129 166 210 258 303 375
#
# _framework density 24.804448000000001
#
# number of rings (size 3 to 8) (size 9 to 14) (size 15 to 20)
#    0.000    1.714    2.857    2.143    0.000    5.714 
#    0.000    3.571    0.000    0.000    0.000    0.000 
#    0.000    0.000    0.000    0.000    0.000    0.000 
#
# Total GULP energy -173609.976014 kJ/mol
# GULP energy per Si atom -12400.712572 kJ/mol
# Density = 2.474799 g / cm^3
# Si number density = 24.804448 Si / 1000 Ang^3
#
#
#
# Elastic Constant Matrix: (Units=GPa)
#
#
# Indices 1 2 3 4 5 6 
#
# 1 120.7498 33.7051 34.8782 7.3339 11.9510 23.7272
# 2 33.7051 131.3707 27.1970 19.8023 3.5394 25.3457
# 3 34.8782 27.1970 70.3448 16.9572 -1.4772 4.8081
# 4 7.3339 19.8023 16.9572 34.8417 -2.3320 5.9235
# 5 11.9510 3.5394 -1.4772 -2.3320 31.9375 9.3329
# 6 23.7272 25.3457 4.8081 5.9235 9.3329 36.2387
#
#
#
# Elastic Compliance Matrix: (Units=1/GPa)
#
#
# Indices 1 2 3 4 5 6 
#
# 1 0.011345 -0.000867 -0.005314 0.001481 -0.002626 -0.005683
# 2 -0.000867 0.009865 -0.002175 -0.003373 0.000529 -0.005628
# 3 -0.005314 -0.002175 0.019308 -0.007485 0.001628 0.003243
# 4 0.001481 -0.003373 -0.007485 0.034871 0.003232 -0.004150
# 5 -0.002626 0.000529 0.001628 0.003232 0.035004 -0.008410
# 6 -0.005683 -0.005628 0.003243 -0.004150 -0.008410 0.037666
#
#
# Mechanical properties :
#
#
# Convention : Reuss Voigt Hill
#
# Bulk Modulus (GPa) = 42.00543 57.11401 49.55972
# Shear Modulus (GPa) = 28.95093 35.71593 32.33343
#
# Velocity S-wave (km/s) = 3.42009 3.79872 3.61436
# Velocity P-wave (km/s) = 5.70679 6.50508 6.11896
#
# Compressibility (1/GPa) = 0.02380645
#
# Stress axis : x y z
#
# Youngs Moduli (GPa) = 88.14475 101.36975 51.79173
#
# Poissons Ratio (x) = 0.08787 0.27521
# Poissons Ratio (y) = 0.07640 0.11266
# Poissons Ratio (z) = 0.46837 0.22051
#
# Static dielectric constant tensor:
#      x y z
#    x 4.753460 -0.117930 -0.066310 
#    y -0.117930 4.385510 0.230780 
#    z -0.066310 0.230780 4.414640 
# 
# 
# High freq. dielectric constant tensor:
#      x y z
#    x 1.999650 0.000930 0.009250 
#    y 0.000930 1.981210 0.012360 
#    z 0.009250 0.012360 1.980360 
# 
# From -- ./inp_files/221980.got.cif
#   From: 2010.06.25/outbox.cif.g09.slc.cpg/sg2_111_cif.got.tgz:221980.got - 2010.06.27 13:26:56.
