data_PCOD8010152
_publ_section_title
;
Structure prediction by ZEFSAII (Michael W. Deem and Ramdas Pophale) SiO2 
 PCOD8010152
Probable space group: P -1
;
_chemical_formula_sum "Si O2"
_cell_formula_units_Z 16
_cell_length_a 13.033546
_cell_length_b 8.622089
_cell_length_c 9.439272
_cell_angle_alpha 62.618288
_cell_angle_beta 127.457781
_cell_angle_gamma 97.286227
_cell_volume 729.888178
_symmetry_space_group_name_H-M "P -1"
_symmetry_group_IT_number 2
_symmetry_cell_setting 'triclinic'
loop_
_space_group_symop_operation_xyz
x,y,z
-x,-y,-z
loop_
_atom_site_type_symbol
_atom_site_label
_atom_site_fract_x
_atom_site_fract_y
_atom_site_fract_z
Si Si1 0.079873 0.448593 0.293706
Si Si2 0.799644 0.515511 0.904146
Si Si3 0.378714 0.998898 0.997855
Si Si4 0.617176 0.802922 0.814821
Si Si5 0.094686 0.100758 0.627998
Si Si6 0.945974 0.151216 0.772163
Si Si7 0.664808 0.135341 0.543701
Si Si8 0.614292 0.329728 0.691111
O O1 0.188503 0.397076 0.279196
O O2 0.107086 0.295316 0.499168
O O3 0.071111 0.648145 0.263654
O O4 0.941771 0.431726 0.117998
O O5 0.713066 0.630953 0.903700
O O6 0.727079 0.354743 0.883915
O O7 0.246266 0.985128 0.806255
O O8 0.344211 0.171828 0.000443
O O9 0.500000 0.000000 0.000000
O O10 0.440281 0.833147 0.221753
O O11 0.462511 0.787351 0.693798
O O12 0.643622 0.953200 0.668095
O O13 0.048917 0.125409 0.741631
O O14 0.000000 0.000000 0.500000
O O15 0.809558 0.113975 0.602910
O O16 0.000000 0.000000 0.000000
O O17 0.677799 0.279382 0.613531
O O18 0.500000 0.500000 0.500000
#
# Coordination Sequence:
#
# PCOD8010152 Si02
#       8
#     2   2   2   2   2   2   2   2
#     4  11  26  42  71 101 140 186 228 293 356 425
#     4  11  22  41  70 103 134 172 240 284 354 411
#     4  11  27  46  67  98 142 182 229 287 362 416
#     4  10  22  40  65  96 136 175 228 286 339 417
#     4  12  29  47  71 104 145 185 237 294 358 420
#     4  12  25  45  72 102 145 184 237 286 357 424
#     4  10  21  37  66  97 128 177 225 274 345 410
#     4  11  21  41  68 101 131 172 224 291 336 422
#
# _framework density 21.921165999999999
#
# number of rings (size 3 to 8) (size 9 to 14) (size 15 to 20)
#    0.000    1.000    2.500    4.125    8.750    0.000 
#    0.000    0.625    0.000    0.000    0.000    0.000 
#    0.000    0.000    0.000    0.000    0.000    0.000 
#
# Total GULP energy -198256.277315 kJ/mol
# GULP energy per Si atom -12391.017332 kJ/mol
# Density = 2.187127 g / cm^3
# Si number density = 21.921166 Si / 1000 Ang^3
#
#
#
# Elastic Constant Matrix: (Units=GPa)
#
#
# Indices 1 2 3 4 5 6 
#
# 1 127.7896 15.4350 41.8378 9.4176 6.2327 13.1743
# 2 15.4350 89.0989 29.3562 11.9386 4.2722 6.1794
# 3 41.8378 29.3562 92.1146 -1.0361 -0.6066 5.7222
# 4 9.4176 11.9386 -1.0361 40.6292 7.0653 -0.6705
# 5 6.2327 4.2722 -0.6066 7.0653 41.7896 6.1139
# 6 13.1743 6.1794 5.7222 -0.6705 6.1139 20.6105
#
#
#
# Elastic Compliance Matrix: (Units=1/GPa)
#
#
# Indices 1 2 3 4 5 6 
#
# 1 0.009951 0.000441 -0.004365 -0.002566 -0.000391 -0.005248
# 2 0.000441 0.013353 -0.004311 -0.004129 -0.000339 -0.003123
# 3 -0.004365 -0.004311 0.014250 0.002487 0.000886 -0.000055
# 4 -0.002566 -0.004129 0.002487 0.027325 -0.004421 0.004388
# 5 -0.000391 -0.000339 0.000886 -0.004421 0.025913 -0.007725
# 6 -0.005248 -0.003123 -0.000055 0.004388 -0.007725 0.055260
#
#
# Mechanical properties :
#
#
# Convention : Reuss Voigt Hill
#
# Bulk Modulus (GPa) = 47.42996 53.58457 50.50726
# Shear Modulus (GPa) = 29.48993 35.43081 32.46037
#
# Velocity S-wave (km/s) = 3.67177 4.02466 3.85226
# Velocity P-wave (km/s) = 6.29758 6.78929 6.54805
#
# Compressibility (1/GPa) = 0.02108372
#
# Stress axis : x y z
#
# Youngs Moduli (GPa) = 100.49698 74.88763 70.17623
#
# Poissons Ratio (x) = -0.03303 0.30635
# Poissons Ratio (y) = -0.04433 0.30251
# Poissons Ratio (z) = 0.43872 0.32281
#
# Static dielectric constant tensor:
#      x y z
#    x 4.396810 0.354020 0.422490 
#    y 0.354020 3.819230 0.247920 
#    z 0.422490 0.247920 4.090610 
# 
# 
# High freq. dielectric constant tensor:
#      x y z
#    x 1.872840 0.003340 0.014390 
#    y 0.003340 1.869920 0.014540 
#    z 0.014390 0.014540 1.849450 
# 
# From -- ./inp_files/242693.got.cif
#   From: 2010.06.25/outbox.cif.g09.slc.cpg/sg2_122_cif.got.tgz:242693.got - 2010.06.27 13:26:56.
