data_PCOD8010806
_publ_section_title
;
Structure prediction by ZEFSAII (Michael W. Deem and Ramdas Pophale) SiO2 
 PCOD8010806
Probable space group: P -1
;
_chemical_formula_sum "Si O2"
_cell_formula_units_Z 14
_cell_length_a 14.051077
_cell_length_b 11.267901
_cell_length_c 5.212854
_cell_angle_alpha 73.098522
_cell_angle_beta 72.619535
_cell_angle_gamma 47.677566
_cell_volume 577.647216
_symmetry_space_group_name_H-M "P -1"
_symmetry_group_IT_number 2
_symmetry_cell_setting 'triclinic'
loop_
_space_group_symop_operation_xyz
x,y,z
-x,-y,-z
loop_
_atom_site_type_symbol
_atom_site_label
_atom_site_fract_x
_atom_site_fract_y
_atom_site_fract_z
Si Si1 0.872113 0.127884 0.678721
Si Si2 0.501902 0.350036 0.112023
Si Si3 0.026979 0.699698 0.421526
Si Si4 0.865624 0.863870 0.966547
Si Si5 0.721079 0.649080 0.591736
Si Si6 0.649846 0.851924 0.019249
Si Si7 0.394645 0.692890 0.445255
O O1 0.749667 0.246568 0.512322
O O2 0.895451 0.234573 0.754766
O O3 0.845621 0.026940 0.935903
O O4 0.000000 0.000000 0.500000
O O5 0.358967 0.410224 0.230585
O O6 0.596821 0.235121 0.343877
O O7 0.500000 0.500000 0.000000
O O8 0.564902 0.249361 0.860480
O O9 0.959590 0.764771 0.710943
O O10 0.871535 0.494151 0.528334
O O11 0.924614 0.753853 0.243356
O O12 0.725662 0.916653 0.990735
O O13 0.663788 0.746015 0.311084
O O14 0.711909 0.751973 0.769004
O O15 0.500000 0.000000 0.000000
O O16 0.500000 0.500000 0.500000
#
# Coordination Sequence:
#
# PCOD8010806 Si02
#       7
#     2   2   2   2   2   2   2
#     4  10  24  44  70 108 149 187 231 298 369 440
#     4  10  22  38  64 104 135 176 223 288 360 406
#     4  11  24  46  74 112 139 181 245 295 373 426
#     4  11  26  45  73 101 148 196 230 296 359 437
#     4  12  26  46  77 104 145 184 246 312 344 430
#     4  12  29  51  70 104 144 195 251 292 359 426
#     4  10  21  38  63  97 140 182 231 276 351 425
#
# _framework density 24.236246000000001
#
# number of rings (size 3 to 8) (size 9 to 14) (size 15 to 20)
#    0.000    1.143    0.000    5.143    4.000   13.714 
#    0.000    0.000    0.000    0.000    0.000    0.000 
#    0.000    0.000    0.000    0.000    0.000    0.000 
#
# Total GULP energy -173555.213953 kJ/mol
# GULP energy per Si atom -12396.800997 kJ/mol
# Density = 2.418108 g / cm^3
# Si number density = 24.236246 Si / 1000 Ang^3
#
#
#
# Elastic Constant Matrix: (Units=GPa)
#
#
# Indices 1 2 3 4 5 6 
#
# 1 113.8360 30.5744 23.9608 -9.1308 13.4297 -23.0499
# 2 30.5744 102.7390 34.4159 -12.4184 11.0044 -19.4787
# 3 23.9608 34.4159 153.9554 8.6435 32.1455 -6.4633
# 4 -9.1308 -12.4184 8.6435 33.1851 0.5594 5.7387
# 5 13.4297 11.0044 32.1455 0.5594 51.4774 -5.9358
# 6 -23.0499 -19.4787 -6.4633 5.7387 -5.9358 41.6805
#
#
#
# Elastic Compliance Matrix: (Units=1/GPa)
#
#
# Indices 1 2 3 4 5 6 
#
# 1 0.010639 -0.001637 -0.000918 0.001792 -0.001348 0.004537
# 2 -0.001637 0.012324 -0.002523 0.004155 -0.000232 0.003858
# 3 -0.000918 -0.002523 0.008280 -0.003176 -0.004426 -0.000596
# 4 0.001792 0.004155 -0.003176 0.033381 0.000016 -0.002153
# 5 -0.001348 -0.000232 -0.004426 0.000016 0.022787 0.001702
# 6 0.004537 0.003858 -0.000596 -0.002153 0.001702 0.028751
#
#
# Mechanical properties :
#
#
# Convention : Reuss Voigt Hill
#
# Bulk Modulus (GPa) = 47.42536 60.93695 54.18115
# Shear Modulus (GPa) = 37.49582 44.04056 40.76819
#
# Velocity S-wave (km/s) = 3.93758 4.26741 4.10581
# Velocity P-wave (km/s) = 6.34690 7.03410 6.69932
#
# Compressibility (1/GPa) = 0.02108576
#
# Stress axis : x y z
#
# Youngs Moduli (GPa) = 93.99244 81.13996 120.77788
#
# Poissons Ratio (x) = 0.13284 0.11092
# Poissons Ratio (y) = 0.15389 0.30473
# Poissons Ratio (z) = 0.08632 0.20472
#
# Static dielectric constant tensor:
#      x y z
#    x 4.376890 1.993430 4.801390 
#    y 1.993430 -9.580100 -34.004420 
#    z 4.801390 -34.004420 -78.203370 
# 
# 
# High freq. dielectric constant tensor:
#      x y z
#    x 1.977080 -0.008910 0.006210 
#    y -0.008910 1.954070 0.002140 
#    z 0.006210 0.002140 1.969840 
# 
# From -- ./inp_files/65823.got.cif
#   From: 2010.06.25/outbox.cif.g09.slc.cpg/sg2_33_cif.got.tgz:65823.got - 2010.06.27 13:26:56.
