data_PCOD8010180
_publ_section_title
;
Structure prediction by ZEFSAII (Michael W. Deem and Ramdas Pophale) SiO2 
 PCOD8010180
Probable space group: P -1
;
_chemical_formula_sum "Si O2"
_cell_formula_units_Z 16
_cell_length_a 12.907242
_cell_length_b 18.772497
_cell_length_c 9.551836
_cell_angle_alpha 67.957329
_cell_angle_beta 138.225896
_cell_angle_gamma 143.239132
_cell_volume 766.215942
_symmetry_space_group_name_H-M "P -1"
_symmetry_group_IT_number 2
_symmetry_cell_setting 'triclinic'
loop_
_space_group_symop_operation_xyz
x,y,z
-x,-y,-z
loop_
_atom_site_type_symbol
_atom_site_label
_atom_site_fract_x
_atom_site_fract_y
_atom_site_fract_z
Si Si1 0.724586 0.663910 0.249707
Si Si2 0.652632 0.344806 0.100501
Si Si3 0.255021 0.051837 0.274151
Si Si4 0.746337 0.944950 0.220507
Si Si5 0.698619 0.028287 0.365249
Si Si6 0.638532 0.629724 0.865193
Si Si7 0.191230 0.916276 0.061934
Si Si8 0.290506 0.638910 0.530776
O O1 0.560826 0.525662 0.263216
O O2 0.050372 0.804261 0.536475
O O3 0.559802 0.672652 0.116262
O O4 0.753216 0.663163 0.112795
O O5 0.702876 0.339625 0.313873
O O6 0.967650 0.500696 0.243660
O O7 0.523550 0.219414 0.978446
O O8 0.540960 0.220145 0.474537
O O9 0.157156 0.971662 0.379254
O O10 0.322990 0.013647 0.258664
O O11 0.000000 0.000000 0.000000
O O12 0.614849 0.949763 0.196717
O O13 0.000000 0.000000 0.500000
O O14 0.882751 0.049577 0.152239
O O15 0.417276 0.949653 0.205015
O O16 0.446665 0.625055 0.664679
O O17 0.904547 0.749049 0.938045
#
# Coordination Sequence:
#
# PCOD8010180 Si02
#       8
#     2   2   2   2   2   2   2   2
#     4  10  21  39  63 100 136 169 212 269 342 392
#     4  10  21  40  66  97 127 176 220 272 331 394
#     4  12  21  41  70 100 131 169 229 279 323 390
#     4  12  25  46  70  92 134 184 227 274 334 405
#     4  12  26  41  68 100 134 179 220 279 338 397
#     4  10  22  38  65  98 136 166 212 279 336 389
#     4  12  25  42  68 101 132 174 232 275 332 394
#     4  10  21  37  68 100 129 164 224 281 326 386
#
# _framework density 20.881841999999999
#
# number of rings (size 3 to 8) (size 9 to 14) (size 15 to 20)
#    0.000    1.000    5.000    2.250    3.500    1.000 
#    0.000    1.250    0.000    0.000    0.000    0.000 
#    0.000    0.000    0.000    0.000    0.000    0.000 
#
# Total GULP energy -198458.099792 kJ/mol
# GULP energy per Si atom -12403.631237 kJ/mol
# Density = 2.083431 g / cm^3
# Si number density = 20.881842 Si / 1000 Ang^3
#
#
#
# Elastic Constant Matrix: (Units=GPa)
#
#
# Indices 1 2 3 4 5 6 
#
# 1 108.2106 50.1334 43.1829 34.3247 -6.1625 -2.8629
# 2 50.1334 162.4995 56.0733 37.4481 -6.5654 3.8580
# 3 43.1829 56.0733 87.7959 32.3155 1.4285 6.5998
# 4 34.3247 37.4481 32.3155 41.3485 4.8867 -0.1874
# 5 -6.1625 -6.5654 1.4285 4.8867 31.0797 9.9417
# 6 -2.8629 3.8580 6.5998 -0.1874 9.9417 26.3238
#
#
#
# Elastic Compliance Matrix: (Units=1/GPa)
#
#
# Indices 1 2 3 4 5 6 
#
# 1 0.013966 -0.001131 -0.003136 -0.008550 0.003694 0.001015
# 2 -0.001131 0.008947 -0.003214 -0.005040 0.003206 -0.001875
# 3 -0.003136 -0.003214 0.018758 -0.009273 0.000886 -0.004973
# 4 -0.008550 -0.005040 -0.009273 0.044484 -0.011501 0.006794
# 5 0.003694 0.003206 0.000886 -0.011501 0.040346 -0.015609
# 6 0.001015 -0.001875 -0.004973 0.006794 -0.015609 0.045564
#
#
# Mechanical properties :
#
#
# Convention : Reuss Voigt Hill
#
# Bulk Modulus (GPa) = 37.44139 73.03169 55.23654
# Shear Modulus (GPa) = 25.51907 33.69150 29.60529
#
# Velocity S-wave (km/s) = 3.49960 4.02112 3.76939
# Velocity P-wave (km/s) = 5.85651 7.52389 6.74194
#
# Compressibility (1/GPa) = 0.02670841
#
# Stress axis : x y z
#
# Youngs Moduli (GPa) = 71.60138 111.76399 53.31016
#
# Poissons Ratio (x) = 0.12640 0.16719
# Poissons Ratio (y) = 0.08098 0.17136
# Poissons Ratio (z) = 0.22456 0.35926
#
# Static dielectric constant tensor:
#      x y z
#    x 3.749840 -0.019950 -0.023450 
#    y -0.019950 4.146860 0.201060 
#    z -0.023450 0.201060 3.698780 
# 
# 
# High freq. dielectric constant tensor:
#      x y z
#    x 1.813690 -0.009990 0.011880 
#    y -0.009990 1.830250 0.014820 
#    z 0.011880 0.014820 1.801040 
# 
# From -- ./inp_files/261479.got.cif
#   From: 2010.06.25/outbox.cif.g09.slc.cpg/sg2_131_cif.got.tgz:261479.got - 2010.06.27 13:26:56.
