data_PCOD8010739
_publ_section_title
;
Structure prediction by ZEFSAII (Michael W. Deem and Ramdas Pophale) SiO2 
 PCOD8010739
Probable space group: P -1
;
_chemical_formula_sum "Si O2"
_cell_formula_units_Z 14
_cell_length_a 12.430783
_cell_length_b 8.586617
_cell_length_c 9.978222
_cell_angle_alpha 40.237161
_cell_angle_beta 81.678194
_cell_angle_gamma 81.653140
_cell_volume 679.731436
_symmetry_space_group_name_H-M "P -1"
_symmetry_group_IT_number 2
_symmetry_cell_setting 'triclinic'
loop_
_space_group_symop_operation_xyz
x,y,z
-x,-y,-z
loop_
_atom_site_type_symbol
_atom_site_label
_atom_site_fract_x
_atom_site_fract_y
_atom_site_fract_z
Si Si1 0.385468 0.070628 0.097834
Si Si2 0.784162 0.979248 0.238378
Si Si3 0.452317 0.078518 0.596643
Si Si4 0.167462 0.006010 0.084275
Si Si5 0.035258 0.666314 0.006328
Si Si6 0.098355 0.492316 0.386463
Si Si7 0.523557 0.403242 0.707253
O O1 0.254727 0.089592 0.124767
O O2 0.451490 0.998597 0.266346
O O3 0.400929 0.843991 0.139435
O O4 0.416711 0.324797 0.859182
O O5 0.657340 0.043110 0.255961
O O6 0.823687 0.745744 0.467895
O O7 0.851484 0.206531 0.124996
O O8 0.801325 0.904863 0.128597
O O9 0.425404 0.365397 0.388147
O O10 0.500000 0.000000 0.500000
O O11 0.052166 0.117518 0.082601
O O12 0.168229 0.718238 0.262703
O O13 0.049813 0.495638 0.243795
O O14 0.000000 0.500000 0.000000
O O15 0.000000 0.500000 0.500000
O O16 0.500000 0.500000 0.500000
#
# Coordination Sequence:
#
# PCOD8010739 Si02
#       7
#     2   2   2   2   2   2   2
#     4  10  21  38  63  89 123 159 207 262 304 362
#     4  11  22  42  66  88 125 170 209 257 306 376
#     4  11  25  41  59  92 130 167 210 253 315 375
#     4  11  21  39  67  94 123 161 211 256 313 376
#     4  11  25  41  61  98 131 158 204 264 322 371
#     4  11  20  42  67  91 122 168 214 252 306 374
#     4   9  18  37  58  86 114 155 207 249 296 363
#
# _framework density 20.59637
#
# number of rings (size 3 to 8) (size 9 to 14) (size 15 to 20)
#    0.000    1.429    2.857    4.286    0.000    5.714 
#    2.571    0.000    0.000    0.000    0.000    0.000 
#    0.000    0.000    0.000    0.000    0.000    0.000 
#
# Total GULP energy -173490.034284 kJ/mol
# GULP energy per Si atom -12392.145306 kJ/mol
# Density = 2.054949 g / cm^3
# Si number density = 20.596370 Si / 1000 Ang^3
#
#
#
# Elastic Constant Matrix: (Units=GPa)
#
#
# Indices 1 2 3 4 5 6 
#
# 1 126.8151 41.2797 38.5371 14.1497 -9.1169 21.7712
# 2 41.2797 108.7802 42.4981 10.2248 -10.8444 13.7043
# 3 38.5371 42.4981 119.0617 0.4723 -3.8225 15.2059
# 4 14.1497 10.2248 0.4723 27.0128 -0.0231 -2.3382
# 5 -9.1169 -10.8444 -3.8225 -0.0231 34.1772 0.6209
# 6 21.7712 13.7043 15.2059 -2.3382 0.6209 29.9518
#
#
#
# Elastic Compliance Matrix: (Units=1/GPa)
#
#
# Indices 1 2 3 4 5 6 
#
# 1 0.011007 -0.001816 -0.001970 -0.005618 0.002257 -0.006655
# 2 -0.001816 0.012205 -0.003276 -0.003866 0.003073 -0.002967
# 3 -0.001970 -0.003276 0.010472 0.001895 -0.000352 -0.002230
# 4 -0.005618 -0.003866 0.001895 0.042102 -0.002634 0.008231
# 5 0.002257 0.003073 -0.000352 -0.002634 0.030863 -0.003713
# 6 -0.006655 -0.002967 -0.002230 0.008231 -0.003713 0.041434
#
#
# Mechanical properties :
#
#
# Convention : Reuss Voigt Hill
#
# Bulk Modulus (GPa) = 51.12241 66.58742 58.85492
# Shear Modulus (GPa) = 29.63382 33.71784 31.67583
#
# Velocity S-wave (km/s) = 3.79725 4.05047 3.92590
# Velocity P-wave (km/s) = 6.64082 7.36715 7.01339
#
# Compressibility (1/GPa) = 0.01956089
#
# Stress axis : x y z
#
# Youngs Moduli (GPa) = 90.85359 81.93197 95.49347
#
# Poissons Ratio (x) = 0.14878 0.18810
# Poissons Ratio (y) = 0.16498 0.31283
# Poissons Ratio (z) = 0.17896 0.26840
#
# Static dielectric constant tensor:
#      x y z
#    x 3.838580 0.168180 -0.143420 
#    y 0.168180 3.409240 0.095870 
#    z -0.143420 0.095870 3.693600 
# 
# 
# High freq. dielectric constant tensor:
#      x y z
#    x 1.812180 0.008910 -0.003840 
#    y 0.008910 1.779880 -0.009440 
#    z -0.003840 -0.009440 1.817670 
# 
# From -- ./inp_files/37268.got.cif
#   From: 2010.06.25/outbox.cif.g09.slc.cpg/sg2_19_cif.got.tgz:37268.got - 2010.06.27 13:26:56.
