data_PCOD8010073
_publ_section_title
;
Structure prediction by ZEFSAII (Michael W. Deem and Ramdas Pophale) SiO2 
 PCOD8010073
Probable space group: P -1
;
_chemical_formula_sum "Si O2"
_cell_formula_units_Z 16
_cell_length_a 8.751038
_cell_length_b 10.040357
_cell_length_c 11.704149
_cell_angle_alpha 120.726859
_cell_angle_beta 121.947987
_cell_angle_gamma 79.140872
_cell_volume 745.346316
_symmetry_space_group_name_H-M "P -1"
_symmetry_group_IT_number 2
_symmetry_cell_setting 'triclinic'
loop_
_space_group_symop_operation_xyz
x,y,z
-x,-y,-z
loop_
_atom_site_type_symbol
_atom_site_label
_atom_site_fract_x
_atom_site_fract_y
_atom_site_fract_z
Si Si1 0.530071 0.339409 0.002473
Si Si2 0.795689 0.740166 0.484726
Si Si3 0.428971 0.578020 0.687062
Si Si4 0.344149 0.999104 0.341120
Si Si5 0.189867 0.507104 0.213802
Si Si6 0.834628 0.311572 0.938941
Si Si7 0.835497 0.258552 0.491158
Si Si8 0.656948 0.927943 0.305865
O O1 0.554508 0.348141 0.149756
O O2 0.500000 0.500000 0.000000
O O3 0.709812 0.293174 0.992860
O O4 0.366504 0.197272 0.861556
O O5 0.698355 0.581604 0.424932
O O6 0.691483 0.812618 0.372419
O O7 0.995294 0.707306 0.511838
O O8 0.780500 0.860181 0.636269
O O9 0.621934 0.549869 0.696033
O O10 0.342710 0.695919 0.621162
O O11 0.193854 0.848455 0.214636
O O12 0.467158 0.004123 0.278022
O O13 0.500000 0.000000 0.500000
O O14 0.218261 0.559829 0.116198
O O15 0.133710 0.644709 0.335579
O O16 0.036530 0.359261 0.087874
O O17 0.815617 0.070718 0.420944
#
# Coordination Sequence:
#
# PCOD8010073 Si02
#       8
#     2   2   2   2   2   2   2   2
#     4  11  20  40  66  89 121 158 211 255 311 378
#     4  11  21  39  64  87 123 166 213 256 303 375
#     4  12  24  41  63  89 127 174 203 256 325 375
#     4   9  18  36  61  90 122 156 208 252 309 362
#     4  11  22  38  61  89 132 161 210 260 312 371
#     4  10  21  37  64  99 116 162 213 266 301 363
#     4  12  26  39  59  96 130 162 208 263 321 371
#     4  10  21  38  64  90 120 162 207 261 309 366
#
# _framework density 21.466532999999998
#
# number of rings (size 3 to 8) (size 9 to 14) (size 15 to 20)
#    0.000    1.250    2.500    5.625    0.000    1.500 
#    0.000    0.000    0.000    3.750    0.000    0.000 
#    0.000    0.000    0.000    0.000    0.000    0.000 
#
# Total GULP energy -198247.235009 kJ/mol
# GULP energy per Si atom -12390.452188 kJ/mol
# Density = 2.141767 g / cm^3
# Si number density = 21.466533 Si / 1000 Ang^3
#
#
#
# Elastic Constant Matrix: (Units=GPa)
#
#
# Indices 1 2 3 4 5 6 
#
# 1 85.6541 9.9164 25.7500 13.2981 13.5750 -16.8749
# 2 9.9164 52.0852 26.5101 16.2845 2.8010 -1.2115
# 3 25.7500 26.5101 121.4804 41.5641 6.3156 3.3759
# 4 13.2981 16.2845 41.5641 39.2121 5.0454 4.1090
# 5 13.5750 2.8010 6.3156 5.0454 34.0444 5.9397
# 6 -16.8749 -1.2115 3.3759 4.1090 5.9397 29.9678
#
#
#
# Elastic Compliance Matrix: (Units=1/GPa)
#
#
# Indices 1 2 3 4 5 6 
#
# 1 0.016323 -0.000286 -0.002184 -0.003320 -0.007574 0.011382
# 2 -0.000286 0.022777 -0.002643 -0.006698 -0.000644 0.002103
# 3 -0.002184 -0.002643 0.013536 -0.012459 0.000647 -0.001282
# 4 -0.003320 -0.006698 -0.012459 0.043438 -0.001123 -0.006470
# 5 -0.007574 -0.000644 0.000647 -0.001123 0.034417 -0.011031
# 6 0.011382 0.002103 -0.001282 -0.006470 -0.011031 0.043082
#
#
# Mechanical properties :
#
#
# Convention : Reuss Voigt Hill
#
# Bulk Modulus (GPa) = 23.57986 42.61920 33.09953
# Shear Modulus (GPa) = 25.26070 33.78108 29.52089
#
# Velocity S-wave (km/s) = 3.43410 3.97125 3.71240
# Velocity P-wave (km/s) = 5.17033 6.39723 5.81623
#
# Compressibility (1/GPa) = 0.04240907
#
# Stress axis : x y z
#
# Youngs Moduli (GPa) = 61.26401 43.90448 73.87572
#
# Poissons Ratio (x) = 0.01255 0.16136
# Poissons Ratio (y) = 0.01752 0.19527
# Poissons Ratio (z) = 0.13381 0.11605
#
# Static dielectric constant tensor:
#      x y z
#    x 4.237990 -0.154990 -0.231160 
#    y -0.154990 3.698020 0.462290 
#    z -0.231160 0.462290 4.270070 
# 
# 
# High freq. dielectric constant tensor:
#      x y z
#    x 1.847770 -0.001140 -0.005270 
#    y -0.001140 1.814020 0.027300 
#    z -0.005270 0.027300 1.850090 
# 
# From -- ./inp_files/282627.got.cif
#   From: 2010.06.25/outbox.cif.g09.slc.cpg/sg2_142_cif.got.tgz:282627.got - 2010.06.27 13:26:56.
