data_PCOD8010958
_publ_section_title
;
Structure prediction by ZEFSAII (Michael W. Deem and Ramdas Pophale) SiO2 
 PCOD8010958
Probable space group: P -1
;
_chemical_formula_sum "Si O2"
_cell_formula_units_Z 12
_cell_length_a 15.204327
_cell_length_b 10.249428
_cell_length_c 4.988643
_cell_angle_alpha 59.874643
_cell_angle_beta 59.663209
_cell_angle_gamma 66.110007
_cell_volume 568.257630
_symmetry_space_group_name_H-M "P -1"
_symmetry_group_IT_number 2
_symmetry_cell_setting 'triclinic'
loop_
_space_group_symop_operation_xyz
x,y,z
-x,-y,-z
loop_
_atom_site_type_symbol
_atom_site_label
_atom_site_fract_x
_atom_site_fract_y
_atom_site_fract_z
Si Si1 0.744419 0.995670 0.148797
Si Si2 0.611217 0.039200 0.822414
Si Si3 0.741357 0.349093 0.761911
Si Si4 0.039319 0.649857 0.379208
Si Si5 0.610100 0.389775 0.427594
Si Si6 0.034025 0.156740 0.203295
O O1 0.695614 0.972895 0.534556
O O2 0.659373 0.963881 0.100780
O O3 0.770555 0.163921 0.895513
O O4 0.850683 0.872548 0.069143
O O5 0.591232 0.221285 0.684761
O O6 0.500000 0.000000 0.000000
O O7 0.845126 0.406847 0.622336
O O8 0.695540 0.424018 0.474426
O O9 0.651555 0.409605 0.049224
O O10 0.000000 0.500000 0.500000
O O11 0.968422 0.737217 0.638711
O O12 0.041667 0.760156 0.002754
O O13 0.500000 0.500000 0.500000
O O14 0.000000 0.000000 0.500000
#
# Coordination Sequence:
#
# PCOD8010958 Si02
#       6
#     2   2   2   2   2   2
#     4  10  21  38  65  92 118 165 218 254 317 381
#     4  10  21  39  60  89 126 155 199 277 326 361
#     4  10  21  39  65  86 124 168 207 259 320 382
#     4  12  26  44  64  99 142 170 211 277 341 375
#     4  10  21  39  62  88 116 163 215 253 312 393
#     4  12  24  42  72  96 128 175 231 264 308 415
#
# _framework density 21.117180000000001
#
# number of rings (size 3 to 8) (size 9 to 14) (size 15 to 20)
#    0.000    1.333    1.667    4.000    4.667    0.000 
#    9.000    0.000    0.000    0.000    0.000    0.000 
#    0.000    0.000    0.000    0.000    0.000    0.000 
#
# Total GULP energy -148832.475939 kJ/mol
# GULP energy per Si atom -12402.706328 kJ/mol
# Density = 2.106912 g / cm^3
# Si number density = 21.117180 Si / 1000 Ang^3
#
#
#
# Elastic Constant Matrix: (Units=GPa)
#
#
# Indices 1 2 3 4 5 6 
#
# 1 145.1238 55.7221 24.3062 -6.1081 -7.2461 11.0582
# 2 55.7221 118.8458 33.8485 22.0985 -1.4733 -1.6009
# 3 24.3062 33.8485 47.0339 -2.9418 11.2054 0.7024
# 4 -6.1081 22.0985 -2.9418 20.6799 6.8811 -3.5345
# 5 -7.2461 -1.4733 11.2054 6.8811 42.6196 7.7516
# 6 11.0582 -1.6009 0.7024 -3.5345 7.7516 36.1738
#
#
#
# Elastic Compliance Matrix: (Units=1/GPa)
#
#
# Indices 1 2 3 4 5 6 
#
# 1 0.009952 -0.006388 -0.000045 0.009174 0.000461 -0.002527
# 2 -0.006388 0.022141 -0.016838 -0.031425 0.009517 -0.001850
# 3 -0.000045 -0.016838 0.039162 0.029938 -0.016628 0.004997
# 4 0.009174 -0.031425 0.029938 0.099078 -0.025271 0.010320
# 5 0.000461 0.009517 -0.016628 -0.025271 0.033987 -0.009149
# 6 -0.002527 -0.001850 0.004997 0.010320 -0.009149 0.031207
#
#
# Mechanical properties :
#
#
# Convention : Reuss Voigt Hill
#
# Bulk Modulus (GPa) = 40.46287 59.86193 50.16240
# Shear Modulus (GPa) = 17.22322 33.03643 25.12982
#
# Velocity S-wave (km/s) = 2.85897 3.95958 3.45341
# Velocity P-wave (km/s) = 5.48644 7.02235 6.30137
#
# Compressibility (1/GPa) = 0.02471401
#
# Stress axis : x y z
#
# Youngs Moduli (GPa) = 100.47753 45.16475 25.53519
#
# Poissons Ratio (x) = 0.28850 0.00114
# Poissons Ratio (y) = 0.64182 0.42997
# Poissons Ratio (z) = 0.00449 0.76049
#
# Static dielectric constant tensor:
#      x y z
#    x 3.832020 0.251590 0.569520 
#    y 0.251590 3.761450 0.117320 
#    z 0.569520 0.117320 3.473780 
# 
# 
# High freq. dielectric constant tensor:
#      x y z
#    x 1.844840 0.001490 0.008120 
#    y 0.001490 1.823970 0.027520 
#    z 0.008120 0.027520 1.820720 
# 
# From -- ./inp_files/86078.got.cif
#   From: 2010.06.25/outbox.cif.g09.slc.cpg/sg2_44_cif.got.tgz:86078.got - 2010.06.27 13:26:56.
