data_PCOD8010891
_publ_section_title
;
Structure prediction by ZEFSAII (Michael W. Deem and Ramdas Pophale) SiO2 
 PCOD8010891
Probable space group: P -1
;
_chemical_formula_sum "Si O2"
_cell_formula_units_Z 16
_cell_length_a 23.374240
_cell_length_b 15.777639
_cell_length_c 9.312964
_cell_angle_alpha 44.888863
_cell_angle_beta 133.402932
_cell_angle_gamma 162.904263
_cell_volume 711.721382
_symmetry_space_group_name_H-M "P -1"
_symmetry_group_IT_number 2
_symmetry_cell_setting 'triclinic'
loop_
_space_group_symop_operation_xyz
x,y,z
-x,-y,-z
loop_
_atom_site_type_symbol
_atom_site_label
_atom_site_fract_x
_atom_site_fract_y
_atom_site_fract_z
Si Si1 0.511443 0.830553 0.856467
Si Si2 0.646455 0.189919 0.894389
Si Si3 0.762125 0.246266 0.538614
Si Si4 0.171893 0.719342 0.689571
Si Si5 0.712317 0.850180 0.609041
Si Si6 0.045963 0.195013 0.404950
Si Si7 0.107839 0.316346 0.691430
Si Si8 0.668398 0.802441 0.255211
O O1 0.277171 0.479501 0.872469
O O2 0.550020 0.007552 0.799025
O O3 0.576991 0.935235 0.677641
O O4 0.632319 0.892869 0.062541
O O5 0.760039 0.473779 0.724578
O O6 0.789873 0.284926 0.084278
O O7 0.500000 0.000000 0.000000
O O8 0.724592 0.214485 0.340772
O O9 0.822364 0.448680 0.486372
O O10 0.938141 0.395295 0.664445
O O11 0.264169 0.979069 0.515645
O O12 0.692154 0.806797 0.456908
O O13 0.517783 0.528180 0.735419
O O14 0.902339 0.035315 0.761690
O O15 0.074612 0.215883 0.598286
O O16 0.000000 0.000000 0.500000
O O17 0.866371 0.032267 0.247154
#
# Coordination Sequence:
#
# PCOD8010891 Si02
#       8
#     2   2   2   2   2   2   2   2
#     4  12  23  40  69 100 133 174 230 278 337 403
#     4  12  26  39  68 104 135 174 233 285 329 397
#     4  10  21  38  64  94 135 172 219 278 344 392
#     4  10  21  39  63  97 131 173 226 284 324 397
#     4   9  20  40  65  93 136 177 223 270 342 401
#     4  11  26  45  67  97 138 179 225 279 342 407
#     4  10  22  40  64  97 131 177 218 277 343 401
#     4  10  22  41  67  95 128 185 226 270 337 410
#
# _framework density 22.480709999999998
#
# number of rings (size 3 to 8) (size 9 to 14) (size 15 to 20)
#    0.000    1.500    2.500    1.875    3.500    2.500 
#    0.000    6.250    0.000    0.000    0.000    0.000 
#    0.000    0.000    0.000    0.000    0.000    0.000 
#
# Total GULP energy -198320.685694 kJ/mol
# GULP energy per Si atom -12395.042856 kJ/mol
# Density = 2.242954 g / cm^3
# Si number density = 22.480710 Si / 1000 Ang^3
#
#
#
# Elastic Constant Matrix: (Units=GPa)
#
#
# Indices 1 2 3 4 5 6 
#
# 1 113.1562 43.0316 24.3520 -0.7584 8.3211 -10.9164
# 2 43.0316 126.8449 25.7133 -0.3429 4.1912 -1.7734
# 3 24.3520 25.7133 43.1421 3.6241 1.1161 -0.4653
# 4 -0.7584 -0.3429 3.6241 33.9329 -0.8014 4.1767
# 5 8.3211 4.1912 1.1161 -0.8014 31.6849 1.5648
# 6 -10.9164 -1.7734 -0.4653 4.1767 1.5648 38.6080
#
#
#
# Elastic Compliance Matrix: (Units=1/GPa)
#
#
# Indices 1 2 3 4 5 6 
#
# 1 0.011402 -0.002785 -0.004699 0.000284 -0.002607 0.003114
# 2 -0.002785 0.009697 -0.004248 0.000534 -0.000367 -0.000436
# 3 -0.004699 -0.004248 0.028592 -0.003076 0.000754 -0.000877
# 4 0.000284 0.000534 -0.003076 0.030230 0.000888 -0.003239
# 5 -0.002607 -0.000367 0.000754 0.000888 0.032396 -0.002154
# 6 0.003114 -0.000436 -0.000877 -0.003239 -0.002154 0.027189
#
#
# Mechanical properties :
#
#
# Convention : Reuss Voigt Hill
#
# Bulk Modulus (GPa) = 38.12646 52.14857 45.13752
# Shear Modulus (GPa) = 29.11861 33.51492 31.31676
#
# Velocity S-wave (km/s) = 3.60289 3.86532 3.73641
# Velocity P-wave (km/s) = 5.85698 6.57026 6.22385
#
# Compressibility (1/GPa) = 0.02622850
#
# Stress axis : x y z
#
# Youngs Moduli (GPa) = 87.70635 103.12502 34.97421
#
# Poissons Ratio (x) = 0.28721 0.16433
# Poissons Ratio (y) = 0.24427 0.14856
# Poissons Ratio (z) = 0.41210 0.43804
#
# Static dielectric constant tensor:
#      x y z
#    x 3.941320 0.149510 0.009490 
#    y 0.149510 4.580380 0.348450 
#    z 0.009490 0.348450 3.922290 
# 
# 
# High freq. dielectric constant tensor:
#      x y z
#    x 1.882780 0.008690 0.007720 
#    y 0.008690 1.901520 0.019240 
#    z 0.007720 0.019240 1.860680 
# 
# From -- ./inp_files/347518.got.cif
#   From: 2010.06.25/outbox.cif.g09.slc.cpg/sg2_174_cif.got.tgz:347518.got - 2010.06.27 13:26:56.
