data_PCOD8010568
_publ_section_title
;
Structure prediction by ZEFSAII (Michael W. Deem and Ramdas Pophale) SiO2 
 PCOD8010568
Probable space group: P -1
;
_chemical_formula_sum "Si O2"
_cell_formula_units_Z 16
_cell_length_a 14.982118
_cell_length_b 11.787219
_cell_length_c 12.676820
_cell_angle_alpha 74.072722
_cell_angle_beta 161.350422
_cell_angle_gamma 105.664140
_cell_volume 688.042471
_symmetry_space_group_name_H-M "P -1"
_symmetry_group_IT_number 2
_symmetry_cell_setting 'triclinic'
loop_
_space_group_symop_operation_xyz
x,y,z
-x,-y,-z
loop_
_atom_site_type_symbol
_atom_site_label
_atom_site_fract_x
_atom_site_fract_y
_atom_site_fract_z
Si Si1 0.954266 0.155653 0.512185
Si Si2 0.082448 0.055282 0.315616
Si Si3 0.474443 0.079802 0.553338
Si Si4 0.838821 0.618872 0.201047
Si Si5 0.065043 0.560143 0.165484
Si Si6 0.696264 0.532783 0.340616
Si Si7 0.652988 0.808548 0.236082
Si Si8 0.399678 0.305749 0.293162
O O1 0.011399 0.291992 0.573288
O O2 0.178216 0.118692 0.684398
O O3 0.959177 0.068700 0.639093
O O4 0.658389 0.147483 0.125371
O O5 0.268414 0.028860 0.426887
O O6 0.226305 0.157922 0.522340
O O7 0.781823 0.103759 0.937676
O O8 0.332142 0.196214 0.320945
O O9 0.500000 0.000000 0.500000
O O10 0.047335 0.518583 0.423958
O O11 0.580515 0.544731 0.984067
O O12 0.724809 0.706545 0.960744
O O13 0.243959 0.479993 0.464372
O O14 0.265330 0.675292 0.339979
O O15 0.763396 0.585542 0.868375
O O16 0.000000 0.500000 0.000000
O O17 0.666507 0.671224 0.256038
#
# Coordination Sequence:
#
# PCOD8010568 Si02
#       8
#     2   2   2   2   2   2   2   2
#     4  12  25  45  72  92 132 183 231 281 343 388
#     4  12  27  47  69 100 137 176 228 287 336 400
#     4  12  26  44  71 103 135 176 223 278 335 405
#     4  10  22  42  64  97 133 174 219 278 328 403
#     4  10  21  38  61  92 131 175 207 260 323 408
#     4  10  23  39  63  98 137 167 223 273 335 395
#     4  12  26  44  68 100 133 178 226 284 333 406
#     4  10  22  39  62  95 130 169 213 262 330 395
#
# _framework density 23.254377000000002
#
# number of rings (size 3 to 8) (size 9 to 14) (size 15 to 20)
#    0.000    1.000    0.000    6.000    3.500    6.000 
#    0.000    0.000    0.000    0.000    0.000    0.000 
#    0.000    0.000    0.000    0.000    0.000    0.000 
#
# Total GULP energy -198409.998863 kJ/mol
# GULP energy per Si atom -12400.624929 kJ/mol
# Density = 2.320145 g / cm^3
# Si number density = 23.254377 Si / 1000 Ang^3
#
#
#
# Elastic Constant Matrix: (Units=GPa)
#
#
# Indices 1 2 3 4 5 6 
#
# 1 127.9143 21.9519 23.8026 9.4301 16.9108 14.2527
# 2 21.9519 77.5745 25.1968 -1.4618 0.9732 12.4495
# 3 23.8026 25.1968 119.0209 7.2151 16.7948 4.0453
# 4 9.4301 -1.4618 7.2151 32.0306 0.4624 -7.0851
# 5 16.9108 0.9732 16.7948 0.4624 33.0242 0.5574
# 6 14.2527 12.4495 4.0453 -7.0851 0.5574 36.0674
#
#
#
# Elastic Compliance Matrix: (Units=1/GPa)
#
#
# Indices 1 2 3 4 5 6 
#
# 1 0.009499 -0.001943 -0.000527 -0.003509 -0.004429 -0.003645
# 2 -0.001943 0.015045 -0.003029 0.001044 0.002143 -0.003914
# 3 -0.000527 -0.003029 0.009948 -0.002206 -0.004665 -0.000223
# 4 -0.003509 0.001044 -0.002206 0.034540 0.002269 0.008024
# 5 -0.004429 0.002143 -0.004665 0.002269 0.034802 0.001441
# 6 -0.003645 -0.003914 -0.000223 0.008024 0.001441 0.032096
#
#
# Mechanical properties :
#
#
# Convention : Reuss Voigt Hill
#
# Bulk Modulus (GPa) = 42.56175 51.82358 47.19267
# Shear Modulus (GPa) = 32.30792 37.12832 34.71812
#
# Velocity S-wave (km/s) = 3.73141 4.00010 3.86809
# Velocity P-wave (km/s) = 6.07511 6.60820 6.34726
#
# Compressibility (1/GPa) = 0.02349527
#
# Stress axis : x y z
#
# Youngs Moduli (GPa) = 105.26878 66.46550 100.52020
#
# Poissons Ratio (x) = 0.12911 0.05298
# Poissons Ratio (y) = 0.20449 0.30451
# Poissons Ratio (z) = 0.05548 0.20135
#
# Static dielectric constant tensor:
#      x y z
#    x 4.218890 -0.401800 -1.929500 
#    y -0.401800 2.879390 -2.855870 
#    z -1.929500 -2.855870 -8.202980 
# 
# 
# High freq. dielectric constant tensor:
#      x y z
#    x 1.940160 0.007110 -0.002640 
#    y 0.007110 1.907730 -0.000410 
#    z -0.002640 -0.000410 1.938920 
# 
# From -- ./inp_files/434128.got.cif
#   From: 2010.06.25/outbox.cif.g09.slc.cpg/sg2_218_cif.got.tgz:434128.got - 2010.06.27 13:26:56.
