data_PCOD8010737
_publ_section_title
;
Structure prediction by ZEFSAII (Michael W. Deem and Ramdas Pophale) SiO2 
 PCOD8010737
Probable space group: P -1
;
_chemical_formula_sum "Si O2"
_cell_formula_units_Z 16
_cell_length_a 9.620034
_cell_length_b 17.463709
_cell_length_c 20.706092
_cell_angle_alpha 161.334877
_cell_angle_beta 140.362610
_cell_angle_gamma 48.167019
_cell_volume 675.954943
_symmetry_space_group_name_H-M "P -1"
_symmetry_group_IT_number 2
_symmetry_cell_setting 'triclinic'
loop_
_space_group_symop_operation_xyz
x,y,z
-x,-y,-z
loop_
_atom_site_type_symbol
_atom_site_label
_atom_site_fract_x
_atom_site_fract_y
_atom_site_fract_z
Si Si1 0.068021 0.712749 0.021589
Si Si2 0.592183 0.463534 0.601416
Si Si3 0.482038 0.118628 0.173359
Si Si4 0.704609 0.440742 0.323147
Si Si5 0.864323 0.149664 0.699890
Si Si6 0.264740 0.407787 0.755167
Si Si7 0.029511 0.786301 0.625779
Si Si8 0.353753 0.463761 0.104873
O O1 0.143715 0.731226 0.137239
O O2 0.240683 0.614316 0.962259
O O3 0.079006 0.990245 0.222867
O O4 0.812227 0.517508 0.769290
O O5 0.561281 0.209317 0.346943
O O6 0.641387 0.695537 0.753889
O O7 0.360804 0.434301 0.535926
O O8 0.696478 0.104104 0.194368
O O9 0.299544 0.843921 0.891887
O O10 0.513127 0.439481 0.200928
O O11 0.955632 0.595781 0.508539
O O12 0.719060 0.281230 0.708006
O O13 0.751528 0.850711 0.419768
O O14 0.128061 0.220829 0.827788
O O15 0.512497 0.521821 0.903035
O O16 0.066188 0.359046 0.590963
#
# Coordination Sequence:
#
# PCOD8010737 Si02
#       8
#     2   2   2   2   2   2   2   2
#     4  11  21  40  62  88 123 160 199 241 298 352
#     4  11  23  40  64  88 118 160 199 247 295 356
#     4  11  23  43  61  87 122 155 202 247 296 351
#     4  11  22  41  64  88 120 159 194 245 302 350
#     4  10  21  41  61  87 121 157 199 242 292 354
#     4  10  21  39  60  86 124 160 192 244 296 345
#     4  10  22  38  62  90 119 158 198 246 293 351
#     4  10  21  38  63  89 119 155 199 244 292 351
#
# _framework density 23.670217999999998
#
# number of rings (size 3 to 8) (size 9 to 14) (size 15 to 20)
#    0.000    1.500    3.750    1.500    0.000    3.000 
#    0.000    5.000    0.000    0.000    0.000    0.000 
#    0.000    0.000    0.000    0.000    0.000    0.000 
#
# Total GULP energy -198482.847617 kJ/mol
# GULP energy per Si atom -12405.177976 kJ/mol
# Density = 2.361634 g / cm^3
# Si number density = 23.670218 Si / 1000 Ang^3
#
#
#
# Elastic Constant Matrix: (Units=GPa)
#
#
# Indices 1 2 3 4 5 6 
#
# 1 136.1708 9.8831 73.4411 19.4444 9.8072 -7.6938
# 2 9.8831 37.2735 14.4802 11.5484 1.2108 1.4710
# 3 73.4411 14.4802 91.6435 12.4362 1.4141 -0.0996
# 4 19.4444 11.5484 12.4362 29.5986 -0.9605 7.7704
# 5 9.8072 1.2108 1.4141 -0.9605 44.9416 4.2561
# 6 -7.6938 1.4710 -0.0996 7.7704 4.2561 23.6131
#
#
#
# Elastic Compliance Matrix: (Units=1/GPa)
#
#
# Indices 1 2 3 4 5 6 
#
# 1 0.015342 0.002898 -0.011500 -0.008704 -0.004042 0.008363
# 2 0.002898 0.032225 -0.005598 -0.013128 -0.001944 0.003584
# 3 -0.011500 -0.005598 0.020653 0.002331 0.002489 -0.004527
# 4 -0.008704 -0.013128 0.002331 0.048789 0.005019 -0.018968
# 5 -0.004042 -0.001944 0.002489 0.005019 0.023891 -0.007143
# 6 0.008363 0.003584 -0.004527 -0.018968 -0.007143 0.052361
#
#
# Mechanical properties :
#
#
# Convention : Reuss Voigt Hill
#
# Bulk Modulus (GPa) = 25.11434 51.18852 38.15143
# Shear Modulus (GPa) = 21.28240 30.78287 26.03263
#
# Velocity S-wave (km/s) = 3.00179 3.61014 3.31993
# Velocity P-wave (km/s) = 4.75893 6.24901 5.55417
#
# Compressibility (1/GPa) = 0.03981789
#
# Stress axis : x y z
#
# Youngs Moduli (GPa) = 65.17868 31.03227 48.41935
#
# Poissons Ratio (x) = -0.08992 0.55684
# Poissons Ratio (y) = -0.18887 0.27107
# Poissons Ratio (z) = 0.74958 0.17373
#
# Static dielectric constant tensor:
#      x y z
#    x 4.313170 0.149060 0.136840 
#    y 0.149060 4.343620 0.028600 
#    z 0.136840 0.028600 4.152270 
# 
# 
# High freq. dielectric constant tensor:
#      x y z
#    x 1.934850 0.002540 0.008020 
#    y 0.002540 1.948770 -0.003150 
#    z 0.008020 -0.003150 1.925180 
# 
# From -- ./inp_files/591109.got.cif
#   From: 2010.06.25/outbox.cif.g09.slc.cpg/sg2_296_cif.got.tgz:591109.got - 2010.06.27 13:26:56.
