data_PCOD8010569
_publ_section_title
;
Structure prediction by ZEFSAII (Michael W. Deem and Ramdas Pophale) SiO2 
 PCOD8010569
Probable space group: P -1
;
_chemical_formula_sum "Si O2"
_cell_formula_units_Z 16
_cell_length_a 5.315682
_cell_length_b 10.148737
_cell_length_c 20.424856
_cell_angle_alpha 47.318923
_cell_angle_beta 80.558814
_cell_angle_gamma 99.573283
_cell_volume 738.231426
_symmetry_space_group_name_H-M "P -1"
_symmetry_group_IT_number 2
_symmetry_cell_setting 'triclinic'
loop_
_space_group_symop_operation_xyz
x,y,z
-x,-y,-z
loop_
_atom_site_type_symbol
_atom_site_label
_atom_site_fract_x
_atom_site_fract_y
_atom_site_fract_z
Si Si1 0.516006 0.149743 0.736298
Si Si2 0.557279 0.953519 0.373417
Si Si3 0.639538 0.259737 0.057372
Si Si4 0.969438 0.022540 0.570173
Si Si5 0.479026 0.668571 0.729876
Si Si6 0.530609 0.476654 0.363132
Si Si7 0.731040 0.570928 0.058005
Si Si8 0.997948 0.505135 0.575755
O O1 0.403149 0.096161 0.685573
O O2 0.366755 0.288609 0.723521
O O3 0.844245 0.277729 0.679686
O O4 0.459966 0.965521 0.846062
O O5 0.230613 0.859511 0.441918
O O6 0.736020 0.878709 0.440101
O O7 0.678838 0.187675 0.296338
O O8 0.647814 0.377644 0.083313
O O9 0.415033 0.287957 0.009217
O O10 0.938629 0.323097 0.989739
O O11 0.806071 0.801226 0.678537
O O12 0.198111 0.382386 0.426043
O O13 0.000000 0.000000 0.500000
O O14 0.402243 0.593788 0.684896
O O15 0.383041 0.488579 0.844069
O O16 0.695976 0.414905 0.433715
O O17 0.000000 0.500000 0.500000
#
# Coordination Sequence:
#
# PCOD8010569 Si02
#       8
#     2   2   2   2   2   2   2   2
#     4  10  24  41  64  90 124 158 203 262 297 355
#     4  10  23  36  63  85 123 155 202 246 310 353
#     4  10  21  38  61  93 118 155 203 251 302 357
#     4  10  23  38  60  91 121 157 198 253 305 365
#     4  10  24  41  61  89 127 161 199 250 310 365
#     4  10  25  39  64  86 128 162 203 249 307 358
#     4  10  22  36  63  90 121 156 200 248 305 368
#     4  10  24  43  64  90 121 169 210 249 299 364
#
# _framework density 21.673421000000001
#
# number of rings (size 3 to 8) (size 9 to 14) (size 15 to 20)
#    1.500    0.500    1.250    0.750    7.000    3.000 
#    0.000    1.250    0.000    0.000    0.000    0.000 
#    0.000    0.000    0.000    0.000    0.000    0.000 
#
# Total GULP energy -198315.138012 kJ/mol
# GULP energy per Si atom -12394.696126 kJ/mol
# Density = 2.162409 g / cm^3
# Si number density = 21.673421 Si / 1000 Ang^3
#
#
#
# Elastic Constant Matrix: (Units=GPa)
#
#
# Indices 1 2 3 4 5 6 
#
# 1 149.3145 40.4182 57.2371 0.7757 6.6115 23.9761
# 2 40.4182 87.1740 6.0117 7.2852 1.3340 4.6748
# 3 57.2371 6.0117 86.3870 6.9025 -6.1980 5.7763
# 4 0.7757 7.2852 6.9025 33.6445 -5.7805 7.1572
# 5 6.6115 1.3340 -6.1980 -5.7805 33.0139 -1.3431
# 6 23.9761 4.6748 5.7763 7.1572 -1.3431 25.8914
#
#
#
# Elastic Compliance Matrix: (Units=1/GPa)
#
#
# Indices 1 2 3 4 5 6 
#
# 1 0.013123 -0.005236 -0.008210 0.004166 -0.003664 -0.010717
# 2 -0.005236 0.013887 0.002657 -0.003972 0.000408 0.002867
# 3 -0.008210 0.002657 0.017154 -0.004174 0.004216 0.004668
# 4 0.004166 -0.003972 -0.004174 0.034503 0.004115 -0.011534
# 5 -0.003664 0.000408 0.004216 0.004115 0.032639 0.002935
# 6 -0.010717 0.002867 0.004668 -0.011534 0.002935 0.050328
#
#
# Mechanical properties :
#
#
# Convention : Reuss Voigt Hill
#
# Bulk Modulus (GPa) = 44.26962 58.91218 51.59090
# Shear Modulus (GPa) = 26.21351 33.12387 29.66869
#
# Velocity S-wave (km/s) = 3.48153 3.91361 3.70388
# Velocity P-wave (km/s) = 6.05239 6.90381 6.49207
#
# Compressibility (1/GPa) = 0.02258886
#
# Stress axis : x y z
#
# Youngs Moduli (GPa) = 76.20160 72.00724 58.29452
#
# Poissons Ratio (x) = 0.37701 0.47858
# Poissons Ratio (y) = 0.39897 -0.15491
# Poissons Ratio (z) = 0.62559 -0.19135
#
# Static dielectric constant tensor:
#      x y z
#    x 3.977210 -0.051670 -0.045910 
#    y -0.051670 3.738040 -0.240850 
#    z -0.045910 -0.240850 3.870190 
# 
# 
# High freq. dielectric constant tensor:
#      x y z
#    x 1.854130 -0.001490 0.001720 
#    y -0.001490 1.842830 -0.015850 
#    z 0.001720 -0.015850 1.855770 
# 
# From -- ./inp_files/604308.got.cif
#   From: 2010.06.25/outbox.cif.g09.slc.cpg/sg2_303_cif.got.tgz:604308.got - 2010.06.27 13:26:56.
