data_PCOD8010473
_publ_section_title
;
Structure prediction by ZEFSAII (Michael W. Deem and Ramdas Pophale) SiO2 
 PCOD8010473
Probable space group: P -1
;
_chemical_formula_sum "Si O2"
_cell_formula_units_Z 16
_cell_length_a 19.762731
_cell_length_b 11.132013
_cell_length_c 7.799280
_cell_angle_alpha 52.710977
_cell_angle_beta 41.399476
_cell_angle_gamma 40.887137
_cell_volume 739.753355
_symmetry_space_group_name_H-M "P -1"
_symmetry_group_IT_number 2
_symmetry_cell_setting 'triclinic'
loop_
_space_group_symop_operation_xyz
x,y,z
-x,-y,-z
loop_
_atom_site_type_symbol
_atom_site_label
_atom_site_fract_x
_atom_site_fract_y
_atom_site_fract_z
Si Si1 0.370694 0.687509 0.124001
Si Si2 0.133507 0.639148 0.216595
Si Si3 0.103963 0.451964 0.708619
Si Si4 0.606630 0.118558 0.756848
Si Si5 0.341064 0.272207 0.984410
Si Si6 0.755341 0.502635 0.353220
Si Si7 0.022724 0.230852 0.913090
Si Si8 0.748641 0.151510 0.138622
O O1 0.377833 0.797329 0.173230
O O2 0.278555 0.631265 0.395355
O O3 0.500000 0.500000 0.000000
O O4 0.324322 0.813520 0.931586
O O5 0.070936 0.637489 0.514365
O O6 0.213187 0.426645 0.186597
O O7 0.015899 0.776759 0.200947
O O8 0.235951 0.684240 0.996106
O O9 0.235949 0.375258 0.620538
O O10 0.000000 0.500000 0.000000
O O11 0.110033 0.307040 0.690481
O O12 0.460452 0.231738 0.894927
O O13 0.678183 0.133401 0.447474
O O14 0.660504 0.907121 0.874880
O O15 0.341507 0.353156 0.727375
O O16 0.895724 0.359076 0.146087
O O17 0.109076 0.025427 0.000071
#
# Coordination Sequence:
#
# PCOD8010473 Si02
#       8
#     2   2   2   2   2   2   2   2
#     4  12  26  45  70  99 134 181 221 276 341 396
#     4  11  21  42  66  92 133 180 217 270 336 399
#     4  10  21  38  60  94 132 173 220 265 323 399
#     4  11  25  45  67 103 133 173 229 280 331 393
#     4  10  23  44  70  92 133 176 221 282 331 391
#     4  10  22  44  65  98 132 177 221 272 335 399
#     4  10  23  40  65  97 131 178 221 271 334 391
#     4  12  25  43  68 103 138 176 222 278 332 401
#
# _framework density 21.628830000000001
#
# number of rings (size 3 to 8) (size 9 to 14) (size 15 to 20)
#    0.000    1.250    1.250    4.500    1.750    4.000 
#    2.250    1.875    0.000    0.000    0.000    0.000 
#    0.000    0.000    0.000    0.000    0.000    0.000 
#
# Total GULP energy -198296.940472 kJ/mol
# GULP energy per Si atom -12393.558779 kJ/mol
# Density = 2.157960 g / cm^3
# Si number density = 21.628830 Si / 1000 Ang^3
#
#
#
# Elastic Constant Matrix: (Units=GPa)
#
#
# Indices 1 2 3 4 5 6 
#
# 1 172.7954 46.3309 50.9324 -5.0034 4.1702 0.1566
# 2 46.3309 101.4885 36.5477 -11.7409 1.9909 -16.9366
# 3 50.9324 36.5477 119.3123 -10.4545 7.9059 8.1075
# 4 -5.0034 -11.7409 -10.4545 17.4452 -1.1493 -0.6079
# 5 4.1702 1.9909 7.9059 -1.1493 38.6516 -12.7101
# 6 0.1566 -16.9366 8.1075 -0.6079 -12.7101 33.6349
#
#
#
# Elastic Compliance Matrix: (Units=1/GPa)
#
#
# Indices 1 2 3 4 5 6 
#
# 1 0.007165 -0.002809 -0.002186 -0.001226 -0.000603 -0.001171
# 2 -0.002809 0.014916 -0.003627 0.007656 0.003781 0.009966
# 3 -0.002186 -0.003627 0.011364 0.003289 -0.003748 -0.005912
# 4 -0.001226 0.007656 0.003289 0.064457 0.002711 0.005257
# 5 -0.000603 0.003781 -0.003748 0.002711 0.031436 0.014739
# 6 -0.001171 0.009966 -0.005912 0.005257 0.014739 0.041844
#
#
# Mechanical properties :
#
#
# Convention : Reuss Voigt Hill
#
# Bulk Modulus (GPa) = 61.72417 73.46869 67.59643
# Shear Modulus (GPa) = 25.79627 35.26536 30.53082
#
# Velocity S-wave (km/s) = 3.45727 4.04230 3.76118
# Velocity P-wave (km/s) = 6.67359 7.47185 7.08397
#
# Compressibility (1/GPa) = 0.01620111
#
# Stress axis : x y z
#
# Youngs Moduli (GPa) = 139.57112 67.03998 87.99830
#
# Poissons Ratio (x) = 0.18832 0.19237
# Poissons Ratio (y) = 0.39206 0.31917
# Poissons Ratio (z) = 0.30511 0.24315
#
# Static dielectric constant tensor:
#      x y z
#    x 4.765040 0.138260 -0.224280 
#    y 0.138260 3.748420 -0.289040 
#    z -0.224280 -0.289040 4.678990 
# 
# 
# High freq. dielectric constant tensor:
#      x y z
#    x 1.874070 -0.001180 -0.002910 
#    y -0.001180 1.828950 -0.009190 
#    z -0.002910 -0.009190 1.862820 
# 
# From -- ./inp_files/344943.got.cif
#   From: 2010.06.25/outbox.cif.g09.slc.cpg/sg2_173_cif.got.tgz:344943.got - 2010.06.27 13:26:56.
