data_PCOD8010646
_publ_section_title
;
Structure prediction by ZEFSAII (Michael W. Deem and Ramdas Pophale) SiO2 
 PCOD8010646
Probable space group: P -1
;
_chemical_formula_sum "Si O2"
_cell_formula_units_Z 14
_cell_length_a 13.491830
_cell_length_b 8.540875
_cell_length_c 11.534862
_cell_angle_alpha 33.944576
_cell_angle_beta 65.704478
_cell_angle_gamma 73.981846
_cell_volume 670.866306
_symmetry_space_group_name_H-M "P -1"
_symmetry_group_IT_number 2
_symmetry_cell_setting 'triclinic'
loop_
_space_group_symop_operation_xyz
x,y,z
-x,-y,-z
loop_
_atom_site_type_symbol
_atom_site_label
_atom_site_fract_x
_atom_site_fract_y
_atom_site_fract_z
Si Si1 0.595327 0.754376 0.798033
Si Si2 0.489349 0.320019 0.498405
Si Si3 0.673425 0.518480 0.122149
Si Si4 0.029565 0.332524 0.272921
Si Si5 0.944488 0.735137 0.445743
Si Si6 0.890481 0.694829 0.992457
Si Si7 0.290146 0.111149 0.572049
O O1 0.664387 0.733777 0.661365
O O2 0.546252 0.043284 0.660620
O O3 0.500000 0.500000 0.000000
O O4 0.675450 0.726453 0.884173
O O5 0.500000 0.500000 0.500000
O O6 0.554634 0.490056 0.257505
O O7 0.363355 0.234082 0.571320
O O8 0.705189 0.219902 0.244746
O O9 0.759142 0.679012 0.076224
O O10 0.084134 0.403513 0.328000
O O11 0.102236 0.436693 0.061401
O O12 0.000000 0.000000 0.500000
O O13 0.922633 0.492474 0.204874
O O14 0.834052 0.820335 0.388499
O O15 0.000000 0.500000 0.500000
O O16 0.038392 0.002258 0.230183
#
# Coordination Sequence:
#
# PCOD8010646 Si02
#       7
#     2   2   2   2   2   2   2
#     4  11  20  42  68  94 119 169 221 249 308 384
#     4  11  25  41  61  98 134 159 202 271 323 369
#     4  11  21  40  68  94 123 164 215 258 309 382
#     4   9  18  37  59  85 117 155 209 253 298 362
#     4  11  25  41  60  91 133 168 207 260 319 377
#     4  10  21  38  62  91 118 161 211 255 306 368
#     4  11  22  41  65  89 128 168 212 262 307 373
#
# _framework density 20.868539999999999
#
# number of rings (size 3 to 8) (size 9 to 14) (size 15 to 20)
#    0.000    1.429    2.857    4.286    0.000    6.857 
#    2.571    0.000    0.000    0.000    0.000    0.000 
#    0.000    0.000    0.000    0.000    0.000    0.000 
#
# Total GULP energy -173462.374888 kJ/mol
# GULP energy per Si atom -12390.169635 kJ/mol
# Density = 2.082104 g / cm^3
# Si number density = 20.868540 Si / 1000 Ang^3
#
#
#
# Elastic Constant Matrix: (Units=GPa)
#
#
# Indices 1 2 3 4 5 6 
#
# 1 156.0519 40.7117 34.4398 -10.0311 3.8568 13.7407
# 2 40.7117 109.6712 24.3881 -9.1696 4.3376 4.1896
# 3 34.4398 24.3881 95.6837 4.1181 10.8701 10.5996
# 4 -10.0311 -9.1696 4.1181 16.5799 7.4678 3.4728
# 5 3.8568 4.3376 10.8701 7.4678 40.4083 1.8796
# 6 13.7407 4.1896 10.5996 3.4728 1.8796 28.7036
#
#
#
# Elastic Compliance Matrix: (Units=1/GPa)
#
#
# Indices 1 2 3 4 5 6 
#
# 1 0.008050 -0.001885 -0.002183 0.005451 -0.000829 -0.003377
# 2 -0.001885 0.010894 -0.002130 0.006223 -0.001541 -0.000553
# 3 -0.002183 -0.002130 0.012479 -0.004133 -0.002034 -0.002619
# 4 0.005451 0.006223 -0.004133 0.076425 -0.013720 -0.010340
# 5 -0.000829 -0.001541 -0.002034 -0.013720 0.028019 0.001198
# 6 -0.003377 -0.000553 -0.002619 -0.010340 0.001198 0.038676
#
#
# Mechanical properties :
#
#
# Convention : Reuss Voigt Hill
#
# Bulk Modulus (GPa) = 52.55789 62.27622 57.41705
# Shear Modulus (GPa) = 25.86897 34.59617 30.23257
#
# Velocity S-wave (km/s) = 3.52464 4.07604 3.81033
# Velocity P-wave (km/s) = 6.46560 7.21520 6.85066
#
# Compressibility (1/GPa) = 0.01902664
#
# Stress axis : x y z
#
# Youngs Moduli (GPa) = 124.22271 91.79385 80.13572
#
# Poissons Ratio (x) = 0.17306 0.17496
# Poissons Ratio (y) = 0.23419 0.17066
# Poissons Ratio (z) = 0.27121 0.19548
#
# Static dielectric constant tensor:
#      x y z
#    x 4.082210 0.199480 0.143270 
#    y 0.199480 3.786280 0.378020 
#    z 0.143270 0.378020 4.159130 
# 
# 
# High freq. dielectric constant tensor:
#      x y z
#    x 1.831510 0.007010 0.007030 
#    y 0.007010 1.785230 0.005930 
#    z 0.007030 0.005930 1.829420 
# 
# From -- ./inp_files/38551.got.cif
#   From: 2010.06.25/outbox.cif.g09.slc.cpg/sg2_20_cif.got.tgz:38551.got - 2010.06.27 13:26:56.
