data_PCOD8010744
_publ_section_title
;
Structure prediction by ZEFSAII (Michael W. Deem and Ramdas Pophale) SiO2 
 PCOD8010744
Probable space group: P -1
;
_chemical_formula_sum "Si O2"
_cell_formula_units_Z 14
_cell_length_a 12.077736
_cell_length_b 24.390915
_cell_length_c 8.739867
_cell_angle_alpha 149.097754
_cell_angle_beta 122.417515
_cell_angle_gamma 37.311118
_cell_volume 707.371007
_symmetry_space_group_name_H-M "P -1"
_symmetry_group_IT_number 2
_symmetry_cell_setting 'triclinic'
loop_
_space_group_symop_operation_xyz
x,y,z
-x,-y,-z
loop_
_atom_site_type_symbol
_atom_site_label
_atom_site_fract_x
_atom_site_fract_y
_atom_site_fract_z
Si Si1 0.475711 0.849236 0.399292
Si Si2 0.645810 0.930765 0.581603
Si Si3 0.995302 0.979241 0.123925
Si Si4 0.562533 0.352872 0.276556
Si Si5 0.437617 0.839323 0.699041
Si Si6 0.379476 0.478329 0.776164
Si Si7 0.073130 0.162680 0.680857
O O1 0.671442 0.799102 0.368587
O O2 0.495865 0.834026 0.558809
O O3 0.266078 0.045508 0.662081
O O4 0.493712 0.719089 0.030951
O O5 0.854926 0.850776 0.472120
O O6 0.500000 0.000000 0.500000
O O7 0.528757 0.084135 0.977510
O O8 0.989565 0.096549 0.480461
O O9 0.193108 0.788024 0.863496
O O10 0.803611 0.034232 0.173093
O O11 0.000000 0.000000 0.000000
O O12 0.500000 0.500000 0.500000
O O13 0.464444 0.406282 0.497983
O O14 0.578487 0.652145 0.404667
O O15 0.500000 0.500000 0.000000
O O16 0.130749 0.640432 0.961735
#
# Coordination Sequence:
#
# PCOD8010744 Si02
#       7
#     2   2   2   2   2   2   2
#     4  10  24  42  61  89 122 165 201 242 300 364
#     4  10  21  43  65  84 119 166 205 243 294 365
#     4  11  19  37  61  91 118 162 198 245 304 356
#     4  11  24  39  60  90 129 155 197 253 304 353
#     4  12  22  38  66  89 123 157 206 247 299 361
#     4  12  22  37  60  96 124 156 201 253 303 350
#     4  10  21  38  63  90 122 159 200 246 301 356
#
# _framework density 19.791594
#
# number of rings (size 3 to 8) (size 9 to 14) (size 15 to 20)
#    0.000    1.143    4.286    3.000    2.000    1.143 
#    0.000    7.143    0.000    0.000    0.000    0.000 
#    0.000    0.000    0.000    0.000    0.000    0.000 
#
# Total GULP energy -173482.220455 kJ/mol
# GULP energy per Si atom -12391.587175 kJ/mol
# Density = 1.974655 g / cm^3
# Si number density = 19.791594 Si / 1000 Ang^3
#
#
#
# Elastic Constant Matrix: (Units=GPa)
#
#
# Indices 1 2 3 4 5 6 
#
# 1 110.8872 40.4056 48.1855 0.0353 11.2836 23.9122
# 2 40.4056 87.4295 59.2593 1.7050 5.7412 19.6207
# 3 48.1855 59.2593 124.7887 4.7685 5.2989 5.6431
# 4 0.0353 1.7050 4.7685 47.6257 4.5397 -1.0507
# 5 11.2836 5.7412 5.2989 4.5397 35.7635 -2.5610
# 6 23.9122 19.6207 5.6431 -1.0507 -2.5610 33.4123
#
#
#
# Elastic Compliance Matrix: (Units=1/GPa)
#
#
# Indices 1 2 3 4 5 6 
#
# 1 0.013520 -0.001334 -0.004051 0.000651 -0.004143 -0.008505
# 2 -0.001334 0.020126 -0.008518 0.000136 -0.002252 -0.009593
# 3 -0.004051 -0.008518 0.013353 -0.001018 0.001205 0.005707
# 4 0.000651 0.000136 -0.001018 0.021361 -0.002782 0.000085
# 5 -0.004143 -0.002252 0.001205 -0.002782 0.030257 0.006316
# 6 -0.008505 -0.009593 0.005707 0.000085 0.006316 0.041173
#
#
# Mechanical properties :
#
#
# Convention : Reuss Voigt Hill
#
# Bulk Modulus (GPa) = 52.10574 68.75624 60.43099
# Shear Modulus (GPa) = 28.73665 35.04396 31.89031
#
# Velocity S-wave (km/s) = 3.81460 4.21247 4.01846
# Velocity P-wave (km/s) = 6.76653 7.64692 7.22016
#
# Compressibility (1/GPa) = 0.01919174
#
# Stress axis : x y z
#
# Youngs Moduli (GPa) = 73.96228 49.68692 74.89189
#
# Poissons Ratio (x) = 0.06630 0.30342
# Poissons Ratio (y) = 0.09869 0.63792
# Poissons Ratio (z) = 0.29965 0.42323
#
# Static dielectric constant tensor:
#      x y z
#    x 1.305560 -0.293030 -0.293390 
#    y -0.293030 3.570860 -0.230890 
#    z -0.293390 -0.230890 3.407420 
# 
# 
# High freq. dielectric constant tensor:
#      x y z
#    x 1.784690 0.008200 0.006100 
#    y 0.008200 1.765730 -0.008650 
#    z 0.006100 -0.008650 1.770570 
# 
# From -- ./inp_files/165474.got.cif
#   From: 2010.06.25/outbox.cif.g09.slc.cpg/sg2_83_cif.got.tgz:165474.got - 2010.06.27 13:26:56.
