data_PCOD8010717
_publ_section_title
;
Structure prediction by ZEFSAII (Michael W. Deem and Ramdas Pophale) SiO2 
 PCOD8010717
Probable space group: P -1
;
_chemical_formula_sum "Si O2"
_cell_formula_units_Z 14
_cell_length_a 12.391847
_cell_length_b 18.134798
_cell_length_c 11.998902
_cell_angle_alpha 35.209341
_cell_angle_beta 54.781609
_cell_angle_gamma 27.919709
_cell_volume 613.599725
_symmetry_space_group_name_H-M "P -1"
_symmetry_group_IT_number 2
_symmetry_cell_setting 'triclinic'
loop_
_space_group_symop_operation_xyz
x,y,z
-x,-y,-z
loop_
_atom_site_type_symbol
_atom_site_label
_atom_site_fract_x
_atom_site_fract_y
_atom_site_fract_z
Si Si1 0.539005 0.154714 0.291507
Si Si2 0.746566 0.622318 0.401341
Si Si3 0.834973 0.827471 0.120518
Si Si4 0.166450 0.011273 0.279287
Si Si5 0.597829 0.686459 0.072083
Si Si6 0.055134 0.407598 0.264358
Si Si7 0.024962 0.111616 0.489550
O O1 0.212697 0.407888 0.197487
O O2 0.706431 0.886888 0.557945
O O3 0.551364 0.179678 0.123002
O O4 0.693089 0.130174 0.305969
O O5 0.657418 0.847660 0.183959
O O6 0.489075 0.748564 0.391766
O O7 0.900529 0.441499 0.640080
O O8 0.931812 0.447406 0.398538
O O9 0.957364 0.781426 0.990053
O O10 0.647091 0.093764 0.963790
O O11 0.069704 0.952909 0.378313
O O12 0.082282 0.118153 0.323494
O O13 0.775084 0.405935 0.327788
O O14 0.815631 0.618149 0.052288
#
# Coordination Sequence:
#
# PCOD8010717 Si02
#       7
#     2   2   2   2   2   2   2
#     4  10  22  40  63  98 139 170 217 270 324 397
#     4  11  24  41  68 102 133 169 219 274 334 394
#     4  11  25  41  70 101 133 170 217 277 339 383
#     4  11  25  49  66  95 135 176 224 273 323 392
#     4  11  22  42  68 101 129 174 219 268 337 386
#     4  10  21  38  63 101 135 170 213 273 330 389
#     4  10  27  45  69  94 131 182 226 265 321 395
#
# _framework density 22.816178000000001
#
# number of rings (size 3 to 8) (size 9 to 14) (size 15 to 20)
#    0.000    1.429    2.857    0.857    6.000    2.857 
#    0.000    4.286    0.000    0.000    0.000    0.000 
#    0.000    0.000    0.000    0.000    0.000    0.000 
#
# Total GULP energy -173437.585969 kJ/mol
# GULP energy per Si atom -12388.398998 kJ/mol
# Density = 2.276425 g / cm^3
# Si number density = 22.816178 Si / 1000 Ang^3
#
#
#
# Elastic Constant Matrix: (Units=GPa)
#
#
# Indices 1 2 3 4 5 6 
#
# 1 183.2753 81.5676 110.3210 -80.5720 113.6731 -60.8103
# 2 81.5676 118.7630 70.8691 -50.1698 64.3461 -40.3949
# 3 110.3210 70.8691 196.0465 -122.1121 161.2132 -72.9940
# 4 -80.5720 -50.1698 -122.1121 250.2148 -208.7030 122.9046
# 5 113.6731 64.3461 161.2132 -208.7030 251.7478 -126.4316
# 6 -60.8103 -40.3949 -72.9940 122.9046 -126.4316 102.7789
#
#
#
# Elastic Compliance Matrix: (Units=1/GPa)
#
#
# Indices 1 2 3 4 5 6 
#
# 1 0.010268 -0.004336 -0.002688 -0.001552 -0.002420 0.001341
# 2 -0.004336 0.012986 -0.002634 -0.000031 0.001711 0.002809
# 3 -0.002688 -0.002634 0.013053 -0.000627 -0.008576 -0.003156
# 4 -0.001552 -0.000031 -0.000627 0.014942 0.010028 -0.006907
# 5 -0.002420 0.001711 -0.008576 0.010028 0.023470 0.010029
# 6 0.001341 0.002809 -0.003156 -0.006907 0.010029 0.029982
#
#
# Mechanical properties :
#
#
# Convention : Reuss Voigt Hill
#
# Bulk Modulus (GPa) = 58.86389 113.73336 86.29863
# Shear Modulus (GPa) = 38.55631 136.63678 87.59654
#
# Velocity S-wave (km/s) = 4.11526 7.74699 6.20287
# Velocity P-wave (km/s) = 6.95957 11.40075 9.44491
#
# Compressibility (1/GPa) = 0.01698834
#
# Stress axis : x y z
#
# Youngs Moduli (GPa) = 97.39376 77.00748 76.61337
#
# Poissons Ratio (x) = 0.33394 0.20593
# Poissons Ratio (y) = 0.42234 0.20183
# Poissons Ratio (z) = 0.26179 0.20287
#
# Static dielectric constant tensor:
#      x y z
#    x 4.353740 0.014700 0.378150 
#    y 0.014700 4.066550 -0.009600 
#    z 0.378150 -0.009600 4.027750 
# 
# 
# High freq. dielectric constant tensor:
#      x y z
#    x 1.899130 0.009180 0.028040 
#    y 0.009180 1.898670 -0.007160 
#    z 0.028040 -0.007160 1.899600 
# 
# From -- ./inp_files/436491.got.cif
#   From: 2010.06.25/outbox.cif.g09.slc.cpg/sg2_219_cif.got.tgz:436491.got - 2010.06.27 13:26:56.
