data_PCOD8010092
_publ_section_title
;
Structure prediction by ZEFSAII (Michael W. Deem and Ramdas Pophale) SiO2 
 PCOD8010092
Probable space group: P -1
;
_chemical_formula_sum "Si O2"
_cell_formula_units_Z 16
_cell_length_a 13.508101
_cell_length_b 7.640744
_cell_length_c 17.062625
_cell_angle_alpha 133.154020
_cell_angle_beta 38.266012
_cell_angle_gamma 136.483582
_cell_volume 723.358885
_symmetry_space_group_name_H-M "P -1"
_symmetry_group_IT_number 2
_symmetry_cell_setting 'triclinic'
loop_
_space_group_symop_operation_xyz
x,y,z
-x,-y,-z
loop_
_atom_site_type_symbol
_atom_site_label
_atom_site_fract_x
_atom_site_fract_y
_atom_site_fract_z
Si Si1 0.890405 0.945961 0.639666
Si Si2 0.282736 0.927138 0.699997
Si Si3 0.107936 0.483438 0.187177
Si Si4 0.462924 0.290099 0.283007
Si Si5 0.599098 0.801938 0.449825
Si Si6 0.759773 0.609047 0.758462
Si Si7 0.237832 0.918189 0.420269
Si Si8 0.384259 0.475155 0.891798
O O1 0.882127 0.226426 0.716875
O O2 0.065430 0.929642 0.489392
O O3 0.719526 0.705530 0.634419
O O4 0.880874 0.874745 0.717182
O O5 0.421243 0.806281 0.596356
O O6 0.087681 0.717510 0.775529
O O7 0.304898 0.987968 0.612735
O O8 0.329295 0.183850 0.802862
O O9 0.175380 0.376615 0.188058
O O10 0.227318 0.492448 0.042156
O O11 0.560403 0.513681 0.354524
O O12 0.399983 0.014660 0.285536
O O13 0.582027 0.323004 0.141869
O O14 0.730272 0.880920 0.465904
O O15 0.555637 0.560403 0.866608
O O16 0.788531 0.369781 0.623929
#
# Coordination Sequence:
#
# PCOD8010092 Si02
#       8
#     2   2   2   2   2   2   2   2
#     4  11  25  40  62  99 130 160 206 260 318 372
#     4  10  21  39  65  95 119 168 210 254 318 367
#     4  12  24  43  67  89 129 172 208 256 308 370
#     4  10  22  38  62  91 127 164 206 252 313 372
#     4  10  21  37  65  93 129 158 204 264 315 374
#     4  11  24  41  64  96 125 166 210 258 314 369
#     4  12  21  40  63  96 131 159 205 263 319 374
#     4  10  23  45  63  90 126 168 216 256 299 370
#
# _framework density 22.119036000000001
#
# number of rings (size 3 to 8) (size 9 to 14) (size 15 to 20)
#    0.000    1.250    2.500    3.375    3.500    2.000 
#    2.250    0.000    0.000    3.750    0.000    0.000 
#    0.000    0.000    0.000    0.000    0.000    0.000 
#
# Total GULP energy -198321.121448 kJ/mol
# GULP energy per Si atom -12395.070091 kJ/mol
# Density = 2.206869 g / cm^3
# Si number density = 22.119036 Si / 1000 Ang^3
#
#
#
# Elastic Constant Matrix: (Units=GPa)
#
#
# Indices 1 2 3 4 5 6 
#
# 1 64.4644 13.5378 12.5729 -2.4046 9.7176 2.3920
# 2 13.5378 69.3762 21.2325 -23.0089 2.2636 1.2360
# 3 12.5729 21.2325 112.2878 -25.1593 5.7302 4.8882
# 4 -2.4046 -23.0089 -25.1593 28.1559 0.3605 -1.5942
# 5 9.7176 2.2636 5.7302 0.3605 32.5032 -1.5417
# 6 2.3920 1.2360 4.8882 -1.5942 -1.5417 35.4625
#
#
#
# Elastic Compliance Matrix: (Units=1/GPa)
#
#
# Indices 1 2 3 4 5 6 
#
# 1 0.017231 -0.003689 -0.001616 -0.002993 -0.004631 -0.001147
# 2 -0.003689 0.020642 0.000303 0.016844 -0.000565 0.000220
# 3 -0.001616 0.000303 0.011479 0.010327 -0.001728 -0.001095
# 4 -0.002993 0.016844 0.010327 0.058328 -0.002713 0.000695
# 5 -0.004631 -0.000565 -0.001728 -0.002713 0.032613 0.001866
# 6 -0.001147 0.000220 -0.001095 0.000695 0.001866 0.028532
#
#
# Mechanical properties :
#
#
# Convention : Reuss Voigt Hill
#
# Bulk Modulus (GPa) = 25.41358 37.86831 31.64094
# Shear Modulus (GPa) = 26.04898 32.47667 29.26282
#
# Velocity S-wave (km/s) = 3.43545 3.83596 3.64121
# Velocity P-wave (km/s) = 5.22023 6.06439 5.65807
#
# Compressibility (1/GPa) = 0.03934904
#
# Stress axis : x y z
#
# Youngs Moduli (GPa) = 58.03377 48.44444 87.11481
#
# Poissons Ratio (x) = 0.17870 0.14079
# Poissons Ratio (y) = 0.21408 -0.02641
# Poissons Ratio (z) = 0.09379 -0.01469
#
# Static dielectric constant tensor:
#      x y z
#    x 4.134480 -0.009820 0.186080 
#    y -0.009820 4.095320 -0.259720 
#    z 0.186080 -0.259720 3.742440 
# 
# 
# High freq. dielectric constant tensor:
#      x y z
#    x 1.883580 0.000550 0.018480 
#    y 0.000550 1.878590 -0.020950 
#    z 0.018480 -0.020950 1.846740 
# 
# From -- ./inp_files/572924.got.cif
#   From: 2010.06.25/outbox.cif.g09.slc.cpg/sg2_287_cif.got.tgz:572924.got - 2010.06.27 13:26:56.
