data_PCOD8010529
_publ_section_title
;
Structure prediction by ZEFSAII (Michael W. Deem and Ramdas Pophale) SiO2 
 PCOD8010529
Probable space group: P -1
;
_chemical_formula_sum "Si O2"
_cell_formula_units_Z 16
_cell_length_a 26.279384
_cell_length_b 26.279601
_cell_length_c 8.590482
_cell_angle_alpha 134.587092
_cell_angle_beta 134.586730
_cell_angle_gamma 11.307971
_cell_volume 824.529876
_symmetry_space_group_name_H-M "P -1"
_symmetry_group_IT_number 2
_symmetry_cell_setting 'triclinic'
loop_
_space_group_symop_operation_xyz
x,y,z
-x,-y,-z
loop_
_atom_site_type_symbol
_atom_site_label
_atom_site_fract_x
_atom_site_fract_y
_atom_site_fract_z
Si Si1 0.391934 0.391753 0.199089
Si Si2 0.845908 0.845952 0.493914
Si Si3 0.022321 0.022441 0.251047
Si Si4 0.106204 0.106209 0.595340
Si Si5 0.341215 0.341279 0.683933
Si Si6 0.740911 0.740928 0.559419
Si Si7 0.523445 0.523763 0.448996
Si Si8 0.768904 0.768900 0.014110
O O1 0.434044 0.433526 0.329660
O O2 0.132270 0.630512 0.255623
O O3 0.630691 0.132006 0.255325
O O4 0.368395 0.368636 0.943850
O O5 0.878298 0.878290 0.511180
O O6 0.810066 0.810126 0.238370
O O7 0.098113 0.599095 0.612929
O O8 0.599052 0.098180 0.612984
O O9 0.262070 0.761704 0.303365
O O10 0.064236 0.063650 0.385205
O O11 0.761303 0.262559 0.303332
O O12 0.000000 0.000000 0.000000
O O13 0.300552 0.300491 0.569254
O O14 0.000000 0.500000 0.500000
O O15 0.500000 0.000000 0.500000
O O16 0.766874 0.766877 0.819717
O O17 0.500000 0.500000 0.500000
O O18 0.000000 0.500000 0.000000
O O19 0.500000 0.000000 0.000000
#
# Coordination Sequence:
#
# PCOD8010529 Si02
#       8
#     2   2   2   2   2   2   2   2
#     4  10  23  41  60  87 124 157 194 247 287 349
#     4  12  24  41  63  88 117 158 196 243 298 352
#     4  10  21  38  61  90 123 153 198 247 284 346
#     4  10  23  41  61  89 119 160 198 235 300 349
#     4  12  25  42  60  90 121 151 201 246 290 352
#     4  12  26  41  62  90 116 152 200 243 296 351
#     4  10  21  38  61  89 121 159 198 235 297 346
#     4  12  23  44  62  85 121 152 193 250 296 343
#
# _framework density 19.404997000000002
#
# number of rings (size 3 to 8) (size 9 to 14) (size 15 to 20)
#    0.000    1.000    2.500    3.750    3.500    2.000 
#    0.000    0.000    0.000    0.000    0.000    0.000 
#    0.000    0.000    0.000    0.000    0.000    0.000 
#
# Total GULP energy -198489.664763 kJ/mol
# GULP energy per Si atom -12405.604048 kJ/mol
# Density = 1.936083 g / cm^3
# Si number density = 19.404997 Si / 1000 Ang^3
#
#
#
# Elastic Constant Matrix: (Units=GPa)
#
#
# Indices 1 2 3 4 5 6 
#
# 1 167.5545 92.8424 59.0773 -0.8327 -24.4366 -0.0193
# 2 92.8424 213.2672 73.3336 -3.9687 -25.7687 -4.0639
# 3 59.0773 73.3336 163.4544 -3.0943 -33.2915 -1.3122
# 4 -0.8327 -3.9687 -3.0943 24.2187 0.3387 -8.1113
# 5 -24.4366 -25.7687 -33.2915 0.3387 27.2097 0.8606
# 6 -0.0193 -4.0639 -1.3122 -8.1113 0.8606 37.7773
#
#
#
# Elastic Compliance Matrix: (Units=1/GPa)
#
#
# Indices 1 2 3 4 5 6 
#
# 1 0.008472 -0.002918 -0.001034 -0.000552 0.003605 -0.000546
# 2 -0.002918 0.006758 -0.001583 0.001067 0.001802 0.000859
# 3 -0.001034 -0.001583 0.008951 0.000767 0.008511 0.000111
# 4 -0.000552 0.001067 0.000767 0.044800 0.000587 0.009747
# 5 0.003605 0.001802 0.008511 0.000587 0.052119 -0.000570
# 6 -0.000546 0.000859 0.000111 0.009747 -0.000570 0.028673
#
#
# Mechanical properties :
#
#
# Convention : Reuss Voigt Hill
#
# Bulk Modulus (GPa) = 76.27110 110.53141 93.40125
# Shear Modulus (GPa) = 30.26407 39.10934 34.68671
#
# Velocity S-wave (km/s) = 3.95346 4.49422 4.23249
# Velocity P-wave (km/s) = 7.76080 9.16595 8.49249
#
# Compressibility (1/GPa) = 0.01311113
#
# Stress axis : x y z
#
# Youngs Moduli (GPa) = 118.02895 147.98310 111.72542
#
# Poissons Ratio (x) = 0.43182 0.11548
# Poissons Ratio (y) = 0.34441 0.17686
# Poissons Ratio (z) = 0.12200 0.23426
#
# Static dielectric constant tensor:
#      x y z
#    x 3.539460 -0.037640 -0.085990 
#    y -0.037640 3.974700 -0.007310 
#    z -0.085990 -0.007310 3.645820 
# 
# 
# High freq. dielectric constant tensor:
#      x y z
#    x 1.764370 -0.001690 -0.006010 
#    y -0.001690 1.783650 -0.000530 
#    z -0.006010 -0.000530 1.765680 
# 
# From -- ./inp_files/53369.got.cif
#   From: 2010.06.25/outbox.cif.g09.slc.cpg/sg2_27_cif.got.tgz:53369.got - 2010.06.27 13:26:56.
