data_PCOD8010763
_publ_section_title
;
Structure prediction by ZEFSAII (Michael W. Deem and Ramdas Pophale) SiO2 
 PCOD8010763
Probable space group: P -1
;
_chemical_formula_sum "Si O2"
_cell_formula_units_Z 14
_cell_length_a 18.962323
_cell_length_b 9.427288
_cell_length_c 8.848686
_cell_angle_alpha 77.657467
_cell_angle_beta 30.094047
_cell_angle_gamma 61.124346
_cell_volume 614.980109
_symmetry_space_group_name_H-M "P -1"
_symmetry_group_IT_number 2
_symmetry_cell_setting 'triclinic'
loop_
_space_group_symop_operation_xyz
x,y,z
-x,-y,-z
loop_
_atom_site_type_symbol
_atom_site_label
_atom_site_fract_x
_atom_site_fract_y
_atom_site_fract_z
Si Si1 0.251192 0.162780 0.500304
Si Si2 0.879523 0.264204 0.239535
Si Si3 0.701357 0.397173 0.851634
Si Si4 0.550935 0.308380 0.387634
Si Si5 0.635593 0.202420 0.579767
Si Si6 0.266806 0.354361 0.700822
Si Si7 0.926000 0.517324 0.470190
O O1 0.329250 0.221392 0.470572
O O2 0.201748 0.277633 0.410926
O O3 0.388908 0.942958 0.263929
O O4 0.083739 0.179153 0.874536
O O5 0.810020 0.279909 0.532706
O O6 0.829496 0.149948 0.265538
O O7 0.763542 0.465010 0.339088
O O8 0.815242 0.442717 0.721358
O O9 0.684244 0.260703 0.013630
O O10 0.511835 0.594761 0.125497
O O11 0.500000 0.500000 0.500000
O O12 0.630774 0.176376 0.413850
O O13 0.404558 0.287697 0.598429
O O14 0.086357 0.392684 0.084817
O O15 0.000000 0.500000 0.500000
#
# Coordination Sequence:
#
# PCOD8010763 Si02
#       7
#     2   2   2   2   2   2   2
#     4  11  24  41  61  95 129 163 197 259 323 360
#     4  11  20  41  64  88 121 171 211 242 299 388
#     4  11  21  39  65  93 116 165 218 250 292 371
#     4  10  21  38  63  92 122 168 208 250 299 372
#     4  11  24  39  63  93 130 160 203 259 317 355
#     4  11  20  42  65  87 125 169 211 240 305 383
#     4  11  22  38  66  93 122 162 212 252 301 373
#
# _framework density 22.764966000000001
#
# number of rings (size 3 to 8) (size 9 to 14) (size 15 to 20)
#    0.000    1.143    5.714    3.429    2.000    1.143 
#    0.000    2.143    0.000    0.000    0.000    0.000 
#    0.000    0.000    0.000    0.000    0.000    0.000 
#
# Total GULP energy -173492.236917 kJ/mol
# GULP energy per Si atom -12392.302637 kJ/mol
# Density = 2.271315 g / cm^3
# Si number density = 22.764966 Si / 1000 Ang^3
#
#
#
# Elastic Constant Matrix: (Units=GPa)
#
#
# Indices 1 2 3 4 5 6 
#
# 1 117.7271 28.1109 -13.4551 4.5166 -18.9444 -1.3840
# 2 28.1109 78.5692 -12.4932 -12.3186 -4.0033 0.4585
# 3 -13.4551 -12.4932 30.8709 -5.5229 -6.0686 -5.4370
# 4 4.5166 -12.3186 -5.5229 20.1237 4.7862 0.2044
# 5 -18.9444 -4.0033 -6.0686 4.7862 42.7416 -13.3469
# 6 -1.3840 0.4585 -5.4370 0.2044 -13.3469 27.9507
#
#
#
# Elastic Compliance Matrix: (Units=1/GPa)
#
#
# Indices 1 2 3 4 5 6 
#
# 1 0.011479 -0.003814 0.004933 -0.005442 0.007697 0.005306
# 2 -0.003814 0.017520 0.008023 0.013816 -0.000177 0.000899
# 3 0.004933 0.008023 0.045191 0.013082 0.012504 0.014779
# 4 -0.005442 0.013816 0.013082 0.064660 -0.007062 -0.001796
# 5 0.007697 -0.000177 0.012504 -0.007062 0.035555 0.019846
# 6 0.005306 0.000899 0.014779 -0.001796 0.019846 0.048390
#
#
# Mechanical properties :
#
#
# Convention : Reuss Voigt Hill
#
# Bulk Modulus (GPa) = 10.81395 25.72136 18.26766
# Shear Modulus (GPa) = 21.24628 33.16351 27.20489
#
# Velocity S-wave (km/s) = 3.05829 3.82092 3.46068
# Velocity P-wave (km/s) = 4.15108 5.54879 4.90003
#
# Compressibility (1/GPa) = 0.09247315
#
# Stress axis : x y z
#
# Youngs Moduli (GPa) = 87.11860 57.07793 22.12813
#
# Poissons Ratio (x) = 0.21772 -0.10916
# Poissons Ratio (y) = 0.33231 -0.17753
# Poissons Ratio (z) = -0.42978 -0.45792
#
# Static dielectric constant tensor:
#      x y z
#    x 4.358950 -0.117090 0.030350 
#    y -0.117090 4.128000 -0.386480 
#    z 0.030350 -0.386480 4.551400 
# 
# 
# High freq. dielectric constant tensor:
#      x y z
#    x 1.909090 0.003300 -0.010850 
#    y 0.003300 1.873670 -0.027760 
#    z -0.010850 -0.027760 1.901520 
# 
# From -- ./inp_files/157953.got.cif
#   From: 2010.06.25/outbox.cif.g09.slc.cpg/sg2_79_cif.got.tgz:157953.got - 2010.06.27 13:26:56.
