data_PCOD8010559
_publ_section_title
;
Structure prediction by ZEFSAII (Michael W. Deem and Ramdas Pophale) SiO2 
 PCOD8010559
Probable space group: P -1
;
_chemical_formula_sum "Si O2"
_cell_formula_units_Z 16
_cell_length_a 5.475177
_cell_length_b 11.251042
_cell_length_c 13.302158
_cell_angle_alpha 87.533510
_cell_angle_beta 112.641374
_cell_angle_gamma 103.971267
_cell_volume 732.767107
_symmetry_space_group_name_H-M "P -1"
_symmetry_group_IT_number 2
_symmetry_cell_setting 'triclinic'
loop_
_space_group_symop_operation_xyz
x,y,z
-x,-y,-z
loop_
_atom_site_type_symbol
_atom_site_label
_atom_site_fract_x
_atom_site_fract_y
_atom_site_fract_z
Si Si1 0.217131 0.534870 0.250663
Si Si2 0.891960 0.731497 0.205389
Si Si3 0.887289 0.372383 0.359603
Si Si4 0.217388 0.371296 0.599138
Si Si5 0.371517 0.564830 0.063425
Si Si6 0.525365 0.804446 0.821982
Si Si7 0.824086 0.061579 0.895582
Si Si8 0.115416 0.749371 0.944075
O O1 0.456612 0.610369 0.359603
O O2 0.335742 0.491819 0.166800
O O3 0.034793 0.627955 0.188914
O O4 0.057435 0.409121 0.282241
O O5 0.902549 0.727609 0.329108
O O6 0.586093 0.694460 0.116180
O O7 0.021790 0.867538 0.179843
O O8 0.813687 0.493790 0.383459
O O9 0.620715 0.263170 0.298710
O O10 0.069184 0.323267 0.473129
O O11 0.500000 0.500000 0.000000
O O12 0.100075 0.607387 0.981265
O O13 0.305869 0.770896 0.876714
O O14 0.806329 0.762607 0.884504
O O15 0.586547 0.952304 0.815333
O O16 0.725892 0.158854 0.947044
O O17 0.000000 0.000000 0.000000
#
# Coordination Sequence:
#
# PCOD8010559 Si02
#       8
#     2   2   2   2   2   2   2   2
#     4  10  21  38  61  91 128 171 213 261 333 405
#     4  10  21  40  60  94 123 171 219 263 329 398
#     4  10  22  40  62  94 123 165 220 274 334 385
#     4   9  21  40  65  89 127 166 210 276 343 389
#     4  11  24  36  60  95 138 172 214 264 328 399
#     4  11  26  41  67  94 128 173 231 272 313 392
#     4  10  21  44  66  90 129 179 220 264 322 385
#     4  11  24  43  62  93 135 175 217 265 325 390
#
# _framework density 21.835038999999998
#
# number of rings (size 3 to 8) (size 9 to 14) (size 15 to 20)
#    0.000    1.750    1.250    2.250    7.000    2.500 
#    0.000    1.250    0.000    0.750    0.000    0.000 
#    0.000    0.000    0.000    0.000    0.000    0.000 
#
# Total GULP energy -198266.641945 kJ/mol
# GULP energy per Si atom -12391.665122 kJ/mol
# Density = 2.178534 g / cm^3
# Si number density = 21.835039 Si / 1000 Ang^3
#
#
#
# Elastic Constant Matrix: (Units=GPa)
#
#
# Indices 1 2 3 4 5 6 
#
# 1 100.3165 20.5258 42.0271 6.2570 0.6158 2.2008
# 2 20.5258 107.6715 70.6438 3.2987 -0.1153 12.4413
# 3 42.0271 70.6438 116.3861 3.6814 7.7497 20.4967
# 4 6.2570 3.2987 3.6814 34.8349 8.2055 0.8575
# 5 0.6158 -0.1153 7.7497 8.2055 30.8535 -1.8788
# 6 2.2008 12.4413 20.4967 0.8575 -1.8788 30.2828
#
#
#
# Elastic Compliance Matrix: (Units=1/GPa)
#
#
# Indices 1 2 3 4 5 6 
#
# 1 0.012147 0.001113 -0.005580 -0.002212 0.001911 0.002618
# 2 0.001113 0.015764 -0.010232 -0.001332 0.002997 0.000592
# 3 -0.005580 -0.010232 0.018612 0.001509 -0.005513 -0.008373
# 4 -0.002212 -0.001332 0.001509 0.031171 -0.008736 -0.001738
# 5 0.001911 0.002997 -0.005513 -0.008736 0.036389 0.004866
# 6 0.002618 0.000592 -0.008373 -0.001738 0.004866 0.038607
#
#
# Mechanical properties :
#
#
# Convention : Reuss Voigt Hill
#
# Bulk Modulus (GPa) = 58.39648 65.64084 62.01866
# Shear Modulus (GPa) = 26.62447 31.93938 29.28192
#
# Velocity S-wave (km/s) = 3.49570 3.82875 3.66601
# Velocity P-wave (km/s) = 6.56473 7.04792 6.81061
#
# Compressibility (1/GPa) = 0.01712432
#
# Stress axis : x y z
#
# Youngs Moduli (GPa) = 82.32222 63.43437 53.72989
#
# Poissons Ratio (x) = -0.07059 0.29983
# Poissons Ratio (y) = -0.09161 0.54977
# Poissons Ratio (z) = 0.45938 0.64907
#
# Static dielectric constant tensor:
#      x y z
#    x 4.109560 0.132490 0.124200 
#    y 0.132490 4.163030 0.070880 
#    z 0.124200 0.070880 4.124360 
# 
# 
# High freq. dielectric constant tensor:
#      x y z
#    x 1.868040 0.012160 0.003550 
#    y 0.012160 1.839380 -0.001110 
#    z 0.003550 -0.001110 1.851240 
# 
# From -- ./inp_files/364360.got.cif
#   From: 2010.06.25/outbox.cif.g09.slc.cpg/sg2_183_cif.got.tgz:364360.got - 2010.06.27 13:26:56.
