data_PCOD8010721
_publ_section_title
;
Structure prediction by ZEFSAII (Michael W. Deem and Ramdas Pophale) SiO2 
 PCOD8010721
Probable space group: P -1
;
_chemical_formula_sum "Si O2"
_cell_formula_units_Z 16
_cell_length_a 11.423377
_cell_length_b 9.327867
_cell_length_c 20.558033
_cell_angle_alpha 108.936425
_cell_angle_beta 150.068275
_cell_angle_gamma 92.078668
_cell_volume 764.944007
_symmetry_space_group_name_H-M "P -1"
_symmetry_group_IT_number 2
_symmetry_cell_setting 'triclinic'
loop_
_space_group_symop_operation_xyz
x,y,z
-x,-y,-z
loop_
_atom_site_type_symbol
_atom_site_label
_atom_site_fract_x
_atom_site_fract_y
_atom_site_fract_z
Si Si1 0.667759 0.668055 0.963242
Si Si2 0.427830 0.459547 0.311842
Si Si3 0.163581 0.340441 0.347628
Si Si4 0.468731 0.820348 0.991912
Si Si5 0.901899 0.449426 0.020619
Si Si6 0.574433 0.959668 0.204481
Si Si7 0.039915 0.943961 0.901569
Si Si8 0.152134 0.409685 0.581643
O O1 0.640129 0.756013 0.028305
O O2 0.848230 0.588598 0.049259
O O3 0.302396 0.485022 0.736919
O O4 0.883494 0.845309 0.037459
O O5 0.755163 0.643679 0.534699
O O6 0.530956 0.483615 0.291598
O O7 0.269280 0.234539 0.230592
O O8 0.174392 0.485118 0.199431
O O9 0.500000 0.500000 0.500000
O O10 0.917195 0.373260 0.222129
O O11 0.000133 0.125032 0.203261
O O12 0.612367 0.885603 0.143543
O O13 0.500000 0.000000 0.000000
O O14 0.575831 0.213364 0.837699
O O15 0.000000 0.500000 0.000000
O O16 0.349866 0.005855 0.092002
O O17 0.908811 0.164650 0.423013
O O18 0.000000 0.500000 0.500000
#
# Coordination Sequence:
#
# PCOD8010721 Si02
#       8
#     2   2   2   2   2   2   2   2
#     4  12  23  38  64  95 128 165 217 262 311 381
#     4  10  21  38  63  85 126 168 204 260 317 373
#     4   9  17  33  61  92 119 153 202 255 321 361
#     4  11  19  39  69  96 126 157 207 273 324 366
#     4  11  25  46  59  87 134 182 210 249 319 391
#     4  10  22  40  68  90 127 170 203 262 329 373
#     4   9  19  37  62  93 119 160 208 262 314 367
#     4  12  22  36  64 100 118 155 227 269 312 367
#
# _framework density 20.916564000000001
#
# number of rings (size 3 to 8) (size 9 to 14) (size 15 to 20)
#    0.000    1.500    5.000    2.250    0.000    2.500 
#    0.000    0.625    0.000    0.000    0.000    0.000 
#    0.000    0.000    0.000    0.000    0.000    0.000 
#
# Total GULP energy -198217.730794 kJ/mol
# GULP energy per Si atom -12388.608175 kJ/mol
# Density = 2.086896 g / cm^3
# Si number density = 20.916564 Si / 1000 Ang^3
#
#
#
# Elastic Constant Matrix: (Units=GPa)
#
#
# Indices 1 2 3 4 5 6 
#
# 1 94.0337 36.7326 22.5597 18.5315 9.2779 -1.3074
# 2 36.7326 104.5514 32.2422 16.2380 13.1341 -7.5007
# 3 22.5597 32.2422 95.4900 18.1890 2.6870 3.8360
# 4 18.5315 16.2380 18.1890 24.7847 1.2095 8.2518
# 5 9.2779 13.1341 2.6870 1.2095 32.5825 -6.2211
# 6 -1.3074 -7.5007 3.8360 8.2518 -6.2211 33.8721
#
#
#
# Elastic Compliance Matrix: (Units=1/GPa)
#
#
# Indices 1 2 3 4 5 6 
#
# 1 0.013828 -0.002982 -0.000682 -0.008316 -0.002065 0.001597
# 2 -0.002982 0.012959 -0.002708 -0.005372 -0.003231 0.003777
# 3 -0.000682 -0.002708 0.012902 -0.007114 0.000434 -0.000275
# 4 -0.008316 -0.005372 -0.007114 0.060451 -0.000073 -0.015445
# 5 -0.002065 -0.003231 0.000434 -0.000073 0.033568 0.005339
# 6 0.001597 0.003777 -0.000275 -0.015445 0.005339 0.035195
#
#
# Mechanical properties :
#
#
# Convention : Reuss Voigt Hill
#
# Bulk Modulus (GPa) = 37.11540 53.01599 45.06569
# Shear Modulus (GPa) = 26.22887 31.75058 28.98972
#
# Velocity S-wave (km/s) = 3.54499 3.90033 3.72690
# Velocity P-wave (km/s) = 5.87699 6.75906 6.33340
#
# Compressibility (1/GPa) = 0.02694300
#
# Stress axis : x y z
#
# Youngs Moduli (GPa) = 72.31779 77.16697 77.50867
#
# Poissons Ratio (x) = 0.23014 0.05286
# Poissons Ratio (y) = 0.21568 0.20993
# Poissons Ratio (z) = 0.04932 0.20900
#
# Static dielectric constant tensor:
#      x y z
#    x 4.068700 0.090970 -0.186530 
#    y 0.090970 3.588470 0.007450 
#    z -0.186530 0.007450 5.128300 
# 
# 
# High freq. dielectric constant tensor:
#      x y z
#    x 1.826310 0.004350 0.006150 
#    y 0.004350 1.783240 0.012480 
#    z 0.006150 0.012480 1.826310 
# 
# From -- ./inp_files/445912.got.cif
#   From: 2010.06.25/outbox.cif.g09.slc.cpg/sg2_223_cif.got.tgz:445912.got - 2010.06.27 13:26:56.
