data_PCOD8010951
_publ_section_title
;
Structure prediction by ZEFSAII (Michael W. Deem and Ramdas Pophale) SiO2 
 PCOD8010951
Probable space group: P -1
;
_chemical_formula_sum "Si O2"
_cell_formula_units_Z 14
_cell_length_a 5.249568
_cell_length_b 16.864676
_cell_length_c 12.610379
_cell_angle_alpha 37.552537
_cell_angle_beta 98.894633
_cell_angle_gamma 92.471979
_cell_volume 666.388526
_symmetry_space_group_name_H-M "P -1"
_symmetry_group_IT_number 2
_symmetry_cell_setting 'triclinic'
loop_
_space_group_symop_operation_xyz
x,y,z
-x,-y,-z
loop_
_atom_site_type_symbol
_atom_site_label
_atom_site_fract_x
_atom_site_fract_y
_atom_site_fract_z
Si Si1 0.215796 0.572876 0.880615
Si Si2 0.726739 0.160908 0.284900
Si Si3 0.963490 0.348592 0.442195
Si Si4 0.221903 0.071267 0.301949
Si Si5 0.324873 0.889691 0.091512
Si Si6 0.494933 0.384086 0.540888
Si Si7 0.049964 0.939161 0.239358
O O1 0.212526 0.720659 0.763845
O O2 0.150725 0.574393 0.750588
O O3 0.500000 0.500000 0.000000
O O4 0.000000 0.500000 0.000000
O O5 0.431747 0.175318 0.204414
O O6 0.931679 0.149496 0.212773
O O7 0.744706 0.026656 0.493447
O O8 0.739123 0.376341 0.486205
O O9 0.048225 0.193965 0.581437
O O10 0.224650 0.404278 0.437529
O O11 0.254143 0.987969 0.282953
O O12 0.488814 0.746184 0.245629
O O13 0.155007 0.889518 0.185624
O O14 0.500000 0.000000 0.000000
O O15 0.161884 0.932130 0.929480
O O16 0.500000 0.500000 0.500000
#
# Coordination Sequence:
#
# PCOD8010951 Si02
#       7
#     2   2   2   2   2   2   2
#     4  12  25  45  66  92 132 172 224 273 307 398
#     4  10  22  40  60  94 124 159 211 260 326 365
#     4  11  23  44  70  90 122 181 220 254 335 390
#     4  10  21  38  65  91 125 160 201 269 319 382
#     4  10  21  39  63  97 126 162 216 271 308 382
#     4  11  24  44  67  96 135 169 214 270 326 393
#     4  10  21  39  65  93 125 166 213 261 323 384
#
# _framework density 21.008766000000001
#
# number of rings (size 3 to 8) (size 9 to 14) (size 15 to 20)
#    0.000    1.429    2.857    2.143    2.000    0.000 
#    7.714    0.000    0.000    0.000    0.000    0.000 
#    0.000    0.000    0.000    0.000    0.000    0.000 
#
# Total GULP energy -173491.624606 kJ/mol
# GULP energy per Si atom -12392.258900 kJ/mol
# Density = 2.096095 g / cm^3
# Si number density = 21.008766 Si / 1000 Ang^3
#
#
#
# Elastic Constant Matrix: (Units=GPa)
#
#
# Indices 1 2 3 4 5 6 
#
# 1 149.4832 51.2367 40.1174 -2.5413 7.3907 17.1512
# 2 51.2367 127.7406 41.1740 -4.1240 4.5104 20.5519
# 3 40.1174 41.1740 103.4538 2.2508 8.9802 -0.1521
# 4 -2.5413 -4.1240 2.2508 33.4607 7.0304 1.5675
# 5 7.3907 4.5104 8.9802 7.0304 28.1720 -1.1322
# 6 17.1512 20.5519 -0.1521 1.5675 -1.1322 34.7468
#
#
#
# Elastic Compliance Matrix: (Units=1/GPa)
#
#
# Indices 1 2 3 4 5 6 
#
# 1 0.008473 -0.002057 -0.002362 0.001011 -0.001516 -0.003071
# 2 -0.002057 0.010729 -0.003455 0.001811 -0.000748 -0.005452
# 3 -0.002362 -0.003455 0.012186 -0.001091 -0.002309 0.003237
# 4 0.001011 0.001811 -0.001091 0.032172 -0.008369 -0.003299
# 5 -0.001516 -0.000748 -0.002309 -0.008369 0.038952 0.002827
# 6 -0.003071 -0.005452 0.003237 -0.003299 0.002827 0.033775
#
#
# Mechanical properties :
#
#
# Convention : Reuss Voigt Hill
#
# Bulk Modulus (GPa) = 63.93636 71.74819 67.84228
# Shear Modulus (GPa) = 31.79669 35.81919 33.80794
#
# Velocity S-wave (km/s) = 3.89459 4.13360 4.01587
# Velocity P-wave (km/s) = 7.12201 7.55036 7.33931
#
# Compressibility (1/GPa) = 0.01564055
#
# Stress axis : x y z
#
# Youngs Moduli (GPa) = 118.01928 93.20505 82.06080
#
# Poissons Ratio (x) = 0.19172 0.19382
# Poissons Ratio (y) = 0.24276 0.28352
# Poissons Ratio (z) = 0.27876 0.32202
#
# Static dielectric constant tensor:
#      x y z
#    x 3.974170 0.062530 0.122910 
#    y 0.062530 3.687260 -0.060520 
#    z 0.122910 -0.060520 3.908350 
# 
# 
# High freq. dielectric constant tensor:
#      x y z
#    x 1.828540 0.011720 0.002720 
#    y 0.011720 1.820410 0.001660 
#    z 0.002720 0.001660 1.819590 
# 
# From -- ./inp_files/74716.got.cif
#   From: 2010.06.25/outbox.cif.g09.slc.cpg/sg2_38_cif.got.tgz:74716.got - 2010.06.27 13:26:56.
