data_PCOD8010772
_publ_section_title
;
Structure prediction by ZEFSAII (Michael W. Deem and Ramdas Pophale) SiO2 
 PCOD8010772
Probable space group: P -1
;
_chemical_formula_sum "Si O2"
_cell_formula_units_Z 16
_cell_length_a 15.702825
_cell_length_b 9.094854
_cell_length_c 11.886687
_cell_angle_alpha 87.698534
_cell_angle_beta 27.005459
_cell_angle_gamma 95.141706
_cell_volume 740.212796
_symmetry_space_group_name_H-M "P -1"
_symmetry_group_IT_number 2
_symmetry_cell_setting 'triclinic'
loop_
_space_group_symop_operation_xyz
x,y,z
-x,-y,-z
loop_
_atom_site_type_symbol
_atom_site_label
_atom_site_fract_x
_atom_site_fract_y
_atom_site_fract_z
Si Si1 0.936251 0.357044 0.161200
Si Si2 0.173841 0.115263 0.903992
Si Si3 0.793283 0.309808 0.794158
Si Si4 0.781365 0.890996 0.394775
Si Si5 0.497185 0.259486 0.700240
Si Si6 0.518970 0.997227 0.111151
Si Si7 0.440852 0.437123 0.264854
Si Si8 0.110129 0.527833 0.544959
O O1 0.712020 0.267280 0.401238
O O2 0.959863 0.413047 0.260199
O O3 0.000000 0.500000 0.000000
O O4 0.069441 0.244956 0.989144
O O5 0.266119 0.074672 0.680036
O O6 0.342114 0.174163 0.794165
O O7 0.012793 0.964090 0.143975
O O8 0.885059 0.345219 0.560580
O O9 0.955678 0.369226 0.696169
O O10 0.711497 0.129406 0.915620
O O11 0.623314 0.394086 0.999387
O O12 0.669727 0.972825 0.609584
O O13 0.716852 0.708226 0.491533
O O14 0.481104 0.430837 0.737000
O O15 0.457666 0.164003 0.867151
O O16 0.500000 0.000000 0.000000
O O17 0.324252 0.502500 0.305045
#
# Coordination Sequence:
#
# PCOD8010772 Si02
#       8
#     2   2   2   2   2   2   2   2
#     4  11  23  41  65  96 130 171 208 271 318 379
#     4  11  23  43  65  95 135 164 223 260 320 391
#     4  10  22  38  64  90 123 168 205 270 312 379
#     4  10  24  43  64  92 134 170 205 276 318 377
#     4  11  24  41  69  96 127 175 215 264 324 382
#     4  11  23  44  66  94 132 170 218 269 326 376
#     4  10  21  40  62  92 125 166 208 260 320 372
#     4  10  21  38  63  92 126 159 219 252 322 379
#
# _framework density 21.615407999999999
#
# number of rings (size 3 to 8) (size 9 to 14) (size 15 to 20)
#    0.000    1.500    1.250    4.125    1.750    5.500 
#    0.000    0.625    0.000    0.000    0.000    0.000 
#    0.000    0.000    0.000    0.000    0.000    0.000 
#
# Total GULP energy -198401.756481 kJ/mol
# GULP energy per Si atom -12400.109780 kJ/mol
# Density = 2.156621 g / cm^3
# Si number density = 21.615408 Si / 1000 Ang^3
#
#
#
# Elastic Constant Matrix: (Units=GPa)
#
#
# Indices 1 2 3 4 5 6 
#
# 1 130.4683 37.3779 64.3409 -12.0230 -6.5483 27.7285
# 2 37.3779 89.3430 33.8452 -14.7689 8.2089 9.3890
# 3 64.3409 33.8452 106.2853 -20.3376 9.0871 15.8167
# 4 -12.0230 -14.7689 -20.3376 40.0841 9.3185 -0.5067
# 5 -6.5483 8.2089 9.0871 9.3185 38.2984 -5.7125
# 6 27.7285 9.3890 15.8167 -0.5067 -5.7125 31.3359
#
#
#
# Elastic Compliance Matrix: (Units=1/GPa)
#
#
# Indices 1 2 3 4 5 6 
#
# 1 0.013330 -0.002900 -0.006734 -0.001465 0.003833 -0.006853
# 2 -0.002900 0.014295 -0.001170 0.004885 -0.004756 -0.001914
# 3 -0.006734 -0.001170 0.016348 0.007444 -0.007054 -0.003107
# 4 -0.001465 0.004885 0.007444 0.032774 -0.011867 -0.005558
# 5 0.003833 -0.004756 -0.007054 -0.011867 0.033466 0.007503
# 6 -0.006853 -0.001914 -0.003107 -0.005558 0.007503 0.041396
#
#
# Mechanical properties :
#
#
# Convention : Reuss Voigt Hill
#
# Bulk Modulus (GPa) = 44.71450 66.35829 55.53639
# Shear Modulus (GPa) = 27.67429 34.64586 31.16007
#
# Velocity S-wave (km/s) = 3.58202 4.00788 3.80092
# Velocity P-wave (km/s) = 6.15135 7.22383 6.70905
#
# Compressibility (1/GPa) = 0.02236411
#
# Stress axis : x y z
#
# Youngs Moduli (GPa) = 75.01634 69.95404 61.16933
#
# Poissons Ratio (x) = 0.20286 0.41194
# Poissons Ratio (y) = 0.21754 0.07159
# Poissons Ratio (z) = 0.50520 0.08187
#
# Static dielectric constant tensor:
#      x y z
#    x 3.775990 0.164870 -0.020080 
#    y 0.164870 4.049770 -0.257150 
#    z -0.020080 -0.257150 4.042880 
# 
# 
# High freq. dielectric constant tensor:
#      x y z
#    x 1.842550 0.015530 0.003680 
#    y 0.015530 1.851470 -0.018720 
#    z 0.003680 -0.018720 1.858430 
# 
# From -- ./inp_files/447322.got.cif
#   From: 2010.06.25/outbox.cif.g09.slc.cpg/sg2_224_cif.got.tgz:447322.got - 2010.06.27 13:26:56.
