data_PCOD8010455
_publ_section_title
;
Structure prediction by ZEFSAII (Michael W. Deem and Ramdas Pophale) SiO2 
 PCOD8010455
Probable space group: P -1
;
_chemical_formula_sum "Si O2"
_cell_formula_units_Z 12
_cell_length_a 12.309211
_cell_length_b 14.951218
_cell_length_c 8.391825
_cell_angle_alpha 75.153711
_cell_angle_beta 88.480356
_cell_angle_gamma 153.222640
_cell_volume 544.904845
_symmetry_space_group_name_H-M "P -1"
_symmetry_group_IT_number 2
_symmetry_cell_setting 'triclinic'
loop_
_space_group_symop_operation_xyz
x,y,z
-x,-y,-z
loop_
_atom_site_type_symbol
_atom_site_label
_atom_site_fract_x
_atom_site_fract_y
_atom_site_fract_z
Si Si1 0.330954 0.768189 0.297012
Si Si2 0.647462 0.850214 0.845334
Si Si3 0.330131 0.783368 0.915714
Si Si4 0.370521 0.459623 0.883768
Si Si5 0.804542 0.804242 0.454975
Si Si6 0.305225 0.118105 0.812933
O O1 0.490941 0.797953 0.316627
O O2 0.000000 0.500000 0.500000
O O3 0.530222 0.010120 0.252794
O O4 0.312828 0.772307 0.109931
O O5 0.553587 0.880758 0.802419
O O6 0.462588 0.638476 0.830251
O O7 0.575244 0.761887 0.070254
O O8 0.001646 0.121767 0.671965
O O9 0.000000 0.500000 0.000000
O O10 0.504207 0.528457 0.677185
O O11 0.500000 0.500000 0.000000
O O12 0.020237 0.181856 0.014392
O O13 0.705475 0.801088 0.332236
O O14 0.000000 0.000000 0.500000
#
# Coordination Sequence:
#
# PCOD8010455 Si02
#       6
#     2   2   2   2   2   2
#     4  10  24  43  65  95 128 170 218 261 320 377
#     4  10  22  40  61  94 126 160 213 256 315 382
#     4  10  22  44  66  93 131 167 214 271 315 374
#     4  11  22  40  61  89 127 164 204 259 320 375
#     4  10  21  38  60  91 121 161 204 251 315 377
#     4  11  22  41  63  88 130 163 206 266 310 376
#
# _framework density 22.022195
#
# number of rings (size 3 to 8) (size 9 to 14) (size 15 to 20)
#    0.000    1.667    3.333    1.500    0.000    8.000 
#    6.000    0.000    0.000    0.000    0.000    0.000 
#    0.000    0.000    0.000    0.000    0.000    0.000 
#
# Total GULP energy -148774.934176 kJ/mol
# GULP energy per Si atom -12397.911181 kJ/mol
# Density = 2.197207 g / cm^3
# Si number density = 22.022195 Si / 1000 Ang^3
#
#
#
# Elastic Constant Matrix: (Units=GPa)
#
#
# Indices 1 2 3 4 5 6 
#
# 1 163.4705 39.3724 74.3314 -7.3611 -33.2277 11.0915
# 2 39.3724 72.4869 19.0422 -26.0828 -1.5641 4.5545
# 3 74.3314 19.0422 126.0177 -24.2637 -27.1689 2.5929
# 4 -7.3611 -26.0828 -24.2637 37.6181 8.7510 -1.6580
# 5 -33.2277 -1.5641 -27.1689 8.7510 30.1198 -5.1438
# 6 11.0915 4.5545 2.5929 -1.6580 -5.1438 32.9921
#
#
#
# Elastic Compliance Matrix: (Units=1/GPa)
#
#
# Indices 1 2 3 4 5 6 
#
# 1 0.012625 -0.008546 -0.005625 -0.009701 0.010990 -0.001397
# 2 -0.008546 0.024737 0.002605 0.019842 -0.011830 -0.001594
# 3 -0.005625 0.002605 0.013252 0.008463 0.003678 0.001489
# 4 -0.009701 0.019842 0.008463 0.047590 -0.015904 -0.000231
# 5 0.010990 -0.011830 0.003678 -0.015904 0.053537 0.005197
# 6 -0.001397 -0.001594 0.001489 -0.000231 0.005197 0.031682
#
#
# Mechanical properties :
#
#
# Convention : Reuss Voigt Hill
#
# Bulk Modulus (GPa) = 36.38625 69.71855 53.05240
# Shear Modulus (GPa) = 23.17864 35.42793 29.30329
#
# Velocity S-wave (km/s) = 3.24777 4.01526 3.65173
# Velocity P-wave (km/s) = 5.53375 7.29544 6.47479
#
# Compressibility (1/GPa) = 0.02748291
#
# Stress axis : x y z
#
# Youngs Moduli (GPa) = 79.20586 40.42455 75.46178
#
# Poissons Ratio (x) = 0.34546 0.42451
# Poissons Ratio (y) = 0.67687 -0.19661
# Poissons Ratio (z) = 0.44557 -0.10532
#
# Static dielectric constant tensor:
#      x y z
#    x 4.227590 -0.108170 -0.273420 
#    y -0.108170 4.195920 0.071820 
#    z -0.273420 0.071820 4.408100 
# 
# 
# High freq. dielectric constant tensor:
#      x y z
#    x 1.869600 0.001010 -0.014880 
#    y 0.001010 1.873160 -0.000090 
#    z -0.014880 -0.000090 1.867780 
# 
# From -- ./inp_files/270000.got.cif
#   From: 2010.06.25/outbox.cif.g09.slc.cpg/sg2_135_cif.got.tgz:270000.got - 2010.06.27 13:26:56.
