data_PCOD8010977
_publ_section_title
;
Structure prediction by ZEFSAII (Michael W. Deem and Ramdas Pophale) SiO2 
 PCOD8010977
Probable space group: P -1
;
_chemical_formula_sum "Si O2"
_cell_formula_units_Z 14
_cell_length_a 12.084810
_cell_length_b 15.263529
_cell_length_c 23.064657
_cell_angle_alpha 161.608957
_cell_angle_beta 30.425333
_cell_angle_gamma 151.468525
_cell_volume 629.469277
_symmetry_space_group_name_H-M "P -1"
_symmetry_group_IT_number 2
_symmetry_cell_setting 'triclinic'
loop_
_space_group_symop_operation_xyz
x,y,z
-x,-y,-z
loop_
_atom_site_type_symbol
_atom_site_label
_atom_site_fract_x
_atom_site_fract_y
_atom_site_fract_z
Si Si1 0.265747 0.658385 0.457263
Si Si2 0.304580 0.096700 0.120803
Si Si3 0.860421 0.212037 0.709374
Si Si4 0.526462 0.330277 0.747456
Si Si5 0.335437 0.093903 0.881021
Si Si6 0.082424 0.414628 0.969144
Si Si7 0.063040 0.820886 0.941685
O O1 0.390510 0.457712 0.307918
O O2 0.272290 0.649927 0.378100
O O3 0.000000 0.500000 0.500000
O O4 0.405104 0.005596 0.629605
O O5 0.500000 0.000000 0.000000
O O6 0.250646 0.994925 0.014771
O O7 0.070461 0.927709 0.158193
O O8 0.575862 0.048594 0.727171
O O9 0.926280 0.348449 0.829638
O O10 0.947696 0.470031 0.784584
O O11 0.000000 0.000000 0.500000
O O12 0.620131 0.567194 0.905356
O O13 0.343366 0.421241 0.848798
O O14 0.207398 0.856732 0.839724
O O15 0.147143 0.045936 0.883502
O O16 0.000000 0.500000 0.000000
#
# Coordination Sequence:
#
# PCOD8010977 Si02
#       7
#     2   2   2   2   2   2   2
#     4  11  21  39  61  96 132 161 219 268 333 388
#     4  11  22  40  65  93 132 173 219 274 337 399
#     4  10  23  43  65 100 134 170 224 282 331 398
#     4  10  21  38  65  93 127 169 216 275 323 401
#     4  10  21  42  72  90 130 176 222 272 333 402
#     4  10  21  40  65  93 132 179 216 267 343 398
#     4  10  22  43  66  94 127 177 226 267 335 399
#
# _framework density 22.240957999999999
#
# number of rings (size 3 to 8) (size 9 to 14) (size 15 to 20)
#    0.000    1.714    2.857    1.286    2.000    0.571 
#   10.286    0.000    0.000    0.000    0.000    0.000 
#    0.000    0.000    0.000    0.000    0.000    0.000 
#
# Total GULP energy -173517.211296 kJ/mol
# GULP energy per Si atom -12394.086521 kJ/mol
# Density = 2.219034 g / cm^3
# Si number density = 22.240958 Si / 1000 Ang^3
#
#
#
# Elastic Constant Matrix: (Units=GPa)
#
#
# Indices 1 2 3 4 5 6 
#
# 1 122.1217 34.6836 43.5666 2.8353 -28.9906 2.5099
# 2 34.6836 148.6762 56.3415 -3.3756 -16.5213 -9.0757
# 3 43.5666 56.3415 100.6945 -14.4525 -21.9952 -10.0679
# 4 2.8353 -3.3756 -14.4525 30.0723 -3.6205 -14.3020
# 5 -28.9906 -16.5213 -21.9952 -3.6205 30.7100 0.1005
# 6 2.5099 -9.0757 -10.0679 -14.3020 0.1005 32.2458
#
#
#
# Elastic Compliance Matrix: (Units=1/GPa)
#
#
# Indices 1 2 3 4 5 6 
#
# 1 0.011806 -0.000730 -0.004202 -0.004453 0.007233 -0.004434
# 2 -0.000730 0.008677 -0.004347 -0.000518 0.000801 0.000909
# 3 -0.004202 -0.004347 0.020069 0.016852 0.010012 0.012812
# 4 -0.004453 -0.000518 0.016852 0.058321 0.014361 0.031285
# 5 0.007233 0.000801 0.010012 0.014361 0.048656 0.009007
# 6 -0.004434 0.000909 0.012812 0.031285 0.009007 0.049461
#
#
# Mechanical properties :
#
#
# Convention : Reuss Voigt Hill
#
# Bulk Modulus (GPa) = 45.47031 71.18619 58.32825
# Shear Modulus (GPa) = 22.43363 34.39901 28.41632
#
# Velocity S-wave (km/s) = 3.17939 3.93702 3.57831
# Velocity P-wave (km/s) = 5.82811 7.26244 6.58445
#
# Compressibility (1/GPa) = 0.02199237
#
# Stress axis : x y z
#
# Youngs Moduli (GPa) = 84.69935 115.25364 49.82924
#
# Poissons Ratio (x) = 0.08411 0.20940
# Poissons Ratio (y) = 0.06181 0.21663
# Poissons Ratio (z) = 0.35594 0.50105
#
# Static dielectric constant tensor:
#      x y z
#    x 3.971650 0.274290 -0.234020 
#    y 0.274290 4.190220 0.225400 
#    z -0.234020 0.225400 4.011170 
# 
# 
# High freq. dielectric constant tensor:
#      x y z
#    x 1.866020 -0.007600 -0.013540 
#    y -0.007600 1.903630 0.005030 
#    z -0.013540 0.005030 1.853050 
# 
# From -- ./inp_files/610564.got.cif
#   From: 2010.06.25/outbox.cif.g09.slc.cpg/sg2_306_cif.got.tgz:610564.got - 2010.06.27 13:26:56.
