data_PCOD8010467
_publ_section_title
;
Structure prediction by ZEFSAII (Michael W. Deem and Ramdas Pophale) SiO2 
 PCOD8010467
Probable space group: P -1
;
_chemical_formula_sum "Si O2"
_cell_formula_units_Z 12
_cell_length_a 13.434956
_cell_length_b 13.531310
_cell_length_c 11.254756
_cell_angle_alpha 33.177268
_cell_angle_beta 146.396484
_cell_angle_gamma 146.800046
_cell_volume 549.852413
_symmetry_space_group_name_H-M "P -1"
_symmetry_group_IT_number 2
_symmetry_cell_setting 'triclinic'
loop_
_space_group_symop_operation_xyz
x,y,z
-x,-y,-z
loop_
_atom_site_type_symbol
_atom_site_label
_atom_site_fract_x
_atom_site_fract_y
_atom_site_fract_z
Si Si1 0.423798 0.084964 0.056943
Si Si2 0.009911 0.411940 0.473878
Si Si3 0.327164 0.564717 0.227806
Si Si4 0.912931 0.312290 0.948506
Si Si5 0.640100 0.999711 0.533658
Si Si6 0.657717 0.704231 0.013442
O O1 0.508382 0.930147 0.349963
O O2 0.201420 0.934540 0.933460
O O3 0.568380 0.233630 0.950993
O O4 0.429363 0.219932 0.040492
O O5 0.057384 0.586958 0.251090
O O6 0.171314 0.328428 0.719273
O O7 0.000000 0.500000 0.500000
O O8 0.799192 0.222434 0.427257
O O9 0.500000 0.500000 0.500000
O O10 0.231844 0.620720 0.189407
O O11 0.134988 0.379289 0.158885
O O12 0.500000 0.000000 0.500000
O O13 0.738432 0.860789 0.822632
O O14 0.500000 0.500000 0.000000
#
# Coordination Sequence:
#
# PCOD8010467 Si02
#       6
#     2   2   2   2   2   2
#     4  11  22  46  67  99 138 177 229 285 342 404
#     4  12  22  41  66  97 140 176 220 283 341 409
#     4  11  25  47  73  99 137 183 233 287 345 406
#     4  11  25  45  72 102 138 181 231 284 345 410
#     4  10  21  38  60  93 131 174 217 269 333 402
#     4  11  23  39  64 100 137 182 228 271 340 416
#
# _framework density 21.824038000000002
#
# number of rings (size 3 to 8) (size 9 to 14) (size 15 to 20)
#    0.000    1.000    1.667    7.000    0.000    0.667 
#    3.000    0.000    0.000    0.000    0.000    0.000 
#    0.000    0.000    0.000    0.000    0.000    0.000 
#
# Total GULP energy -148661.945315 kJ/mol
# GULP energy per Si atom -12388.495443 kJ/mol
# Density = 2.177437 g / cm^3
# Si number density = 21.824038 Si / 1000 Ang^3
#
#
#
# Elastic Constant Matrix: (Units=GPa)
#
#
# Indices 1 2 3 4 5 6 
#
# 1 102.6683 43.4173 35.0379 5.7324 -16.2752 4.7193
# 2 43.4173 163.1800 17.4768 12.6967 -6.0321 3.9168
# 3 35.0379 17.4768 98.2891 23.4031 -2.3170 0.9546
# 4 5.7324 12.6967 23.4031 33.8687 7.0223 -0.3155
# 5 -16.2752 -6.0321 -2.3170 7.0223 35.9765 -0.4125
# 6 4.7193 3.9168 0.9546 -0.3155 -0.4125 35.4233
#
#
#
# Elastic Compliance Matrix: (Units=1/GPa)
#
#
# Indices 1 2 3 4 5 6 
#
# 1 0.013239 -0.002906 -0.004241 0.000715 0.005075 -0.001263
# 2 -0.002906 0.007080 0.000389 -0.002514 0.000383 -0.000424
# 3 -0.004241 0.000389 0.013812 -0.009142 0.000821 0.000078
# 4 0.000715 -0.002514 -0.009142 0.038364 -0.008167 0.000676
# 5 0.005075 0.000383 0.000821 -0.008167 0.031798 -0.000443
# 6 -0.001263 -0.000424 0.000078 0.000676 -0.000443 0.028444
#
#
# Mechanical properties :
#
#
# Convention : Reuss Voigt Hill
#
# Bulk Modulus (GPa) = 48.50996 61.77794 55.14395
# Shear Modulus (GPa) = 32.65327 38.93407 35.79367
#
# Velocity S-wave (km/s) = 3.87228 4.22832 4.05421
# Velocity P-wave (km/s) = 6.50144 7.22544 6.87298
#
# Compressibility (1/GPa) = 0.02061432
#
# Stress axis : x y z
#
# Youngs Moduli (GPa) = 75.53476 141.24812 72.40062
#
# Poissons Ratio (x) = 0.41047 0.30706
# Poissons Ratio (y) = 0.21950 -0.02816
# Poissons Ratio (z) = 0.32035 -0.05493
#
# Static dielectric constant tensor:
#      x y z
#    x 3.979700 0.319390 0.016680 
#    y 0.319390 4.425020 0.553690 
#    z 0.016680 0.553690 4.577230 
# 
# 
# High freq. dielectric constant tensor:
#      x y z
#    x 1.851680 0.011500 -0.017030 
#    y 0.011500 1.872820 0.011040 
#    z -0.017030 0.011040 1.868400 
# 
# From -- ./inp_files/452815.got.cif
#   From: 2010.06.25/outbox.cif.g09.slc.cpg/sg2_227_cif.got.tgz:452815.got - 2010.06.27 13:26:56.
