data_PCOD8010225
_publ_section_title
;
Structure prediction by ZEFSAII (Michael W. Deem and Ramdas Pophale) SiO2 
 PCOD8010225
Probable space group: P -1
;
_chemical_formula_sum "Si O2"
_cell_formula_units_Z 16
_cell_length_a 13.493064
_cell_length_b 14.885413
_cell_length_c 25.797063
_cell_angle_alpha 29.362495
_cell_angle_beta 19.666199
_cell_angle_gamma 28.456115
_cell_volume 799.506328
_symmetry_space_group_name_H-M "P -1"
_symmetry_group_IT_number 2
_symmetry_cell_setting 'triclinic'
loop_
_space_group_symop_operation_xyz
x,y,z
-x,-y,-z
loop_
_atom_site_type_symbol
_atom_site_label
_atom_site_fract_x
_atom_site_fract_y
_atom_site_fract_z
Si Si1 0.099869 0.668730 0.472640
Si Si2 0.348383 0.051626 0.253907
Si Si3 0.375113 0.898662 0.067377
Si Si4 0.252317 0.054853 0.412396
Si Si5 0.487643 0.760709 0.529585
Si Si6 0.700744 0.775244 0.137154
Si Si7 0.124073 0.345564 0.130942
Si Si8 0.122393 0.266989 0.557029
O O1 0.216862 0.434942 0.530969
O O2 0.394322 0.739875 0.283757
O O3 0.925149 0.732786 0.581330
O O4 0.853056 0.783418 0.491115
O O5 0.432247 0.077186 0.259894
O O6 0.320678 0.240460 0.137741
O O7 0.617712 0.857892 0.195262
O O8 0.001670 0.042184 0.427984
O O9 0.118753 0.815346 0.255412
O O10 0.652937 0.711557 0.000399
O O11 0.500000 0.000000 0.000000
O O12 0.224901 0.063625 0.014845
O O13 0.496203 0.918454 0.402889
O O14 0.549052 0.820524 0.528420
O O15 0.158109 0.730146 0.705440
O O16 0.002829 0.576616 0.086370
O O17 0.000000 0.500000 0.500000
#
# Coordination Sequence:
#
# PCOD8010225 Si02
#       8
#     2   2   2   2   2   2   2   2
#     4   9  17  32  48  73 112 141 173 222 267 310
#     4   8  16  29  51  78 109 135 174 231 274 309
#     4  11  21  36  56  79 110 147 183 220 263 318
#     4   9  16  29  49  78 107 140 176 221 276 317
#     4   9  19  33  51  77 108 142 181 220 263 320
#     4   9  17  33  53  78 104 138 183 223 261 317
#     4   9  19  35  55  79 108 143 182 222 267 321
#     4  10  21  38  53  78 117 148 172 225 271 313
#
# _framework density 20.012349
#
# number of rings (size 3 to 8) (size 9 to 14) (size 15 to 20)
#    0.000    2.750    1.250    0.750    0.000    2.000 
#    0.000    6.250    0.000    3.000    0.000   15.750 
#    0.000    0.000    0.000    0.000    0.000    0.000 
#
# Total GULP energy -198261.847967 kJ/mol
# GULP energy per Si atom -12391.365498 kJ/mol
# Density = 1.996680 g / cm^3
# Si number density = 20.012349 Si / 1000 Ang^3
#
#
#
# Elastic Constant Matrix: (Units=GPa)
#
#
# Indices 1 2 3 4 5 6 
#
# 1 95.6598 24.5849 14.3473 6.9958 21.5700 0.8370
# 2 24.5849 101.6123 17.2246 9.0598 12.6983 -4.1359
# 3 14.3473 17.2246 52.5125 -6.3343 11.4295 4.1133
# 4 6.9958 9.0598 -6.3343 20.5625 4.9275 5.1960
# 5 21.5700 12.6983 11.4295 4.9275 23.1711 5.0985
# 6 0.8370 -4.1359 4.1133 5.1960 5.0985 26.6992
#
#
#
# Elastic Compliance Matrix: (Units=1/GPa)
#
#
# Indices 1 2 3 4 5 6 
#
# 1 0.013711 -0.001394 -0.001254 -0.002256 -0.011377 0.002159
# 2 -0.001394 0.011971 -0.004043 -0.006456 -0.002846 0.004321
# 3 -0.001254 -0.004043 0.025138 0.013834 -0.010840 -0.005082
# 4 -0.002256 -0.006456 0.013834 0.062582 -0.011630 -0.013019
# 5 -0.011377 -0.002846 -0.010840 -0.011630 0.065012 -0.008566
# 6 0.002159 0.004321 -0.005082 -0.013019 -0.008566 0.043008
#
#
# Mechanical properties :
#
#
# Convention : Reuss Voigt Hill
#
# Bulk Modulus (GPa) = 26.71110 40.23311 33.47211
# Shear Modulus (GPa) = 20.21947 26.99509 23.60728
#
# Velocity S-wave (km/s) = 3.18205 3.67675 3.43831
# Velocity P-wave (km/s) = 5.18429 6.17839 5.70304
#
# Compressibility (1/GPa) = 0.03743761
#
# Stress axis : x y z
#
# Youngs Moduli (GPa) = 72.93152 83.53409 39.78015
#
# Poissons Ratio (x) = 0.11646 0.04989
# Poissons Ratio (y) = 0.10168 0.16085
# Poissons Ratio (z) = 0.09146 0.33776
#
# Static dielectric constant tensor:
#      x y z
#    x 4.074230 0.050790 0.183840 
#    y 0.050790 3.763160 -0.080110 
#    z 0.183840 -0.080110 3.390250 
# 
# 
# High freq. dielectric constant tensor:
#      x y z
#    x 1.779380 0.004250 0.020140 
#    y 0.004250 1.787000 -0.002620 
#    z 0.020140 -0.002620 1.739880 
# 
# From -- ./inp_files/544134.got.cif
#   From: 2010.06.25/outbox.cif.g09.slc.cpg/sg2_273_cif.got.tgz:544134.got - 2010.06.27 13:26:56.
