data_PCOD8010581
_publ_section_title
;
Structure prediction by ZEFSAII (Michael W. Deem and Ramdas Pophale) SiO2 
 PCOD8010581
Probable space group: P -1
;
_chemical_formula_sum "Si O2"
_cell_formula_units_Z 16
_cell_length_a 14.348212
_cell_length_b 9.183698
_cell_length_c 12.424709
_cell_angle_alpha 38.633268
_cell_angle_beta 129.913279
_cell_angle_gamma 108.139356
_cell_volume 719.743489
_symmetry_space_group_name_H-M "P -1"
_symmetry_group_IT_number 2
_symmetry_cell_setting 'triclinic'
loop_
_space_group_symop_operation_xyz
x,y,z
-x,-y,-z
loop_
_atom_site_type_symbol
_atom_site_label
_atom_site_fract_x
_atom_site_fract_y
_atom_site_fract_z
Si Si1 0.253886 0.419660 0.579899
Si Si2 0.873283 0.616674 0.912810
Si Si3 0.971321 0.762431 0.098082
Si Si4 0.449403 0.649957 0.628965
Si Si5 0.132566 0.454727 0.687342
Si Si6 0.377849 0.907819 0.841961
Si Si7 0.864914 0.216036 0.306483
Si Si8 0.409142 0.045045 0.559125
O O1 0.109440 0.513923 0.361538
O O2 0.314909 0.635877 0.489271
O O3 0.248310 0.377352 0.729563
O O4 0.350543 0.148059 0.761237
O O5 0.745807 0.771723 0.658281
O O6 0.835391 0.429907 0.069755
O O7 0.000000 0.500000 0.000000
O O8 0.914164 0.796244 0.916908
O O9 0.854646 0.765826 0.090219
O O10 0.000000 0.000000 0.000000
O O11 0.507384 0.788686 0.506008
O O12 0.432087 0.806912 0.635879
O O13 0.542387 0.354820 0.886769
O O14 0.128074 0.691925 0.619475
O O15 0.000000 0.500000 0.500000
O O16 0.241330 0.905187 0.701836
O O17 0.454351 0.939633 0.773534
O O18 0.000000 0.000000 0.500000
#
# Coordination Sequence:
#
# PCOD8010581 Si02
#       8
#     2   2   2   2   2   2   2   2
#     4  11  23  43  64  96 136 173 223 277 332 407
#     4  11  22  39  63  98 134 164 216 279 333 389
#     4  10  21  38  61  94 131 170 217 265 334 397
#     4  11  25  46  68  95 135 180 228 275 331 402
#     4   9  20  38  59  89 127 171 214 264 329 386
#     4  12  24  44  66  99 132 174 230 273 340 397
#     4  11  21  37  64  96 130 174 222 275 333 399
#     4  11  24  45  70  98 132 175 229 277 334 401
#
# _framework density 22.230142000000001
#
# number of rings (size 3 to 8) (size 9 to 14) (size 15 to 20)
#    0.000    1.250    1.250    6.000    0.000    4.500 
#    6.750    0.000    0.000    0.000    0.000    0.000 
#    0.000    0.000    0.000    0.000    0.000    0.000 
#
# Total GULP energy -198287.455612 kJ/mol
# GULP energy per Si atom -12392.965976 kJ/mol
# Density = 2.217955 g / cm^3
# Si number density = 22.230142 Si / 1000 Ang^3
#
#
#
# Elastic Constant Matrix: (Units=GPa)
#
#
# Indices 1 2 3 4 5 6 
#
# 1 121.1508 53.9447 6.5139 -4.1404 -18.5998 -2.4303
# 2 53.9447 134.2021 2.0632 -14.0094 -20.5213 2.4032
# 3 6.5139 2.0632 44.6491 -10.0028 -7.2746 -0.2165
# 4 -4.1404 -14.0094 -10.0028 37.2156 0.5554 1.1399
# 5 -18.5998 -20.5213 -7.2746 0.5554 29.3074 3.0239
# 6 -2.4303 2.4032 -0.2165 1.1399 3.0239 41.9750
#
#
#
# Elastic Compliance Matrix: (Units=1/GPa)
#
#
# Indices 1 2 3 4 5 6 
#
# 1 0.010528 -0.003697 -0.000855 -0.000525 0.003833 0.000555
# 2 -0.003697 0.010137 0.001782 0.003844 0.005252 -0.001268
# 3 -0.000855 0.001782 0.025186 0.007264 0.006892 -0.000715
# 4 -0.000525 0.003844 0.007264 0.030196 0.003724 -0.001301
# 5 0.003833 0.005252 0.006892 0.003724 0.042200 -0.003184
# 6 0.000555 -0.001268 -0.000715 -0.001301 -0.003184 0.024189
#
#
# Mechanical properties :
#
#
# Convention : Reuss Voigt Hill
#
# Bulk Modulus (GPa) = 24.80806 47.22731 36.01769
# Shear Modulus (GPa) = 30.97588 37.53161 34.25375
#
# Velocity S-wave (km/s) = 3.73690 4.11338 3.92965
# Velocity P-wave (km/s) = 5.45922 6.62198 6.06852
#
# Compressibility (1/GPa) = 0.04030947
#
# Stress axis : x y z
#
# Youngs Moduli (GPa) = 94.98318 98.64488 39.70427
#
# Poissons Ratio (x) = 0.36473 0.03396
# Poissons Ratio (y) = 0.35119 -0.07074
# Poissons Ratio (z) = 0.08125 -0.17576
#
# Static dielectric constant tensor:
#      x y z
#    x 4.538300 0.043420 -0.122130 
#    y 0.043420 3.931120 -0.377270 
#    z -0.122130 -0.377270 3.155910 
# 
# 
# High freq. dielectric constant tensor:
#      x y z
#    x 1.888770 0.009440 -0.006540 
#    y 0.009440 1.887780 0.000730 
#    z -0.006540 0.000730 1.865030 
# 
# From -- ./inp_files/215847.got.cif
#   From: 2010.06.25/outbox.cif.g09.slc.cpg/sg2_108_cif.got.tgz:215847.got - 2010.06.27 13:26:56.
