data_PCOD8010087
_publ_section_title
;
Structure prediction by ZEFSAII (Michael W. Deem and Ramdas Pophale) SiO2 
 PCOD8010087
Probable space group: P -1
;
_chemical_formula_sum "Si O2"
_cell_formula_units_Z 16
_cell_length_a 12.400296
_cell_length_b 9.437551
_cell_length_c 11.287372
_cell_angle_alpha 48.705933
_cell_angle_beta 123.969459
_cell_angle_gamma 104.409932
_cell_volume 807.713285
_symmetry_space_group_name_H-M "P -1"
_symmetry_group_IT_number 2
_symmetry_cell_setting 'triclinic'
loop_
_space_group_symop_operation_xyz
x,y,z
-x,-y,-z
loop_
_atom_site_type_symbol
_atom_site_label
_atom_site_fract_x
_atom_site_fract_y
_atom_site_fract_z
Si Si1 0.912629 0.523757 0.318483
Si Si2 0.455961 0.188748 0.290988
Si Si3 0.976345 0.566656 0.796906
Si Si4 0.216399 0.093999 0.089369
Si Si5 0.719153 0.281422 0.294302
Si Si6 0.158643 0.785191 0.050779
Si Si7 0.893617 0.918077 0.709006
Si Si8 0.269380 0.559387 0.041611
O O1 0.771829 0.459596 0.290205
O O2 0.000000 0.500000 0.500000
O O3 0.993892 0.379139 0.349852
O O4 0.885797 0.740622 0.131982
O O5 0.364291 0.140226 0.152981
O O6 0.578696 0.264903 0.269810
O O7 0.500000 0.000000 0.500000
O O8 0.374313 0.360540 0.226102
O O9 0.909135 0.382077 0.846144
O O10 0.885164 0.736170 0.719864
O O11 0.120588 0.509952 0.980937
O O12 0.183431 0.081501 0.214642
O O13 0.214306 0.893585 0.133164
O O14 0.704574 0.320284 0.123945
O O15 0.828971 0.094739 0.491218
O O16 0.280092 0.693245 0.089004
O O17 0.046448 0.928209 0.827029
#
# Coordination Sequence:
#
# PCOD8010087 Si02
#       8
#     2   2   2   2   2   2   2   2
#     4  11  24  39  61  98 132 156 198 262 326 365
#     4  12  23  42  68  86 119 170 226 246 290 376
#     4  10  21  37  65  92 130 158 204 260 310 375
#     4  12  23  40  62  94 124 164 213 252 308 371
#     4  11  24  37  68  90 124 165 211 253 306 365
#     4  11  22  36  67  90 129 160 198 263 324 357
#     4  11  21  38  66  97 118 164 209 255 311 378
#     4  10  22  42  60  94 122 166 206 261 304 365
#
# _framework density 19.809009
#
# number of rings (size 3 to 8) (size 9 to 14) (size 15 to 20)
#    0.000    1.000    5.000    3.750    1.750    5.500 
#    0.000    1.250    2.750    0.000    0.000    0.000 
#    0.000    0.000    0.000    0.000    0.000    0.000 
#
# Total GULP energy -198308.236892 kJ/mol
# GULP energy per Si atom -12394.264806 kJ/mol
# Density = 1.976392 g / cm^3
# Si number density = 19.809009 Si / 1000 Ang^3
#
#
#
# Elastic Constant Matrix: (Units=GPa)
#
#
# Indices 1 2 3 4 5 6 
#
# 1 94.8931 68.9869 31.3122 -9.3934 1.3126 -0.8157
# 2 68.9869 155.6263 38.2596 1.7413 -1.4732 -17.4191
# 3 31.3122 38.2596 115.3536 -12.0522 -5.0284 -16.1040
# 4 -9.3934 1.7413 -12.0522 31.0957 -1.4314 1.1974
# 5 1.3126 -1.4732 -5.0284 -1.4314 27.3718 -3.5682
# 6 -0.8157 -17.4191 -16.1040 1.1974 -3.5682 28.2321
#
#
#
# Elastic Compliance Matrix: (Units=1/GPa)
#
#
# Indices 1 2 3 4 5 6 
#
# 1 0.017674 -0.007982 -0.002636 0.004904 -0.002342 -0.006422
# 2 -0.007982 0.010946 -0.000884 -0.003545 0.001452 0.006353
# 3 -0.002636 -0.000884 0.010990 0.003426 0.003044 0.005887
# 4 0.004904 -0.003545 0.003426 0.035305 0.001874 -0.001352
# 5 -0.002342 0.001452 0.003044 0.001874 0.038337 0.007331
# 6 -0.006422 0.006353 0.005887 -0.001352 0.007331 0.043497
#
#
# Mechanical properties :
#
#
# Convention : Reuss Voigt Hill
#
# Bulk Modulus (GPa) = 60.22271 71.44338 65.83304
# Shear Modulus (GPa) = 26.98494 32.49418 29.73956
#
# Velocity S-wave (km/s) = 3.69488 4.05455 3.87888
# Velocity P-wave (km/s) = 6.97643 7.61994 7.30527
#
# Compressibility (1/GPa) = 0.01660503
#
# Stress axis : x y z
#
# Youngs Moduli (GPa) = 56.58101 91.35911 90.98934
#
# Poissons Ratio (x) = 0.72925 0.23988
# Poissons Ratio (y) = 0.45165 0.08042
# Poissons Ratio (z) = 0.14917 0.08075
#
# Static dielectric constant tensor:
#      x y z
#    x 3.780700 -0.124750 -0.022580 
#    y -0.124750 3.768650 -0.101700 
#    z -0.022580 -0.101700 3.642150 
# 
# 
# High freq. dielectric constant tensor:
#      x y z
#    x 1.770470 -0.003900 -0.012620 
#    y -0.003900 1.766010 -0.012730 
#    z -0.012620 -0.012730 1.766020 
# 
# From -- ./inp_files/416370.got.cif
#   From: 2010.06.25/outbox.cif.g09.slc.cpg/sg2_209_cif.got.tgz:416370.got - 2010.06.27 13:26:56.
