data_PCOD8010161
_publ_section_title
;
Structure prediction by ZEFSAII (Michael W. Deem and Ramdas Pophale) SiO2 
 PCOD8010161
Probable space group: P -1
;
_chemical_formula_sum "Si O2"
_cell_formula_units_Z 14
_cell_length_a 8.636011
_cell_length_b 19.647216
_cell_length_c 19.996831
_cell_angle_alpha 157.550207
_cell_angle_beta 140.717314
_cell_angle_gamma 29.361315
_cell_volume 626.254690
_symmetry_space_group_name_H-M "P -1"
_symmetry_group_IT_number 2
_symmetry_cell_setting 'triclinic'
loop_
_space_group_symop_operation_xyz
x,y,z
-x,-y,-z
loop_
_atom_site_type_symbol
_atom_site_label
_atom_site_fract_x
_atom_site_fract_y
_atom_site_fract_z
Si Si1 0.361594 0.138580 0.647384
Si Si2 0.548079 0.956204 0.054293
Si Si3 0.644677 0.696631 0.585569
Si Si4 0.569719 0.555805 0.894078
Si Si5 0.627371 0.534094 0.744340
Si Si6 0.262779 0.113480 0.732888
Si Si7 0.260583 0.704795 0.056233
O O1 0.320094 0.024606 0.593516
O O2 0.635473 0.140307 0.766916
O O3 0.010741 0.387422 0.741424
O O4 0.500000 0.000000 0.500000
O O5 0.908576 0.838408 0.087141
O O6 0.330558 0.195510 0.241160
O O7 0.467676 0.790206 0.896091
O O8 0.500000 0.000000 0.000000
O O9 0.476196 0.585038 0.444510
O O10 0.000000 0.500000 0.500000
O O11 0.429409 0.894808 0.638045
O O12 0.481018 0.554220 0.786546
O O13 0.884184 0.299029 0.788928
O O14 0.608758 0.749721 0.086528
O O15 0.295531 0.622225 0.915343
O O16 0.500000 0.500000 0.000000
#
# Coordination Sequence:
#
# PCOD8010161 Si02
#       7
#     2   2   2   2   2   2   2
#     4  10  21  37  67 107 138 174 226 303 353 409
#     4  12  28  48  71 103 146 188 236 296 358 424
#     4  12  28  45  70 100 141 195 240 285 348 436
#     4   9  19  38  74  99 129 178 230 291 349 413
#     4  11  24  45  71 101 138 183 240 290 351 427
#     4   9  19  40  65 101 136 174 235 287 343 416
#     4  11  21  39  71 101 134 179 229 285 355 416
#
# _framework density 22.355122000000001
#
# number of rings (size 3 to 8) (size 9 to 14) (size 15 to 20)
#    0.000    1.429    2.857    2.571    2.000    8.000 
#    0.000    0.000    0.000    0.000    0.000    0.000 
#    0.000    0.000    0.000    0.000    0.000    0.000 
#
# Total GULP energy -173517.719908 kJ/mol
# GULP energy per Si atom -12394.122851 kJ/mol
# Density = 2.230424 g / cm^3
# Si number density = 22.355122 Si / 1000 Ang^3
#
#
#
# Elastic Constant Matrix: (Units=GPa)
#
#
# Indices 1 2 3 4 5 6 
#
# 1 92.6804 20.8539 61.6060 5.5518 -16.6609 10.0409
# 2 20.8539 69.5297 43.7593 4.1346 7.2816 5.1791
# 3 61.6060 43.7593 138.0724 0.5284 -10.4782 11.2355
# 4 5.5518 4.1346 0.5284 26.4325 1.6011 -4.7717
# 5 -16.6609 7.2816 -10.4782 1.6011 44.0740 -6.0669
# 6 10.0409 5.1791 11.2355 -4.7717 -6.0669 41.5650
#
#
#
# Elastic Compliance Matrix: (Units=1/GPa)
#
#
# Indices 1 2 3 4 5 6 
#
# 1 0.016697 -0.000982 -0.006609 -0.003848 0.004785 -0.001868
# 2 -0.000982 0.019191 -0.005888 -0.002661 -0.005066 -0.001608
# 3 -0.006609 -0.005888 0.012189 0.001888 0.001225 -0.000569
# 4 -0.003848 -0.002661 0.001888 0.040029 -0.001311 0.005155
# 5 0.004785 -0.005066 0.001225 -0.001311 0.026059 0.002797
# 6 -0.001868 -0.001608 -0.000569 0.005155 0.002797 0.025864
#
#
# Mechanical properties :
#
#
# Convention : Reuss Voigt Hill
#
# Bulk Modulus (GPa) = 47.34684 61.41342 54.38013
# Shear Modulus (GPa) = 28.73140 34.01852 31.37496
#
# Velocity S-wave (km/s) = 3.58890 3.90517 3.75037
# Velocity P-wave (km/s) = 6.19669 6.91847 6.56750
#
# Compressibility (1/GPa) = 0.02112073
#
# Stress axis : x y z
#
# Youngs Moduli (GPa) = 59.89163 52.10855 82.03852
#
# Poissons Ratio (x) = 0.05115 0.54218
# Poissons Ratio (y) = 0.05879 0.48301
# Poissons Ratio (z) = 0.39582 0.30679
#
# Static dielectric constant tensor:
#      x y z
#    x 4.370340 0.210410 -0.439180 
#    y 0.210410 3.576410 0.048120 
#    z -0.439180 0.048120 4.466150 
# 
# 
# High freq. dielectric constant tensor:
#      x y z
#    x 1.890980 0.003430 -0.010670 
#    y 0.003430 1.863750 -0.004540 
#    z -0.010670 -0.004540 1.878770 
# 
# From -- ./inp_files/591558.got.cif
#   From: 2010.06.25/outbox.cif.g09.slc.cpg/sg2_296_cif.got.tgz:591558.got - 2010.06.27 13:26:56.
