data_PCOD8010190
_publ_section_title
;
Structure prediction by ZEFSAII (Michael W. Deem and Ramdas Pophale) SiO2 
 PCOD8010190
Probable space group: P -1
;
_chemical_formula_sum "Si O2"
_cell_formula_units_Z 16
_cell_length_a 19.548489
_cell_length_b 12.259379
_cell_length_c 8.903995
_cell_angle_alpha 50.288889
_cell_angle_beta 150.347996
_cell_angle_gamma 136.437518
_cell_volume 727.258183
_symmetry_space_group_name_H-M "P -1"
_symmetry_group_IT_number 2
_symmetry_cell_setting 'triclinic'
loop_
_space_group_symop_operation_xyz
x,y,z
-x,-y,-z
loop_
_atom_site_type_symbol
_atom_site_label
_atom_site_fract_x
_atom_site_fract_y
_atom_site_fract_z
Si Si1 0.547965 0.171312 0.371188
Si Si2 0.788861 0.422468 0.202065
Si Si3 0.834781 0.208382 0.709154
Si Si4 0.053778 0.706038 0.579185
Si Si5 0.388762 0.518247 0.656114
Si Si6 0.443076 0.285316 0.780202
Si Si7 0.045377 0.359698 0.224175
Si Si8 0.165669 0.008155 0.339058
O O1 0.715212 0.221948 0.581894
O O2 0.563684 0.293391 0.429895
O O3 0.500000 0.000000 0.500000
O O4 0.445416 0.188572 0.021384
O O5 0.871507 0.343486 0.536326
O O6 0.832726 0.380576 0.156580
O O7 0.884916 0.609077 0.260366
O O8 0.605638 0.351100 0.942643
O O9 0.778633 0.039727 0.668300
O O10 0.983296 0.242304 0.065739
O O11 0.027312 0.728810 0.682277
O O12 0.144091 0.883506 0.537037
O O13 0.406853 0.435989 0.609667
O O14 0.226759 0.424012 0.511673
O O15 0.500000 0.500000 0.000000
O O16 0.303185 0.175181 0.502571
O O17 0.000000 0.500000 0.000000
O O18 0.000000 0.000000 0.000000
#
# Coordination Sequence:
#
# PCOD8010190 Si02
#       8
#     2   2   2   2   2   2   2   2
#     4  10  21  38  64 102 132 158 219 278 331 393
#     4   9  19  41  65  95 126 173 219 270 333 404
#     4  10  21  39  63  92 131 166 212 276 321 386
#     4  10  21  37  68  95 129 168 227 276 326 401
#     4  10  21  40  64  94 135 174 209 271 338 394
#     4  10  22  43  69  90 136 187 211 270 353 396
#     4  12  20  37  69  99 126 171 223 274 335 401
#     4  11  25  45  60  89 137 182 222 272 329 396
#
# _framework density 22.000440999999999
#
# number of rings (size 3 to 8) (size 9 to 14) (size 15 to 20)
#    0.000    1.750    2.500    2.250    1.750    4.500 
#    6.750    1.875    0.000    0.000    0.000    0.000 
#    0.000    0.000    0.000    0.000    0.000    0.000 
#
# Total GULP energy -198216.385185 kJ/mol
# GULP energy per Si atom -12388.524074 kJ/mol
# Density = 2.195037 g / cm^3
# Si number density = 22.000441 Si / 1000 Ang^3
#
#
#
# Elastic Constant Matrix: (Units=GPa)
#
#
# Indices 1 2 3 4 5 6 
#
# 1 109.2952 49.5322 48.5907 15.7145 15.9535 -17.3585
# 2 49.5322 127.7326 38.7164 22.8244 3.7556 -27.1244
# 3 48.5907 38.7164 89.8651 29.3017 16.2857 -14.6238
# 4 15.7145 22.8244 29.3017 36.8451 -2.7038 -1.2801
# 5 15.9535 3.7556 16.2857 -2.7038 32.7712 2.9194
# 6 -17.3585 -27.1244 -14.6238 -1.2801 2.9194 32.2807
#
#
#
# Elastic Compliance Matrix: (Units=1/GPa)
#
#
# Indices 1 2 3 4 5 6 
#
# 1 0.013828 -0.003065 -0.004712 -0.000464 -0.004354 0.003102
# 2 -0.003065 0.011819 -0.000038 -0.005778 -0.001044 0.008131
# 3 -0.004712 -0.000038 0.022160 -0.016107 -0.010739 0.007806
# 4 -0.000464 -0.005778 -0.016107 0.044313 0.013606 -0.011874
# 5 -0.004354 -0.001044 -0.010739 0.013606 0.040209 -0.011180
# 6 0.003102 0.008131 0.007806 -0.011874 -0.011180 0.043554
#
#
# Mechanical properties :
#
#
# Convention : Reuss Voigt Hill
#
# Bulk Modulus (GPa) = 31.07763 66.73015 48.90389
# Shear Modulus (GPa) = 24.72344 33.04962 28.88653
#
# Velocity S-wave (km/s) = 3.35590 3.88006 3.62746
# Velocity P-wave (km/s) = 5.40118 7.10424 6.31043
#
# Compressibility (1/GPa) = 0.03217748
#
# Stress axis : x y z
#
# Youngs Moduli (GPa) = 72.31791 84.61235 45.12638
#
# Poissons Ratio (x) = 0.25930 0.21261
# Poissons Ratio (y) = 0.22162 0.00173
# Poissons Ratio (z) = 0.34073 0.00325
#
# Static dielectric constant tensor:
#      x y z
#    x 7.456010 -1.485670 -0.654600 
#    y -1.485670 3.842420 0.239660 
#    z -0.654600 0.239660 4.292040 
# 
# 
# High freq. dielectric constant tensor:
#      x y z
#    x 1.873730 -0.012570 0.008450 
#    y -0.012570 1.856060 0.015860 
#    z 0.008450 0.015860 1.854780 
# 
# From -- ./inp_files/346009.got.cif
#   From: 2010.06.25/outbox.cif.g09.slc.cpg/sg2_174_cif.got.tgz:346009.got - 2010.06.27 13:26:56.
