data_PCOD8010218
_publ_section_title
;
Structure prediction by ZEFSAII (Michael W. Deem and Ramdas Pophale) SiO2 
 PCOD8010218
Probable space group: P -1
;
_chemical_formula_sum "Si O2"
_cell_formula_units_Z 16
_cell_length_a 17.380356
_cell_length_b 11.436346
_cell_length_c 8.878727
_cell_angle_alpha 55.920140
_cell_angle_beta 53.438886
_cell_angle_gamma 30.619455
_cell_volume 717.066309
_symmetry_space_group_name_H-M "P -1"
_symmetry_group_IT_number 2
_symmetry_cell_setting 'triclinic'
loop_
_space_group_symop_operation_xyz
x,y,z
-x,-y,-z
loop_
_atom_site_type_symbol
_atom_site_label
_atom_site_fract_x
_atom_site_fract_y
_atom_site_fract_z
Si Si1 0.584839 0.698754 0.699581
Si Si2 0.988095 0.606237 0.286552
Si Si3 0.114271 0.971778 0.802538
Si Si4 0.985754 0.961635 0.709148
Si Si5 0.721732 0.785008 0.290463
Si Si6 0.394724 0.450880 0.899284
Si Si7 0.630190 0.356418 0.821051
Si Si8 0.776956 0.552521 0.095691
O O1 0.674255 0.730895 0.514548
O O2 0.617424 0.536146 0.655360
O O3 0.400195 0.943317 0.760558
O O4 0.655210 0.568361 0.872946
O O5 0.898619 0.853678 0.255416
O O6 0.892080 0.640294 0.242006
O O7 0.000000 0.500000 0.500000
O O8 0.156074 0.440251 0.132582
O O9 0.052510 0.023869 0.667470
O O10 0.290374 0.712330 0.807371
O O11 0.000000 0.000000 0.000000
O O12 0.807373 0.121625 0.839952
O O13 0.000000 0.000000 0.500000
O O14 0.088465 0.704735 0.809615
O O15 0.717904 0.725479 0.169835
O O16 0.573718 0.305667 0.799777
O O17 0.370464 0.368537 0.850141
O O18 0.500000 0.500000 0.000000
#
# Coordination Sequence:
#
# PCOD8010218 Si02
#       8
#     2   2   2   2   2   2   2   2
#     4  10  22  41  69  93 136 182 231 280 344 413
#     4  12  26  42  68 100 136 182 235 278 343 416
#     4  11  21  42  70  96 133 176 236 283 341 407
#     4  11  24  41  71 104 139 176 225 297 351 392
#     4  11  25  43  63  98 141 184 227 280 349 423
#     4  10  21  40  69  99 127 177 236 286 338 403
#     4  10  21  37  70  97 126 174 231 280 338 405
#     4  11  25  43  67  99 144 180 228 293 347 407
#
# _framework density 22.313137999999999
#
# number of rings (size 3 to 8) (size 9 to 14) (size 15 to 20)
#    0.000    1.250    2.500    4.125    7.000    0.500 
#    0.000    8.125    0.000    0.000    0.000    0.000 
#    0.000    0.000    0.000    0.000    0.000    0.000 
#
# Total GULP energy -198280.668268 kJ/mol
# GULP energy per Si atom -12392.541767 kJ/mol
# Density = 2.226235 g / cm^3
# Si number density = 22.313138 Si / 1000 Ang^3
#
#
#
# Elastic Constant Matrix: (Units=GPa)
#
#
# Indices 1 2 3 4 5 6 
#
# 1 144.5717 33.9277 27.4204 -15.7730 7.2163 -2.4470
# 2 33.9277 63.2063 17.8402 -8.0611 -1.5412 -5.2195
# 3 27.4204 17.8402 87.2927 -12.8296 14.1318 3.1075
# 4 -15.7730 -8.0611 -12.8296 23.6016 1.8310 -2.6188
# 5 7.2163 -1.5412 14.1318 1.8310 31.9986 3.5714
# 6 -2.4470 -5.2195 3.1075 -2.6188 3.5714 38.5028
#
#
#
# Elastic Compliance Matrix: (Units=1/GPa)
#
#
# Indices 1 2 3 4 5 6 
#
# 1 0.008551 -0.003783 -0.001015 0.004086 -0.001960 0.000572
# 2 -0.003783 0.019267 -0.002889 0.002560 0.002627 0.002535
# 3 -0.001015 -0.002889 0.014427 0.006627 -0.006599 -0.000558
# 4 0.004086 0.002560 0.006627 0.050590 -0.007085 0.004170
# 5 -0.001960 0.002627 -0.006599 -0.007085 0.035475 -0.003008
# 6 0.000572 0.002535 -0.000558 0.004170 -0.003008 0.026960
#
#
# Mechanical properties :
#
#
# Convention : Reuss Voigt Hill
#
# Bulk Modulus (GPa) = 37.21482 50.38304 43.79893
# Shear Modulus (GPa) = 27.83960 33.21275 30.52618
#
# Velocity S-wave (km/s) = 3.53608 3.86227 3.70277
# Velocity P-wave (km/s) = 5.77810 6.52062 6.16056
#
# Compressibility (1/GPa) = 0.02687102
#
# Stress axis : x y z
#
# Youngs Moduli (GPa) = 116.95151 51.90263 69.31340
#
# Poissons Ratio (x) = 0.19632 0.07038
# Poissons Ratio (y) = 0.44237 0.20023
# Poissons Ratio (z) = 0.11876 0.14994
#
# Static dielectric constant tensor:
#      x y z
#    x 4.355660 0.093670 -0.179770 
#    y 0.093670 3.827690 -0.178440 
#    z -0.179770 -0.178440 4.119350 
# 
# 
# High freq. dielectric constant tensor:
#      x y z
#    x 1.898100 -0.004590 -0.005020 
#    y -0.004590 1.865770 -0.013520 
#    z -0.005020 -0.013520 1.869540 
# 
# From -- ./inp_files/332840.got.cif
#   From: 2010.06.25/outbox.cif.g09.slc.cpg/sg2_167_cif.got.tgz:332840.got - 2010.06.27 13:26:56.
