data_PCOD8010392
_publ_section_title
;
Structure prediction by ZEFSAII (Michael W. Deem and Ramdas Pophale) SiO2 
 PCOD8010392
Probable space group: P -1
;
_chemical_formula_sum "Si O2"
_cell_formula_units_Z 14
_cell_length_a 15.126761
_cell_length_b 16.930830
_cell_length_c 7.483228
_cell_angle_alpha 49.135199
_cell_angle_beta 119.895013
_cell_angle_gamma 154.859945
_cell_volume 588.865899
_symmetry_space_group_name_H-M "P -1"
_symmetry_group_IT_number 2
_symmetry_cell_setting 'triclinic'
loop_
_space_group_symop_operation_xyz
x,y,z
-x,-y,-z
loop_
_atom_site_type_symbol
_atom_site_label
_atom_site_fract_x
_atom_site_fract_y
_atom_site_fract_z
Si Si1 0.425082 0.899282 0.296073
Si Si2 0.160602 0.013953 0.492820
Si Si3 0.845459 0.536199 0.398125
Si Si4 0.844706 0.307736 0.309426
Si Si5 0.708134 0.683800 0.563333
Si Si6 0.436080 0.556947 0.900720
Si Si7 0.113244 0.745116 0.002646
O O1 0.361125 0.727220 0.419144
O O2 0.304902 0.812677 0.489736
O O3 0.354020 0.920761 0.042743
O O4 0.688299 0.138846 0.233337
O O5 0.261905 0.177829 0.511543
O O6 0.337290 0.172456 0.274346
O O7 0.932535 0.858975 0.426487
O O8 0.126347 0.865283 0.737426
O O9 0.742127 0.558696 0.249033
O O10 0.993831 0.645411 0.559726
O O11 0.986083 0.642043 0.209999
O O12 0.978653 0.535600 0.062791
O O13 0.500000 0.500000 0.500000
O O14 0.670894 0.549156 0.854716
O O15 0.500000 0.500000 0.000000
#
# Coordination Sequence:
#
# PCOD8010392 Si02
#       7
#     2   2   2   2   2   2   2
#     4   8  15  28  49  82 110 144 187 224 280 333
#     4  10  21  38  60  85 114 153 189 238 291 333
#     4   9  16  32  52  78 112 149 186 228 280 332
#     4   8  15  28  50  79 112 145 183 233 273 333
#     4  10  22  41  60  83 112 150 197 239 287 342
#     4  10  21  39  61  83 117 152 191 239 286 340
#     4   9  16  30  55  80 111 145 187 229 276 339
#
# _framework density 23.774514
#
# number of rings (size 3 to 8) (size 9 to 14) (size 15 to 20)
#    0.000    2.857    1.429    1.714    0.000    1.714 
#    5.143    5.714    0.000    1.714    0.000    0.000 
#    0.000    0.000    0.000    0.000    0.000    0.000 
#
# Total GULP energy -173502.702239 kJ/mol
# GULP energy per Si atom -12393.050160 kJ/mol
# Density = 2.372040 g / cm^3
# Si number density = 23.774514 Si / 1000 Ang^3
#
#
#
# Elastic Constant Matrix: (Units=GPa)
#
#
# Indices 1 2 3 4 5 6 
#
# 1 61.1935 55.8359 26.4920 9.0162 24.6297 15.5813
# 2 55.8359 217.3615 67.7339 7.5909 22.1262 19.1939
# 3 26.4920 67.7339 128.4212 0.3592 30.3129 4.7678
# 4 9.0162 7.5909 0.3592 35.7407 14.5440 0.6305
# 5 24.6297 22.1262 30.3129 14.5440 36.8476 4.9584
# 6 15.5813 19.1939 4.7678 0.6305 4.9584 38.8317
#
#
#
# Elastic Compliance Matrix: (Units=1/GPa)
#
#
# Indices 1 2 3 4 5 6 
#
# 1 0.029265 -0.005570 0.001013 0.000557 -0.016323 -0.007039
# 2 -0.005570 0.006844 -0.003056 -0.001101 0.002711 -0.001101
# 3 0.001013 -0.003056 0.011555 0.004418 -0.010215 0.000918
# 4 0.000557 -0.001101 0.004418 0.035077 -0.017382 0.001429
# 5 -0.016323 0.002711 -0.010215 -0.017382 0.051666 0.000149
# 6 -0.007039 -0.001101 0.000918 0.001429 0.000149 0.028966
#
#
# Mechanical properties :
#
#
# Convention : Reuss Voigt Hill
#
# Bulk Modulus (GPa) = 30.82865 78.56665 54.69765
# Shear Modulus (GPa) = 26.39785 39.41161 32.90473
#
# Velocity S-wave (km/s) = 3.33580 4.07593 3.72430
# Velocity P-wave (km/s) = 5.27560 7.43433 6.44598
#
# Compressibility (1/GPa) = 0.03243736
#
# Stress axis : x y z
#
# Youngs Moduli (GPa) = 34.17057 146.12302 86.54549
#
# Poissons Ratio (x) = 0.81385 -0.08769
# Poissons Ratio (y) = 0.19032 0.26452
# Poissons Ratio (z) = -0.03462 0.44662
#
# Static dielectric constant tensor:
#      x y z
#    x 4.304660 0.415760 -0.351440 
#    y 0.415760 4.681070 -0.237040 
#    z -0.351440 -0.237040 5.929470 
# 
# 
# High freq. dielectric constant tensor:
#      x y z
#    x 1.934100 0.034580 -0.013850 
#    y 0.034580 1.943780 -0.014470 
#    z -0.013850 -0.014470 1.965060 
# 
# From -- ./inp_files/201761.got.cif
#   From: 2010.06.25/outbox.cif.g09.slc.cpg/sg2_101_cif.got.tgz:201761.got - 2010.06.27 13:26:56.
