data_PCOD8010211
_publ_section_title
;
Structure prediction by ZEFSAII (Michael W. Deem and Ramdas Pophale) SiO2 
 PCOD8010211
Probable space group: P -1
;
_chemical_formula_sum "Si O2"
_cell_formula_units_Z 14
_cell_length_a 17.149180
_cell_length_b 5.483217
_cell_length_c 7.733658
_cell_angle_alpha 66.170588
_cell_angle_beta 107.605782
_cell_angle_gamma 125.068460
_cell_volume 542.054517
_symmetry_space_group_name_H-M "P -1"
_symmetry_group_IT_number 2
_symmetry_cell_setting 'triclinic'
loop_
_space_group_symop_operation_xyz
x,y,z
-x,-y,-z
loop_
_atom_site_type_symbol
_atom_site_label
_atom_site_fract_x
_atom_site_fract_y
_atom_site_fract_z
Si Si1 0.295967 0.761869 0.058141
Si Si2 0.844706 0.349318 0.716778
Si Si3 0.965534 0.505193 0.284860
Si Si4 0.134548 0.205522 0.683659
Si Si5 0.470754 0.186166 0.303205
Si Si6 0.673273 0.687987 0.274509
Si Si7 0.321385 0.267207 0.341711
O O1 0.197111 0.666183 0.117619
O O2 0.295688 0.442839 0.125307
O O3 0.390721 0.976569 0.172437
O O4 0.303554 0.955954 0.836474
O O5 0.881580 0.677039 0.547119
O O6 0.935637 0.302299 0.815167
O O7 0.761404 0.092329 0.613201
O O8 0.907013 0.687564 0.213010
O O9 0.000000 0.500000 0.500000
O O10 0.906389 0.162618 0.258369
O O11 0.247837 0.359039 0.756849
O O12 0.567518 0.450354 0.196248
O O13 0.427078 0.339410 0.353735
O O14 0.500000 0.000000 0.500000
O O15 0.677724 0.611307 0.500345
#
# Coordination Sequence:
#
# PCOD8010211 Si02
#       7
#     2   2   2   2   2   2   2
#     4  11  25  42  65 102 128 177 223 275 346 406
#     4  10  21  42  67  95 139 171 223 284 335 407
#     4  10  21  37  70 102 130 181 236 277 342 409
#     4  11  22  40  66 104 131 183 232 279 343 407
#     4  11  23  45  67  94 133 177 222 281 340 405
#     4  12  23  43  68  95 138 171 227 282 335 406
#     4  11  23  44  66  97 130 179 224 274 344 403
#
# _framework density 25.827660999999999
#
# number of rings (size 3 to 8) (size 9 to 14) (size 15 to 20)
#    0.000    1.143    2.857    5.143    2.000    0.571 
#   15.429    1.429    0.000    0.000    0.000    0.000 
#    0.000    0.000    0.000    0.000    0.000    0.000 
#
# Total GULP energy -173493.244987 kJ/mol
# GULP energy per Si atom -12392.374642 kJ/mol
# Density = 2.576888 g / cm^3
# Si number density = 25.827661 Si / 1000 Ang^3
#
#
#
# Elastic Constant Matrix: (Units=GPa)
#
#
# Indices 1 2 3 4 5 6 
#
# 1 245.1799 65.6358 15.6781 -10.9507 14.7148 18.8866
# 2 65.6358 90.1373 -3.0933 -10.8755 -6.5796 -1.9336
# 3 15.6781 -3.0933 65.3332 -25.4021 13.5562 -3.7403
# 4 -10.9507 -10.8755 -25.4021 20.2097 -7.0313 3.3610
# 5 14.7148 -6.5796 13.5562 -7.0313 22.3406 -11.2527
# 6 18.8866 -1.9336 -3.7403 3.3610 -11.2527 45.2188
#
#
#
# Elastic Compliance Matrix: (Units=1/GPa)
#
#
# Indices 1 2 3 4 5 6 
#
# 1 0.006588 -0.006200 -0.002160 -0.004734 -0.008892 -0.005056
# 2 -0.006200 0.019701 0.008047 0.021508 0.014898 0.006207
# 3 -0.002160 0.008047 0.034492 0.045539 -0.002796 0.000019
# 4 -0.004734 0.021508 0.045539 0.122887 0.022010 0.003007
# 5 -0.008892 0.014898 -0.002796 0.022010 0.074179 0.020943
# 6 -0.005056 0.006207 0.000019 0.003007 0.020943 0.029482
#
#
# Mechanical properties :
#
#
# Convention : Reuss Voigt Hill
#
# Bulk Modulus (GPa) = 16.62342 61.89907 39.26125
# Shear Modulus (GPa) = 16.23345 39.04912 27.64128
#
# Velocity S-wave (km/s) = 2.50977 3.89255 3.27497
# Velocity P-wave (km/s) = 3.85342 6.64987 5.43459
#
# Compressibility (1/GPa) = 0.06015608
#
# Stress axis : x y z
#
# Youngs Moduli (GPa) = 151.78457 50.75922 28.99186
#
# Poissons Ratio (x) = 0.31472 0.06261
# Poissons Ratio (y) = 0.94110 -0.23330
# Poissons Ratio (z) = 0.32779 -0.40846
#
# Static dielectric constant tensor:
#      x y z
#    x 6.738890 0.278310 1.153390 
#    y 0.278310 4.766680 -0.431070 
#    z 1.153390 -0.431070 5.362000 
# 
# 
# High freq. dielectric constant tensor:
#      x y z
#    x 2.056090 0.016590 0.013370 
#    y 0.016590 2.024140 -0.013980 
#    z 0.013370 -0.013980 2.008250 
# 
# From -- ./inp_files/48389.got.cif
#   From: 2010.06.25/outbox.cif.g09.slc.cpg/sg2_25_cif.got.tgz:48389.got - 2010.06.27 13:26:56.
