data_PCOD8010136
_publ_section_title
;
Structure prediction by ZEFSAII (Michael W. Deem and Ramdas Pophale) SiO2 
 PCOD8010136
Probable space group: P -1
;
_chemical_formula_sum "Si O2"
_cell_formula_units_Z 16
_cell_length_a 6.385360
_cell_length_b 11.652761
_cell_length_c 11.558426
_cell_angle_alpha 127.633599
_cell_angle_beta 92.174723
_cell_angle_gamma 88.613297
_cell_volume 680.592843
_symmetry_space_group_name_H-M "P -1"
_symmetry_group_IT_number 2
_symmetry_cell_setting 'triclinic'
loop_
_space_group_symop_operation_xyz
x,y,z
-x,-y,-z
loop_
_atom_site_type_symbol
_atom_site_label
_atom_site_fract_x
_atom_site_fract_y
_atom_site_fract_z
Si Si1 0.805685 0.911519 0.392939
Si Si2 0.043479 0.811922 0.797796
Si Si3 0.683502 0.666159 0.599357
Si Si4 0.373072 0.588852 0.724968
Si Si5 0.690740 0.702561 0.081533
Si Si6 0.307366 0.066942 0.967234
Si Si7 0.600163 0.419805 0.812308
Si Si8 0.459487 0.821088 0.498073
O O1 0.859332 0.787324 0.219976
O O2 0.683956 0.833653 0.446229
O O3 0.650694 0.025108 0.397902
O O4 0.000000 0.000000 0.500000
O O5 0.193624 0.708156 0.813547
O O6 0.918622 0.730321 0.642909
O O7 0.185925 0.936280 0.817978
O O8 0.864139 0.872902 0.912820
O O9 0.594015 0.654418 0.722018
O O10 0.707737 0.513985 0.442749
O O11 0.511830 0.766746 0.593449
O O12 0.411527 0.505443 0.794684
O O13 0.615436 0.809122 0.042950
O O14 0.484886 0.664641 0.129285
O O15 0.767425 0.545879 0.933260
O O16 0.500000 0.000000 0.000000
O O17 0.685513 0.297212 0.648617
#
# Coordination Sequence:
#
# PCOD8010136 Si02
#       8
#     2   2   2   2   2   2   2   2
#     4  10  22  39  60  91 126 164 209 262 312 380
#     4  11  23  38  61  95 127 164 215 269 313 389
#     4  10  21  37  66  93 124 171 210 261 330 378
#     4  10  21  40  63  93 129 165 210 271 320 376
#     4  10  21  39  67  89 120 172 211 257 320 381
#     4  11  25  42  61  92 132 168 212 267 324 382
#     4   9  19  42  64  88 125 166 215 261 319 381
#     4   9  21  39  60  90 125 163 208 262 316 376
#
# _framework density 23.508915999999999
#
# number of rings (size 3 to 8) (size 9 to 14) (size 15 to 20)
#    0.000    2.000    0.000    2.625    5.250    0.000 
#    0.000   15.000    0.000    0.000    0.000    0.000 
#    0.000    0.000    0.000    0.000    0.000    0.000 
#
# Total GULP energy -198241.396310 kJ/mol
# GULP energy per Si atom -12390.087269 kJ/mol
# Density = 2.345541 g / cm^3
# Si number density = 23.508916 Si / 1000 Ang^3
#
#
#
# Elastic Constant Matrix: (Units=GPa)
#
#
# Indices 1 2 3 4 5 6 
#
# 1 69.6062 28.3930 33.6424 14.8812 13.9499 13.7956
# 2 28.3930 137.1386 26.4938 -2.9196 2.7401 18.1496
# 3 33.6424 26.4938 86.9967 12.5506 23.4772 17.5197
# 4 14.8812 -2.9196 12.5506 41.3234 7.9281 3.8040
# 5 13.9499 2.7401 23.4772 7.9281 37.7453 15.2507
# 6 13.7956 18.1496 17.5197 3.8040 15.2507 22.5929
#
#
#
# Elastic Compliance Matrix: (Units=1/GPa)
#
#
# Indices 1 2 3 4 5 6 
#
# 1 0.020142 -0.002693 -0.004958 -0.005285 -0.001200 -0.004591
# 2 -0.002693 0.009100 -0.001579 0.002029 0.003882 -0.007403
# 3 -0.004958 -0.001579 0.016696 -0.001792 -0.006446 -0.003998
# 4 -0.005285 0.002029 -0.001792 0.027325 -0.002979 0.000397
# 5 -0.001200 0.003882 -0.006446 -0.002979 0.041294 -0.024761
# 6 -0.004591 -0.007403 -0.003998 0.000397 -0.024761 0.072760
#
#
# Mechanical properties :
#
#
# Convention : Reuss Voigt Hill
#
# Bulk Modulus (GPa) = 36.39435 52.31108 44.35271
# Shear Modulus (GPa) = 23.26256 34.01312 28.63784
#
# Velocity S-wave (km/s) = 3.14908 3.80783 3.49401
# Velocity P-wave (km/s) = 5.36068 6.45234 5.93168
#
# Compressibility (1/GPa) = 0.02747680
#
# Stress axis : x y z
#
# Youngs Moduli (GPa) = 49.64828 109.88981 59.89392
#
# Poissons Ratio (x) = 0.29596 0.29696
# Poissons Ratio (y) = 0.13371 0.09459
# Poissons Ratio (z) = 0.24616 0.17355
#
# Static dielectric constant tensor:
#      x y z
#    x 3.958550 0.340510 0.374960 
#    y 0.340510 4.532640 0.510480 
#    z 0.374960 0.510480 4.706760 
# 
# 
# High freq. dielectric constant tensor:
#      x y z
#    x 1.880350 0.013750 0.018340 
#    y 0.013750 1.946640 0.020240 
#    z 0.018340 0.020240 1.950330 
# 
# From -- ./inp_files/365252.got.cif
#   From: 2010.06.25/outbox.cif.g09.slc.cpg/sg2_183_cif.got.tgz:365252.got - 2010.06.27 13:26:56.
