data_PCOD8010498
_publ_section_title
;
Structure prediction by ZEFSAII (Michael W. Deem and Ramdas Pophale) SiO2 
 PCOD8010498
Probable space group: P -1
;
_chemical_formula_sum "Si O2"
_cell_formula_units_Z 16
_cell_length_a 22.542773
_cell_length_b 7.672115
_cell_length_c 9.407629
_cell_angle_alpha 124.511579
_cell_angle_beta 52.142674
_cell_angle_gamma 85.340162
_cell_volume 795.888560
_symmetry_space_group_name_H-M "P -1"
_symmetry_group_IT_number 2
_symmetry_cell_setting 'triclinic'
loop_
_space_group_symop_operation_xyz
x,y,z
-x,-y,-z
loop_
_atom_site_type_symbol
_atom_site_label
_atom_site_fract_x
_atom_site_fract_y
_atom_site_fract_z
Si Si1 0.599260 0.415392 0.381092
Si Si2 0.571155 0.730914 0.169882
Si Si3 0.443854 0.042932 0.242635
Si Si4 0.289162 0.927072 0.680277
Si Si5 0.234918 0.454423 0.095372
Si Si6 0.678828 0.131564 0.709234
Si Si7 0.208067 0.953166 0.248050
Si Si8 0.888755 0.682446 0.694869
O O1 0.500000 0.500000 0.500000
O O2 0.599500 0.668500 0.484296
O O3 0.614754 0.317591 0.478350
O O4 0.693770 0.159570 0.036024
O O5 0.680159 0.638600 0.958337
O O6 0.500000 0.000000 0.500000
O O7 0.523143 0.789783 0.114079
O O8 0.596478 0.441969 0.049446
O O9 0.358119 0.038716 0.323082
O O10 0.500000 0.000000 0.000000
O O11 0.297338 0.818684 0.459945
O O12 0.287311 0.187715 0.788003
O O13 0.186276 0.044060 0.964626
O O14 0.194177 0.727490 0.189730
O O15 0.144712 0.503650 0.335445
O O16 0.780123 0.952691 0.572598
O O17 0.116031 0.216287 0.412726
O O18 0.000000 0.500000 0.500000
#
# Coordination Sequence:
#
# PCOD8010498 Si02
#       8
#     2   2   2   2   2   2   2   2
#     4  11  21  36  55  83 122 163 212 244 288 357
#     4  11  22  37  56  80 118 165 207 234 289 360
#     4  12  24  31  51  83 119 164 204 239 294 341
#     4   9  20  38  59  83 118 150 199 254 301 350
#     4   9  20  37  62  84 118 154 203 243 302 354
#     4  11  22  38  53  83 124 158 201 255 299 355
#     4  10  21  38  61  86 116 160 198 247 300 371
#     4   9  21  41  67  89 114 151 204 257 310 372
#
# _framework density 20.103318000000002
#
# number of rings (size 3 to 8) (size 9 to 14) (size 15 to 20)
#    0.750    1.000    0.000    5.625    1.750    3.500 
#    0.000    0.625    0.000    3.000    0.000    0.000 
#    0.000    0.000    0.000    0.000    0.000    0.000 
#
# Total GULP energy -198255.767300 kJ/mol
# GULP energy per Si atom -12390.985456 kJ/mol
# Density = 2.005756 g / cm^3
# Si number density = 20.103318 Si / 1000 Ang^3
#
#
#
# Elastic Constant Matrix: (Units=GPa)
#
#
# Indices 1 2 3 4 5 6 
#
# 1 138.7272 71.2959 37.9453 13.8089 -8.3374 -12.5922
# 2 71.2959 131.1412 16.9658 4.9216 -5.3230 -15.3171
# 3 37.9453 16.9658 41.5056 2.8514 -0.3225 -6.4363
# 4 13.8089 4.9216 2.8514 25.9247 -2.0853 7.8255
# 5 -8.3374 -5.3230 -0.3225 -2.0853 31.7305 3.2412
# 6 -12.5922 -15.3171 -6.4363 7.8255 3.2412 48.8174
#
#
#
# Elastic Compliance Matrix: (Units=1/GPa)
#
#
# Indices 1 2 3 4 5 6 
#
# 1 0.013453 -0.005682 -0.009423 -0.005235 0.002024 0.001150
# 2 -0.005682 0.010807 0.001073 0.000260 0.000142 0.002016
# 3 -0.009423 0.001073 0.032582 0.000367 -0.002174 0.002287
# 4 -0.005235 0.000260 0.000367 0.044014 0.002426 -0.008437
# 5 0.002024 0.000142 -0.002174 0.002426 0.032440 -0.002263
# 6 0.001150 0.002016 0.002287 -0.008437 -0.002263 0.023218
#
#
# Mechanical properties :
#
#
# Convention : Reuss Voigt Hill
#
# Bulk Modulus (GPa) = 34.74870 62.64310 48.69590
# Shear Modulus (GPa) = 25.75071 33.63898 29.69484
#
# Velocity S-wave (km/s) = 3.58287 4.09504 3.84749
# Velocity P-wave (km/s) = 5.86844 7.32034 6.63423
#
# Compressibility (1/GPa) = 0.02877806
#
# Stress axis : x y z
#
# Youngs Moduli (GPa) = 74.33319 92.53273 30.69198
#
# Poissons Ratio (x) = 0.52576 0.28920
# Poissons Ratio (y) = 0.42235 -0.03293
# Poissons Ratio (z) = 0.70043 -0.09927
#
# Static dielectric constant tensor:
#      x y z
#    x 3.607060 0.052000 0.310810 
#    y 0.052000 3.968070 -0.030320 
#    z 0.310810 -0.030320 3.278770 
# 
# 
# High freq. dielectric constant tensor:
#      x y z
#    x 1.778690 -0.006060 0.018620 
#    y -0.006060 1.797670 -0.004380 
#    z 0.018620 -0.004380 1.741520 
# 
# From -- ./inp_files/329556.got.cif
#   From: 2010.06.25/outbox.cif.g09.slc.cpg/sg2_165_cif.got.tgz:329556.got - 2010.06.27 13:26:56.
