data_PCOD8010051
_publ_section_title
;
Structure prediction by ZEFSAII (Michael W. Deem and Ramdas Pophale) SiO2 
 PCOD8010051
Probable space group: P -1
;
_chemical_formula_sum "Si O2"
_cell_formula_units_Z 16
_cell_length_a 9.555501
_cell_length_b 16.492070
_cell_length_c 16.831533
_cell_angle_alpha 36.251817
_cell_angle_beta 33.248573
_cell_angle_gamma 33.291153
_cell_volume 745.713712
_symmetry_space_group_name_H-M "P -1"
_symmetry_group_IT_number 2
_symmetry_cell_setting 'triclinic'
loop_
_space_group_symop_operation_xyz
x,y,z
-x,-y,-z
loop_
_atom_site_type_symbol
_atom_site_label
_atom_site_fract_x
_atom_site_fract_y
_atom_site_fract_z
Si Si1 0.572254 0.196585 0.357139
Si Si2 0.243741 0.482812 0.172196
Si Si3 0.176955 0.266361 0.714510
Si Si4 0.315946 0.697185 0.201956
Si Si5 0.096139 0.119579 0.612986
Si Si6 0.853473 0.752819 0.680451
Si Si7 0.636746 0.339835 0.367456
Si Si8 0.348365 0.930757 0.894607
O O1 0.378850 0.362995 0.275606
O O2 0.355136 0.126407 0.534346
O O3 0.708612 0.223351 0.350689
O O4 0.830917 0.063416 0.283784
O O5 0.102817 0.419394 0.224035
O O6 0.995848 0.651677 0.187896
O O7 0.500000 0.500000 0.000000
O O8 0.363059 0.350497 0.536945
O O9 0.953535 0.291562 0.729559
O O10 0.388127 0.080064 0.781661
O O11 0.562034 0.514758 0.239090
O O12 0.206086 0.776404 0.278323
O O13 0.467381 0.788515 0.014981
O O14 0.077077 0.179739 0.484491
O O15 0.518618 0.862767 0.784127
O O16 0.071755 0.740465 0.655374
O O17 0.000000 0.000000 0.000000
#
# Coordination Sequence:
#
# PCOD8010051 Si02
#       8
#     2   2   2   2   2   2   2   2
#     4  10  21  37  64  95 125 170 216 270 311 388
#     4  11  23  40  64  97 129 169 224 265 324 389
#     4  11  22  39  68  95 129 175 222 267 323 391
#     4  11  22  40  66 100 130 173 218 271 324 387
#     4  10  22  38  65  97 129 163 227 266 317 377
#     4  11  26  43  65  98 132 172 212 274 336 383
#     4  12  23  42  69  93 134 171 221 270 326 392
#     4  10  24  42  64  96 133 171 211 269 333 393
#
# _framework density 21.455956
#
# number of rings (size 3 to 8) (size 9 to 14) (size 15 to 20)
#    0.000    1.250    2.500    4.125   10.500    4.500 
#    0.000    0.000    0.000    2.250    0.000    0.000 
#    0.000    0.000    0.000    0.000    0.000    0.000 
#
# Total GULP energy -198369.387777 kJ/mol
# GULP energy per Si atom -12398.086736 kJ/mol
# Density = 2.140712 g / cm^3
# Si number density = 21.455956 Si / 1000 Ang^3
#
#
#
# Elastic Constant Matrix: (Units=GPa)
#
#
# Indices 1 2 3 4 5 6 
#
# 1 113.3836 29.9989 11.6525 1.6540 2.4334 16.8147
# 2 29.9989 131.3969 32.1807 -2.1752 11.1140 35.5971
# 3 11.6525 32.1807 85.5630 -6.3170 14.1251 12.2446
# 4 1.6540 -2.1752 -6.3170 39.5402 3.3761 6.4022
# 5 2.4334 11.1140 14.1251 3.3761 16.5866 4.4348
# 6 16.8147 35.5971 12.2446 6.4022 4.4348 34.4756
#
#
#
# Elastic Compliance Matrix: (Units=1/GPa)
#
#
# Indices 1 2 3 4 5 6 
#
# 1 0.009681 -0.001248 -0.000501 -0.000077 0.000751 -0.003337
# 2 -0.001248 0.011598 -0.001887 0.002427 -0.003620 -0.010681
# 3 -0.000501 -0.001887 0.014974 0.003671 -0.011540 -0.002323
# 4 -0.000077 0.002427 0.003671 0.028004 -0.008329 -0.007901
# 5 0.000751 -0.003620 -0.011540 -0.008329 0.074271 -0.000537
# 6 -0.003337 -0.010681 -0.002323 -0.007901 -0.000537 0.044024
#
#
# Mechanical properties :
#
#
# Convention : Reuss Voigt Hill
#
# Bulk Modulus (GPa) = 34.50599 53.11198 43.80898
# Shear Modulus (GPa) = 25.06470 35.22125 30.14297
#
# Velocity S-wave (km/s) = 3.42159 4.05601 3.75223
# Velocity P-wave (km/s) = 5.63266 6.83686 6.26377
#
# Compressibility (1/GPa) = 0.02898048
#
# Stress axis : x y z
#
# Youngs Moduli (GPa) = 103.29185 86.22492 66.78414
#
# Poissons Ratio (x) = 0.10764 0.03346
# Poissons Ratio (y) = 0.12894 0.12600
# Poissons Ratio (z) = 0.05176 0.16267
#
# Static dielectric constant tensor:
#      x y z
#    x 3.584450 0.354340 0.042820 
#    y 0.354340 4.409280 -0.366600 
#    z 0.042820 -0.366600 4.025140 
# 
# 
# High freq. dielectric constant tensor:
#      x y z
#    x 1.808060 0.023790 0.011260 
#    y 0.023790 1.859790 -0.010520 
#    z 0.011260 -0.010520 1.840500 
# 
# From -- ./inp_files/223229.got.cif
#   From: 2010.06.25/outbox.cif.g09.slc.cpg/sg2_112_cif.got.tgz:223229.got - 2010.06.27 13:26:56.
