data_PCOD8010456
_publ_section_title
;
Structure prediction by ZEFSAII (Michael W. Deem and Ramdas Pophale) SiO2 
 PCOD8010456
Probable space group: P -1
;
_chemical_formula_sum "Si O2"
_cell_formula_units_Z 10
_cell_length_a 7.439038
_cell_length_b 7.218638
_cell_length_c 10.142408
_cell_angle_alpha 42.232690
_cell_angle_beta 102.038080
_cell_angle_gamma 112.413916
_cell_volume 336.030388
_symmetry_space_group_name_H-M "P -1"
_symmetry_group_IT_number 2
_symmetry_cell_setting 'triclinic'
loop_
_space_group_symop_operation_xyz
x,y,z
-x,-y,-z
loop_
_atom_site_type_symbol
_atom_site_label
_atom_site_fract_x
_atom_site_fract_y
_atom_site_fract_z
Si Si1 0.046125 0.640406 0.575523
Si Si2 0.355155 0.312013 0.464302
Si Si3 0.228206 0.857312 0.891020
Si Si4 0.341205 0.354707 0.853025
Si Si5 0.210510 0.249678 0.162230
O O1 0.150888 0.452280 0.769646
O O2 0.000000 0.500000 0.500000
O O3 0.838995 0.599628 0.634320
O O4 0.185062 0.985788 0.402471
O O5 0.500000 0.500000 0.500000
O O6 0.472549 0.357976 0.317307
O O7 0.283876 0.978970 0.684961
O O8 0.998726 0.782948 0.914142
O O9 0.336904 0.092554 0.893970
O O10 0.295148 0.575703 0.070224
O O11 0.352150 0.245148 0.062639
#
# Coordination Sequence:
#
# PCOD8010456 Si02
#       5
#     2   2   2   2   2
#     4  11  20  38  65  88 119 160 204 240 299 365
#     4   9  18  36  61  88 119 157 195 249 295 349
#     4   9  19  37  60  87 125 152 197 252 293 350
#     4  11  21  40  68  82 120 168 192 241 313 345
#     4  10  21  38  60  92 120 155 201 251 292 354
#
# _framework density 29.759212000000002
#
# number of rings (size 3 to 8) (size 9 to 14) (size 15 to 20)
#    0.000    2.000    6.000    0.600    0.000    0.800 
#    0.000   17.000    0.000    0.000    0.000    0.000 
#    0.000    0.000    0.000    0.000    0.000    0.000 
#
# Total GULP energy -123995.753924 kJ/mol
# GULP energy per Si atom -12399.575392 kJ/mol
# Density = 2.969148 g / cm^3
# Si number density = 29.759212 Si / 1000 Ang^3
#
#
#
# Elastic Constant Matrix: (Units=GPa)
#
#
# Indices 1 2 3 4 5 6 
#
# 1 116.3737 15.2176 64.8120 6.4212 -10.4234 7.5060
# 2 15.2176 86.0623 63.6459 -23.1454 -21.2402 -19.4321
# 3 64.8120 63.6459 191.6232 19.8832 -34.8855 -31.2542
# 4 6.4212 -23.1454 19.8832 59.2180 -10.7474 -7.8636
# 5 -10.4234 -21.2402 -34.8855 -10.7474 64.2567 -2.6689
# 6 7.5060 -19.4321 -31.2542 -7.8636 -2.6689 38.6279
#
#
#
# Elastic Compliance Matrix: (Units=1/GPa)
#
#
# Indices 1 2 3 4 5 6 
#
# 1 0.011926 -0.000482 -0.005201 -0.000946 -0.001500 -0.007064
# 2 -0.000482 0.024696 -0.006432 0.014661 0.007494 0.010815
# 3 -0.005201 -0.006432 0.010999 -0.004397 0.002513 0.005952
# 4 -0.000946 0.014661 -0.004397 0.026826 0.007206 0.009961
# 5 -0.001500 0.007494 0.002513 0.007206 0.020740 0.008995
# 6 -0.007064 0.010815 0.005952 0.009961 0.008995 0.040167
#
#
# Mechanical properties :
#
#
# Convention : Reuss Voigt Hill
#
# Bulk Modulus (GPa) = 42.75289 75.71224 59.23256
# Shear Modulus (GPa) = 29.87203 49.11277 39.49240
#
# Velocity S-wave (km/s) = 3.17170 4.06684 3.64684
# Velocity P-wave (km/s) = 5.27356 6.89559 6.13838
#
# Compressibility (1/GPa) = 0.02339023
#
# Stress axis : x y z
#
# Youngs Moduli (GPa) = 83.85134 40.49217 90.92092
#
# Poissons Ratio (x) = 0.01953 0.47284
# Poissons Ratio (y) = 0.04044 0.58484
# Poissons Ratio (z) = 0.43607 0.26046
#
# Static dielectric constant tensor:
#      x y z
#    x 6.149650 0.005420 0.019540 
#    y 0.005420 5.614740 -0.373000 
#    z 0.019540 -0.373000 6.452770 
# 
# 
# High freq. dielectric constant tensor:
#      x y z
#    x 2.224390 0.024090 -0.015420 
#    y 0.024090 2.223530 0.007320 
#    z -0.015420 0.007320 2.239000 
# 
# From -- ./inp_files/144170.got.cif
#   From: 2010.06.25/outbox.cif.g09.slc.cpg/sg2_73_cif.got.tgz:144170.got - 2010.06.27 13:26:56.
