data_PCOD8010980
_publ_section_title
;
Structure prediction by ZEFSAII (Michael W. Deem and Ramdas Pophale) SiO2 
 PCOD8010980
Probable space group: P -1
;
_chemical_formula_sum "Si O2"
_cell_formula_units_Z 14
_cell_length_a 9.036843
_cell_length_b 12.942382
_cell_length_c 19.199483
_cell_angle_alpha 153.974289
_cell_angle_beta 141.829071
_cell_angle_gamma 47.947600
_cell_volume 603.331045
_symmetry_space_group_name_H-M "P -1"
_symmetry_group_IT_number 2
_symmetry_cell_setting 'triclinic'
loop_
_space_group_symop_operation_xyz
x,y,z
-x,-y,-z
loop_
_atom_site_type_symbol
_atom_site_label
_atom_site_fract_x
_atom_site_fract_y
_atom_site_fract_z
Si Si1 0.115344 0.449875 0.724058
Si Si2 0.204132 0.714284 0.306452
Si Si3 0.045800 0.748922 0.999318
Si Si4 0.184424 0.005011 0.711807
Si Si5 0.688328 0.540941 0.343762
Si Si6 0.162613 0.867195 0.766684
Si Si7 0.401639 0.126003 0.724630
O O1 0.016627 0.671876 0.860485
O O2 0.268270 0.543825 0.769829
O O3 0.286016 0.342093 0.778282
O O4 0.888084 0.264537 0.504241
O O5 0.444192 0.658588 0.323452
O O6 0.032256 0.476691 0.117695
O O7 0.265858 0.873055 0.494638
O O8 0.056751 0.865708 0.291851
O O9 0.320688 0.854090 0.181424
O O10 0.876752 0.948559 0.075102
O O11 0.293785 0.000192 0.827657
O O12 0.369980 0.137804 0.804246
O O13 0.664730 0.314151 0.249306
O O14 0.904888 0.734213 0.566602
#
# Coordination Sequence:
#
# PCOD8010980 Si02
#       7
#     2   2   2   2   2   2   2
#     4  10  21  38  65  93 129 164 208 256 319 368
#     4  11  22  40  68  96 127 164 210 260 317 368
#     4  12  23  38  67 100 123 164 214 259 314 374
#     4  10  21  41  66  94 129 165 206 262 316 374
#     4  10  23  45  63  89 134 171 205 262 311 376
#     4  10  24  42  65  94 126 171 215 250 318 377
#     4  11  21  41  64 100 128 162 203 272 309 376
#
# _framework density 23.204509000000002
#
# number of rings (size 3 to 8) (size 9 to 14) (size 15 to 20)
#    0.000    1.429    4.286    1.286    2.000    4.571 
#    0.000    2.143    0.000    0.000    0.000    0.000 
#    0.000    0.000    0.000    0.000    0.000    0.000 
#
# Total GULP energy -173610.356726 kJ/mol
# GULP energy per Si atom -12400.739766 kJ/mol
# Density = 2.315169 g / cm^3
# Si number density = 23.204509 Si / 1000 Ang^3
#
#
#
# Elastic Constant Matrix: (Units=GPa)
#
#
# Indices 1 2 3 4 5 6 
#
# 1 116.1622 42.2409 23.9525 2.3814 -23.4609 29.9047
# 2 42.2409 72.3292 30.0612 13.6252 -8.7322 22.2789
# 3 23.9525 30.0612 51.4607 9.0376 -14.6196 -3.6211
# 4 2.3814 13.6252 9.0376 21.4768 -6.6730 -0.4500
# 5 -23.4609 -8.7322 -14.6196 -6.6730 45.9722 1.2510
# 6 29.9047 22.2789 -3.6211 -0.4500 1.2510 34.0402
#
#
#
# Elastic Compliance Matrix: (Units=1/GPa)
#
#
# Indices 1 2 3 4 5 6 
#
# 1 0.015014 -0.003042 -0.004941 0.004093 0.006431 -0.011907
# 2 -0.003042 0.030271 -0.015914 -0.013274 -0.002275 -0.018925
# 3 -0.004941 -0.015914 0.033904 -0.001852 0.004474 0.018174
# 4 0.004093 -0.013274 -0.001852 0.057659 0.007201 0.005393
# 5 0.006431 -0.002275 0.004474 0.007201 0.027195 -0.004589
# 6 -0.011907 -0.018925 0.018174 0.005393 -0.004589 0.054397
#
#
# Mechanical properties :
#
#
# Convention : Reuss Voigt Hill
#
# Bulk Modulus (GPa) = 31.85235 48.05127 39.95181
# Shear Modulus (GPa) = 18.07021 29.87768 23.97395
#
# Velocity S-wave (km/s) = 2.79361 3.59218 3.21777
# Velocity P-wave (km/s) = 4.91552 6.16098 5.57315
#
# Compressibility (1/GPa) = 0.03139486
#
# Stress axis : x y z
#
# Youngs Moduli (GPa) = 66.60543 33.03452 29.49527
#
# Poissons Ratio (x) = 0.10048 0.14574
# Poissons Ratio (y) = 0.20259 0.46940
# Poissons Ratio (z) = 0.32910 0.52572
#
# Static dielectric constant tensor:
#      x y z
#    x 4.294900 0.100240 -0.158110 
#    y 0.100240 3.934080 0.169450 
#    z -0.158110 0.169450 4.176160 
# 
# 
# High freq. dielectric constant tensor:
#      x y z
#    x 1.925120 0.007310 -0.004150 
#    y 0.007310 1.887700 0.012650 
#    z -0.004150 0.012650 1.922800 
# 
# From -- ./inp_files/181965.got.cif
#   From: 2010.06.25/outbox.cif.g09.slc.cpg/sg2_91_cif.got.tgz:181965.got - 2010.06.27 13:26:56.
