data_PCOD8010553
_publ_section_title
;
Structure prediction by ZEFSAII (Michael W. Deem and Ramdas Pophale) SiO2 
 PCOD8010553
Probable space group: P -1
;
_chemical_formula_sum "Si O2"
_cell_formula_units_Z 14
_cell_length_a 6.487229
_cell_length_b 15.769670
_cell_length_c 14.380360
_cell_angle_alpha 134.038928
_cell_angle_beta 107.474390
_cell_angle_gamma 47.191083
_cell_volume 733.364601
_symmetry_space_group_name_H-M "P -1"
_symmetry_group_IT_number 2
_symmetry_cell_setting 'triclinic'
loop_
_space_group_symop_operation_xyz
x,y,z
-x,-y,-z
loop_
_atom_site_type_symbol
_atom_site_label
_atom_site_fract_x
_atom_site_fract_y
_atom_site_fract_z
Si Si1 0.645072 0.002568 0.433024
Si Si2 0.279552 0.767428 0.413008
Si Si3 0.329868 0.233862 0.238281
Si Si4 0.669261 0.957408 0.760410
Si Si5 0.348946 0.565595 0.720472
Si Si6 0.329886 0.846688 0.956025
Si Si7 0.304681 0.704451 0.571396
O O1 0.553393 0.174651 0.548785
O O2 0.530228 0.980006 0.309291
O O3 0.500000 0.000000 0.500000
O O4 0.999560 0.854163 0.373660
O O5 0.500550 0.572687 0.284380
O O6 0.185357 0.814876 0.545526
O O7 0.446057 0.084156 0.204745
O O8 0.453231 0.174838 0.105884
O O9 0.446074 0.312329 0.356350
O O10 0.976779 0.363616 0.283697
O O11 0.018366 0.793528 0.666200
O O12 0.621717 0.109935 0.904197
O O13 0.371568 0.691141 0.852132
O O14 0.531703 0.478923 0.580856
O O15 0.000000 0.000000 0.000000
#
# Coordination Sequence:
#
# PCOD8010553 Si02
#       7
#     2   2   2   2   2   2   2
#     4  11  20  39  67  90 120 154 209 260 303 350
#     4   9  22  39  61  94 117 158 200 260 300 351
#     4  12  22  38  63  90 127 164 201 247 308 368
#     4  12  23  39  63  95 122 163 205 251 305 363
#     4  10  23  41  60  90 133 158 202 250 309 359
#     4  12  25  40  59  89 131 167 202 241 304 379
#     4  10  21  38  61  91 122 154 205 250 306 352
#
# _framework density 19.090095000000002
#
# number of rings (size 3 to 8) (size 9 to 14) (size 15 to 20)
#    0.857    0.286    5.714    0.857    0.000    5.714 
#    0.000    0.714    0.000    1.714    0.000    0.000 
#    0.000    0.000    0.000    0.000    0.000    0.000 
#
# Total GULP energy -173544.662023 kJ/mol
# GULP energy per Si atom -12396.047287 kJ/mol
# Density = 1.904665 g / cm^3
# Si number density = 19.090095 Si / 1000 Ang^3
#
#
#
# Elastic Constant Matrix: (Units=GPa)
#
#
# Indices 1 2 3 4 5 6 
#
# 1 106.2934 48.4162 62.1291 -5.3554 10.3818 2.5746
# 2 48.4162 99.1090 67.2958 -5.2538 14.4441 -4.9071
# 3 62.1291 67.2958 144.1475 0.5563 22.3306 -5.6040
# 4 -5.3554 -5.2538 0.5563 25.6032 -0.7313 11.3846
# 5 10.3818 14.4441 22.3306 -0.7313 36.2950 0.1697
# 6 2.5746 -4.9071 -5.6040 11.3846 0.1697 30.2992
#
#
#
# Elastic Compliance Matrix: (Units=1/GPa)
#
#
# Indices 1 2 3 4 5 6 
#
# 1 0.014070 -0.003864 -0.004500 0.004130 0.000384 -0.004208
# 2 -0.003864 0.016200 -0.005570 0.002070 -0.001879 0.001154
# 3 -0.004500 -0.005570 0.012258 -0.003909 -0.004132 0.003239
# 4 0.004130 0.002070 -0.003909 0.048991 0.001476 -0.019155
# 5 0.000384 -0.001879 -0.004132 0.001476 0.030770 -0.001828
# 6 -0.004208 0.001154 0.003239 -0.019155 -0.001828 0.041355
#
#
# Mechanical properties :
#
#
# Convention : Reuss Voigt Hill
#
# Bulk Modulus (GPa) = 68.20276 78.35912 73.28094
# Shear Modulus (GPa) = 25.45843 29.88672 27.67258
#
# Velocity S-wave (km/s) = 3.65580 3.96101 3.81146
# Velocity P-wave (km/s) = 7.32285 7.87754 7.60525
#
# Compressibility (1/GPa) = 0.01466216
#
# Stress axis : x y z
#
# Youngs Moduli (GPa) = 71.07121 61.72839 81.57769
#
# Poissons Ratio (x) = 0.23849 0.36708
# Poissons Ratio (y) = 0.27459 0.45438
# Poissons Ratio (z) = 0.31981 0.34382
#
# Static dielectric constant tensor:
#      x y z
#    x 3.634090 0.039040 0.142470 
#    y 0.039040 3.507720 -0.083580 
#    z 0.142470 -0.083580 3.849290 
# 
# 
# High freq. dielectric constant tensor:
#      x y z
#    x 1.754750 0.001080 0.007270 
#    y 0.001080 1.737010 -0.003870 
#    z 0.007270 -0.003870 1.727510 
# 
# From -- ./inp_files/485263.got.cif
#   From: 2010.06.25/outbox.cif.g09.slc.cpg/sg2_243_cif.got.tgz:485263.got - 2010.06.27 13:26:56.
