data_PCOD8010203
_publ_section_title
;
Structure prediction by ZEFSAII (Michael W. Deem and Ramdas Pophale) SiO2 
 PCOD8010203
Probable space group: P -1
;
_chemical_formula_sum "Si O2"
_cell_formula_units_Z 16
_cell_length_a 11.273278
_cell_length_b 12.873002
_cell_length_c 7.545411
_cell_angle_alpha 71.644651
_cell_angle_beta 123.361300
_cell_angle_gamma 124.755523
_cell_volume 751.395946
_symmetry_space_group_name_H-M "P -1"
_symmetry_group_IT_number 2
_symmetry_cell_setting 'triclinic'
loop_
_space_group_symop_operation_xyz
x,y,z
-x,-y,-z
loop_
_atom_site_type_symbol
_atom_site_label
_atom_site_fract_x
_atom_site_fract_y
_atom_site_fract_z
Si Si1 0.233241 0.868335 0.489715
Si Si2 0.188689 0.043000 0.129407
Si Si3 0.920660 0.588199 0.875935
Si Si4 0.607378 0.192534 0.058397
Si Si5 0.881723 0.653795 0.427305
Si Si6 0.224325 0.838193 0.109713
Si Si7 0.624708 0.727938 0.059973
Si Si8 0.727337 0.458518 0.107082
O O1 0.381965 0.896564 0.731128
O O2 0.062712 0.772331 0.494498
O O3 0.237488 0.000651 0.376978
O O4 0.256637 0.810272 0.354506
O O5 0.297135 0.193355 0.100556
O O6 0.218284 0.968022 0.032640
O O7 0.000000 0.000000 0.000000
O O8 0.851176 0.584567 0.626585
O O9 0.768542 0.537328 0.915684
O O10 0.049142 0.730286 0.957598
O O11 0.000000 0.500000 0.000000
O O12 0.633956 0.150455 0.910463
O O13 0.433622 0.189397 0.914101
O O14 0.750562 0.336521 0.154403
O O15 0.757003 0.707148 0.281443
O O16 0.849505 0.548687 0.309560
O O17 0.461657 0.592407 0.959751
#
# Coordination Sequence:
#
# PCOD8010203 Si02
#       8
#     2   2   2   2   2   2   2   2
#     4  10  21  37  69  89 118 160 215 242 312 356
#     4  10  21  41  70  87 123 163 208 257 304 368
#     4  12  22  37  64  96 125 158 211 254 302 369
#     4  10  22  40  60  96 123 161 205 254 307 368
#     4  12  22  39  68  89 125 169 203 254 306 371
#     4  10  21  38  65  91 124 159 210 259 297 362
#     4  10  23  43  59  92 130 159 209 252 314 363
#     4  10  23  38  61  89 133 160 201 252 312 356
#
# _framework density 21.293699
#
# number of rings (size 3 to 8) (size 9 to 14) (size 15 to 20)
#    1.500    0.000    5.000    0.375    1.750    2.500 
#    0.000    3.750    2.750    0.000    0.000    0.000 
#    0.000    0.000    0.000    0.000    0.000    0.000 
#
# Total GULP energy -198218.476883 kJ/mol
# GULP energy per Si atom -12388.654805 kJ/mol
# Density = 2.124523 g / cm^3
# Si number density = 21.293699 Si / 1000 Ang^3
#
#
#
# Elastic Constant Matrix: (Units=GPa)
#
#
# Indices 1 2 3 4 5 6 
#
# 1 85.9032 21.7555 36.4923 -9.3881 -12.2020 4.0624
# 2 21.7555 62.4144 31.3560 -15.2857 -8.7120 7.3684
# 3 36.4923 31.3560 106.4511 -32.1490 -14.0111 5.4638
# 4 -9.3881 -15.2857 -32.1490 30.0133 -0.3244 -0.8786
# 5 -12.2020 -8.7120 -14.0111 -0.3244 38.4420 -13.9598
# 6 4.0624 7.3684 5.4638 -0.8786 -13.9598 31.1343
#
#
#
# Elastic Compliance Matrix: (Units=1/GPa)
#
#
# Indices 1 2 3 4 5 6 
#
# 1 0.014345 -0.002978 -0.004172 -0.001451 0.002595 0.000688
# 2 -0.002978 0.020627 -0.002667 0.006646 0.001696 -0.003077
# 3 -0.004172 -0.002667 0.016845 0.015451 0.004602 0.000719
# 4 -0.001451 0.006646 0.015451 0.052900 0.007380 0.000707
# 5 0.002595 0.001696 0.004602 0.007380 0.034013 0.013911
# 6 0.000688 -0.003077 0.000719 0.000707 0.013911 0.038888
#
#
# Mechanical properties :
#
#
# Convention : Reuss Voigt Hill
#
# Bulk Modulus (GPa) = 31.07236 48.21959 39.64598
# Shear Modulus (GPa) = 24.04059 30.92893 27.48476
#
# Velocity S-wave (km/s) = 3.36370 3.81529 3.59659
# Velocity P-wave (km/s) = 5.45069 6.48866 5.99219
#
# Compressibility (1/GPa) = 0.03218294
#
# Stress axis : x y z
#
# Youngs Moduli (GPa) = 69.70936 48.47922 59.36479
#
# Poissons Ratio (x) = 0.14439 0.24768
# Poissons Ratio (y) = 0.20763 0.15831
# Poissons Ratio (z) = 0.29084 0.12928
#
# Static dielectric constant tensor:
#      x y z
#    x 3.894760 0.142280 -0.093420 
#    y 0.142280 3.871700 -0.221080 
#    z -0.093420 -0.221080 3.533480 
# 
# 
# High freq. dielectric constant tensor:
#      x y z
#    x 1.840480 0.014670 -0.000500 
#    y 0.014670 1.834910 -0.017100 
#    z -0.000500 -0.017100 1.808220 
# 
# From -- ./inp_files/257737.got.cif
#   From: 2010.06.25/outbox.cif.g09.slc.cpg/sg2_129_cif.got.tgz:257737.got - 2010.06.27 13:26:56.
