data_PCOD8010896
_publ_section_title
;
Structure prediction by ZEFSAII (Michael W. Deem and Ramdas Pophale) SiO2 
 PCOD8010896
Probable space group: P -1
;
_chemical_formula_sum "Si O2"
_cell_formula_units_Z 14
_cell_length_a 20.425884
_cell_length_b 12.035629
_cell_length_c 9.343689
_cell_angle_alpha 54.780018
_cell_angle_beta 158.929327
_cell_angle_gamma 130.724770
_cell_volume 621.501567
_symmetry_space_group_name_H-M "P -1"
_symmetry_group_IT_number 2
_symmetry_cell_setting 'triclinic'
loop_
_space_group_symop_operation_xyz
x,y,z
-x,-y,-z
loop_
_atom_site_type_symbol
_atom_site_label
_atom_site_fract_x
_atom_site_fract_y
_atom_site_fract_z
Si Si1 0.280783 0.885851 0.607777
Si Si2 0.838755 0.886346 0.647051
Si Si3 0.668676 0.362972 0.933023
Si Si4 0.517012 0.123772 0.236554
Si Si5 0.216237 0.307560 0.070186
Si Si6 0.436172 0.826190 0.393028
Si Si7 0.107607 0.054851 0.828852
O O1 0.287820 0.858842 0.471204
O O2 0.143956 0.973437 0.316894
O O3 0.233570 0.733053 0.709528
O O4 0.500000 0.000000 0.000000
O O5 0.875781 0.761888 0.911948
O O6 0.623157 0.815800 0.184668
O O7 0.005804 0.928396 0.833481
O O8 0.441091 0.321180 0.538574
O O9 0.798913 0.534831 0.098686
O O10 0.674387 0.325219 0.804500
O O11 0.599414 0.215828 0.481633
O O12 0.365864 0.955630 0.099421
O O13 0.106455 0.207777 0.782800
O O14 0.665891 0.913603 0.758215
O O15 0.000000 0.000000 0.500000
#
# Coordination Sequence:
#
# PCOD8010896 Si02
#       7
#     2   2   2   2   2   2   2
#     4  10  16  32  56  81 107 138 189 226 261 322
#     4  11  19  36  56  84 110 142 192 223 267 334
#     4  10  18  34  55  81 115 138 183 232 274 323
#     4  10  18  31  57  85 106 135 190 232 263 313
#     4  10  21  34  54  82 113 148 177 228 281 319
#     4  10  19  34  55  85 110 142 178 231 282 308
#     4  11  22  36  54  82 115 148 182 224 273 336
#
# _framework density 22.52609
#
# number of rings (size 3 to 8) (size 9 to 14) (size 15 to 20)
#    0.000    1.714    7.143    1.286    0.000    0.000 
#    0.000    2.857    0.000    0.000    0.000    6.000 
#    0.000    0.000    0.000    0.000    0.000    0.000 
#
# Total GULP energy -173460.306310 kJ/mol
# GULP energy per Si atom -12390.021879 kJ/mol
# Density = 2.247482 g / cm^3
# Si number density = 22.526090 Si / 1000 Ang^3
#
#
#
# Elastic Constant Matrix: (Units=GPa)
#
#
# Indices 1 2 3 4 5 6 
#
# 1 171.0981 47.7289 43.2616 0.2273 -35.4988 -4.3832
# 2 47.7289 142.6555 43.1338 -4.2486 -24.8657 -3.9362
# 3 43.2616 43.1338 72.6628 -8.1098 -19.5069 -5.1837
# 4 0.2273 -4.2486 -8.1098 34.6981 -7.2641 -3.3803
# 5 -35.4988 -24.8657 -19.5069 -7.2641 49.4314 0.2340
# 6 -4.3832 -3.9362 -5.1837 -3.3803 0.2340 27.2888
#
#
#
# Elastic Compliance Matrix: (Units=1/GPa)
#
#
# Indices 1 2 3 4 5 6 
#
# 1 0.007671 -0.001003 -0.002899 0.000006 0.003859 0.000504
# 2 -0.001003 0.008996 -0.004009 0.000700 0.002323 0.000442
# 3 -0.002899 -0.004009 0.019945 0.005474 0.004560 0.003384
# 4 0.000006 0.000700 0.005474 0.032191 0.007224 0.005067
# 5 0.003859 0.002323 0.004560 0.007224 0.027019 0.002484
# 6 0.000504 0.000442 0.003384 0.005067 0.002484 0.038039
#
#
# Mechanical properties :
#
#
# Convention : Reuss Voigt Hill
#
# Bulk Modulus (GPa) = 48.10358 72.74056 60.42207
# Shear Modulus (GPa) = 31.92567 39.10313 35.51440
#
# Velocity S-wave (km/s) = 3.76876 4.17094 3.97494
# Velocity P-wave (km/s) = 6.35130 7.45369 6.92446
#
# Compressibility (1/GPa) = 0.02078847
#
# Stress axis : x y z
#
# Youngs Moduli (GPa) = 130.36174 111.16207 50.13836
#
# Poissons Ratio (x) = 0.11153 0.14535
# Poissons Ratio (y) = 0.13079 0.20102
# Poissons Ratio (z) = 0.37791 0.44569
#
# Static dielectric constant tensor:
#      x y z
#    x 5.553210 0.023750 0.418260 
#    y 0.023750 3.828630 -0.008530 
#    z 0.418260 -0.008530 4.403950 
# 
# 
# High freq. dielectric constant tensor:
#      x y z
#    x 1.907030 -0.002720 0.003900 
#    y -0.002720 1.838950 -0.011540 
#    z 0.003900 -0.011540 1.901850 
# 
# From -- ./inp_files/345175.got.cif
#   From: 2010.06.25/outbox.cif.g09.slc.cpg/sg2_173_cif.got.tgz:345175.got - 2010.06.27 13:26:56.
