data_PCOD8010695
_publ_section_title
;
Structure prediction by ZEFSAII (Michael W. Deem and Ramdas Pophale) SiO2 
 PCOD8010695
Probable space group: P -1
;
_chemical_formula_sum "Si O2"
_cell_formula_units_Z 16
_cell_length_a 11.355328
_cell_length_b 20.012811
_cell_length_c 9.647801
_cell_angle_alpha 52.517087
_cell_angle_beta 127.056269
_cell_angle_gamma 149.034290
_cell_volume 877.470524
_symmetry_space_group_name_H-M "P -1"
_symmetry_group_IT_number 2
_symmetry_cell_setting 'triclinic'
loop_
_space_group_symop_operation_xyz
x,y,z
-x,-y,-z
loop_
_atom_site_type_symbol
_atom_site_label
_atom_site_fract_x
_atom_site_fract_y
_atom_site_fract_z
Si Si1 0.261955 0.177863 0.296155
Si Si2 0.022773 0.821882 0.426938
Si Si3 0.669408 0.547119 0.443827
Si Si4 0.171896 0.867562 0.182101
Si Si5 0.620556 0.733682 0.423777
Si Si6 0.273218 0.040570 0.820488
Si Si7 0.335497 0.372256 0.947899
Si Si8 0.403440 0.056048 0.592456
O O1 0.275143 0.222183 0.403429
O O2 0.393083 0.146820 0.413263
O O3 0.374096 0.291341 0.119562
O O4 0.990056 0.041496 0.247014
O O5 0.096587 0.885586 0.244686
O O6 0.933509 0.685488 0.507034
O O7 0.808034 0.779955 0.389657
O O8 0.243268 0.922110 0.557802
O O9 0.500000 0.500000 0.500000
O O10 0.622163 0.426803 0.538378
O O11 0.597642 0.574357 0.228300
O O12 0.330453 0.856874 0.342900
O O13 0.945157 0.734998 0.101010
O O14 0.328223 0.000276 0.033540
O O15 0.561139 0.803473 0.249716
O O16 0.313814 0.010711 0.742975
O O17 0.500000 0.500000 0.000000
#
# Coordination Sequence:
#
# PCOD8010695 Si02
#       8
#     2   2   2   2   2   2   2   2
#     4  10  18  32  59  81 101 135 183 219 261 302
#     4  10  19  34  53  75 109 142 172 212 265 317
#     4   9  19  31  51  82 102 136 174 213 261 309
#     4  10  23  33  51  85 107 137 177 213 272 316
#     4  10  16  32  55  80 101 137 178 224 255 306
#     4  10  19  34  55  81 103 135 182 225 257 299
#     4  10  19  36  56  78 105 135 178 226 252 309
#     4  11  19  36  54  78 110 143 170 216 270 314
#
# _framework density 18.234231000000001
#
# number of rings (size 3 to 8) (size 9 to 14) (size 15 to 20)
#    0.000    2.000    3.750    1.500    0.000    0.500 
#    4.500    0.625    0.000    0.750    0.000    0.000 
#    0.000    0.000    0.000    0.000    0.000    0.000 
#
# Total GULP energy -198228.918624 kJ/mol
# GULP energy per Si atom -12389.307414 kJ/mol
# Density = 1.819273 g / cm^3
# Si number density = 18.234231 Si / 1000 Ang^3
#
#
#
# Elastic Constant Matrix: (Units=GPa)
#
#
# Indices 1 2 3 4 5 6 
#
# 1 66.2531 40.3078 56.3959 0.2853 0.3031 -7.4422
# 2 40.3078 120.6378 61.5081 -7.4233 0.5488 -21.2301
# 3 56.3959 61.5081 108.6897 -18.5423 -6.5847 -3.9763
# 4 0.2853 -7.4233 -18.5423 31.5024 5.6408 1.2001
# 5 0.3031 0.5488 -6.5847 5.6408 28.2891 2.2636
# 6 -7.4422 -21.2301 -3.9763 1.2001 2.2636 22.4933
#
#
#
# Elastic Compliance Matrix: (Units=1/GPa)
#
#
# Indices 1 2 3 4 5 6 
#
# 1 0.031420 -0.000946 -0.017477 -0.010558 -0.002862 0.007265
# 2 -0.000946 0.014696 -0.007717 -0.001035 -0.002868 0.012537
# 3 -0.017477 -0.007717 0.024666 0.012447 0.004381 -0.009811
# 4 -0.010558 -0.001035 0.012447 0.039897 -0.004610 -0.003935
# 5 -0.002862 -0.002868 0.004381 -0.004610 0.037891 -0.006447
# 6 0.007265 0.012537 -0.009811 -0.003935 -0.006447 0.057819
#
#
# Mechanical properties :
#
#
# Convention : Reuss Voigt Hill
#
# Bulk Modulus (GPa) = 54.04730 68.00047 61.02388
# Shear Modulus (GPa) = 18.87966 25.61487 22.24726
#
# Velocity S-wave (km/s) = 3.22125 3.75209 3.49676
# Velocity P-wave (km/s) = 6.59850 7.49297 7.05991
#
# Compressibility (1/GPa) = 0.01850231
#
# Stress axis : x y z
#
# Youngs Moduli (GPa) = 31.82667 68.04735 40.54163
#
# Poissons Ratio (x) = 0.06435 0.70854
# Poissons Ratio (y) = 0.03010 0.31287
# Poissons Ratio (z) = 0.55623 0.52515
#
# Static dielectric constant tensor:
#      x y z
#    x 4.186570 0.342670 1.694260 
#    y 0.342670 4.624450 0.510460 
#    z 1.694260 0.510460 7.119080 
# 
# 
# High freq. dielectric constant tensor:
#      x y z
#    x 1.680530 -0.013990 -0.025410 
#    y -0.013990 1.709950 -0.012670 
#    z -0.025410 -0.012670 1.703090 
# 
# From -- ./inp_files/176064.got.cif
#   From: 2010.06.25/outbox.cif.g09.slc.cpg/sg2_89_cif.got.tgz:176064.got - 2010.06.27 13:26:56.
