data_PCOD8010361
_publ_section_title
;
Structure prediction by ZEFSAII (Michael W. Deem and Ramdas Pophale) SiO2 
 PCOD8010361
Probable space group: P -1
;
_chemical_formula_sum "Si O2"
_cell_formula_units_Z 12
_cell_length_a 8.898777
_cell_length_b 8.868908
_cell_length_c 15.842464
_cell_angle_alpha 134.017357
_cell_angle_beta 139.881869
_cell_angle_gamma 69.514819
_cell_volume 533.129120
_symmetry_space_group_name_H-M "P -1"
_symmetry_group_IT_number 2
_symmetry_cell_setting 'triclinic'
loop_
_space_group_symop_operation_xyz
x,y,z
-x,-y,-z
loop_
_atom_site_type_symbol
_atom_site_label
_atom_site_fract_x
_atom_site_fract_y
_atom_site_fract_z
Si Si1 0.551559 0.168566 0.008350
Si Si2 0.284266 0.112784 0.359486
Si Si3 0.870647 0.678736 0.082418
Si Si4 0.245023 0.498824 0.216244
Si Si5 0.567756 0.840469 0.746317
Si Si6 0.040555 0.464338 0.406282
O O1 0.305939 0.225491 0.903216
O O2 0.619096 0.053508 0.911879
O O3 0.781323 0.410233 0.221971
O O4 0.500000 0.000000 0.000000
O O5 0.539222 0.257054 0.574602
O O6 0.342878 0.063968 0.270323
O O7 0.093674 0.239387 0.328728
O O8 0.140752 0.872388 0.248260
O O9 0.965409 0.508653 0.110710
O O10 0.713805 0.558560 0.885048
O O11 0.270026 0.305355 0.211805
O O12 0.268301 0.683783 0.553120
O O13 0.000000 0.500000 0.500000
#
# Coordination Sequence:
#
# PCOD8010361 Si02
#       6
#     2   2   2   2   2   2
#     4  12  20  38  59  89 118 154 202 237 284 359
#     4  11  22  38  61  90 118 153 198 246 291 345
#     4  11  22  38  63  88 117 155 195 244 292 349
#     4  10  21  38  59  89 118 152 197 241 293 345
#     4  11  23  38  63  90 116 154 198 246 293 339
#     4  11  19  34  59  85 116 150 198 240 279 340
#
# _framework density 22.508620000000001
#
# number of rings (size 3 to 8) (size 9 to 14) (size 15 to 20)
#    0.000    1.000    5.000    3.500    0.000    4.000 
#    0.000    0.833    0.000   18.000    0.000    0.000 
#    0.000    0.000    0.000    0.000    0.000    0.000 
#
# Total GULP energy -148802.808518 kJ/mol
# GULP energy per Si atom -12400.234043 kJ/mol
# Density = 2.245739 g / cm^3
# Si number density = 22.508620 Si / 1000 Ang^3
#
#
#
# Elastic Constant Matrix: (Units=GPa)
#
#
# Indices 1 2 3 4 5 6 
#
# 1 104.1950 31.4531 34.2052 4.3461 -10.5603 -22.2803
# 2 31.4531 55.1700 35.2617 -5.8849 11.3844 -20.1165
# 3 34.2052 35.2617 133.6651 -1.2221 -14.3393 -12.0061
# 4 4.3461 -5.8849 -1.2221 21.6008 -15.5628 1.8651
# 5 -10.5603 11.3844 -14.3393 -15.5628 35.2900 -2.4106
# 6 -22.2803 -20.1165 -12.0061 1.8651 -2.4106 27.6054
#
#
#
# Elastic Compliance Matrix: (Units=1/GPa)
#
#
# Indices 1 2 3 4 5 6 
#
# 1 0.013818 -0.006315 -0.000611 -0.000765 0.006056 0.006865
# 2 -0.006315 0.036280 -0.008363 -0.003180 -0.017273 0.016410
# 3 -0.000611 -0.008363 0.010723 0.005067 0.009006 -0.001479
# 4 -0.000765 -0.003180 0.005067 0.070384 0.033721 -0.002542
# 5 0.006056 -0.017273 0.009006 0.033721 0.054160 -0.001332
# 6 0.006865 0.016410 -0.001479 -0.002542 -0.001332 0.053136
#
#
# Mechanical properties :
#
#
# Convention : Reuss Voigt Hill
#
# Bulk Modulus (GPa) = 33.06502 54.98557 44.02530
# Shear Modulus (GPa) = 17.91083 29.70657 23.80870
#
# Velocity S-wave (km/s) = 2.82393 3.63683 3.25585
# Velocity P-wave (km/s) = 5.03534 6.48977 5.80826
#
# Compressibility (1/GPa) = 0.03024344
#
# Stress axis : x y z
#
# Youngs Moduli (GPa) = 72.36955 27.56337 93.25345
#
# Poissons Ratio (x) = 0.17407 0.05695
# Poissons Ratio (y) = 0.45704 0.77987
# Poissons Ratio (z) = 0.04420 0.23051
#
# Static dielectric constant tensor:
#      x y z
#    x 4.120800 -0.200280 0.171160 
#    y -0.200280 3.876300 0.097420 
#    z 0.171160 0.097420 4.430390 
# 
# 
# High freq. dielectric constant tensor:
#      x y z
#    x 1.879180 -0.024710 0.001260 
#    y -0.024710 1.862770 0.004460 
#    z 0.001260 0.004460 1.909380 
# 
# From -- ./inp_files/150099.got.cif
#   From: 2010.06.25/outbox.cif.g09.slc.cpg/sg2_76_cif.got.tgz:150099.got - 2010.06.27 13:26:56.
