data_PCOD8010062
_publ_section_title
;
Structure prediction by ZEFSAII (Michael W. Deem and Ramdas Pophale) SiO2 
 PCOD8010062
Probable space group: P -1
;
_chemical_formula_sum "Si O2"
_cell_formula_units_Z 14
_cell_length_a 10.859920
_cell_length_b 9.455649
_cell_length_c 9.691296
_cell_angle_alpha 42.679936
_cell_angle_beta 123.769687
_cell_angle_gamma 123.396601
_cell_volume 542.764259
_symmetry_space_group_name_H-M "P -1"
_symmetry_group_IT_number 2
_symmetry_cell_setting 'triclinic'
loop_
_space_group_symop_operation_xyz
x,y,z
-x,-y,-z
loop_
_atom_site_type_symbol
_atom_site_label
_atom_site_fract_x
_atom_site_fract_y
_atom_site_fract_z
Si Si1 0.107735 0.269705 0.014133
Si Si2 0.725321 0.673060 0.635355
Si Si3 0.662297 0.252745 0.492457
Si Si4 0.082408 0.450841 0.396122
Si Si5 0.479453 0.365666 0.841108
Si Si6 0.613376 0.068191 0.318071
Si Si7 0.843245 0.881907 0.137735
O O1 0.220710 0.308253 0.185112
O O2 0.178420 0.159494 0.011279
O O3 0.938507 0.123912 0.055700
O O4 0.077558 0.496816 0.781723
O O5 0.850303 0.629031 0.642595
O O6 0.571128 0.473013 0.683044
O O7 0.691639 0.901031 0.407779
O O8 0.803255 0.336738 0.622175
O O9 0.576389 0.438787 0.261594
O O10 0.555112 0.056043 0.648981
O O11 0.715256 0.164540 0.445993
O O12 0.053491 0.268668 0.626473
O O13 0.323324 0.179313 0.845338
O O14 0.597526 0.266385 0.071111
#
# Coordination Sequence:
#
# PCOD8010062 Si02
#       7
#     2   2   2   2   2   2   2
#     4  11  25  44  67  98 133 176 225 274 319 398
#     4  11  27  41  67 103 137 170 221 268 340 396
#     4   9  21  36  64  94 128 170 222 263 320 391
#     4  11  24  46  66  96 137 177 216 278 328 393
#     4  10  22  41  68 101 132 169 219 273 335 386
#     4  10  21  37  64  96 134 170 211 273 324 388
#     4  10  25  42  72  98 129 172 232 268 329 388
#
# _framework density 25.793886000000001
#
# number of rings (size 3 to 8) (size 9 to 14) (size 15 to 20)
#    0.000    1.714    0.000    2.143   14.000    8.000 
#    0.000    4.286    0.000    0.000    0.000    0.000 
#    0.000    0.000    0.000    0.000    0.000    0.000 
#
# Total GULP energy -173557.032221 kJ/mol
# GULP energy per Si atom -12396.930873 kJ/mol
# Density = 2.573518 g / cm^3
# Si number density = 25.793886 Si / 1000 Ang^3
#
#
#
# Elastic Constant Matrix: (Units=GPa)
#
#
# Indices 1 2 3 4 5 6 
#
# 1 53.0680 17.5804 -1.4685 1.4215 5.7096 -2.9336
# 2 17.5804 54.1298 27.6012 -0.4608 -8.5233 -0.1314
# 3 -1.4685 27.6012 85.6863 3.4752 2.8088 -1.3825
# 4 1.4215 -0.4608 3.4752 28.0688 1.0340 0.7559
# 5 5.7096 -8.5233 2.8088 1.0340 32.1660 -4.2974
# 6 -2.9336 -0.1314 -1.3825 0.7559 -4.2974 25.6800
#
#
#
# Elastic Compliance Matrix: (Units=1/GPa)
#
#
# Indices 1 2 3 4 5 6 
#
# 1 0.023495 -0.010938 0.004256 -0.001679 -0.007158 0.001709
# 2 -0.010938 0.028692 -0.009844 0.001861 0.010350 0.000044
# 3 0.004256 -0.009844 0.015157 -0.002101 -0.004546 0.000553
# 4 -0.001679 0.001861 -0.002101 0.036054 -0.000374 -0.001419
# 5 -0.007158 0.010350 -0.004546 -0.000374 0.036186 0.005057
# 6 0.001709 0.000044 0.000553 -0.001419 0.005057 0.040054
#
#
# Mechanical properties :
#
#
# Convention : Reuss Voigt Hill
#
# Bulk Modulus (GPa) = 29.16073 31.14560 30.15316
# Shear Modulus (GPa) = 22.30939 27.12770 24.71855
#
# Velocity S-wave (km/s) = 2.94413 3.24653 3.09902
# Velocity P-wave (km/s) = 4.78404 5.11412 4.95183
#
# Compressibility (1/GPa) = 0.03429269
#
# Stress axis : x y z
#
# Youngs Moduli (GPa) = 42.56270 34.85326 65.97424
#
# Poissons Ratio (x) = 0.38124 -0.28081
# Poissons Ratio (y) = 0.46557 0.64943
# Poissons Ratio (z) = -0.18116 0.34308
#
# Static dielectric constant tensor:
#      x y z
#    x 4.315470 0.196880 -0.078260 
#    y 0.196880 4.563510 -0.273150 
#    z -0.078260 -0.273150 4.741350 
# 
# 
# High freq. dielectric constant tensor:
#      x y z
#    x 2.013450 0.015450 0.001490 
#    y 0.015450 2.020700 -0.014850 
#    z 0.001490 -0.014850 2.046610 
# 
# From -- ./inp_files/242298.got.cif
#   From: 2010.06.25/outbox.cif.g09.slc.cpg/sg2_122_cif.got.tgz:242298.got - 2010.06.27 13:26:56.
