data_PCOD8010600
_publ_section_title
;
Structure prediction by ZEFSAII (Michael W. Deem and Ramdas Pophale) SiO2 
 PCOD8010600
Probable space group: P -1
;
_chemical_formula_sum "Si O2"
_cell_formula_units_Z 14
_cell_length_a 8.875822
_cell_length_b 19.476523
_cell_length_c 9.975740
_cell_angle_alpha 54.267579
_cell_angle_beta 149.652399
_cell_angle_gamma 113.714978
_cell_volume 685.149385
_symmetry_space_group_name_H-M "P -1"
_symmetry_group_IT_number 2
_symmetry_cell_setting 'triclinic'
loop_
_space_group_symop_operation_xyz
x,y,z
-x,-y,-z
loop_
_atom_site_type_symbol
_atom_site_label
_atom_site_fract_x
_atom_site_fract_y
_atom_site_fract_z
Si Si1 0.614010 0.087173 0.970996
Si Si2 0.182897 0.487227 0.518750
Si Si3 0.780739 0.553119 0.886106
Si Si4 0.534805 0.301429 0.920849
Si Si5 0.527124 0.117931 0.154907
Si Si6 0.763971 0.723144 0.547719
Si Si7 0.015071 0.021605 0.832022
O O1 0.364891 0.174509 0.630500
O O2 0.742639 0.104791 0.198754
O O3 0.500000 0.000000 0.000000
O O4 0.863029 0.065316 0.066493
O O5 0.433696 0.542818 0.625377
O O6 0.350324 0.385835 0.759043
O O7 0.000000 0.500000 0.500000
O O8 0.921205 0.515115 0.176303
O O9 0.764355 0.656881 0.746858
O O10 0.000000 0.500000 0.000000
O O11 0.452397 0.306369 0.695018
O O12 0.436542 0.219583 0.006889
O O13 0.895126 0.290789 0.232344
O O14 0.681883 0.065140 0.463703
O O15 0.223274 0.090491 0.904240
O O16 0.000000 0.000000 0.000000
#
# Coordination Sequence:
#
# PCOD8010600 Si02
#       7
#     2   2   2   2   2   2   2
#     4   9  20  39  62  88 116 156 204 245 291 357
#     4  12  25  42  62  93 127 166 202 254 318 374
#     4  12  22  42  67  89 126 161 209 259 308 365
#     4  11  20  39  62  90 119 156 210 247 300 365
#     4  10  21  38  62  84 112 162 202 245 292 364
#     4  11  22  36  65  95 115 157 211 259 294 353
#     4  11  22  39  58  86 124 155 193 248 314 359
#
# _framework density 20.433501
#
# number of rings (size 3 to 8) (size 9 to 14) (size 15 to 20)
#    0.000    1.143    2.857    5.143    0.000    3.429 
#    5.143    0.000    0.000    0.000    0.000    0.000 
#    0.000    0.000    0.000    0.000    0.000    0.000 
#
# Total GULP energy -173514.839346 kJ/mol
# GULP energy per Si atom -12393.917096 kJ/mol
# Density = 2.038699 g / cm^3
# Si number density = 20.433501 Si / 1000 Ang^3
#
#
#
# Elastic Constant Matrix: (Units=GPa)
#
#
# Indices 1 2 3 4 5 6 
#
# 1 90.1978 29.9141 13.8242 -12.2711 -13.9300 -7.0689
# 2 29.9141 122.7615 31.7192 -32.9277 4.2187 3.2634
# 3 13.8242 31.7192 89.1033 -13.8629 -12.8597 -7.2500
# 4 -12.2711 -32.9277 -13.8629 46.7239 2.0319 2.9913
# 5 -13.9300 4.2187 -12.8597 2.0319 34.3571 5.8175
# 6 -7.0689 3.2634 -7.2500 2.9913 5.8175 20.4287
#
#
#
# Elastic Compliance Matrix: (Units=1/GPa)
#
#
# Indices 1 2 3 4 5 6 
#
# 1 0.013380 -0.003428 0.000322 0.000728 0.005301 0.003676
# 2 -0.003428 0.012017 -0.003574 0.006951 -0.003889 -0.004285
# 3 0.000322 -0.003574 0.013660 0.001150 0.004945 0.003954
# 4 0.000728 0.006951 0.001150 0.027143 -0.001034 -0.004130
# 5 0.005301 -0.003889 0.004945 -0.001034 0.034573 -0.005484
# 6 0.003676 -0.004285 0.003954 -0.004130 -0.005484 0.054477
#
#
# Mechanical properties :
#
#
# Convention : Reuss Voigt Hill
#
# Bulk Modulus (GPa) = 38.91788 50.33084 44.62436
# Shear Modulus (GPa) = 28.22054 35.40894 31.81474
#
# Velocity S-wave (km/s) = 3.72034 4.16731 3.95015
# Velocity P-wave (km/s) = 6.12715 6.91667 6.53385
#
# Compressibility (1/GPa) = 0.02569513
#
# Stress axis : x y z
#
# Youngs Moduli (GPa) = 74.73763 83.21667 73.20828
#
# Poissons Ratio (x) = 0.28529 -0.02356
# Poissons Ratio (y) = 0.25622 0.26167
# Poissons Ratio (z) = -0.02405 0.29744
#
# Static dielectric constant tensor:
#      x y z
#    x 3.649640 -0.138600 0.081760 
#    y -0.138600 3.914660 -0.084560 
#    z 0.081760 -0.084560 3.813010 
# 
# 
# High freq. dielectric constant tensor:
#      x y z
#    x 1.770570 0.004710 -0.005470 
#    y 0.004710 1.808730 -0.005380 
#    z -0.005470 -0.005380 1.812760 
# 
# From -- ./inp_files/122909.got.cif
#   From: 2010.06.25/outbox.cif.g09.slc.cpg/sg2_62_cif.got.tgz:122909.got - 2010.06.27 13:26:56.
