data_PCOD8010746
_publ_section_title
;
Structure prediction by ZEFSAII (Michael W. Deem and Ramdas Pophale) SiO2 
 PCOD8010746
Probable space group: P -1
;
_chemical_formula_sum "Si O2"
_cell_formula_units_Z 14
_cell_length_a 27.524725
_cell_length_b 5.130998
_cell_length_c 16.616242
_cell_angle_alpha 54.661892
_cell_angle_beta 18.968601
_cell_angle_gamma 53.612987
_cell_volume 612.715693
_symmetry_space_group_name_H-M "P -1"
_symmetry_group_IT_number 2
_symmetry_cell_setting 'triclinic'
loop_
_space_group_symop_operation_xyz
x,y,z
-x,-y,-z
loop_
_atom_site_type_symbol
_atom_site_label
_atom_site_fract_x
_atom_site_fract_y
_atom_site_fract_z
Si Si1 0.926041 0.252020 0.505157
Si Si2 0.691146 0.559554 0.517102
Si Si3 0.726538 0.259223 0.676020
Si Si4 0.685128 0.314880 0.404605
Si Si5 0.219809 0.404522 0.956528
Si Si6 0.618868 0.638325 0.919723
Si Si7 0.395297 0.769932 0.742243
O O1 0.866070 0.094236 0.545146
O O2 0.780797 0.473035 0.735464
O O3 0.000000 0.000000 0.500000
O O4 0.047404 0.470402 0.246356
O O5 0.785122 0.391183 0.476765
O O6 0.764648 0.386747 0.351369
O O7 0.698243 0.936832 0.435242
O O8 0.516819 0.509963 0.803000
O O9 0.629563 0.564098 0.820523
O O10 0.607133 0.021964 0.883716
O O11 0.770428 0.471409 0.171990
O O12 0.506721 0.480054 0.664408
O O13 0.313842 0.605757 0.829121
O O14 0.279256 0.010911 0.938260
O O15 0.500000 0.000000 0.500000
#
# Coordination Sequence:
#
# PCOD8010746 Si02
#       7
#     2   2   2   2   2   2   2
#     4  10  27  43  67  92 127 172 213 256 320 385
#     4  12  22  40  68  98 126 164 216 266 316 370
#     4  10  23  43  64  96 128 166 214 263 318 369
#     4  11  23  37  65  97 126 166 211 262 321 371
#     4  11  23  43  62  93 136 167 210 259 318 381
#     4  10  23  41  66  92 130 161 216 260 321 362
#     4  10  21  38  63  90 128 167 210 257 312 362
#
# _framework density 22.849095999999999
#
# number of rings (size 3 to 8) (size 9 to 14) (size 15 to 20)
#    0.857    0.571    0.000    6.857    6.000    0.571 
#    0.000    1.429    0.000    0.000    0.000    0.000 
#    0.000    0.000    0.000    0.000    0.000    0.000 
#
# Total GULP energy -173467.605525 kJ/mol
# GULP energy per Si atom -12390.543252 kJ/mol
# Density = 2.279709 g / cm^3
# Si number density = 22.849096 Si / 1000 Ang^3
#
#
#
# Elastic Constant Matrix: (Units=GPa)
#
#
# Indices 1 2 3 4 5 6 
#
# 1 165.1322 46.8450 35.9274 -18.3742 -4.8408 7.2762
# 2 46.8450 92.9608 21.0844 -17.0957 0.6856 12.0992
# 3 35.9274 21.0844 75.1850 -11.7196 -0.2613 -6.2547
# 4 -18.3742 -17.0957 -11.7196 28.9831 -1.7635 -3.0130
# 5 -4.8408 0.6856 -0.2613 -1.7635 21.9128 -4.6515
# 6 7.2762 12.0992 -6.2547 -3.0130 -4.6515 46.5211
#
#
#
# Elastic Compliance Matrix: (Units=1/GPa)
#
#
# Indices 1 2 3 4 5 6 
#
# 1 0.007755 -0.002858 -0.002588 0.002246 0.001849 -0.000487
# 2 -0.002858 0.014059 -0.002039 0.005232 -0.001371 -0.003282
# 3 -0.002588 -0.002039 0.016026 0.004037 0.000735 0.003425
# 4 0.002246 0.005232 0.004037 0.041092 0.004091 0.001901
# 5 0.001849 -0.001371 0.000735 0.004091 0.047525 0.005183
# 6 -0.000487 -0.003282 0.003425 0.001901 0.005183 0.023527
#
#
# Mechanical properties :
#
#
# Convention : Reuss Voigt Hill
#
# Bulk Modulus (GPa) = 43.72698 60.11019 51.91859
# Shear Modulus (GPa) = 28.97216 34.77815 31.87515
#
# Velocity S-wave (km/s) = 3.56473 3.90562 3.73906
# Velocity P-wave (km/s) = 6.01015 6.83396 6.43525
#
# Compressibility (1/GPa) = 0.02286917
#
# Stress axis : x y z
#
# Youngs Moduli (GPa) = 128.94424 71.12644 62.39837
#
# Poissons Ratio (x) = 0.20329 0.16151
# Poissons Ratio (y) = 0.36855 0.12725
# Poissons Ratio (z) = 0.33376 0.14504
#
# Static dielectric constant tensor:
#      x y z
#    x 4.323420 0.114120 0.000340 
#    y 0.114120 4.381280 0.245120 
#    z 0.000340 0.245120 4.041530 
# 
# 
# High freq. dielectric constant tensor:
#      x y z
#    x 1.917950 0.006190 -0.000100 
#    y 0.006190 1.898870 -0.006340 
#    z -0.000100 -0.006340 1.879680 
# 
# From -- ./inp_files/580031.got.cif
#   From: 2010.06.25/outbox.cif.g09.slc.cpg/sg2_291_cif.got.tgz:580031.got - 2010.06.27 13:26:56.
