data_PCOD8010532
_publ_section_title
;
Structure prediction by ZEFSAII (Michael W. Deem and Ramdas Pophale) SiO2 
 PCOD8010532
Probable space group: P -1
;
_chemical_formula_sum "Si O2"
_cell_formula_units_Z 16
_cell_length_a 19.246092
_cell_length_b 9.324184
_cell_length_c 12.645086
_cell_angle_alpha 28.723563
_cell_angle_beta 49.987663
_cell_angle_gamma 50.708668
_cell_volume 820.264383
_symmetry_space_group_name_H-M "P -1"
_symmetry_group_IT_number 2
_symmetry_cell_setting 'triclinic'
loop_
_space_group_symop_operation_xyz
x,y,z
-x,-y,-z
loop_
_atom_site_type_symbol
_atom_site_label
_atom_site_fract_x
_atom_site_fract_y
_atom_site_fract_z
Si Si1 0.812581 0.958814 0.693646
Si Si2 0.106762 0.144503 0.095262
Si Si3 0.578314 0.556306 0.666671
Si Si4 0.333723 0.507089 0.583001
Si Si5 0.382482 0.775291 0.779868
Si Si6 0.097299 0.826179 0.713869
Si Si7 0.728832 0.393206 0.192085
Si Si8 0.704012 0.153848 0.967038
O O1 0.877084 0.947545 0.739048
O O2 0.754596 0.294649 0.515226
O O3 0.881983 0.908993 0.556836
O O4 0.741760 0.724292 0.923866
O O5 0.006480 0.085329 0.196606
O O6 0.111884 0.500213 0.848660
O O7 0.184099 0.921861 0.095095
O O8 0.581254 0.459336 0.601108
O O9 0.477568 0.530616 0.827162
O O10 0.594369 0.896327 0.441525
O O11 0.661169 0.353596 0.780926
O O12 0.337553 0.598154 0.644137
O O13 0.329265 0.158414 0.812105
O O14 0.315657 0.779040 0.743249
O O15 0.331812 0.679974 0.995716
O O16 0.169145 0.797952 0.759143
#
# Coordination Sequence:
#
# PCOD8010532 Si02
#       8
#     2   2   2   2   2   2   2   2
#     4  10  16  32  54  81 112 143 174 224 275 316
#     4  10  17  31  55  86 107 141 185 223 265 316
#     4  10  21  40  59  79 103 145 193 228 270 318
#     4  10  18  34  58  81 111 137 184 230 268 323
#     4  10  24  38  56  80 109 147 185 225 274 329
#     4   9  19  31  54  83 115 139 179 222 268 327
#     4  10  20  36  53  81 116 145 176 223 279 323
#     4  11  19  36  58  82 109 141 184 230 268 321
#
# _framework density 19.505907000000001
#
# number of rings (size 3 to 8) (size 9 to 14) (size 15 to 20)
#    0.000    2.000    5.000    0.750    0.000    2.500 
#    0.000    3.125    0.000    1.500    0.000    0.000 
#    0.000    0.000    0.000    0.000    0.000    0.000 
#
# Total GULP energy -198222.052550 kJ/mol
# GULP energy per Si atom -12388.878284 kJ/mol
# Density = 1.946151 g / cm^3
# Si number density = 19.505907 Si / 1000 Ang^3
#
#
#
# Elastic Constant Matrix: (Units=GPa)
#
#
# Indices 1 2 3 4 5 6 
#
# 1 72.2889 35.0971 8.2861 20.5255 -3.1498 -2.9284
# 2 35.0971 82.4932 28.4127 36.1360 -0.3494 -21.2145
# 3 8.2861 28.4127 67.9331 24.6171 16.6164 -4.7886
# 4 20.5255 36.1360 24.6171 31.0624 -3.0048 1.5426
# 5 -3.1498 -0.3494 16.6164 -3.0048 18.9827 5.3906
# 6 -2.9284 -21.2145 -4.7886 1.5426 5.3906 35.1540
#
#
#
# Elastic Compliance Matrix: (Units=1/GPa)
#
#
# Indices 1 2 3 4 5 6 
#
# 1 0.018451 -0.005405 0.003392 -0.008671 -0.001180 -0.000701
# 2 -0.005405 0.059505 0.026182 -0.093983 -0.052120 0.051142
# 3 0.003392 0.026182 0.053274 -0.083514 -0.069503 0.037662
# 4 -0.008671 -0.093983 -0.083514 0.231438 0.134867 -0.099651
# 5 -0.001180 -0.052120 -0.069503 0.134867 0.153735 -0.070511
# 6 -0.000701 0.051142 0.037662 -0.099651 -0.070511 0.079566
#
#
# Mechanical properties :
#
#
# Convention : Reuss Voigt Hill
#
# Bulk Modulus (GPa) = 5.56895 40.70080 23.13487
# Shear Modulus (GPa) = 8.23062 27.10110 17.66586
#
# Velocity S-wave (km/s) = 2.05638 3.73148 3.01270
# Velocity P-wave (km/s) = 2.91539 6.28303 4.89775
#
# Compressibility (1/GPa) = 0.17956702
#
# Stress axis : x y z
#
# Youngs Moduli (GPa) = 54.19708 16.80542 18.77078
#
# Poissons Ratio (x) = 0.09084 -0.06366
# Poissons Ratio (y) = 0.29295 -0.49146
# Poissons Ratio (z) = -0.18381 -0.44000
#
# Static dielectric constant tensor:
#      x y z
#    x 3.293990 -0.264400 0.136500 
#    y -0.264400 3.918460 0.515510 
#    z 0.136500 0.515510 3.858770 
# 
# 
# High freq. dielectric constant tensor:
#      x y z
#    x 1.734100 -0.022820 0.020240 
#    y -0.022820 1.747980 0.022780 
#    z 0.020240 0.022780 1.764660 
# 
# From -- ./inp_files/43290.got.cif
#   From: 2010.06.25/outbox.cif.g09.slc.cpg/sg2_22_cif.got.tgz:43290.got - 2010.06.27 13:26:56.
