data_PCOD8010348
_publ_section_title
;
Structure prediction by ZEFSAII (Michael W. Deem and Ramdas Pophale) SiO2 
 PCOD8010348
Probable space group: P -1
;
_chemical_formula_sum "Si O2"
_cell_formula_units_Z 14
_cell_length_a 12.224139
_cell_length_b 13.546282
_cell_length_c 10.134335
_cell_angle_alpha 32.302495
_cell_angle_beta 93.607803
_cell_angle_gamma 76.793128
_cell_volume 760.025738
_symmetry_space_group_name_H-M "P -1"
_symmetry_group_IT_number 2
_symmetry_cell_setting 'triclinic'
loop_
_space_group_symop_operation_xyz
x,y,z
-x,-y,-z
loop_
_atom_site_type_symbol
_atom_site_label
_atom_site_fract_x
_atom_site_fract_y
_atom_site_fract_z
Si Si1 0.300421 0.205783 0.823508
Si Si2 0.307606 0.721383 0.995388
Si Si3 0.578495 0.015599 0.179869
Si Si4 0.443011 0.319871 0.296548
Si Si5 0.154225 0.982514 0.153528
Si Si6 0.295622 0.748000 0.676028
Si Si7 0.853462 0.286894 0.775005
O O1 0.318158 0.135262 0.752073
O O2 0.202834 0.461760 0.538708
O O3 0.241564 0.085922 0.032625
O O4 0.435084 0.143829 0.967384
O O5 0.244252 0.841906 0.714080
O O6 0.390738 0.808626 0.967335
O O7 0.408342 0.463802 0.266468
O O8 0.194049 0.756654 0.042050
O O9 0.590595 0.864314 0.475377
O O10 0.593902 0.204014 0.408610
O O11 0.359003 0.483722 0.984539
O O12 0.181374 0.859481 0.435355
O O13 0.191174 0.806806 0.240256
O O14 0.006352 0.172123 0.921421
#
# Coordination Sequence:
#
# PCOD8010348 Si02
#       7
#     2   2   2   2   2   2   2
#     4  11  22  36  60  90 114 152 189 242 285 343
#     4  10  21  38  59  87 114 155 187 231 295 343
#     4  11  21  34  63  89 118 145 189 238 294 345
#     4   9  19  38  57  86 117 149 182 245 287 341
#     4  11  23  42  57  86 115 154 200 237 276 340
#     4   9  20  39  60  83 120 145 192 238 291 338
#     4  11  24  39  63  78 118 160 194 237 277 333
#
# _framework density 18.420428999999999
#
# number of rings (size 3 to 8) (size 9 to 14) (size 15 to 20)
#    0.857    0.857    4.286    0.429    2.000    1.714 
#    2.571    0.000    0.000    1.714    0.000    0.000 
#    0.000    0.000    0.000    0.000    0.000    0.000 
#
# Total GULP energy -173551.025685 kJ/mol
# GULP energy per Si atom -12396.501835 kJ/mol
# Density = 1.837850 g / cm^3
# Si number density = 18.420429 Si / 1000 Ang^3
#
#
#
# Elastic Constant Matrix: (Units=GPa)
#
#
# Indices 1 2 3 4 5 6 
#
# 1 41.6163 17.5241 15.5008 6.1861 -6.1626 -2.6072
# 2 17.5241 91.6540 30.6529 8.5696 6.4727 -7.5083
# 3 15.5008 30.6529 91.2789 5.8560 1.3637 5.5885
# 4 6.1861 8.5696 5.8560 29.2097 -3.5743 -5.5627
# 5 -6.1626 6.4727 1.3637 -3.5743 21.8393 2.1060
# 6 -2.6072 -7.5083 5.5885 -5.5627 2.1060 23.4557
#
#
#
# Elastic Compliance Matrix: (Units=1/GPa)
#
#
# Indices 1 2 3 4 5 6 
#
# 1 0.029141 -0.004756 -0.003376 -0.002766 0.009291 0.001031
# 2 -0.004756 0.014219 -0.004046 -0.002147 -0.006140 0.005029
# 3 -0.003376 -0.004046 0.013331 -0.001815 -0.000377 -0.005243
# 4 -0.002766 -0.002147 -0.001815 0.037994 0.005420 0.007962
# 5 0.009291 -0.006140 -0.000377 0.005420 0.051545 -0.004185
# 6 0.001031 0.005029 -0.005243 0.007962 -0.004185 0.047871
#
#
# Mechanical properties :
#
#
# Convention : Reuss Voigt Hill
#
# Bulk Modulus (GPa) = 30.92594 39.10054 35.01324
# Shear Modulus (GPa) = 21.81174 25.62569 23.71872
#
# Velocity S-wave (km/s) = 3.44482 3.73387 3.59225
# Velocity P-wave (km/s) = 5.71382 6.31362 6.02119
#
# Compressibility (1/GPa) = 0.03233532
#
# Stress axis : x y z
#
# Youngs Moduli (GPa) = 34.31635 70.32679 75.01568
#
# Poissons Ratio (x) = 0.33445 0.25326
# Poissons Ratio (y) = 0.16319 0.30351
# Poissons Ratio (z) = 0.11585 0.28454
#
# Static dielectric constant tensor:
#      x y z
#    x 3.222310 -0.147820 -0.136740 
#    y -0.147820 3.434430 0.043100 
#    z -0.136740 0.043100 3.283280 
# 
# 
# High freq. dielectric constant tensor:
#      x y z
#    x 1.708890 -0.013470 -0.015180 
#    y -0.013470 1.711810 0.001810 
#    z -0.015180 0.001810 1.709620 
# 
# From -- ./inp_files/108139.got.cif
#   From: 2010.06.25/outbox.cif.g09.slc.cpg/sg2_55_cif.got.tgz:108139.got - 2010.06.27 13:26:56.
