data_PCOD8010762
_publ_section_title
;
Structure prediction by ZEFSAII (Michael W. Deem and Ramdas Pophale) SiO2 
 PCOD8010762
Probable space group: P -1
;
_chemical_formula_sum "Si O2"
_cell_formula_units_Z 16
_cell_length_a 17.676965
_cell_length_b 8.221735
_cell_length_c 17.313020
_cell_angle_alpha 132.775115
_cell_angle_beta 25.107971
_cell_angle_gamma 134.636983
_cell_volume 752.027670
_symmetry_space_group_name_H-M "P -1"
_symmetry_group_IT_number 2
_symmetry_cell_setting 'triclinic'
loop_
_space_group_symop_operation_xyz
x,y,z
-x,-y,-z
loop_
_atom_site_type_symbol
_atom_site_label
_atom_site_fract_x
_atom_site_fract_y
_atom_site_fract_z
Si Si1 0.528410 0.236009 0.595649
Si Si2 0.586681 0.616825 0.535213
Si Si3 0.923351 0.432754 0.351965
Si Si4 0.018287 0.210322 0.725900
Si Si5 0.925124 0.815999 0.576771
Si Si6 0.520092 0.673652 0.965999
Si Si7 0.630815 0.049907 0.097039
Si Si8 0.272738 0.293942 0.982996
O O1 0.544107 0.440761 0.587748
O O2 0.709294 0.277597 0.497056
O O3 0.349444 0.229205 0.810502
O O4 0.500000 0.000000 0.500000
O O5 0.500000 0.500000 0.500000
O O6 0.809110 0.718093 0.351490
O O7 0.497669 0.822828 0.699974
O O8 0.950524 0.612886 0.315775
O O9 0.976421 0.579440 0.430704
O O10 0.052622 0.261524 0.167878
O O11 0.006382 0.947354 0.623559
O O12 0.827889 0.224229 0.946203
O O13 0.704276 0.726080 0.760970
O O14 0.000000 0.000000 0.500000
O O15 0.360565 0.562284 0.014858
O O16 0.500000 0.500000 0.000000
O O17 0.514618 0.918262 0.087483
O O18 0.684181 0.869471 0.045205
#
# Coordination Sequence:
#
# PCOD8010762 Si02
#       8
#     2   2   2   2   2   2   2   2
#     4  11  24  43  64  90 124 162 213 261 305 370
#     4  11  24  42  65  88 118 167 209 254 308 364
#     4  10  21  38  63  92 122 160 206 258 311 368
#     4   9  21  40  59  90 123 157 205 253 308 369
#     4   9  17  36  60  89 126 162 205 256 312 376
#     4   9  19  37  57  91 132 167 203 254 315 378
#     4  10  22  40  59  91 127 162 203 249 309 374
#     4  11  22  38  63  93 126 164 204 256 312 371
#
# _framework density 21.275812999999999
#
# number of rings (size 3 to 8) (size 9 to 14) (size 15 to 20)
#    0.000    2.000    1.250    1.500    1.750    3.000 
#    0.000    4.375    0.000    0.000    0.000    0.000 
#    0.000    0.000    0.000    0.000    0.000    0.000 
#
# Total GULP energy -198269.591838 kJ/mol
# GULP energy per Si atom -12391.849490 kJ/mol
# Density = 2.122739 g / cm^3
# Si number density = 21.275813 Si / 1000 Ang^3
#
#
#
# Elastic Constant Matrix: (Units=GPa)
#
#
# Indices 1 2 3 4 5 6 
#
# 1 58.4671 10.0264 10.8176 11.7035 -3.3783 18.1208
# 2 10.0264 64.3027 18.6834 11.6995 -4.5649 12.7240
# 3 10.8176 18.6834 87.8994 18.1091 2.4365 1.3284
# 4 11.7035 11.6995 18.1091 40.6445 -1.2268 9.1086
# 5 -3.3783 -4.5649 2.4365 -1.2268 33.2117 1.0404
# 6 18.1208 12.7240 1.3284 9.1086 1.0404 28.6370
#
#
#
# Elastic Compliance Matrix: (Units=1/GPa)
#
#
# Indices 1 2 3 4 5 6 
#
# 1 0.022279 0.000496 -0.002216 -0.002451 0.002831 -0.013538
# 2 0.000496 0.018665 -0.003568 -0.002064 0.003049 -0.007896
# 3 -0.002216 -0.003568 0.013501 -0.005338 -0.002033 0.004133
# 4 -0.002451 -0.002064 -0.005338 0.029846 0.001175 -0.006820
# 5 0.002831 0.003049 -0.002033 0.001175 0.031152 -0.004557
# 6 -0.013538 -0.007896 0.004133 -0.006820 -0.004557 0.049138
#
#
# Mechanical properties :
#
#
# Convention : Reuss Voigt Hill
#
# Bulk Modulus (GPa) = 22.79547 32.19156 27.49351
# Shear Modulus (GPa) = 26.34616 31.90810 29.12713
#
# Velocity S-wave (km/s) = 3.52279 3.87684 3.70405
# Velocity P-wave (km/s) = 5.22343 5.93324 5.58961
#
# Compressibility (1/GPa) = 0.04386837
#
# Stress axis : x y z
#
# Youngs Moduli (GPa) = 44.88592 53.57523 74.06615
#
# Poissons Ratio (x) = -0.02657 0.16414
# Poissons Ratio (y) = -0.02226 0.26429
# Poissons Ratio (z) = 0.09947 0.19117
#
# Static dielectric constant tensor:
#      x y z
#    x 3.826650 0.347160 0.098360 
#    y 0.347160 4.068340 -0.174360 
#    z 0.098360 -0.174360 3.953230 
# 
# 
# High freq. dielectric constant tensor:
#      x y z
#    x 1.819070 0.011430 0.013270 
#    y 0.011430 1.835910 -0.011080 
#    z 0.013270 -0.011080 1.840160 
# 
# From -- ./inp_files/526018.got.cif
#   From: 2010.06.25/outbox.cif.g09.slc.cpg/sg2_264_cif.got.tgz:526018.got - 2010.06.27 13:26:56.
