data_PCOD8010424
_publ_section_title
;
Structure prediction by ZEFSAII (Michael W. Deem and Ramdas Pophale) SiO2 
 PCOD8010424
Probable space group: P -1
;
_chemical_formula_sum "Si O2"
_cell_formula_units_Z 14
_cell_length_a 14.122909
_cell_length_b 10.952635
_cell_length_c 12.354591
_cell_angle_alpha 103.731566
_cell_angle_beta 54.014075
_cell_angle_gamma 145.859925
_cell_volume 725.804150
_symmetry_space_group_name_H-M "P -1"
_symmetry_group_IT_number 2
_symmetry_cell_setting 'triclinic'
loop_
_space_group_symop_operation_xyz
x,y,z
-x,-y,-z
loop_
_atom_site_type_symbol
_atom_site_label
_atom_site_fract_x
_atom_site_fract_y
_atom_site_fract_z
Si Si1 0.332384 0.405055 0.240894
Si Si2 0.720409 0.863101 0.926049
Si Si3 0.071572 0.368352 0.908820
Si Si4 0.520233 0.708182 0.805425
Si Si5 0.826334 0.310514 0.440293
Si Si6 0.950922 0.246586 0.521417
Si Si7 0.715458 0.194752 0.247582
O O1 0.216335 0.218276 0.177562
O O2 0.432196 0.397470 0.260033
O O3 0.138556 0.308403 0.411094
O O4 0.550233 0.695784 0.110766
O O5 0.580074 0.805272 0.910381
O O6 0.970472 0.164670 0.855131
O O7 0.242684 0.474265 0.910747
O O8 0.223932 0.605320 0.781399
O O9 0.840157 0.218201 0.084967
O O10 0.688475 0.944873 0.661115
O O11 0.956439 0.317471 0.415191
O O12 0.807669 0.250688 0.317197
O O13 0.979591 0.583074 0.400676
O O14 0.570935 0.095990 0.625931
#
# Coordination Sequence:
#
# PCOD8010424 Si02
#       7
#     2   2   2   2   2   2   2
#     4   9  21  39  59  85 120 148 195 240 283 348
#     4   9  21  39  58  87 117 147 195 240 282 346
#     4  11  21  39  62  84 121 151 190 242 296 332
#     4  10  21  38  60  88 117 151 193 238 281 357
#     4  10  22  37  60  84 118 153 194 238 285 342
#     4  11  20  38  61  85 115 159 189 235 294 337
#     4  10  22  39  54  88 118 151 193 244 279 350
#
# _framework density 19.288948999999999
#
# number of rings (size 3 to 8) (size 9 to 14) (size 15 to 20)
#    0.857    1.143    1.429    2.143    2.000    0.571 
#    0.000    5.714    0.000    0.000    0.000    0.000 
#    0.000    0.000    0.000    0.000    0.000    0.000 
#
# Total GULP energy -173563.977662 kJ/mol
# GULP energy per Si atom -12397.426976 kJ/mol
# Density = 1.924505 g / cm^3
# Si number density = 19.288949 Si / 1000 Ang^3
#
#
#
# Elastic Constant Matrix: (Units=GPa)
#
#
# Indices 1 2 3 4 5 6 
#
# 1 87.8057 39.7183 15.8554 -12.8551 0.5321 -1.9557
# 2 39.7183 77.5289 5.7189 -12.3159 5.8092 3.9289
# 3 15.8554 5.7189 39.4938 -7.1423 8.1140 -5.4949
# 4 -12.8551 -12.3159 -7.1423 17.1241 -0.0707 -1.7932
# 5 0.5321 5.8092 8.1140 -0.0707 22.8531 -0.9600
# 6 -1.9557 3.9289 -5.4949 -1.7932 -0.9600 27.3015
#
#
#
# Elastic Compliance Matrix: (Units=1/GPa)
#
#
# Indices 1 2 3 4 5 6 
#
# 1 0.016508 -0.007637 -0.005096 0.004967 0.003453 0.001704
# 2 -0.007637 0.018483 0.002739 0.008439 -0.005563 -0.002297
# 3 -0.005096 0.002739 0.032477 0.012288 -0.011811 0.006169
# 4 0.004967 0.008439 0.012288 0.073950 -0.006132 0.006256
# 5 0.003453 -0.005563 -0.011811 -0.006132 0.049266 0.000000
# 6 0.001704 -0.002297 0.006169 0.006256 0.000000 0.038733
#
#
# Mechanical properties :
#
#
# Convention : Reuss Voigt Hill
#
# Bulk Modulus (GPa) = 21.06142 36.37930 28.72036
# Shear Modulus (GPa) = 18.85155 23.02480 20.93818
#
# Velocity S-wave (km/s) = 3.12961 3.45871 3.29827
# Velocity P-wave (km/s) = 4.89917 5.90351 5.42463
#
# Compressibility (1/GPa) = 0.04748018
#
# Stress axis : x y z
#
# Youngs Moduli (GPa) = 60.57785 54.10473 30.79134
#
# Poissons Ratio (x) = 0.41320 0.15690
# Poissons Ratio (y) = 0.46264 -0.08434
# Poissons Ratio (z) = 0.30868 -0.14820
#
# Static dielectric constant tensor:
#      x y z
#    x 3.449690 -0.062580 0.134480 
#    y -0.062580 3.350550 -0.180810 
#    z 0.134480 -0.180810 3.286220 
# 
# 
# High freq. dielectric constant tensor:
#      x y z
#    x 1.749570 -0.005460 0.012730 
#    y -0.005460 1.743160 -0.014640 
#    z 0.012730 -0.014640 1.740720 
# 
# From -- ./inp_files/187794.got.cif
#   From: 2010.06.25/outbox.cif.g09.slc.cpg/sg2_94_cif.got.tgz:187794.got - 2010.06.27 13:26:56.
