data_PCOD8010397
_publ_section_title
;
Structure prediction by ZEFSAII (Michael W. Deem and Ramdas Pophale) SiO2 
 PCOD8010397
Probable space group: P -1
;
_chemical_formula_sum "Si O2"
_cell_formula_units_Z 14
_cell_length_a 13.593451
_cell_length_b 8.097233
_cell_length_c 16.153688
_cell_angle_alpha 55.388633
_cell_angle_beta 156.077872
_cell_angle_gamma 126.516534
_cell_volume 577.858372
_symmetry_space_group_name_H-M "P -1"
_symmetry_group_IT_number 2
_symmetry_cell_setting 'triclinic'
loop_
_space_group_symop_operation_xyz
x,y,z
-x,-y,-z
loop_
_atom_site_type_symbol
_atom_site_label
_atom_site_fract_x
_atom_site_fract_y
_atom_site_fract_z
Si Si1 0.597083 0.969708 0.492443
Si Si2 0.511173 0.164451 0.889973
Si Si3 0.824109 0.554451 0.108974
Si Si4 0.157539 0.645570 0.196714
Si Si5 0.055168 0.330715 0.491573
Si Si6 0.047523 0.798224 0.894418
Si Si7 0.373647 0.709989 0.717132
O O1 0.447880 0.749970 0.403698
O O2 0.890782 0.973796 0.716382
O O3 0.500000 0.000000 0.500000
O O4 0.560476 0.152778 0.352841
O O5 0.229513 0.174822 0.642273
O O6 0.654192 0.384474 0.969237
O O7 0.672286 0.112975 0.950383
O O8 0.500000 0.000000 0.000000
O O9 0.016245 0.701772 0.153680
O O10 0.983626 0.459427 0.323943
O O11 0.636571 0.685533 0.967218
O O12 0.106785 0.399659 0.218190
O O13 0.054633 0.744440 0.010838
O O14 0.213729 0.483584 0.636544
O O15 0.794823 0.202354 0.369384
#
# Coordination Sequence:
#
# PCOD8010397 Si02
#       7
#     2   2   2   2   2   2   2
#     4  12  24  38  63  94 123 158 203 252 302 358
#     4  10  22  39  60  87 116 152 204 251 291 354
#     4  10  21  38  60  85 118 158 197 244 302 356
#     4  10  23  41  62  87 123 163 203 246 300 361
#     4  10  21  39  60  83 119 159 195 245 303 355
#     4  10  23  42  62  88 124 163 201 248 304 359
#     4  10  22  37  57  89 121 154 198 245 299 359
#
# _framework density 24.227388000000001
#
# number of rings (size 3 to 8) (size 9 to 14) (size 15 to 20)
#    0.000    1.714    0.000    3.429    0.000   12.000 
#    0.000    0.000    0.000    0.000    0.000    0.000 
#    0.000    0.000    0.000    0.000    0.000    0.000 
#
# Total GULP energy -173566.087184 kJ/mol
# GULP energy per Si atom -12397.577656 kJ/mol
# Density = 2.417225 g / cm^3
# Si number density = 24.227388 Si / 1000 Ang^3
#
#
#
# Elastic Constant Matrix: (Units=GPa)
#
#
# Indices 1 2 3 4 5 6 
#
# 1 137.3279 29.7437 76.7566 -18.2180 23.6075 30.8200
# 2 29.7437 37.0060 26.8909 -11.0789 13.0997 25.1574
# 3 76.7566 26.8909 196.0340 -34.8601 36.0180 11.2795
# 4 -18.2180 -11.0789 -34.8601 43.4789 1.0418 -3.2895
# 5 23.6075 13.0997 36.0180 1.0418 43.5025 -1.2628
# 6 30.8200 25.1574 11.2795 -3.2895 -1.2628 36.9166
#
#
#
# Elastic Compliance Matrix: (Units=1/GPa)
#
#
# Indices 1 2 3 4 5 6 
#
# 1 0.012101 0.002352 -0.003053 0.002534 -0.005120 -0.010722
# 2 0.002352 0.074839 -0.000693 0.016154 -0.025139 -0.052172
# 3 -0.003053 -0.000693 0.008216 0.005314 -0.005041 0.000812
# 4 0.002534 0.016154 0.005314 0.031788 -0.011758 -0.012317
# 5 -0.005120 -0.025139 -0.005041 -0.011758 0.038464 0.023214
# 6 -0.010722 -0.052172 0.000812 -0.012317 0.023214 0.071041
#
#
# Mechanical properties :
#
#
# Convention : Reuss Voigt Hill
#
# Bulk Modulus (GPa) = 10.82628 70.79446 40.81037
# Shear Modulus (GPa) = 18.51660 40.57805 29.54733
#
# Velocity S-wave (km/s) = 2.76757 4.09697 3.49604
# Velocity P-wave (km/s) = 3.83287 7.18780 5.76001
#
# Compressibility (1/GPa) = 0.09236783
#
# Stress axis : x y z
#
# Youngs Moduli (GPa) = 82.63619 13.36195 121.71561
#
# Poissons Ratio (x) = -0.03142 0.37156
# Poissons Ratio (y) = -0.19433 0.08438
# Poissons Ratio (z) = 0.25226 0.00926
#
# Static dielectric constant tensor:
#      x y z
#    x 4.540740 -0.079540 0.463240 
#    y -0.079540 4.882770 0.379340 
#    z 0.463240 0.379340 4.730110 
# 
# 
# High freq. dielectric constant tensor:
#      x y z
#    x 1.964010 0.009630 0.014170 
#    y 0.009630 1.952400 0.007890 
#    z 0.014170 0.007890 1.973470 
# 
# From -- ./inp_files/27847.got.cif
#   From: 2010.06.25/outbox.cif.g09.slc.cpg/sg2_14_cif.got.tgz:27847.got - 2010.06.27 13:26:56.
