data_PCOD8010208
_publ_section_title
;
Structure prediction by ZEFSAII (Michael W. Deem and Ramdas Pophale) SiO2 
 PCOD8010208
Probable space group: P -1
;
_chemical_formula_sum "Si O2"
_cell_formula_units_Z 16
_cell_length_a 5.492147
_cell_length_b 17.816226
_cell_length_c 8.249480
_cell_angle_alpha 120.293005
_cell_angle_beta 80.819621
_cell_angle_gamma 86.286063
_cell_volume 677.996720
_symmetry_space_group_name_H-M "P -1"
_symmetry_group_IT_number 2
_symmetry_cell_setting 'triclinic'
loop_
_space_group_symop_operation_xyz
x,y,z
-x,-y,-z
loop_
_atom_site_type_symbol
_atom_site_label
_atom_site_fract_x
_atom_site_fract_y
_atom_site_fract_z
Si Si1 0.061673 0.007953 0.311054
Si Si2 0.519101 0.071657 0.435531
Si Si3 0.161883 0.697486 0.995059
Si Si4 0.741935 0.745756 0.311437
Si Si5 0.805075 0.766367 0.685633
Si Si6 0.889933 0.592632 0.690585
Si Si7 0.547269 0.591178 0.026371
Si Si8 0.254821 0.832291 0.903339
O O1 0.282578 0.066815 0.334567
O O2 0.165055 0.921201 0.106621
O O3 0.000000 0.000000 0.500000
O O4 0.796319 0.050832 0.300996
O O5 0.489828 0.173655 0.606085
O O6 0.500000 0.000000 0.500000
O O7 0.282922 0.653283 0.096733
O O8 0.910526 0.759457 0.152526
O O9 0.327952 0.758248 0.952472
O O10 0.117221 0.620392 0.795262
O O11 0.879017 0.751714 0.474364
O O12 0.683975 0.645813 0.199557
O O13 0.789836 0.670421 0.658610
O O14 0.523812 0.828094 0.781073
O O15 0.021574 0.811604 0.796333
O O16 0.000000 0.500000 0.500000
O O17 0.672993 0.578021 0.822083
O O18 0.500000 0.500000 0.000000
#
# Coordination Sequence:
#
# PCOD8010208 Si02
#       8
#     2   2   2   2   2   2   2   2
#     4  10  21  37  69  99 132 170 233 281 334 403
#     4  10  22  39  66 103 129 179 225 281 343 400
#     4  10  23  42  68  96 133 184 234 282 347 405
#     4  11  27  43  69 100 144 176 237 292 344 419
#     4  11  26  45  68 102 139 195 223 287 360 410
#     4  10  24  43  65  95 138 182 233 287 350 418
#     4  11  26  42  69 101 133 183 236 292 342 412
#     4  11  23  46  70 100 141 183 234 281 344 427
#
# _framework density 23.598934
#
# number of rings (size 3 to 8) (size 9 to 14) (size 15 to 20)
#    0.000    1.500    1.250    2.250   10.500    2.500 
#    0.000    3.750    0.000    0.000    0.000    0.000 
#    0.000    0.000    0.000    0.000    0.000    0.000 
#
# Total GULP energy -198215.808809 kJ/mol
# GULP energy per Si atom -12388.488051 kJ/mol
# Density = 2.354522 g / cm^3
# Si number density = 23.598934 Si / 1000 Ang^3
#
#
#
# Elastic Constant Matrix: (Units=GPa)
#
#
# Indices 1 2 3 4 5 6 
#
# 1 151.8059 22.8552 48.3504 14.6953 2.1226 -8.1602
# 2 22.8552 50.7408 40.9190 10.3461 5.4083 13.1522
# 3 48.3504 40.9190 167.6362 19.8140 -2.0805 0.4123
# 4 14.6953 10.3461 19.8140 28.4970 -9.7001 1.8412
# 5 2.1226 5.4083 -2.0805 -9.7001 25.3925 1.2584
# 6 -8.1602 13.1522 0.4123 1.8412 1.2584 37.5100
#
#
#
# Elastic Compliance Matrix: (Units=1/GPa)
#
#
# Indices 1 2 3 4 5 6 
#
# 1 0.007831 -0.002391 -0.001355 -0.002918 -0.001507 0.002751
# 2 -0.002391 0.031140 -0.006001 -0.008496 -0.009643 -0.010633
# 3 -0.001355 -0.006001 0.008131 -0.002555 0.000992 0.001812
# 4 -0.002918 -0.008496 -0.002555 0.048440 0.020383 -0.000689
# 5 -0.001507 -0.009643 0.000992 0.020383 0.049410 0.000384
# 6 0.002751 -0.010633 0.001812 -0.000689 0.000384 0.030987
#
#
# Mechanical properties :
#
#
# Convention : Reuss Voigt Hill
#
# Bulk Modulus (GPa) = 36.22313 66.04803 51.13558
# Shear Modulus (GPa) = 24.43358 35.48378 29.95868
#
# Velocity S-wave (km/s) = 3.22120 3.88186 3.56686
# Velocity P-wave (km/s) = 5.40534 6.93832 6.21924
#
# Compressibility (1/GPa) = 0.02760667
#
# Stress axis : x y z
#
# Youngs Moduli (GPa) = 127.70562 32.11257 122.98810
#
# Poissons Ratio (x) = 0.07679 0.16669
# Poissons Ratio (y) = 0.30540 0.73803
# Poissons Ratio (z) = 0.17308 0.19270
#
# Static dielectric constant tensor:
#      x y z
#    x 4.949940 -0.074520 0.031280 
#    y -0.074520 4.252220 0.048820 
#    z 0.031280 0.048820 4.171910 
# 
# 
# High freq. dielectric constant tensor:
#      x y z
#    x 1.945030 0.000010 -0.002970 
#    y 0.000010 1.935480 0.007030 
#    z -0.002970 0.007030 1.937340 
# 
# From -- ./inp_files/53991.got.cif
#   From: 2010.06.25/outbox.cif.g09.slc.cpg/sg2_27_cif.got.tgz:53991.got - 2010.06.27 13:26:56.
