data_PCOD8010946
_publ_section_title
;
Structure prediction by ZEFSAII (Michael W. Deem and Ramdas Pophale) SiO2 
 PCOD8010946
Probable space group: P -1
;
_chemical_formula_sum "Si O2"
_cell_formula_units_Z 16
_cell_length_a 12.728346
_cell_length_b 18.623619
_cell_length_c 9.138378
_cell_angle_alpha 77.955048
_cell_angle_beta 130.250006
_cell_angle_gamma 142.010317
_cell_volume 782.157089
_symmetry_space_group_name_H-M "P -1"
_symmetry_group_IT_number 2
_symmetry_cell_setting 'triclinic'
loop_
_space_group_symop_operation_xyz
x,y,z
-x,-y,-z
loop_
_atom_site_type_symbol
_atom_site_label
_atom_site_fract_x
_atom_site_fract_y
_atom_site_fract_z
Si Si1 0.906870 0.377193 0.160232
Si Si2 0.730694 0.065189 0.584045
Si Si3 0.786821 0.602668 0.087529
Si Si4 0.911282 0.876380 0.943402
Si Si5 0.807150 0.832214 0.537748
Si Si6 0.307283 0.054761 0.674394
Si Si7 0.177810 0.505108 0.035402
Si Si8 0.403638 0.552141 0.729102
O O1 0.002859 0.420896 0.061301
O O2 0.112615 0.429313 0.431452
O O3 0.595729 0.195221 0.969594
O O4 0.893398 0.458070 0.148268
O O5 0.978272 0.237767 0.689217
O O6 0.500000 0.000000 0.500000
O O7 0.640382 0.982915 0.386616
O O8 0.838000 0.054591 0.796413
O O9 0.648272 0.481865 0.130415
O O10 0.930026 0.618355 0.088839
O O11 0.555484 0.546674 0.820686
O O12 0.888049 0.844208 0.766864
O O13 0.610603 0.718325 0.819504
O O14 0.000000 0.000000 0.000000
O O15 0.770175 0.902894 0.483884
O O16 0.514101 0.657645 0.301689
O O17 0.048197 0.914651 0.609476
#
# Coordination Sequence:
#
# PCOD8010946 Si02
#       8
#     2   2   2   2   2   2   2   2
#     4  10  21  40  63  93 123 162 216 266 316 368
#     4  11  24  43  63  94 135 172 210 264 331 381
#     4  10  24  41  62  90 130 174 208 260 318 387
#     4  11  22  40  68  94 124 168 219 267 316 389
#     4  10  21  39  64  98 121 164 218 265 317 378
#     4  10  22  39  65  93 132 164 208 270 321 376
#     4  10  21  38  65  90 127 163 211 266 316 377
#     4  10  23  41  61  93 125 167 218 254 321 384
#
# _framework density 20.456247999999999
#
# number of rings (size 3 to 8) (size 9 to 14) (size 15 to 20)
#    0.000    1.750    2.500    0.750    5.250    4.000 
#    2.250    1.250    0.000    0.000    0.000    0.000 
#    0.000    0.000    0.000    0.000    0.000    0.000 
#
# Total GULP energy -198337.008324 kJ/mol
# GULP energy per Si atom -12396.063020 kJ/mol
# Density = 2.040969 g / cm^3
# Si number density = 20.456248 Si / 1000 Ang^3
#
#
#
# Elastic Constant Matrix: (Units=GPa)
#
#
# Indices 1 2 3 4 5 6 
#
# 1 111.1097 25.9752 25.4279 4.9067 4.2302 -14.6799
# 2 25.9752 80.5705 18.2424 -1.1286 -3.7051 -1.0572
# 3 25.4279 18.2424 96.1184 -12.2869 11.6085 -10.7903
# 4 4.9067 -1.1286 -12.2869 27.6027 5.2737 2.2630
# 5 4.2302 -3.7051 11.6085 5.2737 25.9688 7.5644
# 6 -14.6799 -1.0572 -10.7903 2.2630 7.5644 30.1944
#
#
#
# Elastic Compliance Matrix: (Units=1/GPa)
#
#
# Indices 1 2 3 4 5 6 
#
# 1 0.011117 -0.003267 -0.001767 -0.002868 -0.002507 0.005502
# 2 -0.003267 0.014306 -0.002938 -0.000829 0.005026 -0.003335
# 3 -0.001767 -0.002938 0.014323 0.007968 -0.009912 0.006043
# 4 -0.002868 -0.000829 0.007968 0.042479 -0.012218 0.001301
# 5 -0.002507 0.005026 -0.009912 -0.012218 0.051363 -0.016537
# 6 0.005502 -0.003335 0.006043 0.001301 -0.016537 0.041882
#
#
# Mechanical properties :
#
#
# Convention : Reuss Voigt Hill
#
# Bulk Modulus (GPa) = 42.01496 47.45439 44.73467
# Shear Modulus (GPa) = 25.08166 31.29670 28.18918
#
# Velocity S-wave (km/s) = 3.50539 3.91568 3.71620
# Velocity P-wave (km/s) = 6.08006 6.60997 6.35055
#
# Compressibility (1/GPa) = 0.02380105
#
# Stress axis : x y z
#
# Youngs Moduli (GPa) = 89.94836 69.90131 69.81786
#
# Poissons Ratio (x) = 0.22839 0.12338
# Poissons Ratio (y) = 0.29389 0.20514
# Poissons Ratio (z) = 0.15895 0.20538
#
# Static dielectric constant tensor:
#      x y z
#    x 4.033370 -0.202120 0.415780 
#    y -0.202120 3.911180 -0.043050 
#    z 0.415780 -0.043050 3.863190 
# 
# 
# High freq. dielectric constant tensor:
#      x y z
#    x 1.797090 0.001230 0.007800 
#    y 0.001230 1.805030 0.007520 
#    z 0.007800 0.007520 1.796460 
# 
# From -- ./inp_files/207376.got.cif
#   From: 2010.06.25/outbox.cif.g09.slc.cpg/sg2_104_cif.got.tgz:207376.got - 2010.06.27 13:26:56.
