data_PCOD8010412
_publ_section_title
;
Structure prediction by ZEFSAII (Michael W. Deem and Ramdas Pophale) SiO2 
 PCOD8010412
Probable space group: P -1
;
_chemical_formula_sum "Si O2"
_cell_formula_units_Z 16
_cell_length_a 20.858244
_cell_length_b 9.375760
_cell_length_c 13.977432
_cell_angle_alpha 66.494100
_cell_angle_beta 158.387480
_cell_angle_gamma 123.521935
_cell_volume 778.717594
_symmetry_space_group_name_H-M "P -1"
_symmetry_group_IT_number 2
_symmetry_cell_setting 'triclinic'
loop_
_space_group_symop_operation_xyz
x,y,z
-x,-y,-z
loop_
_atom_site_type_symbol
_atom_site_label
_atom_site_fract_x
_atom_site_fract_y
_atom_site_fract_z
Si Si1 0.949996 0.816145 0.128905
Si Si2 0.692103 0.609406 0.668965
Si Si3 0.354112 0.229387 0.120193
Si Si4 0.738191 0.781088 0.485520
Si Si5 0.107650 0.816567 0.879532
Si Si6 0.029004 0.519247 0.692110
Si Si7 0.224772 0.646913 0.234451
Si Si8 0.693166 0.454813 0.101478
O O1 0.012873 0.667044 0.268463
O O2 0.872995 0.800654 0.916588
O O3 0.754109 0.777184 0.928892
O O4 0.150479 0.012270 0.376967
O O5 0.500000 0.500000 0.500000
O O6 0.652430 0.643639 0.495573
O O7 0.758695 0.463447 0.800343
O O8 0.591065 0.287197 0.450233
O O9 0.334339 0.370761 0.987720
O O10 0.227877 0.026164 0.951068
O O11 0.878868 0.748227 0.618161
O O12 0.534713 0.730342 0.157590
O O13 0.101356 0.685109 0.822942
O O14 0.230049 0.817993 0.144783
O O15 0.815990 0.476288 0.362187
O O16 0.200372 0.576109 0.833372
O O17 0.000000 0.500000 0.000000
#
# Coordination Sequence:
#
# PCOD8010412 Si02
#       8
#     2   2   2   2   2   2   2   2
#     4  10  21  38  60  87 118 154 197 236 293 345
#     4  12  20  37  63  83 116 161 192 231 296 353
#     4  10  21  39  60  84 121 161 187 238 297 349
#     4  11  23  39  59  87 120 155 193 241 290 356
#     4  11  23  38  59  88 120 154 196 239 295 344
#     4  10  22  40  64  85 113 155 197 250 286 342
#     4  12  21  37  59  87 122 154 191 241 290 344
#     4  10  21  42  62  84 115 154 202 239 293 344
#
# _framework density 20.546600000000002
#
# number of rings (size 3 to 8) (size 9 to 14) (size 15 to 20)
#    0.000    1.250    5.000    1.500    0.000    1.500 
#    2.250    0.000    0.000    0.000    0.000    0.000 
#    0.000    0.000    0.000    0.000    0.000    0.000 
#
# Total GULP energy -198241.772048 kJ/mol
# GULP energy per Si atom -12390.110753 kJ/mol
# Density = 2.049984 g / cm^3
# Si number density = 20.546600 Si / 1000 Ang^3
#
#
#
# Elastic Constant Matrix: (Units=GPa)
#
#
# Indices 1 2 3 4 5 6 
#
# 1 63.0229 29.8008 32.0691 1.7819 2.5750 -11.5303
# 2 29.8008 96.5543 46.8838 7.2498 -0.8186 -20.4156
# 3 32.0691 46.8838 152.7978 -3.2932 2.8743 -1.8676
# 4 1.7819 7.2498 -3.2932 31.2343 3.0819 0.0886
# 5 2.5750 -0.8186 2.8743 3.0819 31.3588 1.9342
# 6 -11.5303 -20.4156 -1.8676 0.0886 1.9342 25.9019
#
#
#
# Elastic Compliance Matrix: (Units=1/GPa)
#
#
# Indices 1 2 3 4 5 6 
#
# 1 0.020297 -0.003401 -0.003118 -0.000537 -0.001803 0.006267
# 2 -0.003401 0.016023 -0.004174 -0.004076 0.000817 0.010767
# 3 -0.003118 -0.004174 0.008487 0.002111 -0.000590 -0.004029
# 4 -0.000537 -0.004076 0.002111 0.033556 -0.003358 -0.003164
# 5 -0.001803 0.000817 -0.000590 -0.003358 0.032604 -0.002625
# 6 0.006267 0.010767 -0.004029 -0.003164 -0.002625 0.049800
#
#
# Mechanical properties :
#
#
# Convention : Reuss Voigt Hill
#
# Bulk Modulus (GPa) = 42.69475 58.87581 50.78528
# Shear Modulus (GPa) = 26.32137 31.27375 28.79756
#
# Velocity S-wave (km/s) = 3.58307 3.90563 3.74782
# Velocity P-wave (km/s) = 6.15974 7.00397 6.59538
#
# Compressibility (1/GPa) = 0.02342208
#
# Stress axis : x y z
#
# Youngs Moduli (GPa) = 49.26829 62.41014 117.82615
#
# Poissons Ratio (x) = 0.21224 0.36733
# Poissons Ratio (y) = 0.16755 0.49184
# Poissons Ratio (z) = 0.15360 0.26052
#
# Static dielectric constant tensor:
#      x y z
#    x 3.527110 -0.153740 -0.046040 
#    y -0.153740 3.905250 -0.033900 
#    z -0.046040 -0.033900 3.849170 
# 
# 
# High freq. dielectric constant tensor:
#      x y z
#    x 1.782700 -0.014530 0.003490 
#    y -0.014530 1.807640 -0.000960 
#    z 0.003490 -0.000960 1.814030 
# 
# From -- ./inp_files/188034.got.cif
#   From: 2010.06.25/outbox.cif.g09.slc.cpg/sg2_95_cif.got.tgz:188034.got - 2010.06.27 13:26:56.
