data_PCOD8010838
_publ_section_title
;
Structure prediction by ZEFSAII (Michael W. Deem and Ramdas Pophale) SiO2 
 PCOD8010838
Probable space group: P -1
;
_chemical_formula_sum "Si O2"
_cell_formula_units_Z 16
_cell_length_a 14.469511
_cell_length_b 15.146529
_cell_length_c 8.798550
_cell_angle_alpha 51.467306
_cell_angle_beta 89.548131
_cell_angle_gamma 131.630546
_cell_volume 780.913447
_symmetry_space_group_name_H-M "P -1"
_symmetry_group_IT_number 2
_symmetry_cell_setting 'triclinic'
loop_
_space_group_symop_operation_xyz
x,y,z
-x,-y,-z
loop_
_atom_site_type_symbol
_atom_site_label
_atom_site_fract_x
_atom_site_fract_y
_atom_site_fract_z
Si Si1 0.728567 0.517534 0.453542
Si Si2 0.259584 0.892463 0.429361
Si Si3 0.786767 0.689353 0.711467
Si Si4 0.838419 0.819352 0.905339
Si Si5 0.533877 0.676720 0.103708
Si Si6 0.336342 0.870945 0.741980
Si Si7 0.422517 0.855060 0.299130
Si Si8 0.882898 0.573771 0.691008
O O1 0.552106 0.396967 0.648664
O O2 0.686328 0.368032 0.507246
O O3 0.845165 0.596520 0.508460
O O4 0.839533 0.721223 0.133572
O O5 0.219399 0.829501 0.677970
O O6 0.298479 0.813734 0.434271
O O7 0.092350 0.772234 0.478477
O O8 0.423811 0.151587 0.137981
O O9 0.758659 0.695053 0.879162
O O10 0.607657 0.529484 0.788797
O O11 0.825245 0.595634 0.805726
O O12 0.956094 0.930125 0.378096
O O13 0.713208 0.791171 0.992210
O O14 0.500000 0.000000 0.500000
O O15 0.416553 0.019444 0.727842
O O16 0.219977 0.649768 0.050303
O O17 0.500000 0.000000 0.000000
#
# Coordination Sequence:
#
# PCOD8010838 Si02
#       8
#     2   2   2   2   2   2   2   2
#     4  11  24  40  67  91 130 173 201 263 323 377
#     4  11  23  39  66  91 127 168 209 260 313 382
#     4  10  23  42  66  90 130 163 215 273 309 371
#     4  11  24  43  65  95 124 167 218 265 318 375
#     4  11  22  44  65  94 126 170 212 260 323 376
#     4  10  21  38  64  90 122 170 207 255 316 372
#     4  11  20  41  60  92 128 160 209 255 317 377
#     4  11  22  42  61  93 130 167 208 259 320 378
#
# _framework density 20.488827000000001
#
# number of rings (size 3 to 8) (size 9 to 14) (size 15 to 20)
#    0.000    1.250    3.750    3.375    5.250    2.500 
#    2.250    0.000    0.000    0.000    0.000    0.000 
#    0.000    0.000    0.000    0.000    0.000    0.000 
#
# Total GULP energy -198379.921766 kJ/mol
# GULP energy per Si atom -12398.745110 kJ/mol
# Density = 2.044219 g / cm^3
# Si number density = 20.488827 Si / 1000 Ang^3
#
#
#
# Elastic Constant Matrix: (Units=GPa)
#
#
# Indices 1 2 3 4 5 6 
#
# 1 81.5446 44.1306 35.4838 1.2207 3.2098 3.5048
# 2 44.1306 109.6768 35.6076 1.1877 2.2172 -0.3568
# 3 35.4838 35.6076 97.7729 8.9647 10.9510 14.5358
# 4 1.2207 1.1877 8.9647 31.8712 2.4427 4.9575
# 5 3.2098 2.2172 10.9510 2.4427 28.7636 -1.3075
# 6 3.5048 -0.3568 14.5358 4.9575 -1.3075 26.4525
#
#
#
# Elastic Compliance Matrix: (Units=1/GPa)
#
#
# Indices 1 2 3 4 5 6 
#
# 1 0.017084 -0.005504 -0.004252 0.000764 0.000065 -0.000141
# 2 -0.005504 0.012284 -0.002967 0.000122 0.000902 0.002547
# 3 -0.004252 -0.002967 0.014728 -0.002335 -0.005041 -0.007381
# 4 0.000764 0.000122 -0.002335 0.032965 -0.002237 -0.005105
# 5 0.000065 0.000902 -0.005041 -0.002237 0.037027 0.005023
# 6 -0.000141 0.002547 -0.007381 -0.005105 0.005023 0.043118
#
#
# Mechanical properties :
#
#
# Convention : Reuss Voigt Hill
#
# Bulk Modulus (GPa) = 53.62014 57.71536 55.66775
# Shear Modulus (GPa) = 26.47347 29.00230 27.73788
#
# Velocity S-wave (km/s) = 3.59847 3.76642 3.68340
# Velocity P-wave (km/s) = 6.59489 6.86621 6.73192
#
# Compressibility (1/GPa) = 0.01864971
#
# Stress axis : x y z
#
# Youngs Moduli (GPa) = 58.53404 81.40472 67.89918
#
# Poissons Ratio (x) = 0.44802 0.28872
# Poissons Ratio (y) = 0.32215 0.20148
# Poissons Ratio (z) = 0.24890 0.24156
#
# Static dielectric constant tensor:
#      x y z
#    x 3.778120 0.002830 0.261850 
#    y 0.002830 4.355110 0.117000 
#    z 0.261850 0.117000 3.997270 
# 
# 
# High freq. dielectric constant tensor:
#      x y z
#    x 1.788330 0.001380 0.006450 
#    y 0.001380 1.813440 -0.004300 
#    z 0.006450 -0.004300 1.806060 
# 
# From -- ./inp_files/312544.got.cif
#   From: 2010.06.25/outbox.cif.g09.slc.cpg/sg2_157_cif.got.tgz:312544.got - 2010.06.27 13:26:56.
