data_PCOD8010387
_publ_section_title
;
Structure prediction by ZEFSAII (Michael W. Deem and Ramdas Pophale) SiO2 
 PCOD8010387
Probable space group: P -1
;
_chemical_formula_sum "Si O2"
_cell_formula_units_Z 16
_cell_length_a 28.249396
_cell_length_b 10.851211
_cell_length_c 13.754580
_cell_angle_alpha 29.525653
_cell_angle_beta 156.701125
_cell_angle_gamma 146.023157
_cell_volume 812.004428
_symmetry_space_group_name_H-M "P -1"
_symmetry_group_IT_number 2
_symmetry_cell_setting 'triclinic'
loop_
_space_group_symop_operation_xyz
x,y,z
-x,-y,-z
loop_
_atom_site_type_symbol
_atom_site_label
_atom_site_fract_x
_atom_site_fract_y
_atom_site_fract_z
Si Si1 0.031012 0.495376 0.447647
Si Si2 0.387892 0.639958 0.170379
Si Si3 0.219260 0.490910 0.123397
Si Si4 0.783905 0.049306 0.590913
Si Si5 0.770770 0.790673 0.945182
Si Si6 0.574959 0.075097 0.451368
Si Si7 0.400947 0.636031 0.516848
Si Si8 0.469040 0.834186 0.917214
O O1 0.104150 0.761970 0.369398
O O2 0.000000 0.500000 0.500000
O O3 0.109744 0.269990 0.732370
O O4 0.913146 0.441518 0.194472
O O5 0.500000 0.500000 0.500000
O O6 0.312935 0.660939 0.112375
O O7 0.302862 0.481246 0.039641
O O8 0.438805 0.923077 0.035720
O O9 0.263632 0.564766 0.266009
O O10 0.228187 0.196775 0.329975
O O11 0.660885 0.172148 0.272466
O O12 0.811748 0.968394 0.808407
O O13 0.691364 0.929608 0.773181
O O14 0.604931 0.323789 0.405520
O O15 0.545719 0.155503 0.233407
O O16 0.459187 0.896403 0.397904
O O17 0.479004 0.418399 0.783449
#
# Coordination Sequence:
#
# PCOD8010387 Si02
#       8
#     2   2   2   2   2   2   2   2
#     4  12  23  38  59  85 116 158 197 233 296 348
#     4  11  17  35  58  88 119 146 179 247 302 339
#     4  11  22  37  55  86 124 149 196 239 285 348
#     4  10  22  36  58  89 117 151 188 241 292 354
#     4  10  21  38  60  83 120 157 189 241 292 347
#     4  10  21  41  59  83 124 152 199 239 289 348
#     4  11  23  36  59  89 117 161 192 242 287 343
#     4  11  21  37  64  88 120 152 194 235 300 363
#
# _framework density 19.704325999999998
#
# number of rings (size 3 to 8) (size 9 to 14) (size 15 to 20)
#    0.000    1.250    7.500    1.500    1.750    0.500 
#    0.000    0.625    0.000    3.000    0.000    0.000 
#    0.000    0.000    0.000    0.000    0.000    0.000 
#
# Total GULP energy -198392.131068 kJ/mol
# GULP energy per Si atom -12399.508192 kJ/mol
# Density = 1.965948 g / cm^3
# Si number density = 19.704326 Si / 1000 Ang^3
#
#
#
# Elastic Constant Matrix: (Units=GPa)
#
#
# Indices 1 2 3 4 5 6 
#
# 1 54.7058 33.2049 23.6782 11.8685 1.1833 5.7821
# 2 33.2049 83.3878 39.5685 7.8533 0.5227 6.8202
# 3 23.6782 39.5685 132.1192 18.0390 -0.7987 -14.1314
# 4 11.8685 7.8533 18.0390 25.8080 1.6334 5.4496
# 5 1.1833 0.5227 -0.7987 1.6334 22.1128 -2.7276
# 6 5.7821 6.8202 -14.1314 5.4496 -2.7276 31.0739
#
#
#
# Elastic Compliance Matrix: (Units=1/GPa)
#
#
# Indices 1 2 3 4 5 6 
#
# 1 0.026191 -0.008951 -0.001149 -0.008016 -0.000899 -0.002104
# 2 -0.008951 0.017931 -0.004735 0.003098 -0.000968 -0.005051
# 3 -0.001149 -0.004735 0.011070 -0.007546 0.002092 0.007794
# 4 -0.008016 0.003098 -0.007546 0.049566 -0.005028 -0.011754
# 5 -0.000899 -0.000968 0.002092 -0.005028 0.046517 0.006296
# 6 -0.002104 -0.005051 0.007794 -0.011754 0.006296 0.039840
#
#
# Mechanical properties :
#
#
# Convention : Reuss Voigt Hill
#
# Bulk Modulus (GPa) = 39.18371 51.45733 45.32052
# Shear Modulus (GPa) = 21.80614 27.38302 24.59458
#
# Velocity S-wave (km/s) = 3.33027 3.73191 3.53679
# Velocity P-wave (km/s) = 5.89208 6.68887 6.30308
#
# Compressibility (1/GPa) = 0.02552081
#
# Stress axis : x y z
#
# Youngs Moduli (GPa) = 38.18076 55.76979 90.33752
#
# Poissons Ratio (x) = 0.49921 0.10381
# Poissons Ratio (y) = 0.34177 0.42775
# Poissons Ratio (z) = 0.04387 0.26407
#
# Static dielectric constant tensor:
#      x y z
#    x 3.389850 -0.433790 -0.327330 
#    y -0.433790 3.110660 -0.445680 
#    z -0.327330 -0.445680 3.305440 
# 
# 
# High freq. dielectric constant tensor:
#      x y z
#    x 1.755650 0.015210 -0.005310 
#    y 0.015210 1.753960 -0.004190 
#    z -0.005310 -0.004190 1.774660 
# 
# From -- ./inp_files/544947.got.cif
#   From: 2010.06.25/outbox.cif.g09.slc.cpg/sg2_273_cif.got.tgz:544947.got - 2010.06.27 13:26:56.
