data_PCOD8010408
_publ_section_title
;
Structure prediction by ZEFSAII (Michael W. Deem and Ramdas Pophale) SiO2 
 PCOD8010408
Probable space group: P -1
;
_chemical_formula_sum "Si O2"
_cell_formula_units_Z 16
_cell_length_a 14.835236
_cell_length_b 14.272766
_cell_length_c 13.989401
_cell_angle_alpha 43.082561
_cell_angle_beta 152.473036
_cell_angle_gamma 146.266482
_cell_volume 759.949599
_symmetry_space_group_name_H-M "P -1"
_symmetry_group_IT_number 2
_symmetry_cell_setting 'triclinic'
loop_
_space_group_symop_operation_xyz
x,y,z
-x,-y,-z
loop_
_atom_site_type_symbol
_atom_site_label
_atom_site_fract_x
_atom_site_fract_y
_atom_site_fract_z
Si Si1 0.070951 0.321131 0.162686
Si Si2 0.547767 0.591137 0.694052
Si Si3 0.215456 0.313370 0.723253
Si Si4 0.023073 0.151678 0.965071
Si Si5 0.103285 0.495216 0.243884
Si Si6 0.846894 0.551004 0.262832
Si Si7 0.757898 0.989096 0.019485
Si Si8 0.763611 0.291497 0.240078
O O1 0.317946 0.413984 0.267609
O O2 0.126070 0.371383 0.288396
O O3 0.918548 0.119574 0.157914
O O4 0.904119 0.372877 0.925277
O O5 0.414667 0.410489 0.756154
O O6 0.720723 0.741782 0.818005
O O7 0.335945 0.605402 0.448470
O O8 0.311261 0.429755 0.822796
O O9 0.160333 0.133525 0.823250
O O10 0.961519 0.277842 0.485269
O O11 0.995498 0.271340 0.779617
O O12 0.814505 0.082541 0.900379
O O13 0.000000 0.000000 0.000000
O O14 0.859813 0.381774 0.160953
O O15 0.692205 0.399090 0.154672
O O16 0.000000 0.500000 0.500000
O O17 0.480925 0.894963 0.858900
#
# Coordination Sequence:
#
# PCOD8010408 Si02
#       8
#     2   2   2   2   2   2   2   2
#     4  10  22  39  64  91 122 156 210 264 317 366
#     4  10  22  39  65  87 122 165 210 250 311 380
#     4  10  21  38  60  86 123 166 204 252 300 375
#     4  11  22  37  60  93 126 161 206 258 311 358
#     4  10  21  43  64  87 119 166 210 259 309 377
#     4  10  21  40  60  86 124 172 208 241 304 379
#     4  11  22  37  59  91 127 155 198 264 313 357
#     4  10  22  38  60  88 123 163 211 243 308 377
#
# _framework density 21.054027999999999
#
# number of rings (size 3 to 8) (size 9 to 14) (size 15 to 20)
#    0.000    1.750    1.250    3.375    1.750    3.500 
#    0.000    5.000    0.000    0.000    0.000    0.000 
#    0.000    0.000    0.000    0.000    0.000    0.000 
#
# Total GULP energy -198363.381159 kJ/mol
# GULP energy per Si atom -12397.711322 kJ/mol
# Density = 2.100611 g / cm^3
# Si number density = 21.054028 Si / 1000 Ang^3
#
#
#
# Elastic Constant Matrix: (Units=GPa)
#
#
# Indices 1 2 3 4 5 6 
#
# 1 121.6963 49.1319 22.4657 14.3904 4.8750 -1.9177
# 2 49.1319 113.8979 42.4853 6.9036 1.5403 3.4375
# 3 22.4657 42.4853 72.5561 4.4100 -7.6565 2.3419
# 4 14.3904 6.9036 4.4100 31.7676 5.9698 2.6416
# 5 4.8750 1.5403 -7.6565 5.9698 28.4388 0.5138
# 6 -1.9177 3.4375 2.3419 2.6416 0.5138 33.4340
#
#
#
# Elastic Compliance Matrix: (Units=1/GPa)
#
#
# Indices 1 2 3 4 5 6 
#
# 1 0.010493 -0.004023 -0.000826 -0.003681 -0.001055 0.001380
# 2 -0.004023 0.012992 -0.006540 0.000342 -0.001827 -0.001107
# 3 -0.000826 -0.006540 0.018623 -0.001849 0.005909 -0.000624
# 4 -0.003681 0.000342 -0.001849 0.034904 -0.007162 -0.002765
# 5 -0.001055 -0.001827 0.005909 -0.007162 0.038543 -0.000313
# 6 0.001380 -0.001107 -0.000624 -0.002765 -0.000313 0.030370
#
#
# Mechanical properties :
#
#
# Convention : Reuss Voigt Hill
#
# Bulk Modulus (GPa) = 51.72694 59.59067 55.65880
# Shear Modulus (GPa) = 28.54780 31.66592 30.10686
#
# Velocity S-wave (km/s) = 3.68629 3.88239 3.78561
# Velocity P-wave (km/s) = 6.53761 6.96150 6.75288
#
# Compressibility (1/GPa) = 0.01933229
#
# Stress axis : x y z
#
# Youngs Moduli (GPa) = 95.30246 76.97201 53.69575
#
# Poissons Ratio (x) = 0.30963 0.04434
# Poissons Ratio (y) = 0.38336 0.35115
# Poissons Ratio (z) = 0.07869 0.50337
#
# Static dielectric constant tensor:
#      x y z
#    x 4.137430 -0.072160 -0.122190 
#    y -0.072160 3.809270 -0.019300 
#    z -0.122190 -0.019300 3.681720 
# 
# 
# High freq. dielectric constant tensor:
#      x y z
#    x 1.835140 0.002210 -0.001760 
#    y 0.002210 1.817500 -0.002510 
#    z -0.001760 -0.002510 1.821310 
# 
# From -- ./inp_files/534291.got.cif
#   From: 2010.06.25/outbox.cif.g09.slc.cpg/sg2_268_cif.got.tgz:534291.got - 2010.06.27 13:26:56.
