data_PCOD8010697
_publ_section_title
;
Structure prediction by ZEFSAII (Michael W. Deem and Ramdas Pophale) SiO2 
 PCOD8010697
Probable space group: P -1
;
_chemical_formula_sum "Si O2"
_cell_formula_units_Z 14
_cell_length_a 16.866374
_cell_length_b 12.069936
_cell_length_c 13.874815
_cell_angle_alpha 134.605291
_cell_angle_beta 156.190984
_cell_angle_gamma 37.420059
_cell_volume 689.444649
_symmetry_space_group_name_H-M "P -1"
_symmetry_group_IT_number 2
_symmetry_cell_setting 'triclinic'
loop_
_space_group_symop_operation_xyz
x,y,z
-x,-y,-z
loop_
_atom_site_type_symbol
_atom_site_label
_atom_site_fract_x
_atom_site_fract_y
_atom_site_fract_z
Si Si1 0.658457 0.144636 0.411641
Si Si2 0.788111 0.765564 0.387697
Si Si3 0.746219 0.450459 0.493135
Si Si4 0.904404 0.873257 0.194831
Si Si5 0.540722 0.212428 0.114365
Si Si6 0.740183 0.659219 0.786646
Si Si7 0.288734 0.478881 0.723115
O O1 0.559755 0.123690 0.186363
O O2 0.456949 0.328432 0.353189
O O3 0.885093 0.151793 0.650652
O O4 0.718616 0.974726 0.444066
O O5 0.670682 0.714523 0.312098
O O6 0.064264 0.641354 0.626012
O O7 0.702195 0.729007 0.167916
O O8 0.556002 0.392683 0.254746
O O9 0.673612 0.629336 0.587475
O O10 0.757466 0.509000 0.433978
O O11 0.993064 0.278886 0.698843
O O12 0.755486 0.072390 0.198831
O O13 0.739244 0.845944 0.921049
O O14 0.000000 0.500000 0.000000
O O15 0.500000 0.500000 0.000000
#
# Coordination Sequence:
#
# PCOD8010697 Si02
#       7
#     2   2   2   2   2   2   2
#     4  11  22  37  62  92 127 154 198 249 304 364
#     4  11  23  36  63  92 113 158 202 251 305 343
#     4  10  21  39  60  86 125 158 198 242 301 352
#     4  10  21  38  62  95 122 154 191 253 313 359
#     4  11  20  36  66  94 119 150 200 255 311 354
#     4  10  23  38  58  92 127 161 194 238 311 366
#     4  11  23  41  59  86 122 159 205 255 287 349
#
# _framework density 20.306198999999999
#
# number of rings (size 3 to 8) (size 9 to 14) (size 15 to 20)
#    0.000    1.429    2.857    3.857    4.000    5.143 
#    0.000    0.714    0.000    1.714    0.000    0.000 
#    0.000    0.000    0.000    0.000    0.000    0.000 
#
# Total GULP energy -173514.212551 kJ/mol
# GULP energy per Si atom -12393.872325 kJ/mol
# Density = 2.025998 g / cm^3
# Si number density = 20.306199 Si / 1000 Ang^3
#
#
#
# Elastic Constant Matrix: (Units=GPa)
#
#
# Indices 1 2 3 4 5 6 
#
# 1 136.9426 58.5133 44.2551 -0.7902 1.0133 3.4520
# 2 58.5133 63.5205 29.3178 2.7988 -7.7147 2.8368
# 3 44.2551 29.3178 102.8891 5.6897 3.2423 -7.2280
# 4 -0.7902 2.7988 5.6897 29.1241 -13.4842 -2.7805
# 5 1.0133 -7.7147 3.2423 -13.4842 28.0057 -7.6099
# 6 3.4520 2.8368 -7.2280 -2.7805 -7.6099 39.7959
#
#
#
# Elastic Compliance Matrix: (Units=1/GPa)
#
#
# Indices 1 2 3 4 5 6 
#
# 1 0.012904 -0.011180 -0.002355 0.000064 -0.003634 -0.001441
# 2 -0.011180 0.028923 -0.003858 0.002339 0.010023 0.000287
# 3 -0.002355 -0.003858 0.012270 -0.003619 -0.003664 0.001754
# 4 0.000064 0.002339 -0.003619 0.047566 0.025991 0.007464
# 5 -0.003634 0.010023 -0.003664 0.025991 0.054578 0.011188
# 6 -0.001441 0.000287 0.001754 0.007464 0.011188 0.028212
#
#
# Mechanical properties :
#
#
# Convention : Reuss Voigt Hill
#
# Bulk Modulus (GPa) = 51.77997 63.05830 57.41914
# Shear Modulus (GPa) = 22.15565 30.80286 26.47926
#
# Velocity S-wave (km/s) = 3.30673 3.89899 3.61501
# Velocity P-wave (km/s) = 6.33516 7.16873 6.76479
#
# Compressibility (1/GPa) = 0.01931249
#
# Stress axis : x y z
#
# Youngs Moduli (GPa) = 77.49669 34.57416 81.49796
#
# Poissons Ratio (x) = 0.38653 0.19192
# Poissons Ratio (y) = 0.86638 0.31441
# Poissons Ratio (z) = 0.18250 0.13339
#
# Static dielectric constant tensor:
#      x y z
#    x 3.743110 -0.041340 -0.019380 
#    y -0.041340 3.781210 0.142750 
#    z -0.019380 0.142750 3.932010 
# 
# 
# High freq. dielectric constant tensor:
#      x y z
#    x 1.785080 -0.000550 0.018520 
#    y -0.000550 1.773570 0.004060 
#    z 0.018520 0.004060 1.800180 
# 
# From -- ./inp_files/451850.got.cif
#   From: 2010.06.25/outbox.cif.g09.slc.cpg/sg2_226_cif.got.tgz:451850.got - 2010.06.27 13:26:56.
