data_PCOD8010870
_publ_section_title
;
Structure prediction by ZEFSAII (Michael W. Deem and Ramdas Pophale) SiO2 
 PCOD8010870
Probable space group: P -1
;
_chemical_formula_sum "Si O2"
_cell_formula_units_Z 16
_cell_length_a 16.183402
_cell_length_b 16.738500
_cell_length_c 11.711825
_cell_angle_alpha 44.846528
_cell_angle_beta 35.438852
_cell_angle_gamma 25.270924
_cell_volume 780.351054
_symmetry_space_group_name_H-M "P -1"
_symmetry_group_IT_number 2
_symmetry_cell_setting 'triclinic'
loop_
_space_group_symop_operation_xyz
x,y,z
-x,-y,-z
loop_
_atom_site_type_symbol
_atom_site_label
_atom_site_fract_x
_atom_site_fract_y
_atom_site_fract_z
Si Si1 0.171474 0.074135 0.491499
Si Si2 0.702476 0.977205 0.357093
Si Si3 0.896350 0.060035 0.680442
Si Si4 0.897796 0.654962 0.819136
Si Si5 0.723946 0.705464 0.615478
Si Si6 0.291731 0.231818 0.841369
Si Si7 0.634852 0.629614 0.011626
Si Si8 0.072211 0.191745 0.970654
O O1 0.064839 0.265992 0.390814
O O2 0.010318 0.083730 0.605108
O O3 0.167439 0.044880 0.661016
O O4 0.436786 0.905164 0.315001
O O5 0.439114 0.201296 0.410176
O O6 0.683981 0.860026 0.541341
O O7 0.847601 0.891256 0.163251
O O8 0.617069 0.260023 0.780962
O O9 0.000000 0.000000 0.500000
O O10 0.952432 0.903334 0.829735
O O11 0.709568 0.682716 0.958061
O O12 0.152889 0.435507 0.765554
O O13 0.802258 0.761398 0.940472
O O14 0.610150 0.695087 0.846262
O O15 0.000000 0.500000 0.500000
O O16 0.257614 0.160600 0.852094
O O17 0.816313 0.411182 0.030793
#
# Coordination Sequence:
#
# PCOD8010870 Si02
#       8
#     2   2   2   2   2   2   2   2
#     4  12  24  38  62  92 128 164 206 260 316 369
#     4  11  23  37  64  96 127 157 208 260 316 381
#     4  12  27  45  63  88 130 177 212 252 312 381
#     4  10  21  38  64  93 122 155 215 269 316 355
#     4  11  20  37  67  98 126 163 202 262 323 369
#     4  10  21  39  64  93 119 160 212 271 309 366
#     4  11  22  41  67  94 125 163 213 260 313 377
#     4  11  23  43  66  92 124 167 212 260 316 373
#
# _framework density 20.503592000000001
#
# number of rings (size 3 to 8) (size 9 to 14) (size 15 to 20)
#    0.000    1.000    3.750    4.125    1.750    2.000 
#    0.000    0.625    0.000    0.000    0.000    0.000 
#    0.000    0.000    0.000    0.000    0.000    0.000 
#
# Total GULP energy -198390.426787 kJ/mol
# GULP energy per Si atom -12399.401674 kJ/mol
# Density = 2.045692 g / cm^3
# Si number density = 20.503592 Si / 1000 Ang^3
#
#
#
# Elastic Constant Matrix: (Units=GPa)
#
#
# Indices 1 2 3 4 5 6 
#
# 1 108.7719 41.3595 25.5511 4.2548 7.0877 -1.6787
# 2 41.3595 130.5845 50.2030 -1.6371 -2.6008 -20.3084
# 3 25.5511 50.2030 87.3764 6.7902 6.9876 -0.1163
# 4 4.2548 -1.6371 6.7902 26.9581 -4.7932 3.8900
# 5 7.0877 -2.6008 6.9876 -4.7932 41.3149 5.2646
# 6 -1.6787 -20.3084 -0.1163 3.8900 5.2646 28.6446
#
#
#
# Elastic Compliance Matrix: (Units=1/GPa)
#
#
# Indices 1 2 3 4 5 6 
#
# 1 0.010862 -0.003295 -0.000981 -0.001863 -0.001983 -0.001086
# 2 -0.003295 0.012519 -0.006511 0.002051 0.001664 0.008072
# 3 -0.000981 -0.006511 0.016045 -0.004317 -0.003014 -0.003468
# 4 -0.001863 0.002051 -0.004317 0.040546 0.006569 -0.005386
# 5 -0.001983 0.001664 -0.003014 0.006569 0.026522 -0.004715
# 6 -0.001086 0.008072 -0.003468 -0.005386 -0.004715 0.042154
#
#
# Mechanical properties :
#
#
# Convention : Reuss Voigt Hill
#
# Bulk Modulus (GPa) = 56.01900 62.32890 59.17395
# Shear Modulus (GPa) = 28.38140 33.35814 30.86977
#
# Velocity S-wave (km/s) = 3.72454 4.03791 3.88439
# Velocity P-wave (km/s) = 6.77327 7.22528 7.00292
#
# Compressibility (1/GPa) = 0.01785109
#
# Stress axis : x y z
#
# Youngs Moduli (GPa) = 92.06236 79.88050 62.32614
#
# Poissons Ratio (x) = 0.26319 0.06117
# Poissons Ratio (y) = 0.30332 0.40581
# Poissons Ratio (z) = 0.09036 0.52010
#
# Static dielectric constant tensor:
#      x y z
#    x 3.939730 -0.260110 0.314250 
#    y -0.260110 3.985560 -0.065300 
#    z 0.314250 -0.065300 3.721530 
# 
# 
# High freq. dielectric constant tensor:
#      x y z
#    x 1.802960 -0.016990 0.023850 
#    y -0.016990 1.817620 0.000740 
#    z 0.023850 0.000740 1.789180 
# 
# From -- ./inp_files/455527.got.cif
#   From: 2010.06.25/outbox.cif.g09.slc.cpg/sg2_228_cif.got.tgz:455527.got - 2010.06.27 13:26:56.
