data_PCOD8010782
_publ_section_title
;
Structure prediction by ZEFSAII (Michael W. Deem and Ramdas Pophale) SiO2 
 PCOD8010782
Probable space group: P -1
;
_chemical_formula_sum "Si O2"
_cell_formula_units_Z 16
_cell_length_a 9.435614
_cell_length_b 14.524737
_cell_length_c 12.709645
_cell_angle_alpha 111.005832
_cell_angle_beta 46.581853
_cell_angle_gamma 141.266892
_cell_volume 728.617376
_symmetry_space_group_name_H-M "P -1"
_symmetry_group_IT_number 2
_symmetry_cell_setting 'triclinic'
loop_
_space_group_symop_operation_xyz
x,y,z
-x,-y,-z
loop_
_atom_site_type_symbol
_atom_site_label
_atom_site_fract_x
_atom_site_fract_y
_atom_site_fract_z
Si Si1 0.673730 0.757088 0.505191
Si Si2 0.632504 0.453171 0.608737
Si Si3 0.303349 0.674093 0.299438
Si Si4 0.668791 0.466969 0.224819
Si Si5 0.387780 0.054996 0.311895
Si Si6 0.616063 0.235411 0.056572
Si Si7 0.366319 0.997544 0.671261
Si Si8 0.779716 0.866003 0.966252
O O1 0.652180 0.711587 0.377881
O O2 0.432615 0.595866 0.630309
O O3 0.577831 0.833598 0.589533
O O4 0.024517 0.879457 0.418492
O O5 0.685272 0.420755 0.678204
O O6 0.550509 0.533344 0.708940
O O7 0.944688 0.567129 0.423366
O O8 0.487953 0.835758 0.328856
O O9 0.457263 0.703024 0.121477
O O10 0.604165 0.346142 0.136979
O O11 0.031310 0.648316 0.114704
O O12 0.534033 0.131557 0.153298
O O13 0.565494 0.037398 0.272515
O O14 0.349914 0.112245 0.050923
O O15 0.500000 0.000000 0.500000
O O16 0.983922 0.859391 0.805301
O O17 0.000000 0.000000 0.000000
#
# Coordination Sequence:
#
# PCOD8010782 Si02
#       8
#     2   2   2   2   2   2   2   2
#     4  10  21  38  63  93 130 157 224 276 318 378
#     4  11  22  38  67  89 128 177 218 266 316 402
#     4  10  24  42  59  95 135 166 223 259 330 386
#     4  10  22  40  67  92 128 172 224 262 336 381
#     4  10  23  38  66  99 123 166 224 267 326 384
#     4  10  23  43  65  95 135 166 218 281 320 393
#     4  11  24  41  69  93 131 173 216 264 331 393
#     4  10  24  42  63  90 138 169 207 275 335 373
#
# _framework density 21.959399999999999
#
# number of rings (size 3 to 8) (size 9 to 14) (size 15 to 20)
#    0.000    1.750    0.000    2.625   12.250    2.000 
#    0.000    3.750    0.000    0.000    0.000    0.000 
#    0.000    0.000    0.000    0.000    0.000    0.000 
#
# Total GULP energy -198362.387130 kJ/mol
# GULP energy per Si atom -12397.649196 kJ/mol
# Density = 2.190942 g / cm^3
# Si number density = 21.959400 Si / 1000 Ang^3
#
#
#
# Elastic Constant Matrix: (Units=GPa)
#
#
# Indices 1 2 3 4 5 6 
#
# 1 125.4240 26.0817 57.3160 -14.4434 -13.4745 2.1683
# 2 26.0817 47.2303 25.6165 -4.9322 1.8116 -4.3593
# 3 57.3160 25.6165 145.7807 -21.6889 -6.7754 -6.0271
# 4 -14.4434 -4.9322 -21.6889 28.4069 0.0524 4.3963
# 5 -13.4745 1.8116 -6.7754 0.0524 35.2722 8.0672
# 6 2.1683 -4.3593 -6.0271 4.3963 8.0672 25.0997
#
#
#
# Elastic Compliance Matrix: (Units=1/GPa)
#
#
# Indices 1 2 3 4 5 6 
#
# 1 0.011427 -0.004926 -0.003093 0.003329 0.005120 -0.004814
# 2 -0.004926 0.026057 -0.002784 -0.001044 -0.005153 0.006122
# 3 -0.003093 -0.002784 0.009365 0.004939 0.000525 0.000999
# 4 0.003329 -0.001044 0.004939 0.041697 0.004013 -0.007876
# 5 0.005120 -0.005153 0.000525 0.004013 0.033572 -0.012705
# 6 -0.004814 0.006122 0.000999 -0.007876 -0.012705 0.047023
#
#
# Mechanical properties :
#
#
# Convention : Reuss Voigt Hill
#
# Bulk Modulus (GPa) = 39.61335 59.60701 49.61018
# Shear Modulus (GPa) = 25.10529 31.71715 28.41122
#
# Velocity S-wave (km/s) = 3.38488 3.80459 3.60085
# Velocity P-wave (km/s) = 5.77539 6.81931 6.31894
#
# Compressibility (1/GPa) = 0.02524401
#
# Stress axis : x y z
#
# Youngs Moduli (GPa) = 87.50844 38.37798 106.77691
#
# Poissons Ratio (x) = 0.18905 0.33027
# Poissons Ratio (y) = 0.43107 0.29722
# Poissons Ratio (z) = 0.27067 0.10683
#
# Static dielectric constant tensor:
#      x y z
#    x 3.883180 0.018800 -0.184140 
#    y 0.018800 3.768070 -0.215480 
#    z -0.184140 -0.215480 4.410410 
# 
# 
# High freq. dielectric constant tensor:
#      x y z
#    x 1.868090 0.003770 -0.004560 
#    y 0.003770 1.845120 -0.011090 
#    z -0.004560 -0.011090 1.877370 
# 
# From -- ./inp_files/386640.got.cif
#   From: 2010.06.25/outbox.cif.g09.slc.cpg/sg2_194_cif.got.tgz:386640.got - 2010.06.27 13:26:56.
