data_PCOD8010084
_publ_section_title
;
Structure prediction by ZEFSAII (Michael W. Deem and Ramdas Pophale) SiO2 
 PCOD8010084
Probable space group: P -1
;
_chemical_formula_sum "Si O2"
_cell_formula_units_Z 14
_cell_length_a 27.256654
_cell_length_b 9.373501
_cell_length_c 12.420718
_cell_angle_alpha 36.699804
_cell_angle_beta 26.580219
_cell_angle_gamma 30.819201
_cell_volume 719.542161
_symmetry_space_group_name_H-M "P -1"
_symmetry_group_IT_number 2
_symmetry_cell_setting 'triclinic'
loop_
_space_group_symop_operation_xyz
x,y,z
-x,-y,-z
loop_
_atom_site_type_symbol
_atom_site_label
_atom_site_fract_x
_atom_site_fract_y
_atom_site_fract_z
Si Si1 0.540946 0.348534 0.673927
Si Si2 0.373105 0.329468 0.835343
Si Si3 0.195531 0.172608 0.538674
Si Si4 0.038037 0.240533 0.009232
Si Si5 0.141344 0.936883 0.591205
Si Si6 0.887553 0.339526 0.748901
Si Si7 0.425973 0.724729 0.102889
O O1 0.418094 0.400611 0.816195
O O2 0.589448 0.549343 0.412887
O O3 0.510086 0.409776 0.824724
O O4 0.649256 0.017602 0.644638
O O5 0.217865 0.485177 0.056675
O O6 0.435029 0.997353 0.897783
O O7 0.148322 0.476016 0.398764
O O8 0.137677 0.225438 0.737205
O O9 0.152458 0.996822 0.657576
O O10 0.907595 0.281336 0.186178
O O11 0.000000 0.500000 0.000000
O O12 0.111461 0.945560 0.109507
O O13 0.276971 0.811974 0.339904
O O14 0.032147 0.236706 0.570668
O O15 0.500000 0.500000 0.000000
#
# Coordination Sequence:
#
# PCOD8010084 Si02
#       7
#     2   2   2   2   2   2   2
#     4  10  22  39  64  92 114 168 203 245 298 354
#     4  11  21  40  66  88 121 157 212 246 288 371
#     4  11  19  37  67  85 117 158 204 242 294 359
#     4  10  23  38  55  91 126 149 192 250 304 349
#     4   9  21  40  60  88 119 155 201 242 293 358
#     4  10  21  37  65  91 114 154 208 238 297 357
#     4  11  24  41  61  92 125 157 198 255 306 352
#
# _framework density 19.456816
#
# number of rings (size 3 to 8) (size 9 to 14) (size 15 to 20)
#    0.857    0.857    4.286    1.286    0.000    2.286 
#    0.000    0.000    0.000    0.000    0.000    0.000 
#    0.000    0.000    0.000    0.000    0.000    0.000 
#
# Total GULP energy -173507.500283 kJ/mol
# GULP energy per Si atom -12393.392877 kJ/mol
# Density = 1.941253 g / cm^3
# Si number density = 19.456816 Si / 1000 Ang^3
#
#
#
# Elastic Constant Matrix: (Units=GPa)
#
#
# Indices 1 2 3 4 5 6 
#
# 1 73.1456 49.6808 33.4068 10.9053 18.5206 6.1628
# 2 49.6808 100.8322 22.4440 5.3022 11.3057 17.9417
# 3 33.4068 22.4440 52.1310 14.6048 8.2397 7.2250
# 4 10.9053 5.3022 14.6048 33.2806 -1.2392 1.3441
# 5 18.5206 11.3057 8.2397 -1.2392 25.6793 4.5216
# 6 6.1628 17.9417 7.2250 1.3441 4.5216 36.6771
#
#
#
# Elastic Compliance Matrix: (Units=1/GPa)
#
#
# Indices 1 2 3 4 5 6 
#
# 1 0.030809 -0.011527 -0.012165 -0.003643 -0.014254 0.004749
# 2 -0.011527 0.016314 0.000563 0.001272 0.002150 -0.006466
# 3 -0.012165 0.000563 0.029941 -0.009127 -0.000873 -0.003687
# 4 -0.003643 0.001272 -0.009127 0.035309 0.006759 -0.000340
# 5 -0.014254 0.002150 -0.000873 0.006759 0.049738 -0.004865
# 6 0.004749 -0.006466 -0.003687 -0.000340 -0.004865 0.030969
#
#
# Mechanical properties :
#
#
# Convention : Reuss Voigt Hill
#
# Bulk Modulus (GPa) = 32.46091 48.57467 40.51779
# Shear Modulus (GPa) = 20.03149 27.16587 23.59868
#
# Velocity S-wave (km/s) = 3.21212 3.74065 3.48641
# Velocity P-wave (km/s) = 5.52057 6.60879 6.08904
#
# Compressibility (1/GPa) = 0.03080628
#
# Stress axis : x y z
#
# Youngs Moduli (GPa) = 32.45842 61.29597 33.39863
#
# Poissons Ratio (x) = 0.70657 0.40629
# Poissons Ratio (y) = 0.37416 -0.01880
# Poissons Ratio (z) = 0.39485 -0.03451
#
# Static dielectric constant tensor:
#      x y z
#    x 3.614670 -0.216260 -0.110880 
#    y -0.216260 3.554620 -0.097980 
#    z -0.110880 -0.097980 3.601480 
# 
# 
# High freq. dielectric constant tensor:
#      x y z
#    x 1.736310 -0.015710 -0.008540 
#    y -0.015710 1.753280 -0.007630 
#    z -0.008540 -0.007630 1.766270 
# 
# From -- ./inp_files/476361.got.cif
#   From: 2010.06.25/outbox.cif.g09.slc.cpg/sg2_239_cif.got.tgz:476361.got - 2010.06.27 13:26:56.
