data_PCOD8010134
_publ_section_title
;
Structure prediction by ZEFSAII (Michael W. Deem and Ramdas Pophale) SiO2 
 PCOD8010134
Probable space group: P -1
;
_chemical_formula_sum "Si O2"
_cell_formula_units_Z 16
_cell_length_a 17.031007
_cell_length_b 16.369457
_cell_length_c 9.188562
_cell_angle_alpha 118.324827
_cell_angle_beta 128.724565
_cell_angle_gamma 24.222668
_cell_volume 782.186749
_symmetry_space_group_name_H-M "P -1"
_symmetry_group_IT_number 2
_symmetry_cell_setting 'triclinic'
loop_
_space_group_symop_operation_xyz
x,y,z
-x,-y,-z
loop_
_atom_site_type_symbol
_atom_site_label
_atom_site_fract_x
_atom_site_fract_y
_atom_site_fract_z
Si Si1 0.913529 0.930006 0.227559
Si Si2 0.029642 0.256561 0.091225
Si Si3 0.534137 0.280718 0.500580
Si Si4 0.457732 0.389255 0.184235
Si Si5 0.433710 0.921727 0.464102
Si Si6 0.812730 0.700578 0.550936
Si Si7 0.992095 0.027328 0.183454
Si Si8 0.703512 0.362370 0.344606
O O1 0.062531 0.828254 0.455357
O O2 0.651044 0.161485 0.156624
O O3 0.996096 0.927460 0.189836
O O4 0.943202 0.800721 0.092627
O O5 0.066804 0.337454 0.213836
O O6 0.783054 0.433836 0.021706
O O7 0.229171 0.042044 0.236809
O O8 0.409140 0.410391 0.316215
O O9 0.506087 0.194533 0.429457
O O10 0.417951 0.437123 0.628437
O O11 0.795607 0.086889 0.621248
O O12 0.525911 0.439467 0.280257
O O13 0.659686 0.746270 0.480851
O O14 0.346252 0.097314 0.558491
O O15 0.000000 0.500000 0.500000
O O16 0.770045 0.270689 0.182482
O O17 0.000000 0.000000 0.000000
#
# Coordination Sequence:
#
# PCOD8010134 Si02
#       8
#     2   2   2   2   2   2   2   2
#     4  11  20  39  61  88 128 174 213 245 301 373
#     4  10  21  37  66  93 112 159 211 253 305 382
#     4  12  21  38  62  92 125 161 212 255 308 356
#     4  11  21  36  65  91 125 177 211 241 300 371
#     4   9  23  40  62  94 122 150 197 274 312 366
#     4   9  21  45  67  85 121 160 195 255 342 380
#     4  11  23  38  55  89 132 170 212 261 293 351
#     4  11  22  39  61  87 134 182 206 241 308 361
#
# _framework density 20.455473999999999
#
# number of rings (size 3 to 8) (size 9 to 14) (size 15 to 20)
#    0.750    0.750    3.750    2.625    1.750    1.500 
#    0.000    0.625    0.000    1.500    0.000    0.000 
#    0.000    0.000    0.000    0.000    0.000    0.000 
#
# Total GULP energy -198301.529039 kJ/mol
# GULP energy per Si atom -12393.845565 kJ/mol
# Density = 2.040892 g / cm^3
# Si number density = 20.455474 Si / 1000 Ang^3
#
#
#
# Elastic Constant Matrix: (Units=GPa)
#
#
# Indices 1 2 3 4 5 6 
#
# 1 104.4529 55.0972 38.8837 3.7816 2.7467 -4.9152
# 2 55.0972 115.5349 23.8301 12.8974 11.4727 -22.8103
# 3 38.8837 23.8301 66.3883 5.7629 12.2937 -12.1114
# 4 3.7816 12.8974 5.7629 35.2746 -9.7978 4.7946
# 5 2.7467 11.4727 12.2937 -9.7978 30.5660 -3.1171
# 6 -4.9152 -22.8103 -12.1114 4.7946 -3.1171 31.6902
#
#
#
# Elastic Compliance Matrix: (Units=1/GPa)
#
#
# Indices 1 2 3 4 5 6 
#
# 1 0.017470 -0.009230 -0.010280 0.006288 0.007218 -0.008104
# 2 -0.009230 0.016753 0.004317 -0.010131 -0.009126 0.012912
# 3 -0.010280 0.004317 0.024722 -0.009520 -0.012553 0.011167
# 4 0.006288 -0.010131 -0.009520 0.039984 0.018436 -0.014191
# 5 0.007218 -0.009126 -0.012553 0.018436 0.045579 -0.008553
# 6 -0.008104 0.012912 0.011167 -0.014191 -0.008553 0.045166
#
#
# Mechanical properties :
#
#
# Convention : Reuss Voigt Hill
#
# Bulk Modulus (GPa) = 35.01354 57.99978 46.50666
# Shear Modulus (GPa) = 21.77888 30.74381 26.26135
#
# Velocity S-wave (km/s) = 3.26651 3.88101 3.58694
# Velocity P-wave (km/s) = 5.60186 6.96410 6.31979
#
# Compressibility (1/GPa) = 0.02856038
#
# Stress axis : x y z
#
# Youngs Moduli (GPa) = 57.23997 59.69146 40.44902
#
# Poissons Ratio (x) = 0.55093 0.41583
# Poissons Ratio (y) = 0.52830 -0.17463
# Poissons Ratio (z) = 0.58844 -0.25770
#
# Static dielectric constant tensor:
#      x y z
#    x 3.474130 -0.119610 0.130420 
#    y -0.119610 3.791390 -0.077180 
#    z 0.130420 -0.077180 3.623170 
# 
# 
# High freq. dielectric constant tensor:
#      x y z
#    x 1.771670 -0.017920 0.015150 
#    y -0.017920 1.818220 -0.000810 
#    z 0.015150 -0.000810 1.778610 
# 
# From -- ./inp_files/315666.got.cif
#   From: 2010.06.25/outbox.cif.g09.slc.cpg/sg2_158_cif.got.tgz:315666.got - 2010.06.27 13:26:56.
