data_PCOD8010474
_publ_section_title
;
Structure prediction by ZEFSAII (Michael W. Deem and Ramdas Pophale) SiO2 
 PCOD8010474
Probable space group: P -1
;
_chemical_formula_sum "Si O2"
_cell_formula_units_Z 16
_cell_length_a 15.987371
_cell_length_b 11.697814
_cell_length_c 4.964560
_cell_angle_alpha 110.954041
_cell_angle_beta 62.554613
_cell_angle_gamma 122.527413
_cell_volume 687.190580
_symmetry_space_group_name_H-M "P -1"
_symmetry_group_IT_number 2
_symmetry_cell_setting 'triclinic'
loop_
_space_group_symop_operation_xyz
x,y,z
-x,-y,-z
loop_
_atom_site_type_symbol
_atom_site_label
_atom_site_fract_x
_atom_site_fract_y
_atom_site_fract_z
Si Si1 0.897257 0.708703 0.724758
Si Si2 0.287842 0.961970 0.968085
Si Si3 0.707641 0.446125 0.714831
Si Si4 0.917425 0.056922 0.575366
Si Si5 0.394014 0.394675 0.703997
Si Si6 0.404917 0.125247 0.438145
Si Si7 0.647478 0.259419 0.148725
Si Si8 0.187928 0.226391 0.597537
O O1 0.835556 0.545063 0.619212
O O2 0.835708 0.772505 0.684036
O O3 0.021315 0.794352 0.535773
O O4 0.888446 0.732150 0.074014
O O5 0.348809 0.083683 0.195623
O O6 0.164730 0.930351 0.080994
O O7 0.346199 0.001817 0.629218
O O8 0.285021 0.820601 0.951622
O O9 0.675886 0.387201 0.413872
O O10 0.642115 0.532314 0.949168
O O11 0.677303 0.320682 0.857731
O O12 0.837774 0.928647 0.398017
O O13 0.000000 0.000000 0.500000
O O14 0.500000 0.500000 0.500000
O O15 0.405274 0.262339 0.681083
O O16 0.306440 0.339053 0.554438
O O17 0.524981 0.151233 0.249428
#
# Coordination Sequence:
#
# PCOD8010474 Si02
#       8
#     2   2   2   2   2   2   2   2
#     4  10  22  39  63  92 128 170 214 269 337 382
#     4  12  27  46  69  99 133 178 231 272 325 400
#     4  11  24  42  66  97 137 179 221 268 331 402
#     4  10  23  42  68  97 130 170 222 286 336 377
#     4  11  23  40  66 104 138 169 218 273 341 393
#     4  12  26  43  70 100 137 173 225 275 331 392
#     4  12  25  47  67  95 139 187 219 265 325 406
#     4  10  21  38  60  94 135 165 208 270 333 397
#
# _framework density 23.283207000000001
#
# number of rings (size 3 to 8) (size 9 to 14) (size 15 to 20)
#    0.000    1.000    2.500    4.125    7.000    3.500 
#    0.000    1.250    0.000    0.000    0.000    0.000 
#    0.000    0.000    0.000    0.000    0.000    0.000 
#
# Total GULP energy -198222.854050 kJ/mol
# GULP energy per Si atom -12388.928378 kJ/mol
# Density = 2.323021 g / cm^3
# Si number density = 23.283207 Si / 1000 Ang^3
#
#
#
# Elastic Constant Matrix: (Units=GPa)
#
#
# Indices 1 2 3 4 5 6 
#
# 1 51.2645 14.9734 24.7381 -7.6121 -20.2539 -2.1988
# 2 14.9734 120.1093 36.0937 -25.3535 -21.6963 19.4653
# 3 24.7381 36.0937 56.4821 -12.4949 -4.6038 11.9973
# 4 -7.6121 -25.3535 -12.4949 50.9224 2.9249 -3.7738
# 5 -20.2539 -21.6963 -4.6038 2.9249 35.4248 -4.8876
# 6 -2.1988 19.4653 11.9973 -3.7738 -4.8876 38.2552
#
#
#
# Elastic Compliance Matrix: (Units=1/GPa)
#
#
# Indices 1 2 3 4 5 6 
#
# 1 0.036439 0.003900 -0.018011 0.002363 0.021899 0.008789
# 2 0.003900 0.013085 -0.007863 0.004499 0.008514 -0.002436
# 3 -0.018011 -0.007863 0.031682 0.001247 -0.012260 -0.008413
# 4 0.002363 0.004499 0.001247 0.022396 0.002416 -0.000026
# 5 0.021899 0.008514 -0.012260 0.002416 0.045106 0.006772
# 6 0.008789 -0.002436 -0.008413 -0.000026 0.006772 0.031386
#
#
# Mechanical properties :
#
#
# Convention : Reuss Voigt Hill
#
# Bulk Modulus (GPa) = 26.84047 42.16292 34.50170
# Shear Modulus (GPa) = 21.14518 35.05720 28.10119
#
# Velocity S-wave (km/s) = 3.01686 3.88453 3.47786
# Velocity P-wave (km/s) = 4.86704 6.18607 5.56577
#
# Compressibility (1/GPa) = 0.03725717
#
# Stress axis : x y z
#
# Youngs Moduli (GPa) = 27.44335 76.42371 31.56409
#
# Poissons Ratio (x) = -0.29805 0.56850
# Poissons Ratio (y) = -0.10703 0.24819
# Poissons Ratio (z) = 0.49428 0.60092
#
# Static dielectric constant tensor:
#      x y z
#    x 4.094020 0.487900 -0.158400 
#    y 0.487900 4.896220 -0.204530 
#    z -0.158400 -0.204530 4.091510 
# 
# 
# High freq. dielectric constant tensor:
#      x y z
#    x 1.895500 0.022730 0.004930 
#    y 0.022730 1.944150 -0.012970 
#    z 0.004930 -0.012970 1.909120 
# 
# From -- ./inp_files/109842.got.cif
#   From: 2010.06.25/outbox.cif.g09.slc.cpg/sg2_55_cif.got.tgz:109842.got - 2010.06.27 13:26:56.
