data_PCOD8010450
_publ_section_title
;
Structure prediction by ZEFSAII (Michael W. Deem and Ramdas Pophale) SiO2 
 PCOD8010450
Probable space group: P -1
;
_chemical_formula_sum "Si O2"
_cell_formula_units_Z 16
_cell_length_a 21.304948
_cell_length_b 9.732941
_cell_length_c 11.679474
_cell_angle_alpha 84.545335
_cell_angle_beta 150.244323
_cell_angle_gamma 115.678951
_cell_volume 842.538686
_symmetry_space_group_name_H-M "P -1"
_symmetry_group_IT_number 2
_symmetry_cell_setting 'triclinic'
loop_
_space_group_symop_operation_xyz
x,y,z
-x,-y,-z
loop_
_atom_site_type_symbol
_atom_site_label
_atom_site_fract_x
_atom_site_fract_y
_atom_site_fract_z
Si Si1 0.932626 0.768698 0.178663
Si Si2 0.734408 0.605646 0.102528
Si Si3 0.325663 0.994458 0.825792
Si Si4 0.816430 0.495703 0.817327
Si Si5 0.413468 0.220890 0.169059
Si Si6 0.064162 0.431659 0.256085
Si Si7 0.054505 0.912169 0.756686
Si Si8 0.616836 0.264086 0.093129
O O1 0.793330 0.609365 0.067751
O O2 0.115473 0.834196 0.490214
O O3 0.957003 0.952199 0.205668
O O4 0.870914 0.671874 0.963511
O O5 0.639235 0.402476 0.026290
O O6 0.908171 0.794640 0.432459
O O7 0.589274 0.615314 0.861592
O O8 0.374126 0.875079 0.945995
O O9 0.393263 0.146884 0.017532
O O10 0.420402 0.120791 0.849556
O O11 0.602696 0.314740 0.510130
O O12 0.871923 0.563240 0.768821
O O13 0.912700 0.431987 0.018757
O O14 0.252617 0.043778 0.008906
O O15 0.234789 0.617179 0.581752
O O16 0.978247 0.231109 0.192243
#
# Coordination Sequence:
#
# PCOD8010450 Si02
#       8
#     2   2   2   2   2   2   2   2
#     4  11  21  39  61  86 118 153 188 237 288 343
#     4  10  21  38  60  91 115 145 192 247 288 327
#     4  11  20  37  60  90 110 151 196 235 282 332
#     4  11  24  39  58  82 122 159 186 229 294 346
#     4  11  21  39  61  86 118 153 188 237 288 343
#     4  10  22  40  57  85 121 155 186 236 290 341
#     4  10  21  38  62  87 115 147 198 241 280 337
#     4  10  22  36  61  91 115 143 198 246 278 333
#
# _framework density 18.990227000000001
#
# number of rings (size 3 to 8) (size 9 to 14) (size 15 to 20)
#    0.000    1.500    5.000    0.750    0.000    6.000 
#    0.000    2.500    0.000    0.000    0.000    0.000 
#    0.000    0.000    0.000    0.000    0.000    0.000 
#
# Total GULP energy -198424.107218 kJ/mol
# GULP energy per Si atom -12401.506701 kJ/mol
# Density = 1.894700 g / cm^3
# Si number density = 18.990227 Si / 1000 Ang^3
#
#
#
# Elastic Constant Matrix: (Units=GPa)
#
#
# Indices 1 2 3 4 5 6 
#
# 1 102.6395 43.5476 29.5432 -6.4347 26.9226 -0.7652
# 2 43.5476 106.0304 -8.6014 4.1072 -0.4980 0.4321
# 3 29.5432 -8.6014 42.4169 1.7500 -4.7199 -4.4851
# 4 -6.4347 4.1072 1.7500 19.4592 13.0665 5.3275
# 5 26.9226 -0.4980 -4.7199 13.0665 3.6894 -1.3732
# 6 -0.7652 0.4321 -4.4851 5.3275 -1.3732 40.3844
#
#
#
# Elastic Compliance Matrix: (Units=1/GPa)
#
#
# Indices 1 2 3 4 5 6 
#
# 1 0.003763 -0.000917 0.000330 -0.013277 0.020819 0.002577
# 2 -0.000917 0.009609 0.000922 0.005772 -0.011711 -0.001177
# 3 0.000330 0.000922 0.020511 0.012999 -0.022154 -0.000194
# 4 -0.013277 0.005772 0.012999 0.023013 0.032493 -0.000801
# 5 0.020819 -0.011711 -0.022154 0.032493 -0.028555 -0.007198
# 6 0.002577 -0.001177 -0.000194 -0.000801 -0.007198 0.024663
#
#
# Mechanical properties :
#
#
# Convention : Reuss Voigt Hill
#
# Bulk Modulus (GPa) = 28.94254 42.22952 35.58603
# Shear Modulus (GPa) = 78.30613 25.14643 51.72628
#
# Velocity S-wave (km/s) = 6.42841 3.64287 5.22470
# Velocity P-wave (km/s) = 8.38887 6.32296 7.42809
#
# Compressibility (1/GPa) = 0.03455122
#
# Stress axis : x y z
#
# Youngs Moduli (GPa) = 265.74134 104.06978 48.75512
#
# Poissons Ratio (x) = 0.09545 -0.01608
# Poissons Ratio (y) = 0.24374 -0.04493
# Poissons Ratio (z) = -0.08767 -0.09591
#
# Static dielectric constant tensor:
#      x y z
#    x 3.679240 -0.146710 -0.119130 
#    y -0.146710 3.385650 0.053810 
#    z -0.119130 0.053810 4.629690 
# 
# 
# High freq. dielectric constant tensor:
#      x y z
#    x 1.751340 -0.010770 0.011100 
#    y -0.010770 1.736110 0.003280 
#    z 0.011100 0.003280 1.734170 
# 
# From -- ./inp_files/187776.got.cif
#   From: 2010.06.25/outbox.cif.g09.slc.cpg/sg2_94_cif.got.tgz:187776.got - 2010.06.27 13:26:56.
