data_PCOD8010925
_publ_section_title
;
Structure prediction by ZEFSAII (Michael W. Deem and Ramdas Pophale) SiO2 
 PCOD8010925
Probable space group: P -1
;
_chemical_formula_sum "Si O2"
_cell_formula_units_Z 14
_cell_length_a 9.018810
_cell_length_b 9.421964
_cell_length_c 24.312049
_cell_angle_alpha 150.321033
_cell_angle_beta 141.663056
_cell_angle_gamma 48.185301
_cell_volume 633.767023
_symmetry_space_group_name_H-M "P -1"
_symmetry_group_IT_number 2
_symmetry_cell_setting 'triclinic'
loop_
_space_group_symop_operation_xyz
x,y,z
-x,-y,-z
loop_
_atom_site_type_symbol
_atom_site_label
_atom_site_fract_x
_atom_site_fract_y
_atom_site_fract_z
Si Si1 0.134880 0.540497 0.892554
Si Si2 0.435595 0.063376 0.863027
Si Si3 0.602214 0.472261 0.679280
Si Si4 0.458929 0.349570 0.713302
Si Si5 0.893110 0.204690 0.233322
Si Si6 0.417672 0.259680 0.438628
Si Si7 0.079056 0.297497 0.003067
O O1 0.265666 0.242386 0.834813
O O2 0.890796 0.491023 0.771293
O O3 0.316581 0.765321 0.990066
O O4 0.094471 0.671477 0.985331
O O5 0.495998 0.784242 0.752468
O O6 0.301445 0.989094 0.855390
O O7 0.488506 0.291110 0.636679
O O8 0.524349 0.321955 0.550050
O O9 0.203697 0.477145 0.697983
O O10 0.492324 0.056147 0.657982
O O11 0.652915 0.604948 0.869508
O O12 0.131552 0.241368 0.351552
O O13 0.940167 0.036322 0.133646
O O14 0.500000 0.500000 0.500000
O O15 0.000000 0.500000 0.000000
#
# Coordination Sequence:
#
# PCOD8010925 Si02
#       7
#     2   2   2   2   2   2   2
#     4  10  21  39  65  99 133 170 218 267 331 385
#     4  10  21  38  65 101 126 171 220 272 324 385
#     4  10  23  42  67  92 133 175 221 263 324 397
#     4  10  23  43  69  98 126 177 225 265 329 391
#     4  11  23  43  66  99 131 173 220 270 332 390
#     4  12  27  45  65  95 137 177 217 273 332 389
#     4  11  19  39  70  97 139 168 209 280 337 381
#
# _framework density 22.090138
#
# number of rings (size 3 to 8) (size 9 to 14) (size 15 to 20)
#    0.000    1.429    2.857    2.143    2.000    4.000 
#    2.571    0.000    0.000    0.000    0.000    0.000 
#    0.000    0.000    0.000    0.000    0.000    0.000 
#
# Total GULP energy -173622.243740 kJ/mol
# GULP energy per Si atom -12401.588839 kJ/mol
# Density = 2.203986 g / cm^3
# Si number density = 22.090138 Si / 1000 Ang^3
#
#
#
# Elastic Constant Matrix: (Units=GPa)
#
#
# Indices 1 2 3 4 5 6 
#
# 1 69.8309 60.2447 47.4132 -6.1867 8.8107 -10.1348
# 2 60.2447 126.4606 59.3121 8.1676 12.4578 -24.5126
# 3 47.4132 59.3121 91.7974 -6.6275 5.9269 -9.1487
# 4 -6.1867 8.1676 -6.6275 46.3142 8.6344 -2.0083
# 5 8.8107 12.4578 5.9269 8.6344 20.8257 1.0920
# 6 -10.1348 -24.5126 -9.1487 -2.0083 1.0920 39.5608
#
#
#
# Elastic Compliance Matrix: (Units=1/GPa)
#
#
# Indices 1 2 3 4 5 6 
#
# 1 0.029956 -0.010250 -0.007993 0.005916 -0.006718 -0.000039
# 2 -0.010250 0.017083 -0.005201 -0.004285 -0.002973 0.006621
# 3 -0.007993 -0.005201 0.018447 0.002395 0.000296 -0.000891
# 4 0.005916 -0.004285 0.002395 0.025632 -0.011303 0.001028
# 5 -0.006718 -0.002973 0.000296 -0.011303 0.057537 -0.005657
# 6 -0.000039 0.006621 -0.000891 0.001028 -0.005657 0.029372
#
#
# Mechanical properties :
#
#
# Convention : Reuss Voigt Hill
#
# Bulk Modulus (GPa) = 53.76652 69.11434 61.44043
# Shear Modulus (GPa) = 21.63434 29.41474 25.52454
#
# Velocity S-wave (km/s) = 3.13288 3.65304 3.40291
# Velocity P-wave (km/s) = 6.12201 7.01058 6.58131
#
# Compressibility (1/GPa) = 0.01859894
#
# Stress axis : x y z
#
# Youngs Moduli (GPa) = 33.38218 58.53775 54.20872
#
# Poissons Ratio (x) = 0.60002 0.43326
# Poissons Ratio (y) = 0.34217 0.28194
# Poissons Ratio (z) = 0.26681 0.30446
#
# Static dielectric constant tensor:
#      x y z
#    x 4.021320 -0.060150 -0.031280 
#    y -0.060150 4.823570 -0.042640 
#    z -0.031280 -0.042640 3.997320 
# 
# 
# High freq. dielectric constant tensor:
#      x y z
#    x 1.855260 -0.014850 0.002390 
#    y -0.014850 1.890380 0.004200 
#    z 0.002390 0.004200 1.860180 
# 
# From -- ./inp_files/201831.got.cif
#   From: 2010.06.25/outbox.cif.g09.slc.cpg/sg2_101_cif.got.tgz:201831.got - 2010.06.27 13:26:56.
