data_PCOD8010255
_publ_section_title
;
Structure prediction by ZEFSAII (Michael W. Deem and Ramdas Pophale) SiO2 
 PCOD8010255
Probable space group: P -1
;
_chemical_formula_sum "Si O2"
_cell_formula_units_Z 16
_cell_length_a 20.122933
_cell_length_b 10.599310
_cell_length_c 9.559367
_cell_angle_alpha 82.403991
_cell_angle_beta 113.843298
_cell_angle_gamma 40.274109
_cell_volume 803.943368
_symmetry_space_group_name_H-M "P -1"
_symmetry_group_IT_number 2
_symmetry_cell_setting 'triclinic'
loop_
_space_group_symop_operation_xyz
x,y,z
-x,-y,-z
loop_
_atom_site_type_symbol
_atom_site_label
_atom_site_fract_x
_atom_site_fract_y
_atom_site_fract_z
Si Si1 0.357888 0.452456 0.998755
Si Si2 0.878452 0.277634 0.446878
Si Si3 0.750127 0.940381 0.645288
Si Si4 0.018810 0.315775 0.892344
Si Si5 0.862404 0.291314 0.755106
Si Si6 0.453044 0.219493 0.409200
Si Si7 0.629550 0.199057 0.222845
Si Si8 0.135939 0.058216 0.740109
O O1 0.296890 0.455371 0.822353
O O2 0.249657 0.751560 0.885477
O O3 0.361705 0.372330 0.159343
O O4 0.546271 0.190747 0.149081
O O5 0.867287 0.246742 0.601753
O O6 0.948418 0.311505 0.499408
O O7 0.000000 0.000000 0.500000
O O8 0.893126 0.632311 0.736082
O O9 0.609449 0.070385 0.576297
O O10 0.669396 0.161143 0.426655
O O11 0.838540 0.893309 0.838099
O O12 0.128669 0.136275 0.872057
O O13 0.902607 0.375824 0.804531
O O14 0.680494 0.537220 0.619569
O O15 0.000000 0.000000 0.000000
O O16 0.500000 0.000000 0.500000
O O17 0.798692 0.940679 0.314758
O O18 0.500000 0.500000 0.000000
#
# Coordination Sequence:
#
# PCOD8010255 Si02
#       8
#     2   2   2   2   2   2   2   2
#     4   9  19  36  56  81 115 149 188 244 290 344
#     4   9  18  34  54  83 116 144 188 241 285 339
#     4  10  22  39  58  84 120 156 196 242 298 354
#     4  10  21  38  57  85 120 154 195 246 294 351
#     4  11  22  37  63  92 118 156 201 243 293 355
#     4  11  21  39  60  84 119 159 197 243 299 349
#     4   9  19  35  56  79 109 151 188 235 292 344
#     4   9  18  35  57  84 110 146 193 236 290 343
#
# _framework density 19.901900000000001
#
# number of rings (size 3 to 8) (size 9 to 14) (size 15 to 20)
#    0.000    2.250    1.250    2.250    0.000    5.500 
#    0.000    9.375    0.000    0.000    0.000    0.000 
#    0.000    0.000    0.000    0.000    0.000    0.000 
#
# Total GULP energy -198260.009759 kJ/mol
# GULP energy per Si atom -12391.250610 kJ/mol
# Density = 1.985660 g / cm^3
# Si number density = 19.901900 Si / 1000 Ang^3
#
#
#
# Elastic Constant Matrix: (Units=GPa)
#
#
# Indices 1 2 3 4 5 6 
#
# 1 106.2260 50.5094 53.0897 18.2463 2.0315 -35.8332
# 2 50.5094 94.9608 48.8338 19.9117 2.3415 -22.8410
# 3 53.0897 48.8338 133.2737 32.4532 13.3120 -14.8979
# 4 18.2463 19.9117 32.4532 32.7429 0.8097 -0.5620
# 5 2.0315 2.3415 13.3120 0.8097 29.5110 -2.0362
# 6 -35.8332 -22.8410 -14.8979 -0.5620 -2.0362 37.6841
#
#
#
# Elastic Compliance Matrix: (Units=1/GPa)
#
#
# Indices 1 2 3 4 5 6 
#
# 1 0.018293 -0.003775 -0.003505 -0.004230 0.001686 0.013748
# 2 -0.003775 0.016192 -0.002713 -0.004984 0.000688 0.005115
# 3 -0.003505 -0.002713 0.012432 -0.008604 -0.004947 -0.000458
# 4 -0.004230 -0.004984 -0.008604 0.044225 0.002689 -0.009639
# 5 0.001686 0.000688 -0.004947 0.002689 0.036014 0.002051
# 6 0.013748 0.005115 -0.000458 -0.009639 0.002051 0.042496
#
#
# Mechanical properties :
#
#
# Convention : Reuss Voigt Hill
#
# Bulk Modulus (GPa) = 37.13278 71.03626 54.08452
# Shear Modulus (GPa) = 25.17443 32.12276 28.64860
#
# Velocity S-wave (km/s) = 3.56044 4.02189 3.79818
# Velocity P-wave (km/s) = 5.96663 7.57220 6.81685
#
# Compressibility (1/GPa) = 0.02693038
#
# Stress axis : x y z
#
# Youngs Moduli (GPa) = 54.66623 61.75921 80.43897
#
# Poissons Ratio (x) = 0.23314 0.28197
# Poissons Ratio (y) = 0.20637 0.21820
# Poissons Ratio (z) = 0.19162 0.16753
#
# Static dielectric constant tensor:
#      x y z
#    x 4.109810 -0.300820 0.501490 
#    y -0.300820 3.482070 0.039510 
#    z 0.501490 0.039510 4.185680 
# 
# 
# High freq. dielectric constant tensor:
#      x y z
#    x 1.781590 -0.024070 0.010050 
#    y -0.024070 1.756340 0.005070 
#    z 0.010050 0.005070 1.784030 
# 
# From -- ./inp_files/345288.got.cif
#   From: 2010.06.25/outbox.cif.g09.slc.cpg/sg2_173_cif.got.tgz:345288.got - 2010.06.27 13:26:56.
