data_PCOD8010451
_publ_section_title
;
Structure prediction by ZEFSAII (Michael W. Deem and Ramdas Pophale) SiO2 
 PCOD8010451
Probable space group: P -1
;
_chemical_formula_sum "Si O2"
_cell_formula_units_Z 16
_cell_length_a 17.564079
_cell_length_b 9.629704
_cell_length_c 20.992469
_cell_angle_alpha 132.916234
_cell_angle_beta 161.646583
_cell_angle_gamma 46.782304
_cell_volume 807.289851
_symmetry_space_group_name_H-M "P -1"
_symmetry_group_IT_number 2
_symmetry_cell_setting 'triclinic'
loop_
_space_group_symop_operation_xyz
x,y,z
-x,-y,-z
loop_
_atom_site_type_symbol
_atom_site_label
_atom_site_fract_x
_atom_site_fract_y
_atom_site_fract_z
Si Si1 0.072876 0.288794 0.314929
Si Si2 0.528061 0.455845 0.732817
Si Si3 0.984277 0.210408 0.082076
Si Si4 0.670893 0.758403 0.852915
Si Si5 0.945746 0.302460 0.542190
Si Si6 0.137602 0.975932 0.504869
Si Si7 0.076450 0.949819 0.302191
Si Si8 0.589053 0.700862 0.629540
O O1 0.361631 0.294713 0.532190
O O2 0.967527 0.197151 0.140740
O O3 0.934339 0.506836 0.287956
O O4 0.027153 0.161512 0.299315
O O5 0.629266 0.549050 0.779529
O O6 0.348481 0.628384 0.681527
O O7 0.746030 0.357112 0.918724
O O8 0.220379 0.300847 0.277045
O O9 0.000000 0.000000 0.000000
O O10 0.430685 0.919097 0.722106
O O11 0.727834 0.739405 0.817147
O O12 0.898924 0.816596 0.089418
O O13 0.991655 0.164209 0.597126
O O14 0.067846 0.194337 0.543087
O O15 0.029885 0.963026 0.344795
O O16 0.356763 0.863564 0.482584
O O17 0.500000 0.500000 0.500000
#
# Coordination Sequence:
#
# PCOD8010451 Si02
#       8
#     2   2   2   2   2   2   2   2
#     4  10  23  40  58  86 122 156 192 245 295 347
#     4   9  21  39  60  82 116 158 195 242 287 352
#     4  12  24  37  59  85 118 162 199 237 291 352
#     4  10  21  38  60  91 117 149 205 244 287 358
#     4   8  19  42  64  86 117 156 193 246 294 359
#     4   9  19  41  65  88 117 154 196 242 301 350
#     4  11  23  38  60  90 123 152 193 251 297 347
#     4  11  24  37  59  86 119 161 198 247 292 344
#
# _framework density 19.819399000000001
#
# number of rings (size 3 to 8) (size 9 to 14) (size 15 to 20)
#    0.750    1.250    0.000    3.000    3.500    7.500 
#    2.250    2.500    0.000    0.000    0.000    0.000 
#    0.000    0.000    0.000    0.000    0.000    0.000 
#
# Total GULP energy -198351.771264 kJ/mol
# GULP energy per Si atom -12396.985704 kJ/mol
# Density = 1.977429 g / cm^3
# Si number density = 19.819399 Si / 1000 Ang^3
#
#
#
# Elastic Constant Matrix: (Units=GPa)
#
#
# Indices 1 2 3 4 5 6 
#
# 1 77.9582 38.8708 34.7777 -11.7957 -22.7722 -0.8385
# 2 38.8708 106.5983 24.7243 2.1391 -12.4847 1.2301
# 3 34.7777 24.7243 84.3640 -2.1995 -21.2113 2.7991
# 4 -11.7957 2.1391 -2.1995 32.9226 3.8458 1.1284
# 5 -22.7722 -12.4847 -21.2113 3.8458 28.6090 5.8473
# 6 -0.8385 1.2301 2.7991 1.1284 5.8473 31.6345
#
#
#
# Elastic Compliance Matrix: (Units=1/GPa)
#
#
# Indices 1 2 3 4 5 6 
#
# 1 0.021860 -0.005800 -0.004343 0.006674 0.010972 -0.001077
# 2 -0.005800 0.011838 -0.001080 -0.002931 0.000236 -0.000458
# 3 -0.004343 -0.001080 0.016282 -0.001338 0.008961 -0.003123
# 4 0.006674 -0.002931 -0.001338 0.033036 -0.001291 -0.000530
# 5 0.010972 0.000236 0.008961 -0.001291 0.052694 -0.010205
# 6 -0.001077 -0.000458 -0.003123 -0.000530 -0.010205 0.033782
#
#
# Mechanical properties :
#
#
# Convention : Reuss Voigt Hill
#
# Bulk Modulus (GPa) = 36.32008 51.74068 44.03038
# Shear Modulus (GPa) = 24.86103 30.00308 27.43205
#
# Velocity S-wave (km/s) = 3.54556 3.89501 3.72439
# Velocity P-wave (km/s) = 5.92677 6.81109 6.38426
#
# Compressibility (1/GPa) = 0.02753298
#
# Stress axis : x y z
#
# Youngs Moduli (GPa) = 45.74495 84.47092 61.41622
#
# Poissons Ratio (x) = 0.48997 0.26675
# Poissons Ratio (y) = 0.26534 0.06635
# Poissons Ratio (z) = 0.19869 0.09125
#
# Static dielectric constant tensor:
#      x y z
#    x 4.344880 -0.152830 0.060020 
#    y -0.152830 3.710490 -0.079550 
#    z 0.060020 -0.079550 3.454970 
# 
# 
# High freq. dielectric constant tensor:
#      x y z
#    x 1.764730 0.008710 -0.004080 
#    y 0.008710 1.780450 -0.001970 
#    z -0.004080 -0.001970 1.759960 
# 
# From -- ./inp_files/591626.got.cif
#   From: 2010.06.25/outbox.cif.g09.slc.cpg/sg2_296_cif.got.tgz:591626.got - 2010.06.27 13:26:56.
