data_PCOD8010883
_publ_section_title
;
Structure prediction by ZEFSAII (Michael W. Deem and Ramdas Pophale) SiO2 
 PCOD8010883
Probable space group: P -1
;
_chemical_formula_sum "Si O2"
_cell_formula_units_Z 16
_cell_length_a 24.501103
_cell_length_b 24.431241
_cell_length_c 8.773535
_cell_angle_alpha 136.125227
_cell_angle_beta 136.501702
_cell_angle_gamma 11.909209
_cell_volume 743.719019
_symmetry_space_group_name_H-M "P -1"
_symmetry_group_IT_number 2
_symmetry_cell_setting 'triclinic'
loop_
_space_group_symop_operation_xyz
x,y,z
-x,-y,-z
loop_
_atom_site_type_symbol
_atom_site_label
_atom_site_fract_x
_atom_site_fract_y
_atom_site_fract_z
Si Si1 0.237533 0.728964 0.515368
Si Si2 0.304043 0.973635 0.762605
Si Si3 0.745830 0.801174 0.915732
Si Si4 0.808752 0.738843 0.277024
Si Si5 0.266973 0.766387 0.983907
Si Si6 0.077786 0.642248 0.732910
Si Si7 0.793801 0.424914 0.813533
Si Si8 0.622256 0.158239 0.683983
O O1 0.500000 0.500000 0.500000
O O2 0.217325 0.654520 0.317552
O O3 0.244099 0.755497 0.749099
O O4 0.000000 0.000000 0.500000
O O5 0.008989 0.225264 0.713366
O O6 0.514291 0.722950 0.781921
O O7 0.354886 0.916765 0.571428
O O8 0.313204 0.057376 0.992506
O O9 0.015072 0.504521 0.802273
O O10 0.495629 0.983871 0.728805
O O11 0.796043 0.762552 0.118796
O O12 0.941871 0.687677 0.519896
O O13 0.351110 0.777157 0.181863
O O14 0.500000 0.500000 0.000000
O O15 0.000000 0.000000 0.000000
O O16 0.345419 0.400604 0.692206
O O17 0.131783 0.595244 0.927689
O O18 0.865646 0.910694 0.794921
#
# Coordination Sequence:
#
# PCOD8010883 Si02
#       8
#     2   2   2   2   2   2   2   2
#     4  12  24  44  68  92 126 176 218 256 316 387
#     4  12  24  43  64  97 130 171 207 264 329 378
#     4  10  21  38  64  94 123 164 212 262 311 377
#     4  10  21  38  64  94 123 162 216 264 305 369
#     4  12  24  42  64  96 129 164 211 271 321 371
#     4  12  24  43  64  97 126 169 213 268 311 374
#     4  12  26  43  64  95 137 167 207 265 328 383
#     4  12  24  41  68  94 125 166 223 262 312 378
#
# _framework density 21.513501999999999
#
# number of rings (size 3 to 8) (size 9 to 14) (size 15 to 20)
#    0.000    0.500    1.250    8.250    3.500    0.000 
#    0.000    3.750    0.000    0.000    0.000    0.000 
#    0.000    0.000    0.000    0.000    0.000    0.000 
#
# Total GULP energy -198432.579101 kJ/mol
# GULP energy per Si atom -12402.036194 kJ/mol
# Density = 2.146454 g / cm^3
# Si number density = 21.513502 Si / 1000 Ang^3
#
#
#
# Elastic Constant Matrix: (Units=GPa)
#
#
# Indices 1 2 3 4 5 6 
#
# 1 86.8389 47.9303 25.0877 8.3017 14.4634 2.2990
# 2 47.9303 147.6194 34.6398 10.0983 -0.2548 0.6594
# 3 25.0877 34.6398 106.8887 -7.0488 0.9326 -5.2878
# 4 8.3017 10.0983 -7.0488 28.5926 5.9446 6.2086
# 5 14.4634 -0.2548 0.9326 5.9446 46.0040 4.2739
# 6 2.2990 0.6594 -5.2878 6.2086 4.2739 48.6038
#
#
#
# Elastic Compliance Matrix: (Units=1/GPa)
#
#
# Indices 1 2 3 4 5 6 
#
# 1 0.015610 -0.004333 -0.002402 -0.002608 -0.004527 -0.000210
# 2 -0.004333 0.008853 -0.002047 -0.002761 0.001804 0.000056
# 3 -0.002402 -0.002047 0.010884 0.003937 -0.000062 0.000828
# 4 -0.002608 -0.002761 0.003937 0.039394 -0.003986 -0.004093
# 5 -0.004527 0.001804 -0.000062 -0.003986 0.023817 -0.001402
# 6 -0.000210 0.000056 0.000828 -0.004093 -0.001402 0.021320
#
#
# Mechanical properties :
#
#
# Convention : Reuss Voigt Hill
#
# Bulk Modulus (GPa) = 56.23694 61.85139 59.04416
# Shear Modulus (GPa) = 34.87468 40.21934 37.54701
#
# Velocity S-wave (km/s) = 4.03061 4.32845 4.18218
# Velocity P-wave (km/s) = 6.91796 7.33438 7.12921
#
# Compressibility (1/GPa) = 0.01778191
#
# Stress axis : x y z
#
# Youngs Moduli (GPa) = 64.06129 112.95389 91.87871
#
# Poissons Ratio (x) = 0.48945 0.22073
# Poissons Ratio (y) = 0.27759 0.18808
# Poissons Ratio (z) = 0.15390 0.23122
#
# Static dielectric constant tensor:
#      x y z
#    x 4.025650 0.068840 0.113320 
#    y 0.068840 4.290330 0.083640 
#    z 0.113320 0.083640 3.978030 
# 
# 
# High freq. dielectric constant tensor:
#      x y z
#    x 1.850750 0.005490 0.011530 
#    y 0.005490 1.871540 0.000680 
#    z 0.011530 0.000680 1.848660 
# 
# From -- ./inp_files/343207.got.cif
#   From: 2010.06.25/outbox.cif.g09.slc.cpg/sg2_172_cif.got.tgz:343207.got - 2010.06.27 13:26:56.
