data_PCOD8010072
_publ_section_title
;
Structure prediction by ZEFSAII (Michael W. Deem and Ramdas Pophale) SiO2 
 PCOD8010072
Probable space group: P -1
;
_chemical_formula_sum "Si O2"
_cell_formula_units_Z 14
_cell_length_a 18.157571
_cell_length_b 9.056496
_cell_length_c 8.486699
_cell_angle_alpha 104.246300
_cell_angle_beta 53.678714
_cell_angle_gamma 60.714385
_cell_volume 634.525141
_symmetry_space_group_name_H-M "P -1"
_symmetry_group_IT_number 2
_symmetry_cell_setting 'triclinic'
loop_
_space_group_symop_operation_xyz
x,y,z
-x,-y,-z
loop_
_atom_site_type_symbol
_atom_site_label
_atom_site_fract_x
_atom_site_fract_y
_atom_site_fract_z
Si Si1 0.459107 0.395086 0.376020
Si Si2 0.179317 0.142839 0.242747
Si Si3 0.856051 0.482662 0.694665
Si Si4 0.409261 0.281847 0.723287
Si Si5 0.576590 0.294261 0.708557
Si Si6 0.666800 0.702123 0.678785
Si Si7 0.161096 0.262450 0.647326
O O1 0.413695 0.395287 0.604225
O O2 0.399797 0.644192 0.470062
O O3 0.369897 0.414642 0.367050
O O4 0.646384 0.158849 0.055116
O O5 0.175803 0.294516 0.172724
O O6 0.128246 0.274013 0.510886
O O7 0.045958 0.199102 0.375949
O O8 0.777440 0.535247 0.646017
O O9 0.772648 0.507781 0.951391
O O10 0.477466 0.276076 0.789302
O O11 0.500000 0.000000 0.500000
O O12 0.746714 0.006358 0.469357
O O13 0.500000 0.500000 0.000000
O O14 0.746913 0.701220 0.445169
O O15 0.500000 0.000000 0.000000
O O16 0.000000 0.500000 0.000000
#
# Coordination Sequence:
#
# PCOD8010072 Si02
#       7
#     2   2   2   2   2   2   2
#     4  12  23  42  68 101 142 179 238 293 356 415
#     4  10  21  39  64  99 140 175 229 292 358 408
#     4  10  21  37  64  98 135 177 228 291 343 404
#     4  12  24  40  71 106 137 183 247 291 338 427
#     4  12  25  45  71 103 145 193 230 293 368 422
#     4  11  19  42  67 100 132 187 235 284 341 436
#     4  11  24  40  71 103 137 183 245 292 347 423
#
# _framework density 22.063742999999999
#
# number of rings (size 3 to 8) (size 9 to 14) (size 15 to 20)
#    0.000    0.857    5.714    3.000    4.000    1.143 
#    0.000    1.429    0.000    0.000    0.000    0.000 
#    0.000    0.000    0.000    0.000    0.000    0.000 
#
# Total GULP energy -173497.465208 kJ/mol
# GULP energy per Si atom -12392.676086 kJ/mol
# Density = 2.201352 g / cm^3
# Si number density = 22.063743 Si / 1000 Ang^3
#
#
#
# Elastic Constant Matrix: (Units=GPa)
#
#
# Indices 1 2 3 4 5 6 
#
# 1 135.9399 26.7749 51.5930 4.2514 -23.6672 3.5387
# 2 26.7749 123.1909 64.5081 -9.5071 -10.4682 3.7647
# 3 51.5930 64.5081 153.6390 -14.9738 -29.6164 -0.0429
# 4 4.2514 -9.5071 -14.9738 35.1706 -1.0243 -1.1276
# 5 -23.6672 -10.4682 -29.6164 -1.0243 37.5496 3.3131
# 6 3.5387 3.7647 -0.0429 -1.1276 3.3131 28.4996
#
#
#
# Elastic Compliance Matrix: (Units=1/GPa)
#
#
# Indices 1 2 3 4 5 6 
#
# 1 0.009120 -0.000574 -0.002288 -0.002171 0.003865 -0.001595
# 2 -0.000574 0.010532 -0.004251 0.001049 -0.000644 -0.001210
# 3 -0.002288 -0.004251 0.010543 0.003795 0.005761 0.000342
# 4 -0.002171 0.001049 0.003795 0.030705 0.002663 0.001042
# 5 0.003865 -0.000644 0.005761 0.002663 0.033877 -0.004219
# 6 -0.001595 -0.001210 0.000342 0.001042 -0.004219 0.035978
#
#
# Mechanical properties :
#
#
# Convention : Reuss Voigt Hill
#
# Bulk Modulus (GPa) = 62.63104 77.61353 70.12228
# Shear Modulus (GPa) = 33.26573 38.23690 35.75132
#
# Velocity S-wave (km/s) = 3.88714 4.16747 4.02974
# Velocity P-wave (km/s) = 6.97097 7.64267 7.31454
#
# Compressibility (1/GPa) = 0.01596652
#
# Stress axis : x y z
#
# Youngs Moduli (GPa) = 109.64788 94.95180 94.85240
#
# Poissons Ratio (x) = 0.05452 0.21707
# Poissons Ratio (y) = 0.06296 0.40324
# Poissons Ratio (z) = 0.25093 0.40367
#
# Static dielectric constant tensor:
#      x y z
#    x 4.264710 0.051630 -0.324350 
#    y 0.051630 4.135720 -0.247360 
#    z -0.324350 -0.247360 3.907860 
# 
# 
# High freq. dielectric constant tensor:
#      x y z
#    x 1.876010 -0.007300 -0.020390 
#    y -0.007300 1.869790 -0.020510 
#    z -0.020390 -0.020510 1.852290 
# 
# From -- ./inp_files/329122.got.cif
#   From: 2010.06.25/outbox.cif.g09.slc.cpg/sg2_165_cif.got.tgz:329122.got - 2010.06.27 13:26:56.
