data_PCOD8010955
_publ_section_title
;
Structure prediction by ZEFSAII (Michael W. Deem and Ramdas Pophale) SiO2 
 PCOD8010955
Probable space group: P -1
;
_chemical_formula_sum "Si O2"
_cell_formula_units_Z 16
_cell_length_a 10.548153
_cell_length_b 16.238844
_cell_length_c 8.144722
_cell_angle_alpha 76.024360
_cell_angle_beta 94.037079
_cell_angle_gamma 145.681529
_cell_volume 741.725607
_symmetry_space_group_name_H-M "P -1"
_symmetry_group_IT_number 2
_symmetry_cell_setting 'triclinic'
loop_
_space_group_symop_operation_xyz
x,y,z
-x,-y,-z
loop_
_atom_site_type_symbol
_atom_site_label
_atom_site_fract_x
_atom_site_fract_y
_atom_site_fract_z
Si Si1 0.251836 0.706366 0.261489
Si Si2 0.773069 0.944445 0.181018
Si Si3 0.151729 0.184553 0.861592
Si Si4 0.501893 0.602216 0.930484
Si Si5 0.995505 0.397424 0.027995
Si Si6 0.103134 0.147766 0.386090
Si Si7 0.229522 0.355988 0.545153
Si Si8 0.985427 0.381502 0.399149
O O1 0.521711 0.843172 0.202665
O O2 0.214585 0.729506 0.426047
O O3 0.112970 0.541797 0.325147
O O4 0.166300 0.714669 0.091507
O O5 0.782140 0.846864 0.262478
O O6 0.931007 0.083820 0.257228
O O7 0.890745 0.021995 0.976120
O O8 0.157945 0.286135 0.755098
O O9 0.348599 0.275055 0.969083
O O10 0.629647 0.704261 0.725313
O O11 0.500000 0.500000 0.000000
O O12 0.247174 0.499461 0.963598
O O13 0.901098 0.309661 0.239855
O O14 0.000000 0.500000 0.000000
O O15 0.087450 0.211086 0.490109
O O16 0.000000 0.000000 0.500000
O O17 0.500000 0.500000 0.500000
O O18 0.171915 0.418884 0.463346
#
# Coordination Sequence:
#
# PCOD8010955 Si02
#       8
#     2   2   2   2   2   2   2   2
#     4  10  22  41  68  92 130 179 221 277 330 412
#     4  10  21  43  61  91 132 174 221 260 337 414
#     4  10  21  38  65  91 129 171 214 272 335 403
#     4  11  23  40  66  99 132 173 227 294 335 400
#     4  10  21  40  62  96 129 173 227 273 337 398
#     4  11  24  39  64 101 137 173 218 280 344 411
#     4  12  23  40  66  99 132 166 220 285 340 388
#     4  10  23  40  63  99 127 169 232 277 328 399
#
# _framework density 21.57132
#
# number of rings (size 3 to 8) (size 9 to 14) (size 15 to 20)
#    0.000    1.500    1.250    4.500    3.500    2.000 
#    2.250    1.250    0.000    0.000    0.000    0.000 
#    0.000    0.000    0.000    0.000    0.000    0.000 
#
# Total GULP energy -198224.659156 kJ/mol
# GULP energy per Si atom -12389.041197 kJ/mol
# Density = 2.152222 g / cm^3
# Si number density = 21.571320 Si / 1000 Ang^3
#
#
#
# Elastic Constant Matrix: (Units=GPa)
#
#
# Indices 1 2 3 4 5 6 
#
# 1 121.9448 32.4457 52.3351 -2.3434 -8.3514 32.9352
# 2 32.4457 73.3735 27.3085 0.4105 -14.1584 21.8008
# 3 52.3351 27.3085 128.3180 -0.9924 -6.0094 23.5465
# 4 -2.3434 0.4105 -0.9924 27.6544 1.4063 4.7355
# 5 -8.3514 -14.1584 -6.0094 1.4063 32.6482 -6.7206
# 6 32.9352 21.8008 23.5465 4.7355 -6.7206 37.5573
#
#
#
# Elastic Compliance Matrix: (Units=1/GPa)
#
#
# Indices 1 2 3 4 5 6 
#
# 1 0.012237 -0.001900 -0.003105 0.002320 -0.000007 -0.007974
# 2 -0.001900 0.018210 -0.001553 0.000418 0.005673 -0.006968
# 3 -0.003105 -0.001553 0.009876 0.000585 -0.000227 -0.002682
# 4 0.002320 0.000418 0.000585 0.037834 -0.002361 -0.007836
# 5 -0.000007 0.005673 -0.000227 -0.002361 0.033807 0.003203
# 6 -0.007974 -0.006968 -0.002682 -0.007836 0.003203 0.040906
#
#
# Mechanical properties :
#
#
# Convention : Reuss Voigt Hill
#
# Bulk Modulus (GPa) = 36.75731 60.86834 48.81283
# Shear Modulus (GPa) = 28.56246 33.67509 31.11878
#
# Velocity S-wave (km/s) = 3.64276 3.95537 3.80228
# Velocity P-wave (km/s) = 5.89659 7.00988 6.47720
#
# Compressibility (1/GPa) = 0.02720547
#
# Stress axis : x y z
#
# Youngs Moduli (GPa) = 81.72173 54.91586 101.25399
#
# Poissons Ratio (x) = 0.10435 0.31444
# Poissons Ratio (y) = 0.15529 0.15724
# Poissons Ratio (z) = 0.25378 0.08528
#
# Static dielectric constant tensor:
#      x y z
#    x 2.275760 0.552860 -2.642530 
#    y 0.552860 3.623960 1.428720 
#    z -2.642530 1.428720 0.671580 
# 
# 
# High freq. dielectric constant tensor:
#      x y z
#    x 1.834690 -0.002830 -0.002240 
#    y -0.002830 1.833170 0.012570 
#    z -0.002240 0.012570 1.866460 
# 
# From -- ./inp_files/206470.got.cif
#   From: 2010.06.25/outbox.cif.g09.slc.cpg/sg2_104_cif.got.tgz:206470.got - 2010.06.27 13:26:56.
