data_PCOD8010219
_publ_section_title
;
Structure prediction by ZEFSAII (Michael W. Deem and Ramdas Pophale) SiO2 
 PCOD8010219
Probable space group: P -1
;
_chemical_formula_sum "Si O2"
_cell_formula_units_Z 14
_cell_length_a 9.288402
_cell_length_b 12.277079
_cell_length_c 16.365460
_cell_angle_alpha 26.528825
_cell_angle_beta 127.041359
_cell_angle_gamma 133.907040
_cell_volume 599.592833
_symmetry_space_group_name_H-M "P -1"
_symmetry_group_IT_number 2
_symmetry_cell_setting 'triclinic'
loop_
_space_group_symop_operation_xyz
x,y,z
-x,-y,-z
loop_
_atom_site_type_symbol
_atom_site_label
_atom_site_fract_x
_atom_site_fract_y
_atom_site_fract_z
Si Si1 0.903750 0.058865 0.006237
Si Si2 0.810529 0.550668 0.424408
Si Si3 0.884075 0.493572 0.091228
Si Si4 0.358699 0.097549 0.554860
Si Si5 0.779360 0.625508 0.798548
Si Si6 0.710441 0.743853 0.412996
Si Si7 0.491613 0.941435 0.942616
O O1 0.804494 0.788898 0.207907
O O2 0.056112 0.313991 0.938370
O O3 0.718709 0.116981 0.870318
O O4 0.000000 0.000000 0.000000
O O5 0.599324 0.280711 0.523349
O O6 0.853292 0.668005 0.454182
O O7 0.000000 0.500000 0.500000
O O8 0.055989 0.411603 0.175807
O O9 0.689541 0.216842 0.235764
O O10 0.837210 0.660135 0.890745
O O11 0.265070 0.126545 0.416243
O O12 0.233590 0.191152 0.516290
O O13 0.567359 0.370725 0.884763
O O14 0.500000 0.500000 0.500000
O O15 0.682369 0.003190 0.196308
O O16 0.500000 0.000000 0.000000
#
# Coordination Sequence:
#
# PCOD8010219 Si02
#       7
#     2   2   2   2   2   2   2
#     4  12  28  46  72 106 143 197 240 296 366 436
#     4  11  25  45  68 105 148 190 241 297 353 429
#     4  11  25  44  73 110 146 182 241 305 362 425
#     4  11  23  45  74 107 141 190 238 298 366 425
#     4  11  22  42  74 109 145 181 237 306 360 418
#     4  10  21  37  71 104 137 180 239 296 348 418
#     4  12  19  43  73 101 140 187 245 293 352 420
#
# _framework density 23.349177999999998
#
# number of rings (size 3 to 8) (size 9 to 14) (size 15 to 20)
#    0.000    0.857    5.714    1.286    6.000    0.000 
#    2.571    3.571    0.000    0.000    0.000    0.000 
#    0.000    0.000    0.000    0.000    0.000    0.000 
#
# Total GULP energy -173446.687897 kJ/mol
# GULP energy per Si atom -12389.049135 kJ/mol
# Density = 2.329603 g / cm^3
# Si number density = 23.349178 Si / 1000 Ang^3
#
#
#
# Elastic Constant Matrix: (Units=GPa)
#
#
# Indices 1 2 3 4 5 6 
#
# 1 142.1433 54.4044 25.5306 -2.5342 -5.2584 -2.7972
# 2 54.4044 137.3099 41.8555 -12.2768 -11.9324 -1.9045
# 3 25.5306 41.8555 99.4750 1.6376 -6.7343 1.5136
# 4 -2.5342 -12.2768 1.6376 42.9499 5.9122 2.4049
# 5 -5.2584 -11.9324 -6.7343 5.9122 26.0100 5.1834
# 6 -2.7972 -1.9045 1.5136 2.4049 5.1834 25.6174
#
#
#
# Elastic Compliance Matrix: (Units=1/GPa)
#
#
# Indices 1 2 3 4 5 6 
#
# 1 0.008377 -0.003083 -0.000859 -0.000397 -0.000007 0.000775
# 2 -0.003083 0.009935 -0.003253 0.002437 0.002569 -0.000154
# 3 -0.000859 -0.003253 0.011826 -0.001638 0.002025 -0.001290
# 4 -0.000397 0.002437 -0.001638 0.024740 -0.004787 -0.001119
# 5 -0.000007 0.002569 0.002025 -0.004787 0.042861 -0.008153
# 6 0.000775 -0.000154 -0.001290 -0.001119 -0.008153 0.040940
#
#
# Mechanical properties :
#
#
# Convention : Reuss Voigt Hill
#
# Bulk Modulus (GPa) = 63.49627 69.16770 66.33199
# Shear Modulus (GPa) = 31.58222 36.05797 33.82009
#
# Velocity S-wave (km/s) = 3.68177 3.93401 3.80998
# Velocity P-wave (km/s) = 6.73254 7.09385 6.91556
#
# Compressibility (1/GPa) = 0.01574896
#
# Stress axis : x y z
#
# Youngs Moduli (GPa) = 119.37153 100.65644 84.56272
#
# Poissons Ratio (x) = 0.31030 0.07261
# Poissons Ratio (y) = 0.36800 0.27507
# Poissons Ratio (z) = 0.10250 0.32742
#
# Static dielectric constant tensor:
#      x y z
#    x 3.078580 -0.688740 -1.065030 
#    y -0.688740 4.105150 -0.606320 
#    z -1.065030 -0.606320 3.994940 
# 
# 
# High freq. dielectric constant tensor:
#      x y z
#    x 1.890000 0.006240 -0.018240 
#    y 0.006240 1.931950 -0.002900 
#    z -0.018240 -0.002900 1.936200 
# 
# From -- ./inp_files/391866.got.cif
#   From: 2010.06.25/outbox.cif.g09.slc.cpg/sg2_196_cif.got.tgz:391866.got - 2010.06.27 13:26:56.
