data_PCOD8010842
_publ_section_title
;
Structure prediction by ZEFSAII (Michael W. Deem and Ramdas Pophale) SiO2 
 PCOD8010842
Probable space group: P -1
;
_chemical_formula_sum "Si O2"
_cell_formula_units_Z 16
_cell_length_a 6.759848
_cell_length_b 11.876081
_cell_length_c 14.342512
_cell_angle_alpha 42.825391
_cell_angle_beta 100.977541
_cell_angle_gamma 85.370922
_cell_volume 725.273637
_symmetry_space_group_name_H-M "P -1"
_symmetry_group_IT_number 2
_symmetry_cell_setting 'triclinic'
loop_
_space_group_symop_operation_xyz
x,y,z
-x,-y,-z
loop_
_atom_site_type_symbol
_atom_site_label
_atom_site_fract_x
_atom_site_fract_y
_atom_site_fract_z
Si Si1 0.954407 0.225978 0.463004
Si Si2 0.439291 0.444947 0.802750
Si Si3 0.335131 0.185178 0.091496
Si Si4 0.740566 0.877120 0.280496
Si Si5 0.944619 0.021510 0.875400
Si Si6 0.537430 0.639530 0.849485
Si Si7 0.286691 0.971372 0.528482
Si Si8 0.535842 0.339606 0.669362
O O1 0.801172 0.422195 0.311908
O O2 0.818572 0.090580 0.533488
O O3 0.071842 0.225010 0.570854
O O4 0.130154 0.156757 0.439133
O O5 0.589962 0.537358 0.816872
O O6 0.557122 0.389627 0.748452
O O7 0.408362 0.283535 0.953830
O O8 0.288045 0.294340 0.119618
O O9 0.538381 0.010884 0.233964
O O10 0.125308 0.139681 0.072053
O O11 0.662255 0.733736 0.307545
O O12 0.839447 0.980527 0.154154
O O13 0.753144 0.201716 0.735029
O O14 0.000000 0.000000 0.000000
O O15 0.332511 0.815064 0.705256
O O16 0.500000 0.500000 0.000000
O O17 0.500000 0.000000 0.500000
O O18 0.500000 0.500000 0.500000
#
# Coordination Sequence:
#
# PCOD8010842 Si02
#       8
#     2   2   2   2   2   2   2   2
#     4  10  22  38  61  93 123 162 210 258 312 373
#     4  10  21  40  64  91 130 169 209 266 319 374
#     4  10  21  41  65  91 130 166 210 262 329 381
#     4  11  23  40  66  91 127 166 212 266 317 377
#     4  11  24  40  65  94 123 168 218 259 319 382
#     4   9  19  38  63  91 124 166 205 258 317 381
#     4  10  21  38  64  90 128 167 210 258 316 381
#     4  11  25  43  64  92 129 169 211 267 326 375
#
# _framework density 22.060642000000001
#
# number of rings (size 3 to 8) (size 9 to 14) (size 15 to 20)
#    0.000    1.750    1.250    2.250    1.750    7.000 
#    0.000    3.750    0.000   10.500    0.000    0.000 
#    0.000    0.000    0.000    0.000    0.000    0.000 
#
# Total GULP energy -198260.777085 kJ/mol
# GULP energy per Si atom -12391.298568 kJ/mol
# Density = 2.201043 g / cm^3
# Si number density = 22.060642 Si / 1000 Ang^3
#
#
#
# Elastic Constant Matrix: (Units=GPa)
#
#
# Indices 1 2 3 4 5 6 
#
# 1 121.5519 46.7125 10.5688 3.5966 -3.5161 24.3858
# 2 46.7125 137.9644 18.6040 20.1417 -6.4518 34.8550
# 3 10.5688 18.6040 81.8727 2.0474 -0.7264 13.9727
# 4 3.5966 20.1417 2.0474 39.0253 2.2892 11.5249
# 5 -3.5161 -6.4518 -0.7264 2.2892 26.4090 -0.1430
# 6 24.3858 34.8550 13.9727 11.5249 -0.1430 37.8662
#
#
#
# Elastic Compliance Matrix: (Units=1/GPa)
#
#
# Indices 1 2 3 4 5 6 
#
# 1 0.010085 -0.002432 0.000030 0.001703 0.000576 -0.004783
# 2 -0.002432 0.010489 -0.000808 -0.003289 0.002465 -0.006780
# 3 0.000030 -0.000808 0.013125 0.001032 0.000054 -0.004432
# 4 0.001703 -0.003289 0.001032 0.029492 -0.003145 -0.007438
# 5 0.000576 0.002465 0.000054 -0.003145 0.038810 -0.001556
# 6 -0.004783 -0.006780 -0.004432 -0.007438 -0.001556 0.039623
#
#
# Mechanical properties :
#
#
# Convention : Reuss Voigt Hill
#
# Bulk Modulus (GPa) = 36.65972 54.79550 45.72761
# Shear Modulus (GPa) = 31.81912 38.36034 35.08973
#
# Velocity S-wave (km/s) = 3.80195 4.17449 3.99256
# Velocity P-wave (km/s) = 5.99390 6.93741 6.48284
#
# Compressibility (1/GPa) = 0.02727789
#
# Stress axis : x y z
#
# Youngs Moduli (GPa) = 99.15916 95.33786 76.19057
#
# Poissons Ratio (x) = 0.23184 -0.00225
# Poissons Ratio (y) = 0.24113 0.06158
# Poissons Ratio (z) = -0.00293 0.07706
#
# Static dielectric constant tensor:
#      x y z
#    x 3.841540 0.362250 0.353780 
#    y 0.362250 4.299560 -0.113710 
#    z 0.353780 -0.113710 4.225220 
# 
# 
# High freq. dielectric constant tensor:
#      x y z
#    x 1.841550 0.022990 0.009360 
#    y 0.022990 1.882400 0.003050 
#    z 0.009360 0.003050 1.876750 
# 
# From -- ./inp_files/482658.got.cif
#   From: 2010.06.25/outbox.cif.g09.slc.cpg/sg2_242_cif.got.tgz:482658.got - 2010.06.27 13:26:56.
