data_PCOD8010200
_publ_section_title
;
Structure prediction by ZEFSAII (Michael W. Deem and Ramdas Pophale) SiO2 
 PCOD8010200
Probable space group: P -1
;
_chemical_formula_sum "Si O2"
_cell_formula_units_Z 16
_cell_length_a 8.896290
_cell_length_b 20.656174
_cell_length_c 12.970408
_cell_angle_alpha 29.065388
_cell_angle_beta 130.541281
_cell_angle_gamma 137.406679
_cell_volume 783.510829
_symmetry_space_group_name_H-M "P -1"
_symmetry_group_IT_number 2
_symmetry_cell_setting 'triclinic'
loop_
_space_group_symop_operation_xyz
x,y,z
-x,-y,-z
loop_
_atom_site_type_symbol
_atom_site_label
_atom_site_fract_x
_atom_site_fract_y
_atom_site_fract_z
Si Si1 0.613817 0.436632 0.485871
Si Si2 0.515663 0.157856 0.301955
Si Si3 0.758652 0.567702 0.041400
Si Si4 0.681721 0.161209 0.814436
Si Si5 0.805149 0.589649 0.566958
Si Si6 0.172761 0.273801 0.950047
Si Si7 0.899656 0.381205 0.033692
Si Si8 0.276581 0.742739 0.527959
O O1 0.666944 0.300058 0.671005
O O2 0.757765 0.548004 0.484631
O O3 0.358697 0.360398 0.515604
O O4 0.670698 0.554123 0.254405
O O5 0.548214 0.203214 0.374764
O O6 0.500000 0.000000 0.500000
O O7 0.307577 0.176279 0.137181
O O8 0.723993 0.235906 0.211762
O O9 0.860675 0.706400 0.971938
O O10 0.797120 0.430184 0.291937
O O11 0.897529 0.638438 0.900280
O O12 0.500000 0.500000 0.000000
O O13 0.634295 0.159668 0.672267
O O14 0.933710 0.185837 0.910269
O O15 0.500000 0.000000 0.000000
O O16 0.780851 0.437368 0.818857
O O17 0.045897 0.735966 0.476577
O O18 0.000000 0.500000 0.000000
#
# Coordination Sequence:
#
# PCOD8010200 Si02
#       8
#     2   2   2   2   2   2   2   2
#     4  11  22  40  71  99 128 171 227 277 323 392
#     4  12  27  45  65  98 140 175 219 279 341 396
#     4  11  21  37  72 104 130 169 232 277 321 390
#     4  12  27  45  66 100 140 175 217 276 344 402
#     4  10  21  37  69 102 125 166 232 272 320 383
#     4  12  23  46  69  99 130 182 226 275 330 396
#     4  11  20  38  64  95 128 171 222 268 319 389
#     4  11  22  43  66  99 132 176 218 275 331 400
#
# _framework density 20.420904
#
# number of rings (size 3 to 8) (size 9 to 14) (size 15 to 20)
#    0.000    0.750    7.500    1.875    0.000    3.000 
#    2.250    2.500    0.000    0.000    0.000    0.000 
#    0.000    0.000    0.000    0.000    0.000    0.000 
#
# Total GULP energy -198257.685811 kJ/mol
# GULP energy per Si atom -12391.105363 kJ/mol
# Density = 2.037443 g / cm^3
# Si number density = 20.420904 Si / 1000 Ang^3
#
#
#
# Elastic Constant Matrix: (Units=GPa)
#
#
# Indices 1 2 3 4 5 6 
#
# 1 134.7909 42.4241 62.3349 3.1657 -2.4660 10.2258
# 2 42.4241 57.4103 33.5954 3.4145 -0.5407 15.5899
# 3 62.3349 33.5954 112.2078 -12.9649 -8.7650 11.7597
# 4 3.1657 3.4145 -12.9649 33.1466 -3.6835 3.2158
# 5 -2.4660 -0.5407 -8.7650 -3.6835 40.6597 5.4155
# 6 10.2258 15.5899 11.7597 3.2158 5.4155 31.1906
#
#
#
# Elastic Compliance Matrix: (Units=1/GPa)
#
#
# Indices 1 2 3 4 5 6 
#
# 1 0.011605 -0.005729 -0.005295 -0.002845 -0.000974 0.001518
# 2 -0.005729 0.026912 -0.004180 -0.002901 0.000141 -0.009723
# 3 -0.005295 -0.004180 0.014582 0.007368 0.003847 -0.003100
# 4 -0.002845 -0.002901 0.007368 0.034668 0.005166 -0.004866
# 5 -0.000974 0.000141 0.003847 0.005166 0.026683 -0.006367
# 6 0.001518 -0.009723 -0.003100 -0.004866 -0.006367 0.039199
#
#
# Mechanical properties :
#
#
# Convention : Reuss Voigt Hill
#
# Bulk Modulus (GPa) = 44.07213 64.56863 54.32038
# Shear Modulus (GPa) = 26.09318 32.06967 29.08143
#
# Velocity S-wave (km/s) = 3.57847 3.96717 3.77782
# Velocity P-wave (km/s) = 6.22114 7.25755 6.75924
#
# Compressibility (1/GPa) = 0.02269007
#
# Stress axis : x y z
#
# Youngs Moduli (GPa) = 86.17173 37.15788 68.57702
#
# Poissons Ratio (x) = 0.21287 0.36314
# Poissons Ratio (y) = 0.49366 0.28667
# Poissons Ratio (z) = 0.45631 0.15533
#
# Static dielectric constant tensor:
#      x y z
#    x 4.290660 0.234850 -0.179820 
#    y 0.234850 3.856610 0.072370 
#    z -0.179820 0.072370 3.810310 
# 
# 
# High freq. dielectric constant tensor:
#      x y z
#    x 1.818790 0.006800 -0.011880 
#    y 0.006800 1.785680 0.023670 
#    z -0.011880 0.023670 1.786420 
# 
# From -- ./inp_files/298727.got.cif
#   From: 2010.06.25/outbox.cif.g09.slc.cpg/sg2_150_cif.got.tgz:298727.got - 2010.06.27 13:26:56.
