data_PCOD8010969
_publ_section_title
;
Structure prediction by ZEFSAII (Michael W. Deem and Ramdas Pophale) SiO2 
 PCOD8010969
Probable space group: P -1
;
_chemical_formula_sum "Si O2"
_cell_formula_units_Z 16
_cell_length_a 5.068750
_cell_length_b 19.946408
_cell_length_c 8.551654
_cell_angle_alpha 109.613714
_cell_angle_beta 115.638484
_cell_angle_gamma 65.709354
_cell_volume 697.264421
_symmetry_space_group_name_H-M "P -1"
_symmetry_group_IT_number 2
_symmetry_cell_setting 'triclinic'
loop_
_space_group_symop_operation_xyz
x,y,z
-x,-y,-z
loop_
_atom_site_type_symbol
_atom_site_label
_atom_site_fract_x
_atom_site_fract_y
_atom_site_fract_z
Si Si1 0.841002 0.240427 0.074793
Si Si2 0.824542 0.229956 0.695693
Si Si3 0.213511 0.550470 0.057835
Si Si4 0.171198 0.921657 0.559609
Si Si5 0.754604 0.667535 0.813768
Si Si6 0.110221 0.130304 0.280724
Si Si7 0.597080 0.418056 0.532075
Si Si8 0.126943 0.280291 0.543773
O O1 0.522084 0.286521 0.109430
O O2 0.111362 0.277463 0.212502
O O3 0.962631 0.151316 0.086399
O O4 0.818936 0.242046 0.886080
O O5 0.911268 0.141618 0.611678
O O6 0.476138 0.271837 0.582425
O O7 0.061159 0.266832 0.701803
O O8 0.028451 0.619664 0.958142
O O9 0.500000 0.500000 0.000000
O O10 0.358254 0.578842 0.267878
O O11 0.000000 0.500000 0.000000
O O12 0.529956 0.911785 0.652110
O O13 0.054764 0.919885 0.705960
O O14 0.000000 0.000000 0.500000
O O15 0.663723 0.616852 0.619694
O O16 0.008229 0.215982 0.386197
O O17 0.500000 0.500000 0.500000
O O18 0.921883 0.363669 0.505025
#
# Coordination Sequence:
#
# PCOD8010969 Si02
#       8
#     2   2   2   2   2   2   2   2
#     4  12  23  43  66  98 126 166 227 269 325 384
#     4  10  22  41  68  92 131 171 211 271 322 382
#     4  12  27  47  63  91 130 169 217 275 349 413
#     4  10  21  40  65  99 134 173 212 253 318 390
#     4  12  27  44  69  95 129 173 225 285 337 397
#     4  10  21  38  65  92 130 166 213 266 306 386
#     4  12  26  46  69  94 131 174 222 284 348 393
#     4  10  22  41  62  92 119 171 219 259 327 396
#
# _framework density 22.946819999999999
#
# number of rings (size 3 to 8) (size 9 to 14) (size 15 to 20)
#    0.000    1.000    2.500    4.125    3.500    2.500 
#    0.000    1.250    0.000    0.000    0.000    0.000 
#    0.000    0.000    0.000    0.000    0.000    0.000 
#
# Total GULP energy -198338.009842 kJ/mol
# GULP energy per Si atom -12396.125615 kJ/mol
# Density = 2.289459 g / cm^3
# Si number density = 22.946820 Si / 1000 Ang^3
#
#
#
# Elastic Constant Matrix: (Units=GPa)
#
#
# Indices 1 2 3 4 5 6 
#
# 1 129.3755 43.2087 2.3853 -3.1777 -10.0958 -6.1622
# 2 43.2087 149.5887 22.3353 -32.1983 3.6373 -7.3807
# 3 2.3853 22.3353 84.7866 -17.6249 10.1612 -2.2574
# 4 -3.1777 -32.1983 -17.6249 30.3186 5.9211 -1.8672
# 5 -10.0958 3.6373 10.1612 5.9211 23.2764 -4.5989
# 6 -6.1622 -7.3807 -2.2574 -1.8672 -4.5989 39.1381
#
#
#
# Elastic Compliance Matrix: (Units=1/GPa)
#
#
# Indices 1 2 3 4 5 6 
#
# 1 0.009438 -0.003688 -0.001032 -0.004733 0.006577 0.001278
# 2 -0.003688 0.010583 0.000767 0.012658 -0.006552 0.001293
# 3 -0.001032 0.000767 0.015242 0.011556 -0.010117 0.000224
# 4 -0.004733 0.012658 0.011556 0.057321 -0.023199 0.002317
# 5 0.006577 -0.006552 -0.010117 -0.023199 0.058133 0.004940
# 6 0.001278 0.001293 0.000224 0.002317 0.004940 0.026700
#
#
# Mechanical properties :
#
#
# Convention : Reuss Voigt Hill
#
# Bulk Modulus (GPa) = 36.55299 55.51215 46.03257
# Shear Modulus (GPa) = 25.71461 38.26803 31.99132
#
# Velocity S-wave (km/s) = 3.35119 4.08816 3.73788
# Velocity P-wave (km/s) = 5.56220 6.82116 6.22359
#
# Compressibility (1/GPa) = 0.02735754
#
# Stress axis : x y z
#
# Youngs Moduli (GPa) = 105.95588 94.48749 65.60813
#
# Poissons Ratio (x) = 0.34843 0.06771
# Poissons Ratio (y) = 0.39072 -0.05031
# Poissons Ratio (z) = 0.10935 -0.07245
#
# Static dielectric constant tensor:
#      x y z
#    x 4.625720 0.214720 -0.093140 
#    y 0.214720 4.255240 -0.130740 
#    z -0.093140 -0.130740 4.494150 
# 
# 
# High freq. dielectric constant tensor:
#      x y z
#    x 1.918190 -0.003100 -0.011650 
#    y -0.003100 1.903370 -0.019830 
#    z -0.011650 -0.019830 1.913810 
# 
# From -- ./inp_files/141457.got.cif
#   From: 2010.06.25/outbox.cif.g09.slc.cpg/sg2_71_cif.got.tgz:141457.got - 2010.06.27 13:26:56.
