data_PCOD8010706
_publ_section_title
;
Structure prediction by ZEFSAII (Michael W. Deem and Ramdas Pophale) SiO2 
 PCOD8010706
Probable space group: P -1
;
_chemical_formula_sum "Si O2"
_cell_formula_units_Z 16
_cell_length_a 20.648618
_cell_length_b 12.968318
_cell_length_c 9.498260
_cell_angle_alpha 120.128002
_cell_angle_beta 58.967717
_cell_angle_gamma 159.971176
_cell_volume 745.087139
_symmetry_space_group_name_H-M "P -1"
_symmetry_group_IT_number 2
_symmetry_cell_setting 'triclinic'
loop_
_space_group_symop_operation_xyz
x,y,z
-x,-y,-z
loop_
_atom_site_type_symbol
_atom_site_label
_atom_site_fract_x
_atom_site_fract_y
_atom_site_fract_z
Si Si1 0.438791 0.735918 0.774127
Si Si2 0.511773 0.792919 0.149979
Si Si3 0.333240 0.319959 0.649491
Si Si4 0.120591 0.832768 0.046838
Si Si5 0.095974 0.963813 0.409936
Si Si6 0.307210 0.506454 0.467297
Si Si7 0.707599 0.225536 0.013343
Si Si8 0.326984 0.296848 0.957150
O O1 0.363715 0.504655 0.767070
O O2 0.448109 0.733847 0.595196
O O3 0.294047 0.634183 0.907029
O O4 0.649217 0.073414 0.830023
O O5 0.443950 0.733183 0.338823
O O6 0.542614 0.952498 0.126183
O O7 0.343490 0.464127 0.052071
O O8 0.715916 0.022055 0.079904
O O9 0.500000 0.500000 0.500000
O O10 0.143777 0.022813 0.563351
O O11 0.325353 0.247936 0.763386
O O12 0.913495 0.474937 0.003338
O O13 0.141006 0.906122 0.236610
O O14 0.135002 0.970321 0.022500
O O15 0.224993 0.252989 0.389401
O O16 0.870814 0.661212 0.441339
O O17 0.500000 0.500000 0.000000
#
# Coordination Sequence:
#
# PCOD8010706 Si02
#       8
#     2   2   2   2   2   2   2   2
#     4  10  23  41  65  87 135 176 212 260 328 395
#     4  11  22  39  68  93 127 170 227 262 322 385
#     4  11  22  39  68 100 128 166 221 276 327 374
#     4  11  22  41  66  98 128 171 219 276 321 382
#     4  10  21  39  65  94 134 162 212 273 329 376
#     4  10  21  41  64  96 124 173 215 268 322 382
#     4  11  23  44  62  92 135 182 212 257 330 404
#     4  10  21  38  62  97 126 162 212 274 321 378
#
# _framework density 21.473998000000002
#
# number of rings (size 3 to 8) (size 9 to 14) (size 15 to 20)
#    0.000    1.500    3.750    1.875    5.250    0.500 
#    4.500    1.875    0.000    0.000    0.000    0.000 
#    0.000    0.000    0.000    0.000    0.000    0.000 
#
# Total GULP energy -198306.418533 kJ/mol
# GULP energy per Si atom -12394.151158 kJ/mol
# Density = 2.142512 g / cm^3
# Si number density = 21.473998 Si / 1000 Ang^3
#
#
#
# Elastic Constant Matrix: (Units=GPa)
#
#
# Indices 1 2 3 4 5 6 
#
# 1 66.1630 16.5294 31.5841 -0.8670 11.0601 1.4903
# 2 16.5294 75.0397 40.3315 3.4580 5.2945 -4.5725
# 3 31.5841 40.3315 132.8677 3.3889 21.9399 1.5779
# 4 -0.8670 3.4580 3.3889 30.7985 1.5224 4.0738
# 5 11.0601 5.2945 21.9399 1.5224 38.6351 -1.0269
# 6 1.4903 -4.5725 1.5779 4.0738 -1.0269 22.5157
#
#
#
# Elastic Compliance Matrix: (Units=1/GPa)
#
#
# Indices 1 2 3 4 5 6 
#
# 1 0.017703 -0.002229 -0.003027 0.001479 -0.003150 -0.001824
# 2 -0.002229 0.016620 -0.004718 -0.002037 0.001234 0.004278
# 3 -0.003027 -0.004718 0.010439 -0.000267 -0.004448 -0.001644
# 4 0.001479 -0.002037 -0.000267 0.033724 -0.001499 -0.006663
# 5 -0.003150 0.001234 -0.004448 -0.001499 0.029264 0.002377
# 6 -0.001824 0.004278 -0.001644 -0.006663 0.002377 0.046832
#
#
# Mechanical properties :
#
#
# Convention : Reuss Voigt Hill
#
# Bulk Modulus (GPa) = 40.30072 50.10671 45.20372
# Shear Modulus (GPa) = 27.35181 30.76490 29.05835
#
# Velocity S-wave (km/s) = 3.57279 3.78915 3.68256
# Velocity P-wave (km/s) = 5.98563 6.52134 6.25922
#
# Compressibility (1/GPa) = 0.02481345
#
# Stress axis : x y z
#
# Youngs Moduli (GPa) = 56.48626 60.16669 95.79670
#
# Poissons Ratio (x) = 0.13414 0.29002
# Poissons Ratio (y) = 0.12593 0.45194
# Poissons Ratio (z) = 0.17101 0.28385
#
# Static dielectric constant tensor:
#      x y z
#    x 4.134390 -0.287080 0.256510 
#    y -0.287080 4.118300 0.198360 
#    z 0.256510 0.198360 3.911990 
# 
# 
# High freq. dielectric constant tensor:
#      x y z
#    x 1.838460 -0.002590 0.009080 
#    y -0.002590 1.822200 0.017750 
#    z 0.009080 0.017750 1.845700 
# 
# From -- ./inp_files/354156.got.cif
#   From: 2010.06.25/outbox.cif.g09.slc.cpg/sg2_178_cif.got.tgz:354156.got - 2010.06.27 13:26:56.
