data_PCOD8010745
_publ_section_title
;
Structure prediction by ZEFSAII (Michael W. Deem and Ramdas Pophale) SiO2 
 PCOD8010745
Probable space group: P -1
;
_chemical_formula_sum "Si O2"
_cell_formula_units_Z 16
_cell_length_a 12.433921
_cell_length_b 10.496998
_cell_length_c 8.492047
_cell_angle_alpha 136.598627
_cell_angle_beta 86.701851
_cell_angle_gamma 103.937343
_cell_volume 727.589928
_symmetry_space_group_name_H-M "P -1"
_symmetry_group_IT_number 2
_symmetry_cell_setting 'triclinic'
loop_
_space_group_symop_operation_xyz
x,y,z
-x,-y,-z
loop_
_atom_site_type_symbol
_atom_site_label
_atom_site_fract_x
_atom_site_fract_y
_atom_site_fract_z
Si Si1 0.318875 0.226072 0.670362
Si Si2 0.257680 0.509427 0.142826
Si Si3 0.009986 0.392640 0.157883
Si Si4 0.405518 0.945111 0.586305
Si Si5 0.327532 0.384784 0.334164
Si Si6 0.910212 0.687109 0.585324
Si Si7 0.476139 0.239683 0.382331
Si Si8 0.083820 0.989396 0.344880
O O1 0.424260 0.287762 0.596723
O O2 0.342617 0.110708 0.721965
O O3 0.212684 0.079988 0.463482
O O4 0.291277 0.423887 0.900840
O O5 0.126065 0.490362 0.144300
O O6 0.322989 0.732238 0.365367
O O7 0.286742 0.366140 0.141677
O O8 0.028857 0.305548 0.246640
O O9 0.945683 0.551709 0.333098
O O10 0.932486 0.229979 0.905279
O O11 0.469101 0.937052 0.743122
O O12 0.500000 0.000000 0.500000
O O13 0.224531 0.389887 0.459701
O O14 0.378075 0.208207 0.228564
O O15 0.422771 0.584999 0.531744
O O16 0.948188 0.902380 0.706031
O O17 0.000000 0.000000 0.500000
#
# Coordination Sequence:
#
# PCOD8010745 Si02
#       8
#     2   2   2   2   2   2   2   2
#     4  11  22  39  61  91 126 163 200 249 309 368
#     4  10  21  38  63  90 122 164 200 247 313 365
#     4  10  23  41  64  91 123 166 209 250 307 368
#     4   9  21  37  59  86 121 156 198 249 299 363
#     4   9  18  37  64  88 115 158 205 253 303 361
#     4  10  22  42  64  88 124 165 204 255 309 367
#     4   9  18  38  63  84 119 154 202 257 302 355
#     4  12  24  39  61  95 127 163 206 256 305 367
#
# _framework density 21.990409
#
# number of rings (size 3 to 8) (size 9 to 14) (size 15 to 20)
#    0.000    2.000    2.500    0.375    1.750    6.000 
#    0.000    0.625    2.750    0.000    0.000    0.000 
#    0.000    0.000    0.000    0.000    0.000    0.000 
#
# Total GULP energy -198226.120889 kJ/mol
# GULP energy per Si atom -12389.132556 kJ/mol
# Density = 2.194036 g / cm^3
# Si number density = 21.990409 Si / 1000 Ang^3
#
#
#
# Elastic Constant Matrix: (Units=GPa)
#
#
# Indices 1 2 3 4 5 6 
#
# 1 92.0118 18.8323 17.5438 4.5818 -2.6601 7.3145
# 2 18.8323 78.0274 -6.9648 0.9968 -6.6594 6.1305
# 3 17.5438 -6.9648 65.9164 7.4130 -16.1210 15.3087
# 4 4.5818 0.9968 7.4130 20.8036 0.8964 -3.3464
# 5 -2.6601 -6.6594 -16.1210 0.8964 20.0745 -4.4474
# 6 7.3145 6.1305 15.3087 -3.3464 -4.4474 36.6730
#
#
#
# Elastic Compliance Matrix: (Units=1/GPa)
#
#
# Indices 1 2 3 4 5 6 
#
# 1 0.012399 -0.003552 -0.004135 -0.001058 -0.002943 -0.000607
# 2 -0.003552 0.015236 0.005799 -0.002946 0.008600 -0.003485
# 3 -0.004135 0.005799 0.025096 -0.010645 0.019973 -0.009170
# 4 -0.001058 -0.002946 -0.010645 0.054097 -0.010120 0.008856
# 5 -0.002943 0.008600 0.019973 -0.010120 0.068366 -0.001821
# 6 -0.000607 -0.003485 -0.009170 0.008856 -0.001821 0.032387
#
#
# Mechanical properties :
#
#
# Convention : Reuss Voigt Hill
#
# Bulk Modulus (GPa) = 20.42669 32.75314 26.58992
# Shear Modulus (GPa) = 21.96109 29.27983 25.62046
#
# Velocity S-wave (km/s) = 3.16360 3.65291 3.41702
# Velocity P-wave (km/s) = 4.75957 5.71999 5.26174
#
# Compressibility (1/GPa) = 0.04895556
#
# Stress axis : x y z
#
# Youngs Moduli (GPa) = 80.64886 65.63238 39.84733
#
# Poissons Ratio (x) = 0.23312 0.16479
# Poissons Ratio (y) = 0.28645 -0.23109
# Poissons Ratio (z) = 0.33352 -0.38062
#
# Static dielectric constant tensor:
#      x y z
#    x 4.428910 -0.495400 -0.088880 
#    y -0.495400 4.584310 -0.046870 
#    z -0.088880 -0.046870 3.482950 
# 
# 
# High freq. dielectric constant tensor:
#      x y z
#    x 1.884020 -0.006150 -0.007130 
#    y -0.006150 1.880420 -0.008790 
#    z -0.007130 -0.008790 1.821630 
# 
# From -- ./inp_files/260979.got.cif
#   From: 2010.06.25/outbox.cif.g09.slc.cpg/sg2_131_cif.got.tgz:260979.got - 2010.06.27 13:26:56.
