data_PCOD8010335
_publ_section_title
;
Structure prediction by ZEFSAII (Michael W. Deem and Ramdas Pophale) SiO2 
 PCOD8010335
Probable space group: P -1
;
_chemical_formula_sum "Si O2"
_cell_formula_units_Z 14
_cell_length_a 15.590371
_cell_length_b 15.247159
_cell_length_c 9.513295
_cell_angle_alpha 108.711132
_cell_angle_beta 131.448821
_cell_angle_gamma 29.762625
_cell_volume 615.215349
_symmetry_space_group_name_H-M "P -1"
_symmetry_group_IT_number 2
_symmetry_cell_setting 'triclinic'
loop_
_space_group_symop_operation_xyz
x,y,z
-x,-y,-z
loop_
_atom_site_type_symbol
_atom_site_label
_atom_site_fract_x
_atom_site_fract_y
_atom_site_fract_z
Si Si1 0.385688 0.733466 0.499853
Si Si2 0.556605 0.727925 0.197437
Si Si3 0.793261 0.506084 0.040340
Si Si4 0.685025 0.770336 0.605013
Si Si5 0.110620 0.757564 0.328672
Si Si6 0.177552 0.069372 0.360631
Si Si7 0.284563 0.589043 0.735252
O O1 0.184833 0.795904 0.346973
O O2 0.699661 0.471000 0.637260
O O3 0.192392 0.945950 0.298174
O O4 0.476336 0.722840 0.734191
O O5 0.750144 0.577648 0.187623
O O6 0.691963 0.698516 0.439829
O O7 0.541582 0.638140 0.209486
O O8 0.232598 0.007948 0.947641
O O9 0.974679 0.448303 0.117624
O O10 0.976162 0.270388 0.126172
O O11 0.500000 0.000000 0.500000
O O12 0.526139 0.841220 0.604819
O O13 0.193544 0.707714 0.555154
O O14 0.025199 0.203164 0.413890
O O15 0.500000 0.500000 0.000000
#
# Coordination Sequence:
#
# PCOD8010335 Si02
#       7
#     2   2   2   2   2   2   2
#     4  11  23  39  61  89 122 160 202 249 302 361
#     4  11  22  39  64  91 123 159 200 250 303 359
#     4  10  22  40  62  87 119 159 203 250 300 353
#     4  10  21  40  63  87 121 162 204 249 298 354
#     4  11  23  38  60  91 123 158 200 248 305 363
#     4  10  21  38  59  85 117 156 200 243 296 352
#     4  11  23  39  62  92 126 160 198 247 303 363
#
# _framework density 22.756260000000001
#
# number of rings (size 3 to 8) (size 9 to 14) (size 15 to 20)
#    0.000    1.429    0.000    6.429    0.000    3.429 
#    0.000    7.857    0.000   12.000    0.000    0.000 
#    0.000    0.000    0.000    0.000    0.000    0.000 
#
# Total GULP energy -173471.891006 kJ/mol
# GULP energy per Si atom -12390.849358 kJ/mol
# Density = 2.270447 g / cm^3
# Si number density = 22.756260 Si / 1000 Ang^3
#
#
#
# Elastic Constant Matrix: (Units=GPa)
#
#
# Indices 1 2 3 4 5 6 
#
# 1 91.0962 33.9565 9.1394 -5.9709 2.6688 -4.9667
# 2 33.9565 101.0498 17.4008 2.6036 1.7623 6.6741
# 3 9.1394 17.4008 65.6930 2.1880 2.8845 5.4790
# 4 -5.9709 2.6036 2.1880 32.9993 5.0092 6.4838
# 5 2.6688 1.7623 2.8845 5.0092 20.3492 -0.1445
# 6 -4.9667 6.6741 5.4790 6.4838 -0.1445 36.3663
#
#
#
# Elastic Compliance Matrix: (Units=1/GPa)
#
#
# Indices 1 2 3 4 5 6 
#
# 1 0.013059 -0.004428 -0.000838 0.002604 -0.001836 0.002251
# 2 -0.004428 0.011961 -0.002333 -0.001173 0.000148 -0.002239
# 3 -0.000838 -0.002333 0.016226 -0.000344 -0.001918 -0.002077
# 4 0.002604 -0.001173 -0.000344 0.033214 -0.008405 -0.005332
# 5 -0.001836 0.000148 -0.001918 -0.008405 0.051723 0.001715
# 6 0.002251 -0.002239 -0.002077 -0.005332 0.001715 0.029487
#
#
# Mechanical properties :
#
#
# Convention : Reuss Voigt Hill
#
# Bulk Modulus (GPa) = 38.38950 42.09248 40.24099
# Shear Modulus (GPa) = 27.84738 31.09910 29.47324
#
# Velocity S-wave (km/s) = 3.50197 3.70079 3.60275
# Velocity P-wave (km/s) = 5.76699 6.06617 5.91847
#
# Compressibility (1/GPa) = 0.02604879
#
# Stress axis : x y z
#
# Youngs Moduli (GPa) = 76.57466 83.60316 61.63030
#
# Poissons Ratio (x) = 0.37018 0.05164
# Poissons Ratio (y) = 0.33906 0.14379
# Poissons Ratio (z) = 0.06416 0.19505
#
# Static dielectric constant tensor:
#      x y z
#    x 4.620770 -0.031500 0.110030 
#    y -0.031500 4.317780 -0.130100 
#    z 0.110030 -0.130100 3.707490 
# 
# 
# High freq. dielectric constant tensor:
#      x y z
#    x 1.907260 0.000300 0.004150 
#    y 0.000300 1.912740 -0.012400 
#    z 0.004150 -0.012400 1.867940 
# 
# From -- ./inp_files/187203.got.cif
#   From: 2010.06.25/outbox.cif.g09.slc.cpg/sg2_94_cif.got.tgz:187203.got - 2010.06.27 13:26:56.
