data_PCOD8010956
_publ_section_title
;
Structure prediction by ZEFSAII (Michael W. Deem and Ramdas Pophale) SiO2 
 PCOD8010956
Probable space group: P -1
;
_chemical_formula_sum "Si O2"
_cell_formula_units_Z 16
_cell_length_a 12.706421
_cell_length_b 5.622666
_cell_length_c 12.416183
_cell_angle_alpha 59.884135
_cell_angle_beta 109.419918
_cell_angle_gamma 105.521770
_cell_volume 718.121224
_symmetry_space_group_name_H-M "P -1"
_symmetry_group_IT_number 2
_symmetry_cell_setting 'triclinic'
loop_
_space_group_symop_operation_xyz
x,y,z
-x,-y,-z
loop_
_atom_site_type_symbol
_atom_site_label
_atom_site_fract_x
_atom_site_fract_y
_atom_site_fract_z
Si Si1 0.926465 0.901690 0.350426
Si Si2 0.411860 0.372609 0.086404
Si Si3 0.481989 0.883318 0.358219
Si Si4 0.676902 0.996731 0.545695
Si Si5 0.667168 0.445402 0.774143
Si Si6 0.006867 0.186678 0.106489
Si Si7 0.872698 0.294696 0.416351
Si Si8 0.188709 0.019443 0.062198
O O1 0.865373 0.628946 0.325964
O O2 0.003453 0.762461 0.493096
O O3 0.996864 0.119569 0.244413
O O4 0.847864 0.101592 0.343265
O O5 0.370711 0.597121 0.103852
O O6 0.300339 0.225572 0.021868
O O7 0.472065 0.170153 0.228973
O O8 0.500000 0.500000 0.000000
O O9 0.609560 0.879429 0.441790
O O10 0.443810 0.638114 0.317482
O O11 0.401863 0.833840 0.446799
O O12 0.715889 0.755994 0.688614
O O13 0.785246 0.197690 0.502220
O O14 0.770244 0.272653 0.826650
O O15 0.128146 0.115549 0.126217
O O16 0.000000 0.500000 0.000000
O O17 0.901189 0.996134 0.060461
#
# Coordination Sequence:
#
# PCOD8010956 Si02
#       8
#     2   2   2   2   2   2   2   2
#     4  10  25  44  64  98 134 169 229 269 343 404
#     4  10  22  42  62  93 133 173 218 275 338 407
#     4   9  21  38  59  98 124 167 223 271 328 402
#     4  10  21  38  65  91 131 169 218 278 333 399
#     4  10  21  39  65  93 125 173 223 271 336 401
#     4  11  25  43  68  96 134 172 225 283 332 411
#     4  10  24  43  66  97 131 181 214 278 338 402
#     4  10  24  40  64  99 121 177 221 274 342 394
#
# _framework density 22.280360999999999
#
# number of rings (size 3 to 8) (size 9 to 14) (size 15 to 20)
#    0.000    2.000    0.000    1.125   12.250    4.000 
#    4.500    0.000    0.000    0.000    0.000    0.000 
#    0.000    0.000    0.000    0.000    0.000    0.000 
#
# Total GULP energy -198282.137274 kJ/mol
# GULP energy per Si atom -12392.633580 kJ/mol
# Density = 2.222965 g / cm^3
# Si number density = 22.280361 Si / 1000 Ang^3
#
#
#
# Elastic Constant Matrix: (Units=GPa)
#
#
# Indices 1 2 3 4 5 6 
#
# 1 114.5561 40.4030 37.7847 -10.7324 -22.5387 2.2666
# 2 40.4030 119.0257 29.0597 -12.9044 -15.6265 -18.0088
# 3 37.7847 29.0597 79.5993 -8.8255 -25.2647 -6.1694
# 4 -10.7324 -12.9044 -8.8255 28.5827 7.1574 0.2417
# 5 -22.5387 -15.6265 -25.2647 7.1574 40.3167 2.2445
# 6 2.2666 -18.0088 -6.1694 0.2417 2.2445 31.5225
#
#
#
# Elastic Compliance Matrix: (Units=1/GPa)
#
#
# Indices 1 2 3 4 5 6 
#
# 1 0.011824 -0.003136 -0.003629 0.001154 0.003115 -0.003582
# 2 -0.003136 0.011230 -0.001545 0.003183 0.000718 0.006263
# 3 -0.003629 -0.001545 0.017758 0.001367 0.008131 0.002264
# 4 0.001154 0.003183 0.001367 0.038308 -0.004177 0.002007
# 5 0.003115 0.000718 0.008131 -0.004177 0.032689 -0.000518
# 6 -0.003582 0.006263 0.002264 0.002007 -0.000518 0.036024
#
#
# Mechanical properties :
#
#
# Convention : Reuss Voigt Hill
#
# Bulk Modulus (GPa) = 41.33544 58.63063 49.98304
# Shear Modulus (GPa) = 28.98273 33.81331 31.39802
#
# Velocity S-wave (km/s) = 3.61060 3.89990 3.75804
# Velocity P-wave (km/s) = 5.99788 6.83016 6.42750
#
# Compressibility (1/GPa) = 0.02419232
#
# Stress axis : x y z
#
# Youngs Moduli (GPa) = 84.57292 89.04593 56.31368
#
# Poissons Ratio (x) = 0.27921 0.20436
# Poissons Ratio (y) = 0.26519 0.08702
# Poissons Ratio (z) = 0.30691 0.13760
#
# Static dielectric constant tensor:
#      x y z
#    x 3.851430 -0.086350 0.061700 
#    y -0.086350 4.400200 0.197200 
#    z 0.061700 0.197200 3.811670 
# 
# 
# High freq. dielectric constant tensor:
#      x y z
#    x 1.864450 -0.003880 0.001720 
#    y -0.003880 1.885640 0.006140 
#    z 0.001720 0.006140 1.864900 
# 
# From -- ./inp_files/68470.got.cif
#   From: 2010.06.25/outbox.cif.g09.slc.cpg/sg2_35_cif.got.tgz:68470.got - 2010.06.27 13:26:56.
