data_PCOD8010189
_publ_section_title
;
Structure prediction by ZEFSAII (Michael W. Deem and Ramdas Pophale) SiO2 
 PCOD8010189
Probable space group: P -1
;
_chemical_formula_sum "Si O2"
_cell_formula_units_Z 16
_cell_length_a 11.454804
_cell_length_b 17.127529
_cell_length_c 17.967902
_cell_angle_alpha 31.403337
_cell_angle_beta 27.118776
_cell_angle_gamma 29.598952
_cell_volume 742.423029
_symmetry_space_group_name_H-M "P -1"
_symmetry_group_IT_number 2
_symmetry_cell_setting 'triclinic'
loop_
_space_group_symop_operation_xyz
x,y,z
-x,-y,-z
loop_
_atom_site_type_symbol
_atom_site_label
_atom_site_fract_x
_atom_site_fract_y
_atom_site_fract_z
Si Si1 0.317489 0.200549 0.592251
Si Si2 0.134540 0.251004 0.010338
Si Si3 0.727760 0.230080 0.907722
Si Si4 0.686752 0.812465 0.713329
Si Si5 0.239450 0.934014 0.123713
Si Si6 0.227108 0.177101 0.501355
Si Si7 0.595757 0.426980 0.278224
Si Si8 0.747438 0.461184 0.330703
O O1 0.219885 0.272235 0.504686
O O2 0.405690 0.329514 0.476805
O O3 0.035930 0.200966 0.788849
O O4 0.583730 0.012411 0.601466
O O5 0.893954 0.308771 0.164006
O O6 0.086397 0.128770 0.078767
O O7 0.436226 0.155671 0.958774
O O8 0.124944 0.405593 0.841570
O O9 0.768029 0.077895 0.952343
O O10 0.568933 0.405313 0.812086
O O11 0.547326 0.228750 0.081957
O O12 0.735202 0.731980 0.667811
O O13 0.991649 0.727178 0.652861
O O14 0.063658 0.840576 0.332107
O O15 0.500000 0.000000 0.500000
O O16 0.637985 0.478314 0.294788
O O17 0.500000 0.500000 0.500000
#
# Coordination Sequence:
#
# PCOD8010189 Si02
#       8
#     2   2   2   2   2   2   2   2
#     4  10  24  42  71  93 130 178 225 264 325 398
#     4  11  21  40  64  96 127 176 218 268 321 398
#     4  11  22  43  70  98 136 170 218 277 327 389
#     4  11  22  41  67 100 132 175 217 272 332 384
#     4  10  21  37  68  94 128 174 224 259 325 393
#     4   9  19  40  64  92 129 170 216 265 316 384
#     4  12  24  45  68  99 132 177 218 269 337 392
#     4  12  26  41  66  96 143 167 215 280 336 387
#
# _framework density 21.551055999999999
#
# number of rings (size 3 to 8) (size 9 to 14) (size 15 to 20)
#    0.000    1.250    2.500    4.125    1.750    2.500 
#    0.000    1.875    0.000    0.000    0.000    0.000 
#    0.000    0.000    0.000    0.000    0.000    0.000 
#
# Total GULP energy -198369.990552 kJ/mol
# GULP energy per Si atom -12398.124410 kJ/mol
# Density = 2.150200 g / cm^3
# Si number density = 21.551056 Si / 1000 Ang^3
#
#
#
# Elastic Constant Matrix: (Units=GPa)
#
#
# Indices 1 2 3 4 5 6 
#
# 1 53.7825 40.8289 51.8644 -3.9876 -4.3634 -2.2945
# 2 40.8289 92.8912 42.7865 7.7595 -1.2818 9.6226
# 3 51.8644 42.7865 121.9049 16.7832 11.7515 11.8164
# 4 -3.9876 7.7595 16.7832 45.1759 -1.2273 0.6086
# 5 -4.3634 -1.2818 11.7515 -1.2273 28.7180 -2.5703
# 6 -2.2945 9.6226 11.8164 0.6086 -2.5703 24.7150
#
#
#
# Elastic Compliance Matrix: (Units=1/GPa)
#
#
# Indices 1 2 3 4 5 6 
#
# 1 0.068485 -0.020815 -0.030207 0.021117 0.025518 0.031038
# 2 -0.020815 0.019523 0.004675 -0.006915 -0.005590 -0.012180
# 3 -0.030207 0.004675 0.024486 -0.012776 -0.016534 -0.017736
# 4 0.021117 -0.006915 -0.012776 0.030067 0.010407 0.011103
# 5 0.025518 -0.005590 -0.016534 0.010407 0.047190 0.017102
# 6 0.031038 -0.012180 -0.017736 0.011103 0.017102 0.058070
#
#
# Mechanical properties :
#
#
# Convention : Reuss Voigt Hill
#
# Bulk Modulus (GPa) = 50.50544 59.94869 55.22707
# Shear Modulus (GPa) = 14.40445 28.59504 21.49974
#
# Velocity S-wave (km/s) = 2.58812 3.64655 3.16194
# Velocity P-wave (km/s) = 5.69362 6.75331 6.24598
#
# Compressibility (1/GPa) = 0.01979985
#
# Stress axis : x y z
#
# Youngs Moduli (GPa) = 14.60174 51.22133 40.83993
#
# Poissons Ratio (x) = 1.06618 1.23365
# Poissons Ratio (y) = 0.30394 -0.19093
# Poissons Ratio (z) = 0.44107 -0.23946
#
# Static dielectric constant tensor:
#      x y z
#    x 3.800300 -0.079420 -0.375010 
#    y -0.079420 4.082040 -0.041640 
#    z -0.375010 -0.041640 3.258690 
# 
# 
# High freq. dielectric constant tensor:
#      x y z
#    x 1.837470 -0.008450 0.001410 
#    y -0.008450 1.857820 0.019660 
#    z 0.001410 0.019660 1.845440 
# 
# From -- ./inp_files/570228.got.cif
#   From: 2010.06.25/outbox.cif.g09.slc.cpg/sg2_286_cif.got.tgz:570228.got - 2010.06.27 13:26:56.
