data_PCOD8010919
_publ_section_title
;
Structure prediction by ZEFSAII (Michael W. Deem and Ramdas Pophale) SiO2 
 PCOD8010919
Probable space group: P -1
;
_chemical_formula_sum "Si O2"
_cell_formula_units_Z 16
_cell_length_a 9.824054
_cell_length_b 11.665431
_cell_length_c 20.985433
_cell_angle_alpha 29.844497
_cell_angle_beta 140.256198
_cell_angle_gamma 128.032621
_cell_volume 755.371811
_symmetry_space_group_name_H-M "P -1"
_symmetry_group_IT_number 2
_symmetry_cell_setting 'triclinic'
loop_
_space_group_symop_operation_xyz
x,y,z
-x,-y,-z
loop_
_atom_site_type_symbol
_atom_site_label
_atom_site_fract_x
_atom_site_fract_y
_atom_site_fract_z
Si Si1 0.451525 0.866618 0.313223
Si Si2 0.912668 0.752693 0.319535
Si Si3 0.833807 0.877346 0.812385
Si Si4 0.164965 0.513366 0.330818
Si Si5 0.219998 0.650142 0.146369
Si Si6 0.479309 0.999205 0.866921
Si Si7 0.267955 0.436175 0.775505
Si Si8 0.440449 0.258376 0.327557
O O1 0.261539 0.715765 0.304947
O O2 0.661571 0.719804 0.491652
O O3 0.521175 0.978395 0.219867
O O4 0.358461 0.068091 0.231848
O O5 0.761950 0.908862 0.240801
O O6 0.779596 0.728987 0.219493
O O7 0.000000 0.500000 0.500000
O O8 0.115200 0.880850 0.315580
O O9 0.755750 0.724809 0.801275
O O10 0.042373 0.733154 0.989666
O O11 0.111125 0.581031 0.205611
O O12 0.944152 0.474513 0.302850
O O13 0.355494 0.854232 0.111283
O O14 0.377376 0.428689 0.282232
O O15 0.548516 0.725953 0.039280
O O16 0.354059 0.665451 0.670725
O O17 0.500000 0.000000 0.500000
#
# Coordination Sequence:
#
# PCOD8010919 Si02
#       8
#     2   2   2   2   2   2   2   2
#     4  10  21  38  64  99 132 158 212 264 326 371
#     4  12  23  37  64  95 125 162 218 263 310 370
#     4  12  24  42  63  94 128 172 210 261 322 379
#     4  10  21  38  67  97 126 167 210 269 314 374
#     4  11  22  42  67  95 129 166 215 261 323 375
#     4  11  22  39  68 100 127 162 211 276 314 369
#     4  12  22  43  65  96 127 166 217 260 321 371
#     4  12  27  44  63  91 134 175 208 260 322 386
#
# _framework density 21.181621
#
# number of rings (size 3 to 8) (size 9 to 14) (size 15 to 20)
#    0.000    0.750    3.750    4.500    3.500    2.000 
#    0.000    6.250    0.000    0.000    0.000    0.000 
#    0.000    0.000    0.000    0.000    0.000    0.000 
#
# Total GULP energy -198497.274778 kJ/mol
# GULP energy per Si atom -12406.079674 kJ/mol
# Density = 2.113341 g / cm^3
# Si number density = 21.181621 Si / 1000 Ang^3
#
#
#
# Elastic Constant Matrix: (Units=GPa)
#
#
# Indices 1 2 3 4 5 6 
#
# 1 143.2452 36.3406 42.2876 -5.9838 -3.7007 14.8410
# 2 36.3406 63.7547 11.6415 -0.5517 -12.4564 7.9140
# 3 42.2876 11.6415 93.9917 -9.0234 1.6180 2.7035
# 4 -5.9838 -0.5517 -9.0234 27.4152 2.8147 -5.1931
# 5 -3.7007 -12.4564 1.6180 2.8147 29.3747 0.7612
# 6 14.8410 7.9140 2.7035 -5.1931 0.7612 24.0735
#
#
#
# Elastic Compliance Matrix: (Units=1/GPa)
#
#
# Indices 1 2 3 4 5 6 
#
# 1 0.009573 -0.004358 -0.003638 0.000076 -0.000345 -0.004033
# 2 -0.004358 0.020580 -0.000848 -0.002612 0.008600 -0.004819
# 3 -0.003638 -0.000848 0.012737 0.003962 -0.001951 0.002007
# 4 0.000076 -0.002612 0.003962 0.040035 -0.005390 0.009174
# 5 -0.000345 0.008600 -0.001951 -0.005390 0.038394 -0.004772
# 6 -0.004033 -0.004819 0.002007 0.009174 -0.004772 0.047514
#
#
# Mechanical properties :
#
#
# Convention : Reuss Voigt Hill
#
# Bulk Modulus (GPa) = 39.68091 53.50345 46.59218
# Shear Modulus (GPa) = 25.65119 30.22082 27.93600
#
# Velocity S-wave (km/s) = 3.48373 3.78133 3.63558
# Velocity P-wave (km/s) = 5.91238 6.66174 6.29821
#
# Compressibility (1/GPa) = 0.02520103
#
# Stress axis : x y z
#
# Youngs Moduli (GPa) = 104.46325 48.59064 78.51027
#
# Poissons Ratio (x) = 0.21177 0.28561
# Poissons Ratio (y) = 0.45528 0.06660
# Poissons Ratio (z) = 0.38002 0.04122
#
# Static dielectric constant tensor:
#      x y z
#    x 3.988320 -0.006900 -0.169250 
#    y -0.006900 3.650540 0.075430 
#    z -0.169250 0.075430 3.798690 
# 
# 
# High freq. dielectric constant tensor:
#      x y z
#    x 1.847840 -0.002140 -0.006610 
#    y -0.002140 1.802150 0.005620 
#    z -0.006610 0.005620 1.841910 
# 
# From -- ./inp_files/175307.got.cif
#   From: 2010.06.25/outbox.cif.g09.slc.cpg/sg2_88_cif.got.tgz:175307.got - 2010.06.27 13:26:56.
