data_PCOD8010113
_publ_section_title
;
Structure prediction by ZEFSAII (Michael W. Deem and Ramdas Pophale) SiO2 
 PCOD8010113
Probable space group: P -1
;
_chemical_formula_sum "Si O2"
_cell_formula_units_Z 12
_cell_length_a 5.346515
_cell_length_b 14.672259
_cell_length_c 11.516493
_cell_angle_alpha 129.554088
_cell_angle_beta 74.762965
_cell_angle_gamma 131.242882
_cell_volume 504.183704
_symmetry_space_group_name_H-M "P -1"
_symmetry_group_IT_number 2
_symmetry_cell_setting 'triclinic'
loop_
_space_group_symop_operation_xyz
x,y,z
-x,-y,-z
loop_
_atom_site_type_symbol
_atom_site_label
_atom_site_fract_x
_atom_site_fract_y
_atom_site_fract_z
Si Si1 0.812096 0.827113 0.463170
Si Si2 0.296521 0.625904 0.903351
Si Si3 0.653165 0.107466 0.398426
Si Si4 0.330727 0.425281 0.581253
Si Si5 0.637872 0.952269 0.040994
Si Si6 0.460898 0.624294 0.130119
O O1 0.715201 0.937947 0.571325
O O2 0.573989 0.674167 0.454586
O O3 0.769591 0.765892 0.287464
O O4 0.214092 0.932482 0.540232
O O5 0.466483 0.568805 0.766657
O O6 0.901550 0.466951 0.835677
O O7 0.350194 0.763245 0.937597
O O8 0.475043 0.697530 0.065339
O O9 0.916427 0.298049 0.507825
O O10 0.665387 0.031407 0.221265
O O11 0.500000 0.500000 0.500000
O O12 0.500000 0.000000 0.000000
O O13 0.000000 0.000000 0.000000
O O14 0.500000 0.500000 0.000000
#
# Coordination Sequence:
#
# PCOD8010113 Si02
#       6
#     2   2   2   2   2   2
#     4  10  21  41  64  96 133 180 221 292 336 405
#     4  11  25  42  71 108 134 188 235 292 352 410
#     4  10  22  42  63  93 137 173 228 273 348 409
#     4  10  21  37  65  97 134 172 233 282 343 400
#     4  12  28  48  69 100 149 188 229 282 355 433
#     4  11  21  43  71 101 142 175 244 296 342 410
#
# _framework density 23.800851999999999
#
# number of rings (size 3 to 8) (size 9 to 14) (size 15 to 20)
#    1.000    0.333    3.333    2.000    7.000    2.000 
#    0.000    1.667    0.000    0.000    0.000    0.000 
#    0.000    0.000    0.000    0.000    0.000    0.000 
#
# Total GULP energy -148699.410668 kJ/mol
# GULP energy per Si atom -12391.617556 kJ/mol
# Density = 2.374668 g / cm^3
# Si number density = 23.800852 Si / 1000 Ang^3
#
#
#
# Elastic Constant Matrix: (Units=GPa)
#
#
# Indices 1 2 3 4 5 6 
#
# 1 166.1809 22.1984 65.5608 -9.8740 -7.7515 -23.3899
# 2 22.1984 83.3048 16.6087 6.8783 1.7431 -33.3816
# 3 65.5608 16.6087 164.7724 -9.1530 -4.2743 -6.7519
# 4 -9.8740 6.8783 -9.1530 26.8528 -1.9530 -5.5614
# 5 -7.7515 1.7431 -4.2743 -1.9530 43.7966 -1.9773
# 6 -23.3899 -33.3816 -6.7519 -5.5614 -1.9773 37.0989
#
#
#
# Elastic Compliance Matrix: (Units=1/GPa)
#
#
# Indices 1 2 3 4 5 6 
#
# 1 0.008115 0.000271 -0.002818 0.003186 0.001537 0.005406
# 2 0.000271 0.019118 -0.001451 -0.001820 -0.000176 0.016827
# 3 -0.002818 -0.001451 0.007369 0.001559 0.000280 -0.001492
# 4 0.003186 -0.001820 0.001559 0.041065 0.002934 0.006967
# 5 0.001537 -0.000176 0.000280 0.002934 0.023385 0.002548
# 6 0.005406 0.016827 -0.001492 0.006967 0.002548 0.046413
#
#
# Mechanical properties :
#
#
# Convention : Reuss Voigt Hill
#
# Bulk Modulus (GPa) = 37.58557 69.22155 53.40356
# Shear Modulus (GPa) = 30.80152 42.20901 36.50527
#
# Velocity S-wave (km/s) = 3.60131 4.21577 3.92060
# Velocity P-wave (km/s) = 5.75487 7.26937 6.55600
#
# Compressibility (1/GPa) = 0.02660596
#
# Stress axis : x y z
#
# Youngs Moduli (GPa) = 123.22949 52.30685 135.70220
#
# Poissons Ratio (x) = -0.01416 0.38238
# Poissons Ratio (y) = -0.03335 0.19689
# Poissons Ratio (z) = 0.34723 0.07589
#
# Static dielectric constant tensor:
#      x y z
#    x 4.495360 0.273390 0.170800 
#    y 0.273390 4.908410 -0.037600 
#    z 0.170800 -0.037600 4.291990 
# 
# 
# High freq. dielectric constant tensor:
#      x y z
#    x 1.940020 -0.015630 0.001000 
#    y -0.015630 1.941970 -0.001520 
#    z 0.001000 -0.001520 1.955520 
# 
# From -- ./inp_files/368038.got.cif
#   From: 2010.06.25/outbox.cif.g09.slc.cpg/sg2_185_cif.got.tgz:368038.got - 2010.06.27 13:26:56.
