data_PCOD8010216
_publ_section_title
;
Structure prediction by ZEFSAII (Michael W. Deem and Ramdas Pophale) SiO2 
 PCOD8010216
Probable space group: P -1
;
_chemical_formula_sum "Si O2"
_cell_formula_units_Z 16
_cell_length_a 19.722015
_cell_length_b 8.363772
_cell_length_c 10.868906
_cell_angle_alpha 80.672356
_cell_angle_beta 51.401783
_cell_angle_gamma 40.330595
_cell_volume 711.648232
_symmetry_space_group_name_H-M "P -1"
_symmetry_group_IT_number 2
_symmetry_cell_setting 'triclinic'
loop_
_space_group_symop_operation_xyz
x,y,z
-x,-y,-z
loop_
_atom_site_type_symbol
_atom_site_label
_atom_site_fract_x
_atom_site_fract_y
_atom_site_fract_z
Si Si1 0.747475 0.594728 0.001617
Si Si2 0.279435 0.976478 0.782705
Si Si3 0.938464 0.264410 0.591142
Si Si4 0.275978 0.880932 0.308958
Si Si5 0.800717 0.717359 0.484417
Si Si6 0.523928 0.095427 0.566725
Si Si7 0.608764 0.173356 0.066777
Si Si8 0.002065 0.356770 0.888984
O O1 0.785114 0.478804 0.833891
O O2 0.928320 0.326485 0.897364
O O3 0.640719 0.632546 0.193169
O O4 0.638028 0.935817 0.082668
O O5 0.445514 0.776523 0.546901
O O6 0.331768 0.827314 0.876047
O O7 0.167737 0.029830 0.819827
O O8 0.151248 0.336553 0.889411
O O9 0.877537 0.468927 0.522533
O O10 0.000000 0.000000 0.500000
O O11 0.089632 0.110041 0.512166
O O12 0.411946 0.521644 0.222089
O O13 0.309649 0.972858 0.354350
O O14 0.282154 0.935583 0.155695
O O15 0.951098 0.568289 0.262771
O O16 0.683028 0.806612 0.511915
O O17 0.500000 0.000000 0.500000
#
# Coordination Sequence:
#
# PCOD8010216 Si02
#       8
#     2   2   2   2   2   2   2   2
#     4  11  21  40  66  96 135 171 217 270 331 389
#     4   9  18  35  61  99 123 171 219 261 319 389
#     4  12  26  41  67  97 133 173 220 275 331 387
#     4  11  23  42  64 100 130 171 223 272 321 397
#     4  11  23  41  67  93 130 178 219 266 331 392
#     4  11  22  37  65  98 133 173 215 265 332 386
#     4  10  21  37  70  93 132 169 219 276 321 388
#     4   9  17  34  65  92 124 172 219 258 315 397
#
# _framework density 22.483018999999999
#
# number of rings (size 3 to 8) (size 9 to 14) (size 15 to 20)
#    0.000    1.500    5.000    1.875    1.750    2.500 
#    0.000    2.500    2.750    6.000    0.000    0.000 
#    0.000    0.000    0.000    0.000    0.000    0.000 
#
# Total GULP energy -198325.839357 kJ/mol
# GULP energy per Si atom -12395.364960 kJ/mol
# Density = 2.243185 g / cm^3
# Si number density = 22.483019 Si / 1000 Ang^3
#
#
#
# Elastic Constant Matrix: (Units=GPa)
#
#
# Indices 1 2 3 4 5 6 
#
# 1 105.4548 40.9096 38.0445 -0.2410 -5.4892 -20.8397
# 2 40.9096 56.2033 34.9689 -0.9549 12.2296 -14.9291
# 3 38.0445 34.9689 140.3441 -21.9889 -0.6924 -12.3593
# 4 -0.2410 -0.9549 -21.9889 25.1306 -4.8110 7.5405
# 5 -5.4892 12.2296 -0.6924 -4.8110 35.0659 2.2294
# 6 -20.8397 -14.9291 -12.3593 7.5405 2.2294 34.0924
#
#
#
# Elastic Compliance Matrix: (Units=1/GPa)
#
#
# Indices 1 2 3 4 5 6 
#
# 1 0.015043 -0.010114 -0.001429 -0.001754 0.005341 0.004287
# 2 -0.010114 0.035694 -0.007067 -0.011188 -0.016370 0.010431
# 3 -0.001429 -0.007067 0.010732 0.010706 0.004094 -0.002713
# 4 -0.001754 -0.011188 0.010706 0.055666 0.012443 -0.015216
# 5 0.005341 -0.016370 0.004094 0.012443 0.037335 -0.007613
# 6 0.004287 0.010431 -0.002713 -0.015216 -0.007613 0.039400
#
#
# Mechanical properties :
#
#
# Convention : Reuss Voigt Hill
#
# Bulk Modulus (GPa) = 41.23733 58.87202 50.05467
# Shear Modulus (GPa) = 20.90542 31.39638 26.15090
#
# Velocity S-wave (km/s) = 3.05262 3.74096 3.41418
# Velocity P-wave (km/s) = 5.55032 6.70087 6.15255
#
# Compressibility (1/GPa) = 0.02424987
#
# Stress axis : x y z
#
# Youngs Moduli (GPa) = 66.47681 28.01605 93.17694
#
# Poissons Ratio (x) = 0.28334 0.13313
# Poissons Ratio (y) = 0.67232 0.65850
# Poissons Ratio (z) = 0.09498 0.19799
#
# Static dielectric constant tensor:
#      x y z
#    x 4.199940 -0.406990 0.029330 
#    y -0.406990 3.806540 -0.169300 
#    z 0.029330 -0.169300 4.260850 
# 
# 
# High freq. dielectric constant tensor:
#      x y z
#    x 1.884230 -0.037180 0.006780 
#    y -0.037180 1.852460 -0.010820 
#    z 0.006780 -0.010820 1.902350 
# 
# From -- ./inp_files/469986.got.cif
#   From: 2010.06.25/outbox.cif.g09.slc.cpg/sg2_235_cif.got.tgz:469986.got - 2010.06.27 13:26:56.
