data_PCOD8010251
_publ_section_title
;
Structure prediction by ZEFSAII (Michael W. Deem and Ramdas Pophale) SiO2 
 PCOD8010251
Probable space group: P -1
;
_chemical_formula_sum "Si O2"
_cell_formula_units_Z 16
_cell_length_a 15.451256
_cell_length_b 11.605677
_cell_length_c 11.098280
_cell_angle_alpha 40.290025
_cell_angle_beta 93.908570
_cell_angle_gamma 124.499537
_cell_volume 774.914171
_symmetry_space_group_name_H-M "P -1"
_symmetry_group_IT_number 2
_symmetry_cell_setting 'triclinic'
loop_
_space_group_symop_operation_xyz
x,y,z
-x,-y,-z
loop_
_atom_site_type_symbol
_atom_site_label
_atom_site_fract_x
_atom_site_fract_y
_atom_site_fract_z
Si Si1 0.522481 0.847156 0.556635
Si Si2 0.210399 0.254592 0.747083
Si Si3 0.093869 0.254493 0.970508
Si Si4 0.253107 0.873461 0.473872
Si Si5 0.731892 0.706208 0.887340
Si Si6 0.508478 0.895629 0.236915
Si Si7 0.398009 0.243945 0.790737
Si Si8 0.483909 0.711527 0.007938
O O1 0.530032 0.871776 0.395612
O O2 0.500000 0.000000 0.500000
O O3 0.673164 0.006568 0.483385
O O4 0.394765 0.505011 0.857016
O O5 0.168944 0.272015 0.856137
O O6 0.343155 0.576371 0.442407
O O7 0.249662 0.110910 0.890646
O O8 0.077516 0.046843 0.807570
O O9 0.128469 0.521200 0.744708
O O10 0.153154 0.261804 0.094783
O O11 0.194241 0.976001 0.356610
O O12 0.378551 0.022808 0.274177
O O13 0.659861 0.561471 0.864485
O O14 0.621555 0.986635 0.082892
O O15 0.541991 0.157356 0.016768
O O16 0.500000 0.500000 0.500000
O O17 0.477073 0.378882 0.820939
#
# Coordination Sequence:
#
# PCOD8010251 Si02
#       8
#     2   2   2   2   2   2   2   2
#     4  11  16  33  58  88 118 145 182 242 302 328
#     4  10  21  38  57  81 122 160 187 225 297 349
#     4  11  20  40  58  85 124 158 182 239 294 348
#     4  11  21  32  60  90 119 146 191 244 293 345
#     4  11  21  33  59  90 118 145 189 251 291 341
#     4  11  19  36  61  85 116 155 188 238 292 342
#     4  10  24  36  57  82 114 157 195 240 285 347
#     4  11  19  36  56  90 116 141 199 246 291 338
#
# _framework density 20.647448000000001
#
# number of rings (size 3 to 8) (size 9 to 14) (size 15 to 20)
#    0.000    1.250    6.250    2.625    5.250    0.000 
#    2.250    1.875    0.000    6.000    0.000    0.000 
#    0.000    0.000    0.000    0.000    0.000    0.000 
#
# Total GULP energy -198274.772423 kJ/mol
# GULP energy per Si atom -12392.173276 kJ/mol
# Density = 2.060045 g / cm^3
# Si number density = 20.647448 Si / 1000 Ang^3
#
#
#
# Elastic Constant Matrix: (Units=GPa)
#
#
# Indices 1 2 3 4 5 6 
#
# 1 114.0680 49.7742 37.8363 -12.5356 19.8288 3.7991
# 2 49.7742 107.5460 32.8660 -3.0077 4.4202 20.4538
# 3 37.8363 32.8660 56.1687 -8.0906 19.5708 4.9584
# 4 -12.5356 -3.0077 -8.0906 29.5343 1.5837 10.0002
# 5 19.8288 4.4202 19.5708 1.5837 29.5328 -2.8776
# 6 3.7991 20.4538 4.9584 10.0002 -2.8776 36.4468
#
#
#
# Elastic Compliance Matrix: (Units=1/GPa)
#
#
# Indices 1 2 3 4 5 6 
#
# 1 0.013670 -0.004877 -0.003434 0.004717 -0.006428 -0.000023
# 2 -0.004877 0.014477 -0.006352 -0.000474 0.004734 -0.006248
# 3 -0.003434 -0.006352 0.032185 0.009254 -0.019007 -0.004496
# 4 0.004717 -0.000474 0.009254 0.043982 -0.013008 -0.014580
# 5 -0.006428 0.004734 -0.019007 -0.013008 0.051564 0.008240
# 6 -0.000023 -0.006248 -0.004496 -0.014580 0.008240 0.036209
#
#
# Mechanical properties :
#
#
# Convention : Reuss Voigt Hill
#
# Bulk Modulus (GPa) = 32.24933 57.63729 44.94331
# Shear Modulus (GPa) = 21.57504 29.58985 25.58245
#
# Velocity S-wave (km/s) = 3.23604 3.78974 3.52378
# Velocity P-wave (km/s) = 5.44201 6.86477 6.19438
#
# Compressibility (1/GPa) = 0.03100840
#
# Stress axis : x y z
#
# Youngs Moduli (GPa) = 73.15057 69.07421 31.06992
#
# Poissons Ratio (x) = 0.33689 0.10668
# Poissons Ratio (y) = 0.35677 0.19735
# Poissons Ratio (z) = 0.25116 0.43874
#
# Static dielectric constant tensor:
#      x y z
#    x 4.766170 -0.426770 0.496200 
#    y -0.426770 4.242630 -0.106790 
#    z 0.496200 -0.106790 3.470790 
# 
# 
# High freq. dielectric constant tensor:
#      x y z
#    x 1.807880 0.000180 0.040490 
#    y 0.000180 1.815430 0.003920 
#    z 0.040490 0.003920 1.765420 
# 
# From -- ./inp_files/303590.got.cif
#   From: 2010.06.25/outbox.cif.g09.slc.cpg/sg2_152_cif.got.tgz:303590.got - 2010.06.27 13:26:56.
