data_PCOD8010294
_publ_section_title
;
Structure prediction by ZEFSAII (Michael W. Deem and Ramdas Pophale) SiO2 
 PCOD8010294
Probable space group: P -1
;
_chemical_formula_sum "Si O2"
_cell_formula_units_Z 16
_cell_length_a 6.593661
_cell_length_b 19.995299
_cell_length_c 5.524421
_cell_angle_alpha 79.755750
_cell_angle_beta 76.281335
_cell_angle_gamma 82.688078
_cell_volume 693.529805
_symmetry_space_group_name_H-M "P -1"
_symmetry_group_IT_number 2
_symmetry_cell_setting 'triclinic'
loop_
_space_group_symop_operation_xyz
x,y,z
-x,-y,-z
loop_
_atom_site_type_symbol
_atom_site_label
_atom_site_fract_x
_atom_site_fract_y
_atom_site_fract_z
Si Si1 0.898135 0.238477 0.894886
Si Si2 0.144850 0.632102 0.884488
Si Si3 0.837468 0.698042 0.591638
Si Si4 0.654486 0.465221 0.788177
Si Si5 0.123226 0.926927 0.507408
Si Si6 0.437841 0.401384 0.501837
Si Si7 0.208244 0.169263 0.201607
Si Si8 0.658619 0.114410 0.020998
O O1 0.712622 0.192016 0.921219
O O2 0.957488 0.278675 0.614022
O O3 0.818141 0.292121 0.087358
O O4 0.103388 0.192350 0.961413
O O5 0.351161 0.603315 0.708628
O O6 0.927790 0.638238 0.790368
O O7 0.131485 0.575766 0.140087
O O8 0.686308 0.665236 0.463599
O O9 0.723502 0.764592 0.713439
O O10 0.520900 0.406130 0.747917
O O11 0.705703 0.526862 0.555141
O O12 0.500000 0.500000 0.000000
O O13 0.268291 0.924441 0.224793
O O14 0.958668 0.869440 0.568403
O O15 0.247330 0.918454 0.733997
O O16 0.000000 0.000000 0.500000
O O17 0.407925 0.116857 0.116034
#
# Coordination Sequence:
#
# PCOD8010294 Si02
#       8
#     2   2   2   2   2   2   2   2
#     4  10  22  39  60  92 131 165 220 280 328 407
#     4  10  21  38  58  87 121 165 210 277 342 395
#     4  11  22  38  63  92 124 165 225 279 333 403
#     4   9  20  39  57  83 122 160 214 271 338 411
#     4  11  25  45  70 105 142 180 231 278 329 409
#     4  10  21  38  61  84 117 167 216 272 339 408
#     4  10  24  42  65  98 136 176 226 275 339 400
#     4  11  24  43  71  98 140 187 221 284 340 392
#
# _framework density 23.070385999999999
#
# number of rings (size 3 to 8) (size 9 to 14) (size 15 to 20)
#    0.000    1.750    1.250    1.875    1.750    7.500 
#    0.000    8.750    0.000    0.000    0.000    0.000 
#    0.000    0.000    0.000    0.000    0.000    0.000 
#
# Total GULP energy -198264.072184 kJ/mol
# GULP energy per Si atom -12391.504512 kJ/mol
# Density = 2.301788 g / cm^3
# Si number density = 23.070386 Si / 1000 Ang^3
#
#
#
# Elastic Constant Matrix: (Units=GPa)
#
#
# Indices 1 2 3 4 5 6 
#
# 1 66.8237 36.5191 32.1921 -0.6706 6.5119 -19.5744
# 2 36.5191 96.0589 29.7685 2.6884 16.5001 -19.7426
# 3 32.1921 29.7685 106.9068 8.6477 18.6119 -16.9308
# 4 -0.6706 2.6884 8.6477 31.5275 1.5478 1.1379
# 5 6.5119 16.5001 18.6119 1.5478 26.1628 1.6818
# 6 -19.5744 -19.7426 -16.9308 1.1379 1.6818 34.0049
#
#
#
# Elastic Compliance Matrix: (Units=1/GPa)
#
#
# Indices 1 2 3 4 5 6 
#
# 1 0.022246 -0.005812 -0.004167 0.001824 0.000517 0.007270
# 2 -0.005812 0.015364 0.000023 -0.001238 -0.008575 0.006052
# 3 -0.004167 0.000023 0.013075 -0.003434 -0.008375 0.004654
# 4 0.001824 -0.001238 -0.003434 0.032847 0.000989 -0.002526
# 5 0.000517 -0.008575 -0.008375 0.000989 0.050132 -0.011363
# 6 0.007270 0.006052 0.004654 -0.002526 -0.011363 0.040070
#
#
# Mechanical properties :
#
#
# Convention : Reuss Voigt Hill
#
# Bulk Modulus (GPa) = 32.49422 51.86097 42.17760
# Shear Modulus (GPa) = 24.52169 29.75969 27.14069
#
# Velocity S-wave (km/s) = 3.26376 3.59549 3.43363
# Velocity P-wave (km/s) = 5.32149 6.30595 5.83452
#
# Compressibility (1/GPa) = 0.03077470
#
# Stress axis : x y z
#
# Youngs Moduli (GPa) = 44.95282 65.08744 76.48186
#
# Poissons Ratio (x) = 0.37827 0.31867
# Poissons Ratio (y) = 0.26125 -0.00179
# Poissons Ratio (z) = 0.18730 -0.00152
#
# Static dielectric constant tensor:
#      x y z
#    x 3.943540 -0.169760 0.432330 
#    y -0.169760 4.415400 -0.192330 
#    z 0.432330 -0.192330 4.545270 
# 
# 
# High freq. dielectric constant tensor:
#      x y z
#    x 1.887210 -0.012000 0.015890 
#    y -0.012000 1.918680 0.006350 
#    z 0.015890 0.006350 1.915090 
# 
# From -- ./inp_files/10597.got.cif
#   From: 2010.06.25/outbox.cif.g09.slc.cpg/sg2_6_cif.got.tgz:10597.got - 2010.06.27 13:26:56.
