data_PCOD8010547
_publ_section_title
;
Structure prediction by ZEFSAII (Michael W. Deem and Ramdas Pophale) SiO2 
 PCOD8010547
Probable space group: P -1
;
_chemical_formula_sum "Si O2"
_cell_formula_units_Z 16
_cell_length_a 9.025437
_cell_length_b 14.736948
_cell_length_c 13.977168
_cell_angle_alpha 50.587131
_cell_angle_beta 147.828374
_cell_angle_gamma 132.552399
_cell_volume 719.890062
_symmetry_space_group_name_H-M "P -1"
_symmetry_group_IT_number 2
_symmetry_cell_setting 'triclinic'
loop_
_space_group_symop_operation_xyz
x,y,z
-x,-y,-z
loop_
_atom_site_type_symbol
_atom_site_label
_atom_site_fract_x
_atom_site_fract_y
_atom_site_fract_z
Si Si1 0.202259 0.099574 0.174724
Si Si2 0.919615 0.513872 0.100273
Si Si3 0.374389 0.288493 0.968025
Si Si4 0.687889 0.594812 0.732161
Si Si5 0.956265 0.862592 0.745939
Si Si6 0.457734 0.047012 0.642053
Si Si7 0.826081 0.334585 0.675885
Si Si8 0.453276 0.078941 0.043199
O O1 0.237050 0.189663 0.044231
O O2 0.272518 0.175384 0.262057
O O3 0.361583 0.999107 0.309931
O O4 0.863521 0.024525 0.070058
O O5 0.684976 0.390013 0.102650
O O6 0.197778 0.489228 0.220324
O O7 0.064772 0.618030 0.189041
O O8 0.722693 0.556495 0.886293
O O9 0.421007 0.215273 0.948446
O O10 0.124205 0.350662 0.766913
O O11 0.894034 0.737415 0.734108
O O12 0.351894 0.583715 0.526656
O O13 0.860578 0.965086 0.566841
O O14 0.315097 0.915276 0.920918
O O15 0.632048 0.188845 0.673458
O O16 0.391437 0.951601 0.756980
#
# Coordination Sequence:
#
# PCOD8010547 Si02
#       8
#     2   2   2   2   2   2   2   2
#     4  11  21  39  63  89 124 163 200 252 314 372
#     4  11  23  43  66  89 127 166 208 261 312 367
#     4  11  21  40  64  89 122 165 208 252 311 369
#     4  10  24  41  63  95 128 158 211 265 305 370
#     4  11  22  37  61  93 123 158 205 256 311 367
#     4  10  21  38  61  90 127 156 203 255 306 375
#     4  11  21  40  67  90 124 169 204 253 317 367
#     4  11  20  39  63  87 123 163 200 249 313 372
#
# _framework density 22.225617
#
# number of rings (size 3 to 8) (size 9 to 14) (size 15 to 20)
#    0.000    1.250    3.750    3.375    0.000    0.500 
#    0.000    1.250    2.750    0.000    0.000    0.000 
#    0.000    0.000    0.000    0.000    0.000    0.000 
#
# Total GULP energy -198242.376843 kJ/mol
# GULP energy per Si atom -12390.148553 kJ/mol
# Density = 2.217503 g / cm^3
# Si number density = 22.225617 Si / 1000 Ang^3
#
#
#
# Elastic Constant Matrix: (Units=GPa)
#
#
# Indices 1 2 3 4 5 6 
#
# 1 93.2599 31.9948 41.4030 -7.9951 22.9864 -10.9960
# 2 31.9948 77.7329 29.1312 1.6337 18.2674 -11.8857
# 3 41.4030 29.1312 125.9077 -9.6043 23.8024 -13.1247
# 4 -7.9951 1.6337 -9.6043 30.3022 -1.4774 4.9752
# 5 22.9864 18.2674 23.8024 -1.4774 27.7046 3.5658
# 6 -10.9960 -11.8857 -13.1247 4.9752 3.5658 22.1607
#
#
#
# Elastic Compliance Matrix: (Units=1/GPa)
#
#
# Indices 1 2 3 4 5 6 
#
# 1 0.016022 -0.002322 -0.001758 0.002114 -0.011036 0.006965
# 2 -0.002322 0.018533 -0.000480 -0.004183 -0.011558 0.011302
# 3 -0.001758 -0.000480 0.011011 0.001592 -0.008423 0.006389
# 4 0.002114 -0.004183 0.001592 0.035853 0.002672 -0.008731
# 5 -0.011036 -0.011558 -0.008423 0.002672 0.063795 -0.027528
# 6 0.006965 0.011302 0.006389 -0.008731 -0.027528 0.064816
#
#
# Mechanical properties :
#
#
# Convention : Reuss Voigt Hill
#
# Bulk Modulus (GPa) = 27.43783 55.77316 41.60550
# Shear Modulus (GPa) = 21.61709 28.99161 25.30435
#
# Velocity S-wave (km/s) = 3.12207 3.61560 3.37786
# Velocity P-wave (km/s) = 5.03670 6.52523 5.82868
#
# Compressibility (1/GPa) = 0.03644603
#
# Stress axis : x y z
#
# Youngs Moduli (GPa) = 62.41304 53.95898 90.81624
#
# Poissons Ratio (x) = 0.12529 0.15965
# Poissons Ratio (y) = 0.14492 0.04361
# Poissons Ratio (z) = 0.10972 0.02591
#
# Static dielectric constant tensor:
#      x y z
#    x 4.055030 -0.292570 0.224680 
#    y -0.292570 3.892170 -0.126310 
#    z 0.224680 -0.126310 4.247230 
# 
# 
# High freq. dielectric constant tensor:
#      x y z
#    x 1.876370 -0.018730 0.024350 
#    y -0.018730 1.869090 -0.005670 
#    z 0.024350 -0.005670 1.874870 
# 
# From -- ./inp_files/185330.got.cif
#   From: 2010.06.25/outbox.cif.g09.slc.cpg/sg2_93_cif.got.tgz:185330.got - 2010.06.27 13:26:56.
