data_PCOD8010922
_publ_section_title
;
Structure prediction by ZEFSAII (Michael W. Deem and Ramdas Pophale) SiO2 
 PCOD8010922
Probable space group: P -1
;
_chemical_formula_sum "Si O2"
_cell_formula_units_Z 14
_cell_length_a 12.144115
_cell_length_b 9.482964
_cell_length_c 14.160400
_cell_angle_alpha 137.241491
_cell_angle_beta 146.455674
_cell_angle_gamma 58.231542
_cell_volume 595.695325
_symmetry_space_group_name_H-M "P -1"
_symmetry_group_IT_number 2
_symmetry_cell_setting 'triclinic'
loop_
_space_group_symop_operation_xyz
x,y,z
-x,-y,-z
loop_
_atom_site_type_symbol
_atom_site_label
_atom_site_fract_x
_atom_site_fract_y
_atom_site_fract_z
Si Si1 0.137756 0.514566 0.914105
Si Si2 0.887910 0.781873 0.580010
Si Si3 0.865306 0.356756 0.466123
Si Si4 0.429834 0.305393 0.427301
Si Si5 0.490247 0.898737 0.339383
Si Si6 0.088027 0.218188 0.016324
Si Si7 0.421402 0.350508 0.162827
O O1 0.272727 0.738256 0.080597
O O2 0.287420 0.361682 0.978772
O O3 0.972897 0.382976 0.658445
O O4 0.022084 0.580950 0.957928
O O5 0.035789 0.801690 0.604272
O O6 0.914619 0.587595 0.567365
O O7 0.655789 0.757891 0.367555
O O8 0.929166 0.998492 0.776403
O O9 0.619864 0.247384 0.240661
O O10 0.500000 0.500000 0.500000
O O11 0.188273 0.215178 0.190983
O O12 0.470595 0.404218 0.609860
O O13 0.530906 0.099871 0.393470
O O14 0.500000 0.000000 0.500000
O O15 0.270269 0.237160 0.080279
#
# Coordination Sequence:
#
# PCOD8010922 Si02
#       7
#     2   2   2   2   2   2   2
#     4  12  23  39  72 101 126 174 226 276 331 388
#     4  11  24  45  63  97 134 174 223 275 327 399
#     4  11  25  44  67  92 137 177 219 271 335 399
#     4  10  21  38  64  99 134 168 210 277 336 383
#     4  12  21  38  69  99 131 166 227 280 321 389
#     4  11  23  39  69  95 133 171 223 273 339 387
#     4  11  22  43  64  99 135 170 218 280 328 395
#
# _framework density 23.501947000000001
#
# number of rings (size 3 to 8) (size 9 to 14) (size 15 to 20)
#    0.000    0.857    5.714    1.286    0.000    3.429 
#    2.571    0.714    0.000    0.000    0.000    0.000 
#    0.000    0.000    0.000    0.000    0.000    0.000 
#
# Total GULP energy -173440.567040 kJ/mol
# GULP energy per Si atom -12388.611931 kJ/mol
# Density = 2.344846 g / cm^3
# Si number density = 23.501947 Si / 1000 Ang^3
#
#
#
# Elastic Constant Matrix: (Units=GPa)
#
#
# Indices 1 2 3 4 5 6 
#
# 1 73.6413 22.1968 21.4294 -23.5568 12.4581 -16.8585
# 2 22.1968 68.4341 28.1472 -30.3168 -3.6651 -5.3860
# 3 21.4294 28.1472 100.2890 -26.2443 -0.0964 -3.7641
# 4 -23.5568 -30.3168 -26.2443 35.1256 -3.9399 6.8397
# 5 12.4581 -3.6651 -0.0964 -3.9399 31.5171 -7.0067
# 6 -16.8585 -5.3860 -3.7641 6.8397 -7.0067 39.4805
#
#
#
# Elastic Compliance Matrix: (Units=1/GPa)
#
#
# Indices 1 2 3 4 5 6 
#
# 1 0.019514 -0.001715 -0.001110 0.009096 -0.005572 0.005428
# 2 -0.001715 0.024934 -0.001390 0.019986 0.006107 0.000158
# 3 -0.001110 -0.001390 0.012595 0.007711 0.001147 -0.000595
# 4 0.009096 0.019986 0.007711 0.058567 0.005675 -0.001793
# 5 -0.005572 0.006107 0.001147 0.005675 0.036247 0.004013
# 6 0.005428 0.000158 -0.000595 -0.001793 0.004013 0.028635
#
#
# Mechanical properties :
#
#
# Convention : Reuss Voigt Hill
#
# Bulk Modulus (GPa) = 20.56979 42.87902 31.72441
# Shear Modulus (GPa) = 24.37543 32.59736 28.48640
#
# Velocity S-wave (km/s) = 3.22400 3.72829 3.48528
# Velocity P-wave (km/s) = 4.75713 6.06779 5.45199
#
# Compressibility (1/GPa) = 0.04861497
#
# Stress axis : x y z
#
# Youngs Moduli (GPa) = 51.24481 40.10597 79.39617
#
# Poissons Ratio (x) = 0.06877 0.08812
# Poissons Ratio (y) = 0.08787 0.11033
# Poissons Ratio (z) = 0.05687 0.05573
#
# Static dielectric constant tensor:
#      x y z
#    x 4.099260 -0.226330 0.040150 
#    y -0.226330 4.188550 -0.317820 
#    z 0.040150 -0.317820 4.749050 
# 
# 
# High freq. dielectric constant tensor:
#      x y z
#    x 1.906780 -0.003680 0.014480 
#    y -0.003680 1.919600 -0.020200 
#    z 0.014480 -0.020200 1.939600 
# 
# From -- ./inp_files/519276.got.cif
#   From: 2010.06.25/outbox.cif.g09.slc.cpg/sg2_260_cif.got.tgz:519276.got - 2010.06.27 13:26:56.
