data_PCOD8010080
_publ_section_title
;
Structure prediction by ZEFSAII (Michael W. Deem and Ramdas Pophale) SiO2 
 PCOD8010080
Probable space group: P -1
;
_chemical_formula_sum "Si O2"
_cell_formula_units_Z 16
_cell_length_a 6.342962
_cell_length_b 9.222584
_cell_length_c 23.882990
_cell_angle_alpha 135.252285
_cell_angle_beta 49.728128
_cell_angle_gamma 122.623873
_cell_volume 742.060610
_symmetry_space_group_name_H-M "P -1"
_symmetry_group_IT_number 2
_symmetry_cell_setting 'triclinic'
loop_
_space_group_symop_operation_xyz
x,y,z
-x,-y,-z
loop_
_atom_site_type_symbol
_atom_site_label
_atom_site_fract_x
_atom_site_fract_y
_atom_site_fract_z
Si Si1 0.529492 0.599356 0.962580
Si Si2 0.492040 0.585613 0.586305
Si Si3 0.989963 0.327416 0.239360
Si Si4 0.650419 0.848193 0.468651
Si Si5 0.459224 0.380806 0.798742
Si Si6 0.264598 0.995342 0.377613
Si Si7 0.379979 0.013817 0.085285
Si Si8 0.164809 0.649270 0.848126
O O1 0.422604 0.443041 0.887044
O O2 0.851230 0.697959 0.924770
O O3 0.500000 0.500000 0.000000
O O4 0.333033 0.778440 0.050927
O O5 0.500000 0.500000 0.500000
O O6 0.190618 0.654681 0.669085
O O7 0.518877 0.389788 0.569659
O O8 0.720612 0.797505 0.608507
O O9 0.805678 0.378067 0.231273
O O10 0.269217 0.489850 0.240467
O O11 0.082231 0.097093 0.158456
O O12 0.959422 0.856533 0.390894
O O13 0.500000 0.000000 0.500000
O O14 0.662677 0.929879 0.551859
O O15 0.499243 0.139260 0.721366
O O16 0.207275 0.441636 0.819719
O O17 0.610037 0.155850 0.121245
O O18 0.500000 0.000000 0.000000
#
# Coordination Sequence:
#
# PCOD8010080 Si02
#       8
#     2   2   2   2   2   2   2   2
#     4  11  24  38  58  92 129 159 207 266 310 371
#     4  10  22  42  64  95 130 163 209 264 312 377
#     4  10  21  38  64  89 127 165 214 262 309 380
#     4  10  22  40  66  91 124 165 207 261 315 380
#     4  10  21  39  60  89 125 167 210 257 318 373
#     4  10  22  40  63  90 128 165 204 261 320 369
#     4  11  20  40  62  89 121 170 213 255 309 375
#     4  10  21  37  65  88 120 170 210 253 316 375
#
# _framework density 21.561579999999999
#
# number of rings (size 3 to 8) (size 9 to 14) (size 15 to 20)
#    0.000    1.750    5.000    0.375    1.750    3.000 
#    0.000    6.250    0.000    0.000    0.000    0.000 
#    0.000    0.000    0.000    0.000    0.000    0.000 
#
# Total GULP energy -198245.711975 kJ/mol
# GULP energy per Si atom -12390.356998 kJ/mol
# Density = 2.151250 g / cm^3
# Si number density = 21.561580 Si / 1000 Ang^3
#
#
#
# Elastic Constant Matrix: (Units=GPa)
#
#
# Indices 1 2 3 4 5 6 
#
# 1 88.0291 26.0022 32.9225 6.3248 -5.4329 -24.2900
# 2 26.0022 135.3342 40.9000 20.5664 -1.5190 -31.2906
# 3 32.9225 40.9000 136.4539 8.4011 -9.6094 -23.5513
# 4 6.3248 20.5664 8.4011 40.6817 -10.0728 -7.3944
# 5 -5.4329 -1.5190 -9.6094 -10.0728 18.1292 10.4846
# 6 -24.2900 -31.2906 -23.5513 -7.3944 10.4846 32.7861
#
#
#
# Elastic Compliance Matrix: (Units=1/GPa)
#
#
# Indices 1 2 3 4 5 6 
#
# 1 0.014830 0.000340 -0.002005 -0.000934 -0.003308 0.010717
# 2 0.000340 0.011307 -0.001809 -0.005712 -0.009782 0.011583
# 3 -0.002005 -0.001809 0.008941 0.000533 0.002891 0.002406
# 4 -0.000934 -0.005712 0.000533 0.031530 0.019951 -0.005030
# 5 -0.003308 -0.009782 0.002891 0.019951 0.084632 -0.032274
# 6 0.010717 0.011583 0.002406 -0.005030 -0.032274 0.060411
#
#
# Mechanical properties :
#
#
# Convention : Reuss Voigt Hill
#
# Bulk Modulus (GPa) = 35.55219 62.16294 48.85757
# Shear Modulus (GPa) = 21.93225 35.65223 28.79224
#
# Velocity S-wave (km/s) = 3.19280 4.07075 3.65821
# Velocity P-wave (km/s) = 5.48785 7.14056 6.36805
#
# Compressibility (1/GPa) = 0.02812766
#
# Stress axis : x y z
#
# Youngs Moduli (GPa) = 67.43152 88.44049 111.84973
#
# Poissons Ratio (x) = -0.03003 0.22431
# Poissons Ratio (y) = -0.02290 0.20234
# Poissons Ratio (z) = 0.13523 0.15999
#
# Static dielectric constant tensor:
#      x y z
#    x 3.628360 -0.242050 -0.255220 
#    y -0.242050 4.285530 0.060190 
#    z -0.255220 0.060190 4.116760 
# 
# 
# High freq. dielectric constant tensor:
#      x y z
#    x 1.820850 -0.016440 -0.004420 
#    y -0.016440 1.844990 0.009300 
#    z -0.004420 0.009300 1.859620 
# 
# From -- ./inp_files/46840.got.cif
#   From: 2010.06.25/outbox.cif.g09.slc.cpg/sg2_24_cif.got.tgz:46840.got - 2010.06.27 13:26:56.
