data_PCOD8010514
_publ_section_title
;
Structure prediction by ZEFSAII (Michael W. Deem and Ramdas Pophale) SiO2 
 PCOD8010514
Probable space group: P -1
;
_chemical_formula_sum "Si O2"
_cell_formula_units_Z 16
_cell_length_a 9.051045
_cell_length_b 29.015005
_cell_length_c 9.786187
_cell_angle_alpha 148.534561
_cell_angle_beta 59.825769
_cell_angle_gamma 142.506804
_cell_volume 682.979809
_symmetry_space_group_name_H-M "P -1"
_symmetry_group_IT_number 2
_symmetry_cell_setting 'triclinic'
loop_
_space_group_symop_operation_xyz
x,y,z
-x,-y,-z
loop_
_atom_site_type_symbol
_atom_site_label
_atom_site_fract_x
_atom_site_fract_y
_atom_site_fract_z
Si Si1 0.286148 0.175054 0.951855
Si Si2 0.196070 0.642508 0.668379
Si Si3 0.668249 0.961607 0.620296
Si Si4 0.678820 0.618110 0.543223
Si Si5 0.745889 0.694173 0.191215
Si Si6 0.963026 0.266442 0.584486
Si Si7 0.045758 0.769700 0.998867
Si Si8 0.195753 0.552493 0.166064
O O1 0.393998 0.144066 0.721661
O O2 0.458301 0.230253 0.151945
O O3 0.413815 0.322652 0.215306
O O4 0.937296 0.039246 0.785169
O O5 0.161419 0.733164 0.935468
O O6 0.135361 0.597335 0.424736
O O7 0.000000 0.500000 0.500000
O O8 0.381773 0.860899 0.586572
O O9 0.731113 0.080912 0.817574
O O10 0.423245 0.461485 0.187867
O O11 0.945883 0.738469 0.614471
O O12 0.793698 0.623870 0.647052
O O13 0.952535 0.803199 0.242642
O O14 0.532332 0.687078 0.302147
O O15 0.933679 0.750882 0.381238
O O16 0.122867 0.425723 0.935530
O O17 0.000000 0.500000 0.000000
#
# Coordination Sequence:
#
# PCOD8010514 Si02
#       8
#     2   2   2   2   2   2   2   2
#     4  10  21  38  61  88 122 162 210 254 298 369
#     4  12  23  40  67  98 125 161 213 266 314 366
#     4  10  24  42  61  89 128 174 210 250 314 375
#     4  10  21  40  64  92 121 158 208 261 315 366
#     4  11  22  39  64  91 124 161 204 259 317 370
#     4  11  22  41  65  89 124 167 207 252 312 380
#     4  11  24  40  62  91 127 165 207 255 309 378
#     4  11  24  41  64  97 131 159 201 265 326 368
#
# _framework density 23.426753000000001
#
# number of rings (size 3 to 8) (size 9 to 14) (size 15 to 20)
#    0.000    1.250    0.000    7.875    0.000   10.000 
#    0.000    1.250    0.000    6.000    0.000    0.000 
#    0.000    0.000    0.000    0.000    0.000    0.000 
#
# Total GULP energy -198248.144929 kJ/mol
# GULP energy per Si atom -12390.509058 kJ/mol
# Density = 2.337343 g / cm^3
# Si number density = 23.426753 Si / 1000 Ang^3
#
#
#
# Elastic Constant Matrix: (Units=GPa)
#
#
# Indices 1 2 3 4 5 6 
#
# 1 127.0413 36.9398 24.9260 -6.2898 24.2552 10.3476
# 2 36.9398 82.7377 0.0250 -16.2066 16.8203 4.9863
# 3 24.9260 0.0250 48.6572 -9.9428 4.5003 2.1662
# 4 -6.2898 -16.2066 -9.9428 30.6490 -3.7000 6.6424
# 5 24.2552 16.8203 4.5003 -3.7000 55.1916 -1.8198
# 6 10.3476 4.9863 2.1662 6.6424 -1.8198 28.6872
#
#
#
# Elastic Compliance Matrix: (Units=1/GPa)
#
#
# Indices 1 2 3 4 5 6 
#
# 1 0.010994 -0.004433 -0.005569 -0.001725 -0.003227 -0.002580
# 2 -0.004433 0.016933 0.004810 0.010157 -0.003064 -0.004253
# 3 -0.005569 0.004810 0.025713 0.010374 -0.000526 -0.003204
# 4 -0.001725 0.010157 0.010374 0.043541 -0.000661 -0.012050
# 5 -0.003227 -0.003064 -0.000526 -0.000661 0.020575 0.003195
# 6 -0.002580 -0.004253 -0.003204 -0.012050 0.003195 0.039763
#
#
# Mechanical properties :
#
#
# Convention : Reuss Voigt Hill
#
# Bulk Modulus (GPa) = 23.11757 42.46863 32.79310
# Shear Modulus (GPa) = 27.42411 36.00859 31.71635
#
# Velocity S-wave (km/s) = 3.42516 3.92480 3.68346
# Velocity P-wave (km/s) = 5.05290 6.22145 5.66737
#
# Compressibility (1/GPa) = 0.04325713
#
# Stress axis : x y z
#
# Youngs Moduli (GPa) = 90.95895 59.05671 38.89033
#
# Poissons Ratio (x) = 0.26181 0.21658
# Poissons Ratio (y) = 0.40323 -0.18708
# Poissons Ratio (z) = 0.50654 -0.28409
#
# Static dielectric constant tensor:
#      x y z
#    x 4.328170 0.242390 0.048300 
#    y 0.242390 4.344300 -0.099160 
#    z 0.048300 -0.099160 4.253930 
# 
# 
# High freq. dielectric constant tensor:
#      x y z
#    x 1.935420 0.013870 0.010560 
#    y 0.013870 1.916960 -0.013050 
#    z 0.010560 -0.013050 1.922790 
# 
# From -- ./inp_files/227739.got.cif
#   From: 2010.06.25/outbox.cif.g09.slc.cpg/sg2_114_cif.got.tgz:227739.got - 2010.06.27 13:26:56.
