data_PCOD8010012
_publ_section_title
;
Structure prediction by ZEFSAII (Michael W. Deem and Ramdas Pophale) SiO2 
 PCOD8010012
Probable space group: P -1
;
_chemical_formula_sum "Si O2"
_cell_formula_units_Z 14
_cell_length_a 16.541241
_cell_length_b 9.689386
_cell_length_c 13.054330
_cell_angle_alpha 34.344206
_cell_angle_beta 136.140123
_cell_angle_gamma 112.281786
_cell_volume 681.447149
_symmetry_space_group_name_H-M "P -1"
_symmetry_group_IT_number 2
_symmetry_cell_setting 'triclinic'
loop_
_space_group_symop_operation_xyz
x,y,z
-x,-y,-z
loop_
_atom_site_type_symbol
_atom_site_label
_atom_site_fract_x
_atom_site_fract_y
_atom_site_fract_z
Si Si1 0.616662 0.495209 0.204757
Si Si2 0.841747 0.446297 0.813846
Si Si3 0.839626 0.040445 0.210531
Si Si4 0.660825 0.789689 0.246582
Si Si5 0.137560 0.718558 0.713942
Si Si6 0.845948 0.898958 0.666224
Si Si7 0.432559 0.277043 0.194188
O O1 0.684934 0.586005 0.296577
O O2 0.492242 0.478219 0.154367
O O3 0.732616 0.169059 0.467706
O O4 0.549705 0.747475 0.899296
O O5 0.744902 0.579414 0.545587
O O6 0.793133 0.694260 0.706188
O O7 0.818833 0.196819 0.986790
O O8 0.003991 0.299989 0.017642
O O9 0.836986 0.261138 0.156237
O O10 0.716922 0.990655 0.144550
O O11 0.994237 0.734560 0.549545
O O12 0.500000 0.000000 0.000000
O O13 0.124224 0.994491 0.477110
O O14 0.268760 0.419826 0.973933
O O15 0.500000 0.000000 0.500000
#
# Coordination Sequence:
#
# PCOD8010012 Si02
#       7
#     2   2   2   2   2   2   2
#     4  10  24  40  60  89 128 162 195 255 313 352
#     4  10  22  38  66  91 118 160 211 249 296 367
#     4  10  21  37  64  88 117 160 205 251 303 349
#     4  12  26  41  58  90 133 163 194 254 314 368
#     4   9  18  37  61  92 115 151 211 257 287 352
#     4   9  19  41  64  92 118 157 212 256 293 356
#     4  10  22  38  62  89 119 160 207 245 297 370
#
# _framework density 20.544512999999998
#
# number of rings (size 3 to 8) (size 9 to 14) (size 15 to 20)
#    0.000    2.000    1.429    0.857    8.000    2.286 
#    0.000    6.429    0.000    0.000    0.000    0.000 
#    0.000    0.000    0.000    0.000    0.000    0.000 
#
# Total GULP energy -173472.361300 kJ/mol
# GULP energy per Si atom -12390.882950 kJ/mol
# Density = 2.049775 g / cm^3
# Si number density = 20.544513 Si / 1000 Ang^3
#
#
#
# Elastic Constant Matrix: (Units=GPa)
#
#
# Indices 1 2 3 4 5 6 
#
# 1 102.7394 40.7808 58.6919 6.5085 -1.7224 12.7264
# 2 40.7808 96.1390 57.6021 15.8566 -3.4001 -1.0903
# 3 58.6919 57.6021 144.6591 19.0787 -12.5660 1.5203
# 4 6.5085 15.8566 19.0787 29.1011 -4.6002 4.9631
# 5 -1.7224 -3.4001 -12.5660 -4.6002 41.8746 -1.0934
# 6 12.7264 -1.0903 1.5203 4.9631 -1.0934 28.5234
#
#
#
# Elastic Compliance Matrix: (Units=1/GPa)
#
#
# Indices 1 2 3 4 5 6 
#
# 1 0.014720 -0.003989 -0.004803 0.003071 -0.001006 -0.007037
# 2 -0.003989 0.015342 -0.003835 -0.005650 -0.000598 0.003531
# 3 -0.004803 -0.003835 0.011120 -0.004119 0.002433 0.002214
# 4 0.003071 -0.005650 -0.004119 0.041332 0.002751 -0.008453
# 5 -0.001006 -0.000598 0.002433 0.002751 0.024843 0.000770
# 6 -0.007037 0.003531 0.002214 -0.008453 0.000770 0.039716
#
#
# Mechanical properties :
#
#
# Convention : Reuss Voigt Hill
#
# Bulk Modulus (GPa) = 62.77333 73.07632 67.92483
# Shear Modulus (GPa) = 28.14757 32.33068 30.23913
#
# Velocity S-wave (km/s) = 3.70547 3.97128 3.84068
# Velocity P-wave (km/s) = 6.99489 7.52828 7.26648
#
# Compressibility (1/GPa) = 0.01593033
#
# Stress axis : x y z
#
# Youngs Moduli (GPa) = 67.93252 65.18152 89.93062
#
# Poissons Ratio (x) = 0.25998 0.43191
# Poissons Ratio (y) = 0.27095 0.34484
# Poissons Ratio (z) = 0.32626 0.24994
#
# Static dielectric constant tensor:
#      x y z
#    x 3.948220 0.094760 0.055190 
#    y 0.094760 3.362600 0.128340 
#    z 0.055190 0.128340 3.928300 
# 
# 
# High freq. dielectric constant tensor:
#      x y z
#    x 1.816300 0.005640 0.000710 
#    y 0.005640 1.760360 0.008420 
#    z 0.000710 0.008420 1.817740 
# 
# From -- ./inp_files/277296.got.cif
#   From: 2010.06.25/outbox.cif.g09.slc.cpg/sg2_139_cif.got.tgz:277296.got - 2010.06.27 13:26:56.
