data_PCOD8010570
_publ_section_title
;
Structure prediction by ZEFSAII (Michael W. Deem and Ramdas Pophale) SiO2 
 PCOD8010570
Probable space group: P -1
;
_chemical_formula_sum "Si O2"
_cell_formula_units_Z 16
_cell_length_a 9.316035
_cell_length_b 9.865438
_cell_length_c 11.842702
_cell_angle_alpha 121.356529
_cell_angle_beta 74.156911
_cell_angle_gamma 121.675471
_cell_volume 791.000065
_symmetry_space_group_name_H-M "P -1"
_symmetry_group_IT_number 2
_symmetry_cell_setting 'triclinic'
loop_
_space_group_symop_operation_xyz
x,y,z
-x,-y,-z
loop_
_atom_site_type_symbol
_atom_site_label
_atom_site_fract_x
_atom_site_fract_y
_atom_site_fract_z
Si Si1 0.079365 0.801729 0.832851
Si Si2 0.847080 0.299636 0.457000
Si Si3 0.846852 0.048614 0.538874
Si Si4 0.818133 0.916865 0.886244
Si Si5 0.832507 0.409242 0.116018
Si Si6 0.901032 0.214706 0.832810
Si Si7 0.503579 0.709712 0.477721
Si Si8 0.495893 0.650145 0.717033
O O1 0.180720 0.800368 0.699640
O O2 0.042551 0.635789 0.852628
O O3 0.899267 0.784543 0.828820
O O4 0.190573 0.991617 0.954336
O O5 0.900817 0.199263 0.496345
O O6 0.668666 0.290327 0.523951
O O7 0.000000 0.500000 0.500000
O O8 0.813508 0.127972 0.696121
O O9 0.670710 0.879241 0.467929
O O10 0.000000 0.000000 0.500000
O O11 0.633057 0.804895 0.830216
O O12 0.929677 0.070416 0.837878
O O13 0.675758 0.362496 0.208071
O O14 0.916473 0.617301 0.155806
O O15 0.788037 0.286707 0.958817
O O16 0.521185 0.707701 0.607167
O O17 0.498466 0.534738 0.346568
#
# Coordination Sequence:
#
# PCOD8010570 Si02
#       8
#     2   2   2   2   2   2   2   2
#     4  10  21  38  61  93 118 163 206 252 311 369
#     4  12  25  41  66  93 130 168 208 259 319 376
#     4  12  25  41  66  93 130 168 208 259 319 376
#     4  10  21  39  64  87 125 157 209 259 303 378
#     4  10  21  39  64  87 125 157 209 259 303 378
#     4  10  21  38  61  93 118 163 206 252 311 369
#     4  11  25  41  61  94 133 162 213 263 312 381
#     4  11  22  40  64  93 123 165 210 260 316 364
#
# _framework density 20.227558999999999
#
# number of rings (size 3 to 8) (size 9 to 14) (size 15 to 20)
#    0.000    1.250    2.500    3.375    3.500    3.000 
#    0.000    0.000    0.000   13.500    0.000    0.000 
#    0.000    0.000    0.000    0.000    0.000    0.000 
#
# Total GULP energy -198400.695366 kJ/mol
# GULP energy per Si atom -12400.043460 kJ/mol
# Density = 2.018152 g / cm^3
# Si number density = 20.227559 Si / 1000 Ang^3
#
#
#
# Elastic Constant Matrix: (Units=GPa)
#
#
# Indices 1 2 3 4 5 6 
#
# 1 103.7445 55.3691 18.6871 10.1855 -2.8543 -2.8970
# 2 55.3691 132.9711 34.8324 4.0945 -1.6496 -6.9195
# 3 18.6871 34.8324 92.1364 -1.3614 1.8925 -7.2461
# 4 10.1855 4.0945 -1.3614 27.1482 0.0647 3.6788
# 5 -2.8543 -1.6496 1.8925 0.0647 25.6035 -2.0250
# 6 -2.8970 -6.9195 -7.2461 3.6788 -2.0250 31.4342
#
#
#
# Elastic Compliance Matrix: (Units=1/GPa)
#
#
# Indices 1 2 3 4 5 6 
#
# 1 0.012907 -0.005002 -0.000776 -0.004195 0.001223 0.000479
# 2 -0.005002 0.010414 -0.002836 0.000000 0.000418 0.001205
# 3 -0.000776 -0.002836 0.012273 0.001074 -0.001026 0.001941
# 4 -0.004195 0.000000 0.001074 0.039113 -0.001024 -0.004783
# 5 0.001223 0.000418 -0.001026 -0.001024 0.039507 0.002633
# 6 0.000479 0.001205 0.001941 -0.004783 0.002633 0.033299
#
#
# Mechanical properties :
#
#
# Convention : Reuss Voigt Hill
#
# Bulk Modulus (GPa) = 54.45148 60.73657 57.59403
# Shear Modulus (GPa) = 29.26297 31.50140 30.38218
#
# Velocity S-wave (km/s) = 3.80766 3.95061 3.87979
# Velocity P-wave (km/s) = 6.80507 7.13453 6.97175
#
# Compressibility (1/GPa) = 0.01836497
#
# Stress axis : x y z
#
# Youngs Moduli (GPa) = 77.47515 96.02301 81.48056
#
# Poissons Ratio (x) = 0.48031 0.06325
# Poissons Ratio (y) = 0.38753 0.23112
# Poissons Ratio (z) = 0.06014 0.27237
#
# Static dielectric constant tensor:
#      x y z
#    x 3.496890 -0.201990 -0.069560 
#    y -0.201990 3.736750 0.059560 
#    z -0.069560 0.059560 3.940910 
# 
# 
# High freq. dielectric constant tensor:
#      x y z
#    x 1.774030 -0.013160 -0.004870 
#    y -0.013160 1.791390 0.004760 
#    z -0.004870 0.004760 1.808170 
# 
# From -- ./inp_files/184917.got.cif
#   From: 2010.06.25/outbox.cif.g09.slc.cpg/sg2_93_cif.got.tgz:184917.got - 2010.06.27 13:26:56.
