data_PCOD8010122
_publ_section_title
;
Structure prediction by ZEFSAII (Michael W. Deem and Ramdas Pophale) SiO2 
 PCOD8010122
Probable space group: P -1
;
_chemical_formula_sum "Si O2"
_cell_formula_units_Z 14
_cell_length_a 17.579268
_cell_length_b 9.262948
_cell_length_c 8.744081
_cell_angle_alpha 70.900185
_cell_angle_beta 68.272266
_cell_angle_gamma 128.784906
_cell_volume 655.209118
_symmetry_space_group_name_H-M "P -1"
_symmetry_group_IT_number 2
_symmetry_cell_setting 'triclinic'
loop_
_space_group_symop_operation_xyz
x,y,z
-x,-y,-z
loop_
_atom_site_type_symbol
_atom_site_label
_atom_site_fract_x
_atom_site_fract_y
_atom_site_fract_z
Si Si1 0.117385 0.113131 0.497460
Si Si2 0.553313 0.243588 0.457076
Si Si3 0.028858 0.642833 0.776592
Si Si4 0.147007 0.320775 0.711047
Si Si5 0.606944 0.364886 0.053873
Si Si6 0.739845 0.186993 0.618855
Si Si7 0.723822 0.209972 0.978887
O O1 0.162318 0.303428 0.528869
O O2 0.047416 0.852849 0.723771
O O3 0.284640 0.339224 0.215174
O O4 0.000000 0.000000 0.500000
O O5 0.703527 0.481315 0.368873
O O6 0.594137 0.410299 0.220855
O O7 0.500000 0.000000 0.500000
O O8 0.415693 0.092992 0.716688
O O9 0.184858 0.845415 0.496471
O O10 0.881351 0.390149 0.865173
O O11 0.000000 0.500000 0.000000
O O12 0.141517 0.495952 0.647110
O O13 0.000000 0.000000 0.000000
O O14 0.435709 0.065818 0.219288
O O15 0.704132 0.360281 0.965589
O O16 0.724816 0.160049 0.820753
#
# Coordination Sequence:
#
# PCOD8010122 Si02
#       7
#     2   2   2   2   2   2   2
#     4  12  24  43  68 101 138 182 232 288 336 413
#     4  10  21  37  66 101 131 174 228 282 332 402
#     4  12  27  43  66  99 147 183 220 282 362 406
#     4  12  23  37  67 102 135 174 238 284 334 406
#     4  11  21  40  73  95 133 174 240 275 343 403
#     4  12  23  42  67 103 132 181 230 288 345 411
#     4  11  21  41  68  95 130 182 231 273 332 422
#
# _framework density 21.367222999999999
#
# number of rings (size 3 to 8) (size 9 to 14) (size 15 to 20)
#    0.000    0.571    5.714    4.286    4.000    0.571 
#    0.000    1.429    0.000    6.000    0.000    0.000 
#    0.000    0.000    0.000    0.000    0.000    0.000 
#
# Total GULP energy -173473.808040 kJ/mol
# GULP energy per Si atom -12390.986289 kJ/mol
# Density = 2.131859 g / cm^3
# Si number density = 21.367223 Si / 1000 Ang^3
#
#
#
# Elastic Constant Matrix: (Units=GPa)
#
#
# Indices 1 2 3 4 5 6 
#
# 1 94.6325 45.1054 36.3165 -1.5767 2.8284 19.8772
# 2 45.1054 109.0909 39.7454 -2.2162 0.6620 37.1731
# 3 36.3165 39.7454 145.0889 0.6968 4.5139 14.9365
# 4 -1.5767 -2.2162 0.6968 41.3716 4.5072 3.9676
# 5 2.8284 0.6620 4.5139 4.5072 33.6134 -0.2464
# 6 19.8772 37.1731 14.9365 3.9676 -0.2464 40.1006
#
#
#
# Elastic Compliance Matrix: (Units=1/GPa)
#
#
# Indices 1 2 3 4 5 6 
#
# 1 0.013874 -0.004180 -0.002065 0.000660 -0.000913 -0.002304
# 2 -0.004180 0.015751 -0.002046 0.001868 -0.000022 -0.011952
# 3 -0.002065 -0.002046 0.008001 -0.000229 -0.000830 -0.000042
# 4 0.000660 0.001868 -0.000229 0.025107 -0.003461 -0.004479
# 5 -0.000913 -0.000022 -0.000830 -0.003461 0.030412 0.001311
# 6 -0.002304 -0.011952 -0.000042 -0.004479 0.001311 0.037626
#
#
# Mechanical properties :
#
#
# Convention : Reuss Voigt Hill
#
# Bulk Modulus (GPa) = 47.52133 65.68299 56.60216
# Shear Modulus (GPa) = 32.38971 38.19344 35.29158
#
# Velocity S-wave (km/s) = 3.89763 4.23244 4.06848
# Velocity P-wave (km/s) = 6.52257 7.39538 6.97264
#
# Compressibility (1/GPa) = 0.02104318
#
# Stress axis : x y z
#
# Youngs Moduli (GPa) = 72.07506 63.48652 124.98242
#
# Poissons Ratio (x) = 0.26538 0.25813
# Poissons Ratio (y) = 0.30128 0.25577
# Poissons Ratio (z) = 0.14886 0.12992
#
# Static dielectric constant tensor:
#      x y z
#    x 3.744140 0.274390 0.298850 
#    y 0.274390 3.895010 0.133740 
#    z 0.298850 0.133740 4.594450 
# 
# 
# High freq. dielectric constant tensor:
#      x y z
#    x 1.815060 0.030570 0.009910 
#    y 0.030570 1.836450 0.001900 
#    z 0.009910 0.001900 1.868490 
# 
# From -- ./inp_files/242847.got.cif
#   From: 2010.06.25/outbox.cif.g09.slc.cpg/sg2_122_cif.got.tgz:242847.got - 2010.06.27 13:26:56.
