data_PCOD8010527
_publ_section_title
;
Structure prediction by ZEFSAII (Michael W. Deem and Ramdas Pophale) SiO2 
 PCOD8010527
Probable space group: P -1
;
_chemical_formula_sum "Si O2"
_cell_formula_units_Z 14
_cell_length_a 8.891350
_cell_length_b 16.339232
_cell_length_c 8.891215
_cell_angle_alpha 146.070504
_cell_angle_beta 102.387642
_cell_angle_gamma 66.278861
_cell_volume 641.847929
_symmetry_space_group_name_H-M "P -1"
_symmetry_group_IT_number 2
_symmetry_cell_setting 'triclinic'
loop_
_space_group_symop_operation_xyz
x,y,z
-x,-y,-z
loop_
_atom_site_type_symbol
_atom_site_label
_atom_site_fract_x
_atom_site_fract_y
_atom_site_fract_z
Si Si1 0.904247 0.419691 0.060976
Si Si2 0.128547 0.081579 0.689209
Si Si3 0.292638 0.000007 0.292649
Si Si4 0.723125 0.303289 0.310698
Si Si5 0.641280 0.580311 0.484559
Si Si6 0.607622 0.918434 0.046992
Si Si7 0.007413 0.696717 0.419848
O O1 0.718636 0.500007 0.218643
O O2 0.987563 0.546237 0.260724
O O3 0.022874 0.273014 0.967501
O O4 0.891356 0.353651 0.792589
O O5 0.267153 0.037429 0.520046
O O6 0.239098 0.029927 0.790827
O O7 0.000000 0.000000 0.500000
O O8 0.172565 0.155257 0.409492
O O9 0.482605 0.962610 0.229785
O O10 0.254262 0.844733 0.017311
O O11 0.714496 0.453762 0.441320
O O12 0.561059 0.353672 0.462323
O O13 0.885593 0.242094 0.356492
O O14 0.694467 0.726997 0.749887
O O15 0.500000 0.000000 0.000000
#
# Coordination Sequence:
#
# PCOD8010527 Si02
#       7
#     2   2   2   2   2   2   2
#     4  10  22  39  58  86 121 158 199 245 301 358
#     4  11  24  41  63  90 121 160 203 248 300 357
#     4  10  22  40  62  88 121 156 197 246 303 358
#     4  10  21  38  61  89 120 157 202 248 296 355
#     4  10  22  39  58  86 121 158 199 245 301 358
#     4  11  24  41  63  90 121 160 203 248 300 357
#     4  10  21  38  61  89 120 157 202 248 296 355
#
# _framework density 21.812021000000001
#
# number of rings (size 3 to 8) (size 9 to 14) (size 15 to 20)
#    0.000    1.714    0.000    3.429    0.000   10.857 
#    0.000   10.000    0.000    0.000    0.000    0.000 
#    0.000    0.000    0.000    0.000    0.000    0.000 
#
# Total GULP energy -173557.060436 kJ/mol
# GULP energy per Si atom -12396.932888 kJ/mol
# Density = 2.176238 g / cm^3
# Si number density = 21.812021 Si / 1000 Ang^3
#
#
#
# Elastic Constant Matrix: (Units=GPa)
#
#
# Indices 1 2 3 4 5 6 
#
# 1 55.7505 33.9095 40.2857 -5.5838 8.9223 0.1824
# 2 33.9095 103.9831 43.5194 4.7677 27.3707 -14.6108
# 3 40.2857 43.5194 100.0225 25.0014 -3.8303 -13.4342
# 4 -5.5838 4.7677 25.0014 27.2614 -3.9574 7.4712
# 5 8.9223 27.3707 -3.8303 -3.9574 46.4531 -10.6729
# 6 0.1824 -14.6108 -13.4342 7.4712 -10.6729 27.2325
#
#
#
# Elastic Compliance Matrix: (Units=1/GPa)
#
#
# Indices 1 2 3 4 5 6 
#
# 1 0.080307 -0.007931 -0.061549 0.089756 -0.024084 -0.069220
# 2 -0.007931 0.015940 -0.001710 -0.005660 -0.006981 0.006579
# 3 -0.061549 -0.001710 0.068047 -0.089506 0.026434 0.067979
# 4 0.089756 -0.005660 -0.089506 0.162250 -0.031508 -0.104655
# 5 -0.024084 -0.006981 0.026434 -0.031508 0.037277 0.032710
# 6 -0.069220 0.006579 0.067979 -0.104655 0.032710 0.115781
#
#
# Mechanical properties :
#
#
# Convention : Reuss Voigt Hill
#
# Bulk Modulus (GPa) = 45.63124 55.02060 50.32592
# Shear Modulus (GPa) = 7.94550 29.65884 18.80217
#
# Velocity S-wave (km/s) = 1.91066 3.69148 2.93918
# Velocity P-wave (km/s) = 5.08263 6.59158 5.88567
#
# Compressibility (1/GPa) = 0.02191481
#
# Stress axis : x y z
#
# Youngs Moduli (GPa) = 12.45215 62.73349 14.69573
#
# Poissons Ratio (x) = 0.49755 0.90450
# Poissons Ratio (y) = 0.09876 0.02513
# Poissons Ratio (z) = 0.76641 0.10727
#
# Static dielectric constant tensor:
#      x y z
#    x 3.895520 0.106810 -0.175960 
#    y 0.106810 3.821350 0.151530 
#    z -0.175960 0.151530 4.075590 
# 
# 
# High freq. dielectric constant tensor:
#      x y z
#    x 1.854890 0.004480 -0.012190 
#    y 0.004480 1.850150 0.009610 
#    z -0.012190 0.009610 1.869500 
# 
# From -- ./inp_files/216991.got.cif
#   From: 2010.06.25/outbox.cif.g09.slc.cpg/sg2_109_cif.got.tgz:216991.got - 2010.06.27 13:26:56.
