data_PCOD8010623
_publ_section_title
;
Structure prediction by ZEFSAII (Michael W. Deem and Ramdas Pophale) SiO2 
 PCOD8010623
Probable space group: P -1
;
_chemical_formula_sum "Si O2"
_cell_formula_units_Z 16
_cell_length_a 11.292903
_cell_length_b 11.201990
_cell_length_c 15.255173
_cell_angle_alpha 47.030012
_cell_angle_beta 116.247743
_cell_angle_gamma 143.609534
_cell_volume 812.188712
_symmetry_space_group_name_H-M "P -1"
_symmetry_group_IT_number 2
_symmetry_cell_setting 'triclinic'
loop_
_space_group_symop_operation_xyz
x,y,z
-x,-y,-z
loop_
_atom_site_type_symbol
_atom_site_label
_atom_site_fract_x
_atom_site_fract_y
_atom_site_fract_z
Si Si1 0.763540 0.387900 0.343492
Si Si2 0.436277 0.047069 0.036999
Si Si3 0.176858 0.004481 0.869269
Si Si4 0.666755 0.926749 0.569810
Si Si5 0.010269 0.399143 0.862293
Si Si6 0.711806 0.106712 0.202976
Si Si7 0.928507 0.751101 0.361378
Si Si8 0.525255 0.359587 0.524762
O O1 0.752330 0.182595 0.440039
O O2 0.913444 0.583749 0.374159
O O3 0.861741 0.545014 0.206701
O O4 0.536064 0.248075 0.349167
O O5 0.616604 0.189654 0.094873
O O6 0.226757 0.783990 0.146881
O O7 0.500000 0.000000 0.000000
O O8 0.383851 0.177393 0.912994
O O9 0.207520 0.940834 0.819594
O O10 0.132504 0.149831 0.765956
O O11 0.986900 0.738559 0.991970
O O12 0.844849 0.009350 0.643917
O O13 0.610619 0.765478 0.546644
O O14 0.097558 0.654898 0.796183
O O15 0.540569 0.856206 0.330850
O O16 0.766229 0.569051 0.477354
O O17 0.500000 0.500000 0.500000
#
# Coordination Sequence:
#
# PCOD8010623 Si02
#       8
#     2   2   2   2   2   2   2   2
#     4  10  22  41  62  85 118 159 214 249 284 359
#     4   8  20  36  59  89 114 161 193 237 298 352
#     4   9  21  40  55  92 124 151 197 248 299 358
#     4  10  23  43  60  88 120 162 205 246 300 355
#     4  10  21  38  62  88 117 158 202 251 282 365
#     4  11  19  39  62  87 125 156 199 240 303 359
#     4  11  23  41  61  88 126 162 192 256 304 344
#     4  11  23  39  62  95 126 152 196 251 303 365
#
# _framework density 19.699857000000002
#
# number of rings (size 3 to 8) (size 9 to 14) (size 15 to 20)
#    0.750    1.250    2.500    0.750    1.750    2.000 
#    6.750    0.625    0.000    0.000    0.000    0.000 
#    0.000    0.000    0.000    0.000    0.000    0.000 
#
# Total GULP energy -198211.993447 kJ/mol
# GULP energy per Si atom -12388.249590 kJ/mol
# Density = 1.965502 g / cm^3
# Si number density = 19.699857 Si / 1000 Ang^3
#
#
#
# Elastic Constant Matrix: (Units=GPa)
#
#
# Indices 1 2 3 4 5 6 
#
# 1 69.3830 35.3772 35.5862 -5.2728 -10.8724 1.8811
# 2 35.3772 85.4081 6.6862 6.7134 -3.3052 2.6280
# 3 35.5862 6.6862 94.8972 -7.9819 -18.9964 10.6195
# 4 -5.2728 6.7134 -7.9819 22.4781 9.3686 5.1387
# 5 -10.8724 -3.3052 -18.9964 9.3686 41.0569 -0.1170
# 6 1.8811 2.6280 10.6195 5.1387 -0.1170 28.7033
#
#
#
# Elastic Compliance Matrix: (Units=1/GPa)
#
#
# Indices 1 2 3 4 5 6 
#
# 1 0.023821 -0.009665 -0.007819 0.005083 0.000756 0.001310
# 2 -0.009665 0.016131 0.002235 -0.006731 0.001308 -0.000460
# 3 -0.007819 0.002235 0.015041 0.002235 0.004542 -0.005638
# 4 0.005083 -0.006731 0.002235 0.055401 -0.010833 -0.010506
# 5 0.000756 0.001308 0.004542 -0.010833 0.029236 0.000209
# 6 0.001310 -0.000460 -0.005638 -0.010506 0.000209 0.038763
#
#
# Mechanical properties :
#
#
# Convention : Reuss Voigt Hill
#
# Bulk Modulus (GPa) = 40.82813 44.99862 42.91338
# Shear Modulus (GPa) = 23.03539 29.91690 26.47615
#
# Velocity S-wave (km/s) = 3.42324 3.90120 3.67001
# Velocity P-wave (km/s) = 6.03281 6.57146 6.30789
#
# Compressibility (1/GPa) = 0.02449291
#
# Stress axis : x y z
#
# Youngs Moduli (GPa) = 41.98010 61.99262 66.48603
#
# Poissons Ratio (x) = 0.59918 0.51989
# Poissons Ratio (y) = 0.40575 -0.14860
# Poissons Ratio (z) = 0.32826 -0.13856
#
# Static dielectric constant tensor:
#      x y z
#    x 3.492570 0.133230 -0.105920 
#    y 0.133230 3.754940 0.139210 
#    z -0.105920 0.139210 3.745750 
# 
# 
# High freq. dielectric constant tensor:
#      x y z
#    x 1.756260 0.002350 -0.018230 
#    y 0.002350 1.759070 -0.002550 
#    z -0.018230 -0.002550 1.768720 
# 
# From -- ./inp_files/518772.got.cif
#   From: 2010.06.25/outbox.cif.g09.slc.cpg/sg2_260_cif.got.tgz:518772.got - 2010.06.27 13:26:56.
