data_PCOD8010862
_publ_section_title
;
Structure prediction by ZEFSAII (Michael W. Deem and Ramdas Pophale) SiO2 
 PCOD8010862
Probable space group: P -1
;
_chemical_formula_sum "Si O2"
_cell_formula_units_Z 16
_cell_length_a 10.275980
_cell_length_b 8.284848
_cell_length_c 9.272587
_cell_angle_alpha 64.986483
_cell_angle_beta 85.780996
_cell_angle_gamma 86.378627
_cell_volume 712.992226
_symmetry_space_group_name_H-M "P -1"
_symmetry_group_IT_number 2
_symmetry_cell_setting 'triclinic'
loop_
_space_group_symop_operation_xyz
x,y,z
-x,-y,-z
loop_
_atom_site_type_symbol
_atom_site_label
_atom_site_fract_x
_atom_site_fract_y
_atom_site_fract_z
Si Si1 0.152314 0.194989 0.405604
Si Si2 0.233443 0.525962 0.090910
Si Si3 0.142005 0.798847 0.503787
Si Si4 0.491666 0.689787 0.086323
Si Si5 0.190275 0.187233 0.738394
Si Si6 0.899538 0.185555 0.808266
Si Si7 0.730659 0.487660 0.230301
Si Si8 0.328045 0.025012 0.042089
O O1 0.222046 0.346981 0.251871
O O2 0.209933 0.184970 0.566620
O O3 0.996849 0.228827 0.398447
O O4 0.181801 0.002875 0.405238
O O5 0.385961 0.583442 0.044972
O O6 0.142520 0.685003 0.105258
O O7 0.199060 0.500086 0.936458
O O8 0.133450 0.710969 0.378423
O O9 0.253511 0.708564 0.629728
O O10 0.576375 0.544761 0.226239
O O11 0.415371 0.843556 0.128085
O O12 0.602461 0.806745 0.948969
O O13 0.187674 0.389941 0.716605
O O14 0.049191 0.113992 0.824015
O O15 0.306227 0.073493 0.853825
O O16 0.816463 0.005763 0.876924
#
# Coordination Sequence:
#
# PCOD8010862 Si02
#       8
#     2   2   2   2   2   2   2   2
#     4  10  23  41  61  91 128 158 195 253 310 362
#     4  11  23  40  63  89 124 164 207 245 297 359
#     4  10  23  41  61  91 128 158 195 253 310 362
#     4   9  21  40  60  85 123 161 206 256 291 347
#     4  10  21  38  64  92 125 158 196 248 310 366
#     4  10  21  38  64  92 125 158 196 248 310 366
#     4  11  23  40  63  89 124 164 207 245 297 359
#     4   9  19  38  64  92 117 159 206 250 302 357
#
# _framework density 22.440638
#
# number of rings (size 3 to 8) (size 9 to 14) (size 15 to 20)
#    0.000    2.000    0.000    2.250    7.000    4.000 
#    0.000   11.875    0.000    0.000    0.000    0.000 
#    0.000    0.000    0.000    0.000    0.000    0.000 
#
# Total GULP energy -198219.488351 kJ/mol
# GULP energy per Si atom -12388.718022 kJ/mol
# Density = 2.238956 g / cm^3
# Si number density = 22.440638 Si / 1000 Ang^3
#
#
#
# Elastic Constant Matrix: (Units=GPa)
#
#
# Indices 1 2 3 4 5 6 
#
# 1 80.1084 29.3002 28.4731 -12.0901 8.3147 7.0178
# 2 29.3002 76.1821 30.1270 -2.5690 6.4981 5.7165
# 3 28.4731 30.1270 73.3063 0.8664 14.4108 -5.4108
# 4 -12.0901 -2.5690 0.8664 41.5118 2.0003 -0.7450
# 5 8.3147 6.4981 14.4108 2.0003 29.9618 -14.1954
# 6 7.0178 5.7165 -5.4108 -0.7450 -14.1954 37.9223
#
#
#
# Elastic Compliance Matrix: (Units=1/GPa)
#
#
# Indices 1 2 3 4 5 6 
#
# 1 0.017162 -0.003875 -0.004643 0.004976 -0.004275 -0.004757
# 2 -0.003875 0.017161 -0.005483 0.000064 -0.001543 -0.003229
# 3 -0.004643 -0.005483 0.018956 -0.001784 -0.005418 0.002327
# 4 0.004976 0.000064 -0.001784 0.025698 -0.003130 -0.001852
# 5 -0.004275 -0.001543 -0.005418 -0.003130 0.045951 0.017390
# 6 -0.004757 -0.003229 0.002327 -0.001852 0.017390 0.034542
#
#
# Mechanical properties :
#
#
# Convention : Reuss Voigt Hill
#
# Bulk Modulus (GPa) = 39.56210 45.04413 42.30312
# Shear Modulus (GPa) = 25.52340 31.32561 28.42451
#
# Velocity S-wave (km/s) = 3.37616 3.74027 3.56287
# Velocity P-wave (km/s) = 5.73287 6.22647 5.98477
#
# Compressibility (1/GPa) = 0.02527672
#
# Stress axis : x y z
#
# Youngs Moduli (GPa) = 58.26777 58.27023 52.75304
#
# Poissons Ratio (x) = 0.22581 0.24493
# Poissons Ratio (y) = 0.22580 0.28927
# Poissons Ratio (z) = 0.27053 0.31952
#
# Static dielectric constant tensor:
#      x y z
#    x 4.122120 0.228470 0.016460 
#    y 0.228470 4.097150 -0.107940 
#    z 0.016460 -0.107940 3.823700 
# 
# 
# High freq. dielectric constant tensor:
#      x y z
#    x 1.882000 0.008200 0.007690 
#    y 0.008200 1.889320 -0.009410 
#    z 0.007690 -0.009410 1.866110 
# 
# From -- ./inp_files/199795.got.cif
#   From: 2010.06.25/outbox.cif.g09.slc.cpg/sg2_100_cif.got.tgz:199795.got - 2010.06.27 13:26:56.
