data_PCOD8010475
_publ_section_title
;
Structure prediction by ZEFSAII (Michael W. Deem and Ramdas Pophale) SiO2 
 PCOD8010475
Probable space group: P -1
;
_chemical_formula_sum "Si O2"
_cell_formula_units_Z 16
_cell_length_a 16.154090
_cell_length_b 16.512925
_cell_length_c 7.010158
_cell_angle_alpha 66.411387
_cell_angle_beta 138.717789
_cell_angle_gamma 139.048371
_cell_volume 745.583610
_symmetry_space_group_name_H-M "P -1"
_symmetry_group_IT_number 2
_symmetry_cell_setting 'triclinic'
loop_
_space_group_symop_operation_xyz
x,y,z
-x,-y,-z
loop_
_atom_site_type_symbol
_atom_site_label
_atom_site_fract_x
_atom_site_fract_y
_atom_site_fract_z
Si Si1 0.908872 0.649872 0.656551
Si Si2 0.665507 0.714850 0.597864
Si Si3 0.386242 0.370942 0.798061
Si Si4 0.021778 0.217838 0.715297
Si Si5 0.442009 0.663564 0.604033
Si Si6 0.774041 0.150928 0.694655
Si Si7 0.456948 0.115090 0.239504
Si Si8 0.864762 0.965487 0.466131
O O1 0.824954 0.701562 0.523142
O O2 0.965632 0.692691 0.493327
O O3 0.760406 0.490779 0.568608
O O4 0.084948 0.725380 0.029396
O O5 0.539706 0.604461 0.312890
O O6 0.514948 0.686618 0.494762
O O7 0.821812 0.862896 0.635213
O O8 0.772939 0.693845 0.918632
O O9 0.500000 0.500000 0.000000
O O10 0.395774 0.285512 0.014224
O O11 0.871062 0.172077 0.649390
O O12 0.963778 0.096523 0.627717
O O13 0.426892 0.759321 0.532462
O O14 0.607241 0.132052 0.375289
O O15 0.691557 0.019680 0.769519
O O16 0.339085 0.107232 0.888475
O O17 0.000000 0.000000 0.500000
#
# Coordination Sequence:
#
# PCOD8010475 Si02
#       8
#     2   2   2   2   2   2   2   2
#     4  11  23  43  64  98 139 172 216 274 324 396
#     4  12  22  38  68 101 132 174 214 269 345 395
#     4  10  21  38  60  94 135 168 207 265 323 392
#     4  12  23  40  68  99 130 176 223 263 332 403
#     4  11  24  42  66  99 137 173 216 275 337 389
#     4  11  25  46  69  92 127 183 227 271 325 388
#     4  11  24  47  68  94 134 171 226 280 326 381
#     4  12  23  41  69 100 138 166 215 286 334 389
#
# _framework density 21.459697999999999
#
# number of rings (size 3 to 8) (size 9 to 14) (size 15 to 20)
#    0.000    0.750    5.000    3.375    0.000    5.000 
#    2.250    0.625    0.000    0.000    0.000    0.000 
#    0.000    0.000    0.000    0.000    0.000    0.000 
#
# Total GULP energy -198345.181934 kJ/mol
# GULP energy per Si atom -12396.573871 kJ/mol
# Density = 2.141086 g / cm^3
# Si number density = 21.459698 Si / 1000 Ang^3
#
#
#
# Elastic Constant Matrix: (Units=GPa)
#
#
# Indices 1 2 3 4 5 6 
#
# 1 136.7373 43.3460 35.6241 3.8451 -22.5810 8.9419
# 2 43.3460 90.6729 24.1358 22.4577 -7.6971 7.8986
# 3 35.6241 24.1358 86.7649 6.8089 -13.5593 2.1956
# 4 3.8451 22.4577 6.8089 18.9597 -2.4595 -8.8663
# 5 -22.5810 -7.6971 -13.5593 -2.4595 37.9722 0.9903
# 6 8.9419 7.8986 2.1956 -8.8663 0.9903 34.6982
#
#
#
# Elastic Compliance Matrix: (Units=1/GPa)
#
#
# Indices 1 2 3 4 5 6 
#
# 1 0.010195 -0.005223 -0.002472 0.005599 0.004483 0.000021
# 2 -0.005223 0.022360 -0.001533 -0.030291 -0.000787 -0.011365
# 3 -0.002472 -0.001533 0.013636 -0.002475 0.002944 -0.000593
# 4 0.005599 -0.030291 -0.002475 0.103638 0.002183 0.032029
# 5 0.004483 -0.000787 0.002944 0.002183 0.030072 -0.001463
# 6 0.000021 -0.011365 -0.000593 0.032029 -0.001463 0.039665
#
#
# Mechanical properties :
#
#
# Convention : Reuss Voigt Hill
#
# Bulk Modulus (GPa) = 36.05884 57.82076 46.93980
# Shear Modulus (GPa) = 20.22099 32.39730 26.30915
#
# Velocity S-wave (km/s) = 3.07298 3.88968 3.50520
# Velocity P-wave (km/s) = 5.42499 6.86842 6.18893
#
# Compressibility (1/GPa) = 0.02773245
#
# Stress axis : x y z
#
# Youngs Moduli (GPa) = 98.09000 44.72357 73.33433
#
# Poissons Ratio (x) = 0.23361 0.18128
# Poissons Ratio (y) = 0.51237 0.11246
# Poissons Ratio (z) = 0.24248 0.06858
#
# Static dielectric constant tensor:
#      x y z
#    x 4.022650 -0.104670 -0.004720 
#    y -0.104670 3.979850 -0.180000 
#    z -0.004720 -0.180000 4.160880 
# 
# 
# High freq. dielectric constant tensor:
#      x y z
#    x 1.841980 -0.001580 -0.016040 
#    y -0.001580 1.848490 0.004300 
#    z -0.016040 0.004300 1.837280 
# 
# From -- ./inp_files/99646.got.cif
#   From: 2010.06.25/outbox.cif.g09.slc.cpg/sg2_50_cif.got.tgz:99646.got - 2010.06.27 13:26:56.
