data_PCOD8010944
_publ_section_title
;
Structure prediction by ZEFSAII (Michael W. Deem and Ramdas Pophale) SiO2 
 PCOD8010944
Probable space group: P -1
;
_chemical_formula_sum "Si O2"
_cell_formula_units_Z 16
_cell_length_a 17.055320
_cell_length_b 6.124921
_cell_length_c 13.794731
_cell_angle_alpha 98.999185
_cell_angle_beta 42.057688
_cell_angle_gamma 120.508427
_cell_volume 768.576786
_symmetry_space_group_name_H-M "P -1"
_symmetry_group_IT_number 2
_symmetry_cell_setting 'triclinic'
loop_
_space_group_symop_operation_xyz
x,y,z
-x,-y,-z
loop_
_atom_site_type_symbol
_atom_site_label
_atom_site_fract_x
_atom_site_fract_y
_atom_site_fract_z
Si Si1 0.399479 0.313474 0.373216
Si Si2 0.247810 0.444962 0.674400
Si Si3 0.722788 0.652743 0.150647
Si Si4 0.223075 0.746004 0.564286
Si Si5 0.082892 0.451553 0.154179
Si Si6 0.940019 0.246975 0.965437
Si Si7 0.060752 0.353568 0.380560
Si Si8 0.817189 0.714826 0.557278
O O1 0.328008 0.339651 0.536482
O O2 0.571706 0.528351 0.227054
O O3 0.340106 0.361081 0.332597
O O4 0.351842 0.002741 0.402006
O O5 0.307201 0.515023 0.734678
O O6 0.285869 0.721725 0.606594
O O7 0.072018 0.223350 0.821516
O O8 0.832389 0.654969 0.978328
O O9 0.804019 0.973988 0.122240
O O10 0.151482 0.461533 0.551471
O O11 0.092632 0.774833 0.704857
O O12 0.118434 0.714208 0.079335
O O13 0.133521 0.516841 0.224804
O O14 0.000000 0.500000 0.000000
O O15 0.179739 0.362092 0.339193
O O16 0.000000 0.500000 0.500000
O O17 0.934294 0.036583 0.451291
#
# Coordination Sequence:
#
# PCOD8010944 Si02
#       8
#     2   2   2   2   2   2   2   2
#     4  11  23  41  60  87 131 164 198 249 301 368
#     4  10  23  39  62  87 122 167 211 249 288 360
#     4  12  26  39  58  91 128 166 203 245 308 360
#     4  10  21  38  65  90 120 158 207 253 303 345
#     4  11  23  38  62  93 120 155 202 259 304 356
#     4  11  24  40  63  89 125 161 209 257 297 346
#     4  11  21  38  67  98 116 150 204 257 306 357
#     4  10  21  38  66  95 120 150 204 254 301 362
#
# _framework density 20.817699000000001
#
# number of rings (size 3 to 8) (size 9 to 14) (size 15 to 20)
#    0.000    1.250    3.750    1.500    7.000    2.500 
#    0.000    0.625    0.000    3.750    0.000    0.000 
#    0.000    0.000    0.000    0.000    0.000    0.000 
#
# Total GULP energy -198313.328590 kJ/mol
# GULP energy per Si atom -12394.583037 kJ/mol
# Density = 2.077032 g / cm^3
# Si number density = 20.817699 Si / 1000 Ang^3
#
#
#
# Elastic Constant Matrix: (Units=GPa)
#
#
# Indices 1 2 3 4 5 6 
#
# 1 192.0505 37.3522 46.9805 -5.5381 11.8464 -6.8224
# 2 37.3522 102.1645 50.0486 3.0736 -11.0295 0.7810
# 3 46.9805 50.0486 64.2265 -1.8084 -6.9105 0.5269
# 4 -5.5381 3.0736 -1.8084 25.3150 7.1354 2.9142
# 5 11.8464 -11.0295 -6.9105 7.1354 45.1449 -2.5341
# 6 -6.8224 0.7810 0.5269 2.9142 -2.5341 21.6960
#
#
#
# Elastic Compliance Matrix: (Units=1/GPa)
#
#
# Indices 1 2 3 4 5 6 
#
# 1 0.006772 -0.000469 -0.004855 0.001792 -0.002823 0.001694
# 2 -0.000469 0.016363 -0.012209 -0.003820 0.002879 0.000409
# 3 -0.004855 -0.012209 0.028955 0.002048 0.002299 -0.001797
# 4 0.001792 -0.003820 0.002048 0.043560 -0.008322 -0.006172
# 5 -0.002823 0.002879 0.002299 -0.008322 0.025433 0.003041
# 6 0.001694 0.000409 -0.001797 -0.006172 0.003041 0.047837
#
#
# Mechanical properties :
#
#
# Convention : Reuss Voigt Hill
#
# Bulk Modulus (GPa) = 58.74238 69.68935 64.21587
# Shear Modulus (GPa) = 23.84788 33.36852 28.60820
#
# Velocity S-wave (km/s) = 3.38828 4.00796 3.71108
# Velocity P-wave (km/s) = 6.60197 7.41397 7.01972
#
# Compressibility (1/GPa) = 0.01702348
#
# Stress axis : x y z
#
# Youngs Moduli (GPa) = 147.66963 61.11241 34.53608
#
# Poissons Ratio (x) = 0.02866 0.16768
# Poissons Ratio (y) = 0.06926 0.42166
# Poissons Ratio (z) = 0.71697 0.74614
#
# Static dielectric constant tensor:
#      x y z
#    x 4.156840 -0.224170 0.141950 
#    y -0.224170 3.681320 0.043260 
#    z 0.141950 0.043260 3.505540 
# 
# 
# High freq. dielectric constant tensor:
#      x y z
#    x 1.830840 -0.023040 0.011670 
#    y -0.023040 1.806050 0.008820 
#    z 0.011670 0.008820 1.779790 
# 
# From -- ./inp_files/369071.got.cif
#   From: 2010.06.25/outbox.cif.g09.slc.cpg/sg2_185_cif.got.tgz:369071.got - 2010.06.27 13:26:56.
