data_PCOD8010973
_publ_section_title
;
Structure prediction by ZEFSAII (Michael W. Deem and Ramdas Pophale) SiO2 
 PCOD8010973
Probable space group: P -1
;
_chemical_formula_sum "Si O2"
_cell_formula_units_Z 16
_cell_length_a 16.763437
_cell_length_b 7.730382
_cell_length_c 6.603356
_cell_angle_alpha 115.479361
_cell_angle_beta 111.708019
_cell_angle_gamma 71.559037
_cell_volume 704.982606
_symmetry_space_group_name_H-M "P -1"
_symmetry_group_IT_number 2
_symmetry_cell_setting 'triclinic'
loop_
_space_group_symop_operation_xyz
x,y,z
-x,-y,-z
loop_
_atom_site_type_symbol
_atom_site_label
_atom_site_fract_x
_atom_site_fract_y
_atom_site_fract_z
Si Si1 0.899382 0.079441 0.985477
Si Si2 0.268012 0.904198 0.347722
Si Si3 0.118421 0.283240 0.027060
Si Si4 0.955411 0.452729 0.234352
Si Si5 0.391792 0.848517 0.794219
Si Si6 0.288162 0.315548 0.427079
Si Si7 0.340266 0.581334 0.937563
Si Si8 0.586402 0.740244 0.840258
O O1 0.838686 0.050527 0.716978
O O2 0.890213 0.304905 0.150334
O O3 0.865144 0.953309 0.070657
O O4 0.000000 0.000000 0.000000
O O5 0.312882 0.819895 0.555947
O O6 0.305878 0.095744 0.419696
O O7 0.281491 0.741866 0.102236
O O8 0.105826 0.354987 0.819964
O O9 0.198177 0.365922 0.242744
O O10 0.029558 0.360866 0.101647
O O11 0.000000 0.500000 0.500000
O O12 0.398069 0.698575 0.911099
O O13 0.372777 0.072015 0.964376
O O14 0.482938 0.803720 0.734457
O O15 0.282149 0.467669 0.682645
O O16 0.368010 0.342438 0.367906
O O17 0.400743 0.422675 0.054781
#
# Coordination Sequence:
#
# PCOD8010973 Si02
#       8
#     2   2   2   2   2   2   2   2
#     4   9  21  43  63  91 131 171 209 271 326 383
#     4  11  24  45  70 101 137 172 232 274 335 403
#     4   9  22  41  59  92 131 159 216 266 323 389
#     4  10  21  38  65  93 122 168 213 264 322 393
#     4  11  25  46  69 100 133 180 225 282 332 403
#     4  11  24  44  67  99 138 176 217 284 331 402
#     4  12  25  42  71 100 129 183 223 272 344 392
#     4  11  25  45  69  98 139 177 226 275 341 398
#
# _framework density 22.695596999999999
#
# number of rings (size 3 to 8) (size 9 to 14) (size 15 to 20)
#    0.000    1.500    2.500    1.125    5.250    4.000 
#    2.250    0.000    0.000    0.000    0.000    0.000 
#    0.000    0.000    0.000    0.000    0.000    0.000 
#
# Total GULP energy -198339.898469 kJ/mol
# GULP energy per Si atom -12396.243654 kJ/mol
# Density = 2.264394 g / cm^3
# Si number density = 22.695597 Si / 1000 Ang^3
#
#
#
# Elastic Constant Matrix: (Units=GPa)
#
#
# Indices 1 2 3 4 5 6 
#
# 1 59.0435 20.0758 19.8677 1.0618 14.3589 1.9720
# 2 20.0758 144.6681 53.3836 -8.8873 4.4104 25.0789
# 3 19.8677 53.3836 116.2375 -4.5849 9.6210 4.6656
# 4 1.0618 -8.8873 -4.5849 37.9018 -4.3641 3.7679
# 5 14.3589 4.4104 9.6210 -4.3641 31.4495 -3.2706
# 6 1.9720 25.0789 4.6656 3.7679 -3.2706 30.6050
#
#
#
# Elastic Compliance Matrix: (Units=1/GPa)
#
#
# Indices 1 2 3 4 5 6 
#
# 1 0.020444 -0.001982 -0.001945 -0.002279 -0.008783 -0.000055
# 2 -0.001982 0.010174 -0.003926 0.002782 0.000241 -0.007927
# 3 -0.001945 -0.003926 0.010823 0.000098 -0.001703 0.001498
# 4 -0.002279 0.002782 0.000098 0.028085 0.003979 -0.005180
# 5 -0.008783 0.000241 -0.001703 0.003979 0.037275 0.004122
# 6 -0.000055 -0.007927 0.001498 -0.005180 0.004122 0.040024
#
#
# Mechanical properties :
#
#
# Convention : Reuss Voigt Hill
#
# Bulk Modulus (GPa) = 38.85655 56.28925 47.57290
# Shear Modulus (GPa) = 29.22124 35.09939 32.16031
#
# Velocity S-wave (km/s) = 3.59211 3.93686 3.76843
# Velocity P-wave (km/s) = 5.86193 6.74691 6.31993
#
# Compressibility (1/GPa) = 0.02573569
#
# Stress axis : x y z
#
# Youngs Moduli (GPa) = 48.91463 98.29100 92.39486
#
# Poissons Ratio (x) = 0.19483 0.17968
# Poissons Ratio (y) = 0.09696 0.36271
# Poissons Ratio (z) = 0.09512 0.38586
#
# Static dielectric constant tensor:
#      x y z
#    x 4.076770 0.406760 0.187710 
#    y 0.406760 4.955960 -0.057920 
#    z 0.187710 -0.057920 3.840740 
# 
# 
# High freq. dielectric constant tensor:
#      x y z
#    x 1.886120 0.007930 0.021370 
#    y 0.007930 1.920330 -0.003210 
#    z 0.021370 -0.003210 1.878980 
# 
# From -- ./inp_files/107702.got.cif
#   From: 2010.06.25/outbox.cif.g09.slc.cpg/sg2_54_cif.got.tgz:107702.got - 2010.06.27 13:26:56.
