data_PCOD8010417
_publ_section_title
;
Structure prediction by ZEFSAII (Michael W. Deem and Ramdas Pophale) SiO2 
 PCOD8010417
Probable space group: P -1
;
_chemical_formula_sum "Si O2"
_cell_formula_units_Z 16
_cell_length_a 17.636950
_cell_length_b 12.091265
_cell_length_c 21.320736
_cell_angle_alpha 21.180178
_cell_angle_beta 150.655760
_cell_angle_gamma 142.682629
_cell_volume 801.082322
_symmetry_space_group_name_H-M "P -1"
_symmetry_group_IT_number 2
_symmetry_cell_setting 'triclinic'
loop_
_space_group_symop_operation_xyz
x,y,z
-x,-y,-z
loop_
_atom_site_type_symbol
_atom_site_label
_atom_site_fract_x
_atom_site_fract_y
_atom_site_fract_z
Si Si1 0.381945 0.222084 0.256540
Si Si2 0.264635 0.670870 0.728747
Si Si3 0.090739 0.235046 0.120784
Si Si4 0.508109 0.373297 0.642766
Si Si5 0.239902 0.812617 0.270078
Si Si6 0.031286 0.223846 0.814482
Si Si7 0.805372 0.679920 0.712820
Si Si8 0.508369 0.347464 0.987370
O O1 0.232586 0.347523 0.123462
O O2 0.500000 0.000000 0.500000
O O3 0.333545 0.041701 0.256169
O O4 0.462111 0.516398 0.132595
O O5 0.095779 0.545397 0.673887
O O6 0.351216 0.582796 0.902670
O O7 0.252138 0.038219 0.522317
O O8 0.352234 0.523680 0.809125
O O9 0.139039 0.179009 0.256955
O O10 0.043573 0.915529 0.227315
O O11 0.945808 0.492655 0.876128
O O12 0.500000 0.500000 0.500000
O O13 0.355523 0.516096 0.493448
O O14 0.665431 0.471955 0.735700
O O15 0.514150 0.009288 0.844978
O O16 0.097342 0.697977 0.266430
O O17 0.172907 0.983768 0.068437
#
# Coordination Sequence:
#
# PCOD8010417 Si02
#       8
#     2   2   2   2   2   2   2   2
#     4  11  22  42  65  89 124 164 199 251 306 363
#     4  11  21  38  60  91 123 157 205 253 300 357
#     4  10  23  41  61  88 123 164 202 242 312 358
#     4  12  22  38  62  90 122 161 203 253 303 355
#     4  10  21  38  60  87 121 160 203 246 305 360
#     4  10  21  38  60  88 121 158 202 253 296 364
#     4  11  23  40  62  90 125 163 199 255 300 363
#     4  11  23  36  61  95 121 156 210 249 300 365
#
# _framework density 19.972978999999999
#
# number of rings (size 3 to 8) (size 9 to 14) (size 15 to 20)
#    0.000    1.250    2.500    4.500    0.000    1.500 
#    0.000    8.750    0.000    0.000    0.000    0.000 
#    0.000    0.000    0.000    0.000    0.000    0.000 
#
# Total GULP energy -198469.178340 kJ/mol
# GULP energy per Si atom -12404.323646 kJ/mol
# Density = 1.992752 g / cm^3
# Si number density = 19.972979 Si / 1000 Ang^3
#
#
#
# Elastic Constant Matrix: (Units=GPa)
#
#
# Indices 1 2 3 4 5 6 
#
# 1 103.0498 42.6528 52.8758 -7.6357 6.7577 16.5289
# 2 42.6528 99.0542 32.2328 -4.9068 -0.7365 21.7672
# 3 52.8758 32.2328 105.1001 -7.3451 10.2467 18.9387
# 4 -7.6357 -4.9068 -7.3451 34.1039 3.8115 -6.4896
# 5 6.7577 -0.7365 10.2467 3.8115 38.1268 -2.4401
# 6 16.5289 21.7672 18.9387 -6.4896 -2.4401 33.8974
#
#
#
# Elastic Compliance Matrix: (Units=1/GPa)
#
#
# Indices 1 2 3 4 5 6 
#
# 1 0.014733 -0.004180 -0.005690 0.001407 -0.001377 -0.001150
# 2 -0.004180 0.013572 -0.001088 -0.000484 0.000954 -0.006093
# 3 -0.005690 -0.001088 0.013865 0.001088 -0.003122 -0.004289
# 4 0.001407 -0.000484 0.001088 0.031076 -0.003355 0.004725
# 5 -0.001377 0.000954 -0.003122 -0.003355 0.027868 0.003167
# 6 -0.001150 -0.006093 -0.004289 0.004725 0.003167 0.037503
#
#
# Mechanical properties :
#
#
# Convention : Reuss Voigt Hill
#
# Bulk Modulus (GPa) = 49.37791 62.52522 55.95156
# Shear Modulus (GPa) = 29.88932 33.18846 31.53889
#
# Velocity S-wave (km/s) = 3.87264 4.08078 3.97807
# Velocity P-wave (km/s) = 6.69123 7.31960 7.01245
#
# Compressibility (1/GPa) = 0.02025197
#
# Stress axis : x y z
#
# Youngs Moduli (GPa) = 67.87463 73.68361 72.12639
#
# Poissons Ratio (x) = 0.30801 0.41042
# Poissons Ratio (y) = 0.28373 0.07848
# Poissons Ratio (z) = 0.38623 0.08018
#
# Static dielectric constant tensor:
#      x y z
#    x 3.729790 0.070430 0.162140 
#    y 0.070430 3.718980 0.152940 
#    z 0.162140 0.152940 3.533390 
# 
# 
# High freq. dielectric constant tensor:
#      x y z
#    x 1.784000 0.004340 0.010530 
#    y 0.004340 1.785990 0.007980 
#    z 0.010530 0.007980 1.769490 
# 
# From -- ./inp_files/348854.got.cif
#   From: 2010.06.25/outbox.cif.g09.slc.cpg/sg2_175_cif.got.tgz:348854.got - 2010.06.27 13:26:56.
