data_PCOD8010549
_publ_section_title
;
Structure prediction by ZEFSAII (Michael W. Deem and Ramdas Pophale) SiO2 
 PCOD8010549
Probable space group: P -1
;
_chemical_formula_sum "Si O2"
_cell_formula_units_Z 14
_cell_length_a 11.889272
_cell_length_b 15.203264
_cell_length_c 8.464173
_cell_angle_alpha 51.307000
_cell_angle_beta 118.058757
_cell_angle_gamma 148.218529
_cell_volume 621.956324
_symmetry_space_group_name_H-M "P -1"
_symmetry_group_IT_number 2
_symmetry_cell_setting 'triclinic'
loop_
_space_group_symop_operation_xyz
x,y,z
-x,-y,-z
loop_
_atom_site_type_symbol
_atom_site_label
_atom_site_fract_x
_atom_site_fract_y
_atom_site_fract_z
Si Si1 0.004307 0.234563 0.220003
Si Si2 0.391317 0.544831 0.899219
Si Si3 0.554044 0.873975 0.780406
Si Si4 0.655660 0.880921 0.173827
Si Si5 0.750634 0.706409 0.420529
Si Si6 0.247864 0.506995 0.511194
Si Si7 0.841719 0.256474 0.367754
O O1 0.953742 0.305403 0.219198
O O2 0.123356 0.222286 0.412077
O O3 0.779672 0.033407 0.223332
O O4 0.162843 0.378080 0.021524
O O5 0.555304 0.742284 0.882551
O O6 0.347885 0.579254 0.668743
O O7 0.500000 0.500000 0.000000
O O8 0.308731 0.742961 0.751924
O O9 0.705764 0.050939 0.564747
O O10 0.631986 0.943508 0.934812
O O11 0.786623 0.862571 0.225956
O O12 0.422128 0.678381 0.310757
O O13 0.500000 0.500000 0.500000
O O14 0.834211 0.679855 0.372183
O O15 0.027848 0.421662 0.434176
#
# Coordination Sequence:
#
# PCOD8010549 Si02
#       7
#     2   2   2   2   2   2   2
#     4  11  23  39  63  92 128 164 206 253 310 376
#     4  12  24  40  64  97 127 163 205 256 316 374
#     4  11  24  43  66  89 126 164 212 262 309 371
#     4  11  21  37  62  93 124 166 206 257 313 367
#     4   9  18  36  58  87 124 161 201 250 305 364
#     4  10  21  38  61  90 128 163 209 258 308 371
#     4  10  24  45  64  90 121 168 215 259 310 364
#
# _framework density 22.509618
#
# number of rings (size 3 to 8) (size 9 to 14) (size 15 to 20)
#    0.000    1.429    0.000    7.286    0.000    5.714 
#    0.000    5.000    0.000    0.000    0.000    0.000 
#    0.000    0.000    0.000    0.000    0.000    0.000 
#
# Total GULP energy -173574.818222 kJ/mol
# GULP energy per Si atom -12398.201302 kJ/mol
# Density = 2.245839 g / cm^3
# Si number density = 22.509618 Si / 1000 Ang^3
#
#
#
# Elastic Constant Matrix: (Units=GPa)
#
#
# Indices 1 2 3 4 5 6 
#
# 1 80.2300 24.4203 29.4435 2.6652 -6.9833 9.6264
# 2 24.4203 117.0648 16.1458 29.0713 6.4978 0.3445
# 3 29.4435 16.1458 75.0483 16.4789 -6.3007 -0.0117
# 4 2.6652 29.0713 16.4789 43.6449 0.2967 2.4217
# 5 -6.9833 6.4978 -6.3007 0.2967 30.0838 0.5733
# 6 9.6264 0.3445 -0.0117 2.4217 0.5733 29.3869
#
#
#
# Elastic Compliance Matrix: (Units=1/GPa)
#
#
# Indices 1 2 3 4 5 6 
#
# 1 0.016873 -0.003871 -0.006436 0.004282 0.003475 -0.005905
# 2 -0.003871 0.011338 0.000473 -0.007574 -0.003208 0.001822
# 3 -0.006436 0.000473 0.017380 -0.006644 0.002059 0.002617
# 4 0.004282 -0.007574 -0.006644 0.030410 0.001012 -0.003842
# 5 0.003475 -0.003208 0.002059 0.001012 0.035197 -0.001870
# 6 -0.005905 0.001822 0.002617 -0.003842 -0.001870 0.036296
#
#
# Mechanical properties :
#
#
# Convention : Reuss Voigt Hill
#
# Bulk Modulus (GPa) = 38.57538 45.81804 42.19671
# Shear Modulus (GPa) = 28.44072 34.11203 31.27637
#
# Velocity S-wave (km/s) = 3.55842 3.89709 3.73160
# Velocity P-wave (km/s) = 5.83589 6.37564 6.11173
#
# Compressibility (1/GPa) = 0.02592327
#
# Stress axis : x y z
#
# Youngs Moduli (GPa) = 59.26524 88.19844 57.53667
#
# Poissons Ratio (x) = 0.34142 0.37033
# Poissons Ratio (y) = 0.22942 -0.02724
# Poissons Ratio (z) = 0.38146 -0.04176
#
# Static dielectric constant tensor:
#      x y z
#    x 4.279960 0.104150 0.200090 
#    y 0.104150 4.118450 0.211980 
#    z 0.200090 0.211980 4.018000 
# 
# 
# High freq. dielectric constant tensor:
#      x y z
#    x 1.878500 0.008920 -0.001640 
#    y 0.008920 1.897790 0.013860 
#    z -0.001640 0.013860 1.879820 
# 
# From -- ./inp_files/202414.got.cif
#   From: 2010.06.25/outbox.cif.g09.slc.cpg/sg2_102_cif.got.tgz:202414.got - 2010.06.27 13:26:56.
