data_PCOD8010813
_publ_section_title
;
Structure prediction by ZEFSAII (Michael W. Deem and Ramdas Pophale) SiO2 
 PCOD8010813
Probable space group: P -1
;
_chemical_formula_sum "Si O2"
_cell_formula_units_Z 16
_cell_length_a 11.123826
_cell_length_b 11.742903
_cell_length_c 10.238453
_cell_angle_alpha 115.374998
_cell_angle_beta 40.057594
_cell_angle_gamma 123.643492
_cell_volume 716.507424
_symmetry_space_group_name_H-M "P -1"
_symmetry_group_IT_number 2
_symmetry_cell_setting 'triclinic'
loop_
_space_group_symop_operation_xyz
x,y,z
-x,-y,-z
loop_
_atom_site_type_symbol
_atom_site_label
_atom_site_fract_x
_atom_site_fract_y
_atom_site_fract_z
Si Si1 0.727126 0.502523 0.454893
Si Si2 0.062040 0.619754 0.610470
Si Si3 0.887449 0.958635 0.208060
Si Si4 0.769498 0.970705 0.651309
Si Si5 0.302297 0.096163 0.045980
Si Si6 0.329452 0.385199 0.162403
Si Si7 0.314007 0.283878 0.582829
Si Si8 0.352800 0.896473 0.401982
O O1 0.895924 0.437555 0.312112
O O2 0.686741 0.557825 0.653908
O O3 0.532311 0.383157 0.499409
O O4 0.798634 0.628261 0.353448
O O5 0.267133 0.743562 0.454645
O O6 0.000000 0.500000 0.500000
O O7 0.873424 0.666610 0.786696
O O8 0.694260 0.003662 0.405057
O O9 0.059030 0.039852 0.209956
O O10 0.814158 0.796886 0.223144
O O11 0.000000 0.000000 0.000000
O O12 0.653771 0.961140 0.880888
O O13 0.663832 0.828934 0.588795
O O14 0.754585 0.095935 0.642657
O O15 0.000000 0.000000 0.500000
O O16 0.395861 0.259265 0.061245
O O17 0.408488 0.056428 0.812048
O O18 0.500000 0.500000 0.000000
#
# Coordination Sequence:
#
# PCOD8010813 Si02
#       8
#     2   2   2   2   2   2   2   2
#     4  10  22  40  69  95 139 180 225 278 344 405
#     4  10  21  38  64 100 129 174 223 280 331 396
#     4  11  26  44  68  97 136 175 224 280 346 404
#     4  11  20  42  67  96 136 174 229 280 335 404
#     4  12  22  41  68 100 128 178 226 281 343 400
#     4  11  22  39  66 101 135 177 227 283 339 406
#     4  10  22  42  68  98 135 186 220 283 345 400
#     4  11  24  41  66 100 131 169 225 280 340 402
#
# _framework density 22.330544
#
# number of rings (size 3 to 8) (size 9 to 14) (size 15 to 20)
#    0.000    1.250    5.000    1.875    5.250    0.500 
#    2.250    0.000    0.000    2.250    0.000    0.000 
#    0.000    0.000    0.000    0.000    0.000    0.000 
#
# Total GULP energy -198231.300572 kJ/mol
# GULP energy per Si atom -12389.456286 kJ/mol
# Density = 2.227972 g / cm^3
# Si number density = 22.330544 Si / 1000 Ang^3
#
#
#
# Elastic Constant Matrix: (Units=GPa)
#
#
# Indices 1 2 3 4 5 6 
#
# 1 83.1344 34.1929 12.2519 3.2656 8.1380 -16.0029
# 2 34.1929 114.1718 20.1426 -15.3341 9.7211 -21.7592
# 3 12.2519 20.1426 98.5006 -2.6946 12.1717 -9.8572
# 4 3.2656 -15.3341 -2.6946 31.5090 -5.9116 6.6658
# 5 8.1380 9.7211 12.1717 -5.9116 38.8657 -5.8122
# 6 -16.0029 -21.7592 -9.8572 6.6658 -5.8122 41.6422
#
#
#
# Elastic Compliance Matrix: (Units=1/GPa)
#
#
# Indices 1 2 3 4 5 6 
#
# 1 0.014946 -0.004102 -0.000497 -0.004818 -0.002088 0.003962
# 2 -0.004102 0.011574 -0.001345 0.005187 -0.000336 0.003276
# 3 -0.000497 -0.001345 0.010968 -0.000495 -0.002863 0.001382
# 4 -0.004818 0.005187 -0.000495 0.036552 0.004761 -0.004445
# 5 -0.002088 -0.000336 -0.002863 0.004761 0.028096 0.001504
# 6 0.003962 0.003276 0.001382 -0.004445 0.001504 0.028497
#
#
# Mechanical properties :
#
#
# Convention : Reuss Voigt Hill
#
# Bulk Modulus (GPa) = 39.06695 47.66461 43.36578
# Shear Modulus (GPa) = 33.10046 37.68469 35.39258
#
# Velocity S-wave (km/s) = 3.85424 4.11248 3.98545
# Velocity P-wave (km/s) = 6.11062 6.62883 6.37499
#
# Compressibility (1/GPa) = 0.02559709
#
# Stress axis : x y z
#
# Youngs Moduli (GPa) = 66.90917 86.39880 91.17690
#
# Poissons Ratio (x) = 0.35445 0.04535
# Poissons Ratio (y) = 0.27449 0.12267
# Poissons Ratio (z) = 0.03328 0.11624
#
# Static dielectric constant tensor:
#      x y z
#    x 5.998180 -0.740180 -0.760920 
#    y -0.740180 4.304450 0.122500 
#    z -0.760920 0.122500 4.350760 
# 
# 
# High freq. dielectric constant tensor:
#      x y z
#    x 1.893580 -0.016830 0.005160 
#    y -0.016830 1.885820 -0.012010 
#    z 0.005160 -0.012010 1.854940 
# 
# From -- ./inp_files/426301.got.cif
#   From: 2010.06.25/outbox.cif.g09.slc.cpg/sg2_214_cif.got.tgz:426301.got - 2010.06.27 13:26:56.
