data_PCOD8010685
_publ_section_title
;
Structure prediction by ZEFSAII (Michael W. Deem and Ramdas Pophale) SiO2 
 PCOD8010685
Probable space group: P -1
;
_chemical_formula_sum "Si O2"
_cell_formula_units_Z 16
_cell_length_a 15.530652
_cell_length_b 11.123330
_cell_length_c 9.689801
_cell_angle_alpha 106.298391
_cell_angle_beta 144.948533
_cell_angle_gamma 58.011005
_cell_volume 774.091510
_symmetry_space_group_name_H-M "P -1"
_symmetry_group_IT_number 2
_symmetry_cell_setting 'triclinic'
loop_
_space_group_symop_operation_xyz
x,y,z
-x,-y,-z
loop_
_atom_site_type_symbol
_atom_site_label
_atom_site_fract_x
_atom_site_fract_y
_atom_site_fract_z
Si Si1 0.528318 0.706638 0.093687
Si Si2 0.509696 0.193275 0.233298
Si Si3 0.274567 0.149949 0.546458
Si Si4 0.347409 0.591661 0.967015
Si Si5 0.009348 0.327332 0.040222
Si Si6 0.618291 0.404019 0.498817
Si Si7 0.987338 0.654393 0.512258
Si Si8 0.873873 0.641583 0.079933
O O1 0.622582 0.767577 0.334264
O O2 0.646744 0.526425 0.173414
O O3 0.492778 0.792828 0.930822
O O4 0.353008 0.727796 0.947489
O O5 0.637275 0.245358 0.472885
O O6 0.319757 0.301280 0.092451
O O7 0.585224 0.025523 0.321271
O O8 0.189368 0.210056 0.604938
O O9 0.123520 0.186015 0.245602
O O10 0.151854 0.657732 0.797711
O O11 0.513817 0.501760 0.259316
O O12 0.817669 0.364872 0.754290
O O13 0.984026 0.464200 0.141428
O O14 0.132006 0.286184 0.051434
O O15 0.500000 0.500000 0.500000
O O16 0.000000 0.500000 0.500000
O O17 0.973478 0.682586 0.337991
#
# Coordination Sequence:
#
# PCOD8010685 Si02
#       8
#     2   2   2   2   2   2   2   2
#     4  10  21  38  62  93 125 163 210 267 311 371
#     4  11  24  43  64  93 130 173 208 258 331 383
#     4  12  24  41  67  93 131 172 211 257 325 390
#     4  10  22  36  64  98 122 160 215 270 312 356
#     4  11  25  39  64  97 126 165 217 268 309 375
#     4  11  22  41  65  90 130 167 211 263 317 382
#     4  12  20  39  67  97 126 163 217 262 312 378
#     4  11  23  40  64  95 128 161 217 269 312 376
#
# _framework density 20.669391000000001
#
# number of rings (size 3 to 8) (size 9 to 14) (size 15 to 20)
#    0.000    1.000    5.000    1.875    8.750    1.000 
#    0.000    1.875    0.000    0.000    0.000    0.000 
#    0.000    0.000    0.000    0.000    0.000    0.000 
#
# Total GULP energy -198281.234838 kJ/mol
# GULP energy per Si atom -12392.577177 kJ/mol
# Density = 2.062235 g / cm^3
# Si number density = 20.669391 Si / 1000 Ang^3
#
#
#
# Elastic Constant Matrix: (Units=GPa)
#
#
# Indices 1 2 3 4 5 6 
#
# 1 113.6917 34.6157 46.0793 0.2794 0.4170 13.2457
# 2 34.6157 76.2888 32.6158 -1.3928 -3.1106 9.7061
# 3 46.0793 32.6158 112.1363 8.5535 2.3126 14.5818
# 4 0.2794 -1.3928 8.5535 28.0594 5.6975 2.1058
# 5 0.4170 -3.1106 2.3126 5.6975 32.8465 10.3272
# 6 13.2457 9.7061 14.5818 2.1058 10.3272 26.1273
#
#
#
# Elastic Compliance Matrix: (Units=1/GPa)
#
#
# Indices 1 2 3 4 5 6 
#
# 1 0.011563 -0.003345 -0.003471 0.000886 0.000563 -0.002976
# 2 -0.003345 0.016605 -0.003114 0.001533 0.002817 -0.003972
# 3 -0.003471 -0.003114 0.012003 -0.003643 0.000723 -0.003775
# 4 0.000886 0.001533 -0.003643 0.038073 -0.006358 0.000459
# 5 0.000563 0.002817 0.000723 -0.006358 0.036702 -0.015730
# 6 -0.002976 -0.003972 -0.003775 0.000459 -0.015730 0.049546
#
#
# Mechanical properties :
#
#
# Convention : Reuss Voigt Hill
#
# Bulk Modulus (GPa) = 49.22996 58.74871 53.98933
# Shear Modulus (GPa) = 26.16111 29.99371 28.07741
#
# Velocity S-wave (km/s) = 3.56152 3.81349 3.68965
# Velocity P-wave (km/s) = 6.38608 6.91918 6.65797
#
# Compressibility (1/GPa) = 0.02031283
#
# Stress axis : x y z
#
# Youngs Moduli (GPa) = 86.47910 60.22146 83.30942
#
# Poissons Ratio (x) = 0.20145 0.28916
# Poissons Ratio (y) = 0.28929 0.25940
# Poissons Ratio (z) = 0.30016 0.18751
#
# Static dielectric constant tensor:
#      x y z
#    x 3.883340 0.064620 0.513670 
#    y 0.064620 3.531090 0.407830 
#    z 0.513670 0.407830 3.529690 
# 
# 
# High freq. dielectric constant tensor:
#      x y z
#    x 1.817480 0.001010 0.002620 
#    y 0.001010 1.772870 0.017370 
#    z 0.002620 0.017370 1.813390 
# 
# From -- ./inp_files/307828.got.cif
#   From: 2010.06.25/outbox.cif.g09.slc.cpg/sg2_154_cif.got.tgz:307828.got - 2010.06.27 13:26:56.
