data_PCOD8010259
_publ_section_title
;
Structure prediction by ZEFSAII (Michael W. Deem and Ramdas Pophale) SiO2 
 PCOD8010259
Probable space group: P -1
;
_chemical_formula_sum "Si O2"
_cell_formula_units_Z 16
_cell_length_a 11.978256
_cell_length_b 12.053055
_cell_length_c 5.131111
_cell_angle_alpha 96.666210
_cell_angle_beta 85.563910
_cell_angle_gamma 83.038635
_cell_volume 727.223012
_symmetry_space_group_name_H-M "P -1"
_symmetry_group_IT_number 2
_symmetry_cell_setting 'triclinic'
loop_
_space_group_symop_operation_xyz
x,y,z
-x,-y,-z
loop_
_atom_site_type_symbol
_atom_site_label
_atom_site_fract_x
_atom_site_fract_y
_atom_site_fract_z
Si Si1 0.628921 0.928196 0.683099
Si Si2 0.062032 0.617958 0.295388
Si Si3 0.522539 0.849631 0.189261
Si Si4 0.146638 0.493913 0.742322
Si Si5 0.013852 0.858189 0.179528
Si Si6 0.631133 0.449246 0.425770
Si Si7 0.573274 0.377206 0.917089
Si Si8 0.883019 0.927543 0.733249
O O1 0.618603 0.866624 0.389848
O O2 0.754510 0.908116 0.761460
O O3 0.587720 0.061971 0.694946
O O4 0.555929 0.872253 0.894327
O O5 0.106494 0.595811 0.575246
O O6 0.926326 0.608188 0.322963
O O7 0.080397 0.740881 0.230324
O O8 0.127268 0.529605 0.056093
O O9 0.499789 0.720527 0.172541
O O10 0.281699 0.461964 0.646851
O O11 0.923713 0.905059 0.426057
O O12 0.951518 0.844509 0.910324
O O13 0.105542 0.944280 0.151123
O O14 0.500000 0.500000 0.500000
O O15 0.666236 0.387276 0.675500
O O16 0.639418 0.353456 0.171330
O O17 0.500000 0.500000 0.000000
#
# Coordination Sequence:
#
# PCOD8010259 Si02
#       8
#     2   2   2   2   2   2   2   2
#     4  10  21  38  60  88 117 162 202 248 304 361
#     4  10  21  39  61  88 117 160 201 250 304 359
#     4  10  21  39  60  85 124 156 207 251 292 370
#     4  10  21  38  61  86 123 155 205 249 294 370
#     4  10  21  39  59  87 121 147 197 254 303 364
#     4  10  21  38  57  86 124 160 198 250 302 365
#     4  10  21  39  58  83 124 161 198 252 302 361
#     4  10  21  38  58  87 120 150 196 250 305 363
#
# _framework density 22.001503
#
# number of rings (size 3 to 8) (size 9 to 14) (size 15 to 20)
#    0.000    2.000    0.000    3.000    0.000    2.000 
#   13.500    0.000    0.000    0.000    0.000    0.000 
#    0.000    0.000    0.000    0.000    0.000    0.000 
#
# Total GULP energy -198275.040653 kJ/mol
# GULP energy per Si atom -12392.190041 kJ/mol
# Density = 2.195143 g / cm^3
# Si number density = 22.001503 Si / 1000 Ang^3
#
#
#
# Elastic Constant Matrix: (Units=GPa)
#
#
# Indices 1 2 3 4 5 6 
#
# 1 70.6014 -10.3172 19.8798 6.8103 -8.4547 11.0700
# 2 -10.3172 76.2866 10.2807 -2.0666 1.5795 13.1963
# 3 19.8798 10.2807 136.1216 -11.3017 14.2703 9.5100
# 4 6.8103 -2.0666 -11.3017 26.2880 2.8638 3.0268
# 5 -8.4547 1.5795 14.2703 2.8638 36.5108 -4.4198
# 6 11.0700 13.1963 9.5100 3.0268 -4.4198 18.4416
#
#
#
# Elastic Compliance Matrix: (Units=1/GPa)
#
#
# Indices 1 2 3 4 5 6 
#
# 1 0.018424 0.004563 -0.003154 -0.005001 0.004383 -0.010827
# 2 0.004563 0.016440 -0.000591 0.001708 -0.001349 -0.014802
# 3 -0.003154 -0.000591 0.009224 0.005857 -0.005336 -0.004681
# 4 -0.005001 0.001708 0.005857 0.044089 -0.008244 -0.010452
# 5 0.004383 -0.001349 -0.005336 -0.008244 0.032431 0.010212
# 6 -0.010827 -0.014802 -0.004681 -0.010452 0.010212 0.077894
#
#
# Mechanical properties :
#
#
# Convention : Reuss Voigt Hill
#
# Bulk Modulus (GPa) = 21.86934 35.85514 28.86224
# Shear Modulus (GPa) = 23.57312 33.79249 28.68281
#
# Velocity S-wave (km/s) = 3.27683 3.92333 3.61456
# Velocity P-wave (km/s) = 4.92730 6.07087 5.52873
#
# Compressibility (1/GPa) = 0.04572612
#
# Stress axis : x y z
#
# Youngs Moduli (GPa) = 54.27762 60.82731 108.40986
#
# Poissons Ratio (x) = -0.27758 0.34188
# Poissons Ratio (y) = -0.24769 0.06404
# Poissons Ratio (z) = 0.17117 0.03593
#
# Static dielectric constant tensor:
#      x y z
#    x 3.603040 0.401940 -1.081940 
#    y 0.401940 3.484510 0.713080 
#    z -1.081940 0.713080 -0.752370 
# 
# 
# High freq. dielectric constant tensor:
#      x y z
#    x 1.856200 0.017970 0.009240 
#    y 0.017970 1.829690 -0.012410 
#    z 0.009240 -0.012410 1.898630 
# 
# From -- ./inp_files/70454.got.cif
#   From: 2010.06.25/outbox.cif.g09.slc.cpg/sg2_36_cif.got.tgz:70454.got - 2010.06.27 13:26:56.
