data_PCOD8010205
_publ_section_title
;
Structure prediction by ZEFSAII (Michael W. Deem and Ramdas Pophale) SiO2 
 PCOD8010205
Probable space group: P -1
;
_chemical_formula_sum "Si O2"
_cell_formula_units_Z 16
_cell_length_a 14.995451
_cell_length_b 25.306144
_cell_length_c 5.403672
_cell_angle_alpha 129.504115
_cell_angle_beta 121.463948
_cell_angle_gamma 27.000101
_cell_volume 712.386960
_symmetry_space_group_name_H-M "P -1"
_symmetry_group_IT_number 2
_symmetry_cell_setting 'triclinic'
loop_
_space_group_symop_operation_xyz
x,y,z
-x,-y,-z
loop_
_atom_site_type_symbol
_atom_site_label
_atom_site_fract_x
_atom_site_fract_y
_atom_site_fract_z
Si Si1 0.569851 0.495826 0.842348
Si Si2 0.200888 0.399220 0.749065
Si Si3 0.311015 0.745104 0.005658
Si Si4 0.559006 0.649074 0.667080
Si Si5 0.021990 0.233727 0.808285
Si Si6 0.043756 0.583962 0.680453
Si Si7 0.603004 0.167527 0.400660
Si Si8 0.918597 0.878530 0.919591
O O1 0.500000 0.500000 0.500000
O O2 0.803480 0.363894 0.771133
O O3 0.500000 0.500000 0.000000
O O4 0.460363 0.632175 0.097654
O O5 0.065765 0.532283 0.818433
O O6 0.375869 0.275142 0.450757
O O7 0.063335 0.409691 0.646937
O O8 0.306942 0.370948 0.052365
O O9 0.294313 0.837220 0.267348
O O10 0.432709 0.663467 0.682958
O O11 0.099641 0.826864 0.950605
O O12 0.735408 0.512082 0.365151
O O13 0.396579 0.786271 0.705624
O O14 0.135936 0.135595 0.447380
O O15 0.095812 0.270931 0.065365
O O16 0.035840 0.187467 0.955927
O O17 0.726153 0.030240 0.147296
#
# Coordination Sequence:
#
# PCOD8010205 Si02
#       8
#     2   2   2   2   2   2   2   2
#     4  12  23  40  62  92 134 167 211 259 328 384
#     4   9  20  43  69  97 123 161 215 287 328 378
#     4  11  24  40  65  95 128 176 216 268 323 378
#     4  10  21  37  69  96 125 161 217 279 326 380
#     4  12  26  43  63  97 136 177 215 263 326 398
#     4  10  22  40  68  98 128 161 217 271 343 388
#     4  10  24  43  65  92 124 173 230 270 311 385
#     4  12  28  44  63  93 139 182 218 263 314 385
#
# _framework density 22.459705
#
# number of rings (size 3 to 8) (size 9 to 14) (size 15 to 20)
#    0.000    1.250    2.500    3.000   12.250    0.500 
#    0.000    1.250    0.000    0.000    0.000    0.000 
#    0.000    0.000    0.000    0.000    0.000    0.000 
#
# Total GULP energy -198237.362641 kJ/mol
# GULP energy per Si atom -12389.835165 kJ/mol
# Density = 2.240859 g / cm^3
# Si number density = 22.459705 Si / 1000 Ang^3
#
#
#
# Elastic Constant Matrix: (Units=GPa)
#
#
# Indices 1 2 3 4 5 6 
#
# 1 95.0001 26.2994 17.5173 10.6809 -6.0601 11.3804
# 2 26.2994 74.8204 21.7199 14.7030 2.1885 12.6725
# 3 17.5173 21.7199 96.9595 11.7218 3.3316 18.0357
# 4 10.6809 14.7030 11.7218 39.3262 7.4495 0.8114
# 5 -6.0601 2.1885 3.3316 7.4495 32.6948 -2.5515
# 6 11.3804 12.6725 18.0357 0.8114 -2.5515 26.6011
#
#
#
# Elastic Compliance Matrix: (Units=1/GPa)
#
#
# Indices 1 2 3 4 5 6 
#
# 1 0.012369 -0.003248 -0.000785 -0.002404 0.002915 -0.002859
# 2 -0.003248 0.016838 -0.001563 -0.004655 -0.000940 -0.005520
# 3 -0.000785 -0.001563 0.012549 -0.002538 -0.001325 -0.007477
# 4 -0.002404 -0.004655 -0.002538 0.029715 -0.006377 0.003449
# 5 0.002915 -0.000940 -0.001325 -0.006377 0.033047 0.003463
# 6 -0.002859 -0.005520 -0.007477 0.003449 0.003463 0.046742
#
#
# Mechanical properties :
#
#
# Convention : Reuss Voigt Hill
#
# Bulk Modulus (GPa) = 32.71884 44.20593 38.46238
# Shear Modulus (GPa) = 28.96191 33.14065 31.05128
#
# Velocity S-wave (km/s) = 3.59486 3.84547 3.72228
# Velocity P-wave (km/s) = 5.64182 6.28028 5.96959
#
# Compressibility (1/GPa) = 0.03056344
#
# Stress axis : x y z
#
# Youngs Moduli (GPa) = 80.84708 59.38880 79.68952
#
# Poissons Ratio (x) = 0.19292 0.06253
# Poissons Ratio (y) = 0.26263 0.12457
# Poissons Ratio (z) = 0.06343 0.09283
#
# Static dielectric constant tensor:
#      x y z
#    x 4.137690 0.089060 0.011620 
#    y 0.089060 3.884780 0.008680 
#    z 0.011620 0.008680 4.475480 
# 
# 
# High freq. dielectric constant tensor:
#      x y z
#    x 1.880180 0.009200 0.002060 
#    y 0.009200 1.866880 -0.009900 
#    z 0.002060 -0.009900 1.905740 
# 
# From -- ./inp_files/77356.got.cif
#   From: 2010.06.25/outbox.cif.g09.slc.cpg/sg2_39_cif.got.tgz:77356.got - 2010.06.27 13:26:56.
