data_PCOD8010262
_publ_section_title
;
Structure prediction by ZEFSAII (Michael W. Deem and Ramdas Pophale) SiO2 
 PCOD8010262
Probable space group: P -1
;
_chemical_formula_sum "Si O2"
_cell_formula_units_Z 16
_cell_length_a 11.573978
_cell_length_b 10.733284
_cell_length_c 19.930864
_cell_angle_alpha 35.032002
_cell_angle_beta 141.949703
_cell_angle_gamma 117.519665
_cell_volume 750.099098
_symmetry_space_group_name_H-M "P -1"
_symmetry_group_IT_number 2
_symmetry_cell_setting 'triclinic'
loop_
_space_group_symop_operation_xyz
x,y,z
-x,-y,-z
loop_
_atom_site_type_symbol
_atom_site_label
_atom_site_fract_x
_atom_site_fract_y
_atom_site_fract_z
Si Si1 0.020204 0.874285 0.993568
Si Si2 0.554151 0.143712 0.817356
Si Si3 0.532292 0.692880 0.072954
Si Si4 0.207785 0.530167 0.576678
Si Si5 0.941830 0.254650 0.397320
Si Si6 0.445655 0.779962 0.367636
Si Si7 0.041463 0.973006 0.694070
Si Si8 0.871011 0.656791 0.678990
O O1 0.229578 0.851302 0.062288
O O2 0.040071 0.603689 0.126771
O O3 0.786701 0.062023 0.769284
O O4 0.000000 0.000000 0.000000
O O5 0.339321 0.415479 0.618094
O O6 0.553579 0.095451 0.758649
O O7 0.555831 0.921629 0.956940
O O8 0.614743 0.633400 0.212765
O O9 0.681261 0.443448 0.205464
O O10 0.280438 0.765471 0.921696
O O11 0.000000 0.500000 0.500000
O O12 0.116909 0.833290 0.405983
O O13 0.027534 0.397535 0.326293
O O14 0.000000 0.000000 0.500000
O O15 0.060525 0.162055 0.565048
O O16 0.500000 0.500000 0.500000
O O17 0.611662 0.790557 0.490897
O O18 0.924963 0.835392 0.668778
#
# Coordination Sequence:
#
# PCOD8010262 Si02
#       8
#     2   2   2   2   2   2   2   2
#     4  10  21  38  57  91 119 159 209 246 307 364
#     4  11  22  39  66  92 124 163 209 258 312 366
#     4  11  22  39  61  92 126 162 207 257 313 363
#     4  11  24  42  63  94 122 163 216 256 309 369
#     4   9  20  34  58  88 127 161 200 243 314 371
#     4  11  22  38  63  93 124 161 204 256 309 362
#     4  10  23  40  60  92 127 165 205 256 314 371
#     4  11  21  38  61  90 128 163 201 258 309 373
#
# _framework density 21.330514000000001
#
# number of rings (size 3 to 8) (size 9 to 14) (size 15 to 20)
#    0.000    1.500    3.750    2.625    1.750    5.000 
#    0.000    0.625    0.000    1.500    0.000    0.000 
#    0.000    0.000    0.000    0.000    0.000    0.000 
#
# Total GULP energy -198301.208088 kJ/mol
# GULP energy per Si atom -12393.825505 kJ/mol
# Density = 2.128196 g / cm^3
# Si number density = 21.330514 Si / 1000 Ang^3
#
#
#
# Elastic Constant Matrix: (Units=GPa)
#
#
# Indices 1 2 3 4 5 6 
#
# 1 58.0154 27.8898 26.4552 0.4611 34.0334 5.7516
# 2 27.8898 119.1574 51.9008 5.5014 20.3997 13.4800
# 3 26.4552 51.9008 132.7126 12.6192 37.4302 8.1017
# 4 0.4611 5.5014 12.6192 42.5939 4.6887 8.7774
# 5 34.0334 20.3997 37.4302 4.6887 41.6973 -2.0513
# 6 5.7516 13.4800 8.1017 8.7774 -2.0513 29.3111
#
#
#
# Elastic Compliance Matrix: (Units=1/GPa)
#
#
# Indices 1 2 3 4 5 6 
#
# 1 0.038058 -0.003737 0.003479 0.004886 -0.033424 -0.010513
# 2 -0.003737 0.011096 -0.003598 0.000307 0.000648 -0.003422
# 3 0.003479 -0.003598 0.011832 -0.001224 -0.011699 -0.002751
# 4 0.004886 0.000307 -0.001224 0.026332 -0.006448 -0.009098
# 5 -0.033424 0.000648 -0.011699 -0.006448 0.062952 0.015831
# 6 -0.010513 -0.003422 -0.002751 -0.009098 0.015831 0.042346
#
#
# Mechanical properties :
#
#
# Convention : Reuss Voigt Hill
#
# Bulk Modulus (GPa) = 18.77054 58.04189 38.40622
# Shear Modulus (GPa) = 22.92682 36.29644 29.61163
#
# Velocity S-wave (km/s) = 3.28203 4.12955 3.72994
# Velocity P-wave (km/s) = 4.81469 7.07159 6.04932
#
# Compressibility (1/GPa) = 0.05327497
#
# Stress axis : x y z
#
# Youngs Moduli (GPa) = 26.27579 90.12375 84.51456
#
# Poissons Ratio (x) = 0.33681 -0.29404
# Poissons Ratio (y) = 0.09820 0.30404
# Poissons Ratio (z) = -0.09142 0.32422
#
# Static dielectric constant tensor:
#      x y z
#    x 4.334250 0.018680 0.469030 
#    y 0.018680 3.897710 0.222190 
#    z 0.469030 0.222190 4.768130 
# 
# 
# High freq. dielectric constant tensor:
#      x y z
#    x 1.818460 0.005300 0.019900 
#    y 0.005300 1.822490 -0.002210 
#    z 0.019900 -0.002210 1.851230 
# 
# From -- ./inp_files/594907.got.cif
#   From: 2010.06.25/outbox.cif.g09.slc.cpg/sg2_298_cif.got.tgz:594907.got - 2010.06.27 13:26:56.
