data_PCOD8010926
_publ_section_title
;
Structure prediction by ZEFSAII (Michael W. Deem and Ramdas Pophale) SiO2 
 PCOD8010926
Probable space group: P -1
;
_chemical_formula_sum "Si O2"
_cell_formula_units_Z 16
_cell_length_a 12.004111
_cell_length_b 10.634502
_cell_length_c 11.821089
_cell_angle_alpha 99.374912
_cell_angle_beta 131.620792
_cell_angle_gamma 117.686383
_cell_volume 701.156636
_symmetry_space_group_name_H-M "P -1"
_symmetry_group_IT_number 2
_symmetry_cell_setting 'triclinic'
loop_
_space_group_symop_operation_xyz
x,y,z
-x,-y,-z
loop_
_atom_site_type_symbol
_atom_site_label
_atom_site_fract_x
_atom_site_fract_y
_atom_site_fract_z
Si Si1 0.485749 0.132551 0.369734
Si Si2 0.239635 0.196453 0.536920
Si Si3 0.048802 0.706184 0.959769
Si Si4 0.257288 0.595231 0.739255
Si Si5 0.752883 0.536926 0.521166
Si Si6 0.735651 0.876897 0.220545
Si Si7 0.225153 0.810915 0.614279
Si Si8 0.645820 0.302341 0.738062
O O1 0.535905 0.311848 0.393684
O O2 0.597706 0.101066 0.356859
O O3 0.592694 0.180910 0.573733
O O4 0.201812 0.926281 0.143004
O O5 0.330471 0.375177 0.549571
O O6 0.274886 0.234668 0.702040
O O7 0.392818 0.178080 0.597182
O O8 0.954731 0.991663 0.300581
O O9 0.212581 0.687881 0.073629
O O10 0.978134 0.684070 0.778690
O O11 0.813286 0.533249 0.851627
O O12 0.170291 0.474253 0.545624
O O13 0.290526 0.767734 0.762278
O O14 0.035205 0.406811 0.640568
O O15 0.499331 0.700198 0.964381
O O16 0.760492 0.032981 0.316566
#
# Coordination Sequence:
#
# PCOD8010926 Si02
#       8
#     2   2   2   2   2   2   2   2
#     4  10  22  39  68  99 127 167 219 263 319 381
#     4  11  25  45  63  93 142 168 211 267 322 392
#     4  10  22  42  72  95 127 169 220 270 319 370
#     4  10  22  39  66  96 128 169 216 266 324 375
#     4  10  23  42  64  97 135 164 214 269 315 387
#     4  11  24  43  65  93 130 178 212 258 332 389
#     4  10  21  38  65 101 127 158 218 280 306 380
#     4  10  23  45  67  99 131 167 213 272 319 379
#
# _framework density 22.819437000000001
#
# number of rings (size 3 to 8) (size 9 to 14) (size 15 to 20)
#    0.000    1.750    1.250    1.500    3.500   11.500 
#    2.250    1.250    0.000    0.000    0.000    0.000 
#    0.000    0.000    0.000    0.000    0.000    0.000 
#
# Total GULP energy -198288.554996 kJ/mol
# GULP energy per Si atom -12393.034687 kJ/mol
# Density = 2.276750 g / cm^3
# Si number density = 22.819437 Si / 1000 Ang^3
#
#
#
# Elastic Constant Matrix: (Units=GPa)
#
#
# Indices 1 2 3 4 5 6 
#
# 1 61.1988 24.0209 20.0083 0.3193 12.3773 12.2233
# 2 24.0209 87.2187 53.8926 -8.1476 1.4596 -6.5351
# 3 20.0083 53.8926 159.0508 3.1233 6.2539 7.1780
# 4 0.3193 -8.1476 3.1233 39.6541 0.5854 8.3315
# 5 12.3773 1.4596 6.2539 0.5854 30.8742 3.2049
# 6 12.2233 -6.5351 7.1780 8.3315 3.2049 22.3999
#
#
#
# Elastic Compliance Matrix: (Units=1/GPa)
#
#
# Indices 1 2 3 4 5 6 
#
# 1 0.023698 -0.007736 0.000584 0.001395 -0.007744 -0.014786
# 2 -0.007736 0.018062 -0.005740 0.002040 0.002308 0.010241
# 3 0.000584 -0.005740 0.008413 -0.000955 -0.001217 -0.004160
# 4 0.001395 0.002040 -0.000955 0.027849 0.000072 -0.010229
# 5 -0.007744 0.002308 -0.001217 0.000072 0.035613 0.000167
# 6 -0.014786 0.010241 -0.004160 -0.010229 0.000167 0.060813
#
#
# Mechanical properties :
#
#
# Convention : Reuss Voigt Hill
#
# Bulk Modulus (GPa) = 40.99994 55.92354 48.46174
# Shear Modulus (GPa) = 23.99684 32.55538 28.27611
#
# Velocity S-wave (km/s) = 3.24635 3.78120 3.52394
# Velocity P-wave (km/s) = 5.66196 6.60481 6.15148
#
# Compressibility (1/GPa) = 0.02439028
#
# Stress axis : x y z
#
# Youngs Moduli (GPa) = 42.19810 55.36509 118.86295
#
# Poissons Ratio (x) = 0.42829 -0.06947
# Poissons Ratio (y) = 0.32643 0.68227
# Poissons Ratio (z) = -0.02466 0.31779
#
# Static dielectric constant tensor:
#      x y z
#    x 3.697280 0.155950 0.122850 
#    y 0.155950 4.522530 0.014020 
#    z 0.122850 0.014020 4.098730 
# 
# 
# High freq. dielectric constant tensor:
#      x y z
#    x 1.864280 0.010640 0.011070 
#    y 0.010640 1.919850 0.003930 
#    z 0.011070 0.003930 1.899460 
# 
# From -- ./inp_files/428459.got.cif
#   From: 2010.06.25/outbox.cif.g09.slc.cpg/sg2_215_cif.got.tgz:428459.got - 2010.06.27 13:26:56.
