data_PCOD8010174
_publ_section_title
;
Structure prediction by ZEFSAII (Michael W. Deem and Ramdas Pophale) SiO2 
 PCOD8010174
Probable space group: P -1
;
_chemical_formula_sum "Si O2"
_cell_formula_units_Z 14
_cell_length_a 8.569634
_cell_length_b 18.916066
_cell_length_c 9.668706
_cell_angle_alpha 55.011373
_cell_angle_beta 31.429292
_cell_angle_gamma 54.274500
_cell_volume 652.940361
_symmetry_space_group_name_H-M "P -1"
_symmetry_group_IT_number 2
_symmetry_cell_setting 'triclinic'
loop_
_space_group_symop_operation_xyz
x,y,z
-x,-y,-z
loop_
_atom_site_type_symbol
_atom_site_label
_atom_site_fract_x
_atom_site_fract_y
_atom_site_fract_z
Si Si1 0.559912 0.043804 0.190035
Si Si2 0.153053 0.501796 0.733647
Si Si3 0.549692 0.256476 0.309105
Si Si4 0.850890 0.680269 0.197738
Si Si5 0.065744 0.304970 0.388090
Si Si6 0.156052 0.937288 0.752003
Si Si7 0.540290 0.768591 0.071798
O O1 0.695928 0.070081 0.200393
O O2 0.254023 0.010675 0.497263
O O3 0.490034 0.128038 0.048933
O O4 0.790951 0.965545 0.020424
O O5 0.500000 0.500000 0.500000
O O6 0.133534 0.420003 0.743886
O O7 0.013660 0.589442 0.651831
O O8 0.000000 0.500000 0.000000
O O9 0.303772 0.293691 0.568655
O O10 0.356470 0.260798 0.310073
O O11 0.741258 0.156152 0.297960
O O12 0.796117 0.316492 0.055747
O O13 0.645633 0.749077 0.170811
O O14 0.776050 0.261761 0.687907
O O15 0.175090 0.286292 0.169226
#
# Coordination Sequence:
#
# PCOD8010174 Si02
#       7
#     2   2   2   2   2   2   2
#     4  10  21  37  67  96 122 171 231 268 306 383
#     4  12  23  45  70  99 128 170 228 271 319 384
#     4  12  26  43  64 102 139 173 209 273 348 384
#     4  12  26  43  67  96 141 173 209 276 343 389
#     4  12  24  42  72  96 131 173 225 272 314 400
#     4  10  21  39  62  96 132 168 214 279 320 377
#     4  12  23  43  68 102 124 178 229 265 319 396
#
# _framework density 21.441466999999999
#
# number of rings (size 3 to 8) (size 9 to 14) (size 15 to 20)
#    0.000    0.571    4.286    4.286    4.000    1.143 
#    0.000    4.286    0.000    0.000    0.000    0.000 
#    0.000    0.000    0.000    0.000    0.000    0.000 
#
# Total GULP energy -173624.648713 kJ/mol
# GULP energy per Si atom -12401.760622 kJ/mol
# Density = 2.139267 g / cm^3
# Si number density = 21.441467 Si / 1000 Ang^3
#
#
#
# Elastic Constant Matrix: (Units=GPa)
#
#
# Indices 1 2 3 4 5 6 
#
# 1 55.0704 3.3746 4.8701 -13.3631 -9.0373 -12.3847
# 2 3.3746 119.5074 32.6335 7.2042 3.9210 -5.3149
# 3 4.8701 32.6335 152.1418 25.4254 -6.3153 8.4588
# 4 -13.3631 7.2042 25.4254 50.8213 2.7875 11.2967
# 5 -9.0373 3.9210 -6.3153 2.7875 24.3504 2.0628
# 6 -12.3847 -5.3149 8.4588 11.2967 2.0628 33.7697
#
#
#
# Elastic Compliance Matrix: (Units=1/GPa)
#
#
# Indices 1 2 3 4 5 6 
#
# 1 0.022026 -0.000446 -0.001486 0.004814 0.006771 0.006356
# 2 -0.000446 0.009154 -0.002038 -0.000755 -0.002266 0.002179
# 3 -0.001486 -0.002038 0.007887 -0.003798 0.002402 -0.001718
# 4 0.004814 -0.000755 -0.003798 0.024231 -0.001391 -0.005423
# 5 0.006771 -0.002266 0.002402 -0.001391 0.044791 -0.000746
# 6 0.006356 0.002179 -0.001718 -0.005423 -0.000746 0.034576
#
#
# Mechanical properties :
#
#
# Convention : Reuss Voigt Hill
#
# Bulk Modulus (GPa) = 32.12669 45.38621 38.75645
# Shear Modulus (GPa) = 31.05951 40.84439 35.95195
#
# Velocity S-wave (km/s) = 3.81014 4.36928 4.09925
# Velocity P-wave (km/s) = 5.86278 6.83137 6.36552
#
# Compressibility (1/GPa) = 0.03112676
#
# Stress axis : x y z
#
# Youngs Moduli (GPa) = 45.40069 109.24683 126.78336
#
# Poissons Ratio (x) = 0.04870 0.18843
# Poissons Ratio (y) = 0.02024 0.25840
# Poissons Ratio (z) = 0.06748 0.22266
#
# Static dielectric constant tensor:
#      x y z
#    x 3.595520 -0.138130 -0.006320 
#    y -0.138130 3.799950 0.132680 
#    z -0.006320 0.132680 4.046410 
# 
# 
# High freq. dielectric constant tensor:
#      x y z
#    x 1.821070 -0.004220 -0.002140 
#    y -0.004220 1.855200 0.005200 
#    z -0.002140 0.005200 1.864350 
# 
# From -- ./inp_files/105723.got.cif
#   From: 2010.06.25/outbox.cif.g09.slc.cpg/sg2_53_cif.got.tgz:105723.got - 2010.06.27 13:26:56.
