data_PCOD8010694
_publ_section_title
;
Structure prediction by ZEFSAII (Michael W. Deem and Ramdas Pophale) SiO2 
 PCOD8010694
Probable space group: P -1
;
_chemical_formula_sum "Si O2"
_cell_formula_units_Z 16
_cell_length_a 17.529804
_cell_length_b 20.697068
_cell_length_c 8.452275
_cell_angle_alpha 139.551837
_cell_angle_beta 139.912966
_cell_angle_gamma 21.561347
_cell_volume 709.686610
_symmetry_space_group_name_H-M "P -1"
_symmetry_group_IT_number 2
_symmetry_cell_setting 'triclinic'
loop_
_space_group_symop_operation_xyz
x,y,z
-x,-y,-z
loop_
_atom_site_type_symbol
_atom_site_label
_atom_site_fract_x
_atom_site_fract_y
_atom_site_fract_z
Si Si1 0.365229 0.693942 0.327908
Si Si2 0.921272 0.272424 0.906675
Si Si3 0.314479 0.624836 0.561467
Si Si4 0.089536 0.517394 0.553829
Si Si5 0.460166 0.882672 0.575241
Si Si6 0.648302 0.861177 0.334825
Si Si7 0.634388 0.087960 0.163430
Si Si8 0.246822 0.840527 0.074829
O O1 0.186809 0.739417 0.183825
O O2 0.608656 0.491760 0.381060
O O3 0.324353 0.823383 0.601840
O O4 0.367713 0.707336 0.168886
O O5 0.881789 0.286296 0.679426
O O6 0.834273 0.437977 0.145344
O O7 0.177327 0.091489 0.980165
O O8 0.500000 0.500000 0.500000
O O9 0.287942 0.756820 0.819382
O O10 0.291446 0.327006 0.429269
O O11 0.000000 0.500000 0.500000
O O12 0.901190 0.681463 0.439395
O O13 0.377540 0.944509 0.737797
O O14 0.316330 0.905980 0.289119
O O15 0.410410 0.025290 0.691994
O O16 0.500000 0.000000 0.500000
O O17 0.580817 0.796410 0.053429
O O18 0.000000 0.000000 0.000000
#
# Coordination Sequence:
#
# PCOD8010694 Si02
#       8
#     2   2   2   2   2   2   2   2
#     4  10  23  40  67 100 135 177 227 278 342 414
#     4  11  23  43  68  99 134 181 227 282 345 408
#     4  10  21  38  62  94 132 174 219 277 332 403
#     4  12  26  46  73 101 137 184 235 287 340 409
#     4  11  25  47  69 103 141 176 234 288 342 412
#     4  12  25  45  74 100 133 187 232 285 346 408
#     4  11  24  45  66 102 138 174 230 289 340 414
#     4  11  24  43  67 100 141 180 221 282 349 409
#
# _framework density 22.545162999999999
#
# number of rings (size 3 to 8) (size 9 to 14) (size 15 to 20)
#    0.000    1.000    2.500    4.125    3.500    4.500 
#    4.500    0.000    0.000    0.000    0.000    0.000 
#    0.000    0.000    0.000    0.000    0.000    0.000 
#
# Total GULP energy -198322.617890 kJ/mol
# GULP energy per Si atom -12395.163618 kJ/mol
# Density = 2.249385 g / cm^3
# Si number density = 22.545163 Si / 1000 Ang^3
#
#
#
# Elastic Constant Matrix: (Units=GPa)
#
#
# Indices 1 2 3 4 5 6 
#
# 1 75.2378 2.6560 29.0861 7.9580 20.9662 -5.1936
# 2 2.6560 79.3205 19.4034 -7.8432 12.4819 -5.6757
# 3 29.0861 19.4034 138.5433 -6.6233 11.1862 2.7791
# 4 7.9580 -7.8432 -6.6233 38.7397 -2.3809 -2.1263
# 5 20.9662 12.4819 11.1862 -2.3809 32.6167 1.6863
# 6 -5.1936 -5.6757 2.7791 -2.1263 1.6863 32.6600
#
#
#
# Elastic Compliance Matrix: (Units=1/GPa)
#
#
# Indices 1 2 3 4 5 6 
#
# 1 0.018717 0.001972 -0.003525 -0.004576 -0.012115 0.003947
# 2 0.001972 0.014421 -0.001909 0.001998 -0.006163 0.003430
# 3 -0.003525 -0.001909 0.008309 0.001697 0.000349 -0.001507
# 4 -0.004576 0.001998 0.001697 0.027727 0.003563 0.001096
# 5 -0.012115 -0.006163 0.000349 0.003563 0.041200 -0.004923
# 6 0.003947 0.003430 -0.001507 0.001096 -0.004923 0.032296
#
#
# Mechanical properties :
#
#
# Convention : Reuss Voigt Hill
#
# Bulk Modulus (GPa) = 28.96794 43.93251 36.45023
# Shear Modulus (GPa) = 31.03616 36.93368 33.98492
#
# Velocity S-wave (km/s) = 3.71431 4.05187 3.88676
# Velocity P-wave (km/s) = 5.59210 6.43576 6.02870
#
# Compressibility (1/GPa) = 0.03452092
#
# Stress axis : x y z
#
# Youngs Moduli (GPa) = 53.42738 69.34371 120.35609
#
# Poissons Ratio (x) = -0.13675 0.42431
# Poissons Ratio (y) = -0.10536 0.22981
# Poissons Ratio (z) = 0.18835 0.13241
#
# Static dielectric constant tensor:
#      x y z
#    x 3.787140 -0.023500 0.389300 
#    y -0.023500 4.372630 0.056320 
#    z 0.389300 0.056320 3.872810 
# 
# 
# High freq. dielectric constant tensor:
#      x y z
#    x 1.881870 -0.003070 0.000580 
#    y -0.003070 1.886730 -0.003840 
#    z 0.000580 -0.003840 1.910930 
# 
# From -- ./inp_files/338210.got.cif
#   From: 2010.06.25/outbox.cif.g09.slc.cpg/sg2_170_cif.got.tgz:338210.got - 2010.06.27 13:26:56.
