data_PCOD8010910
_publ_section_title
;
Structure prediction by ZEFSAII (Michael W. Deem and Ramdas Pophale) SiO2 
 PCOD8010910
Probable space group: P -1
;
_chemical_formula_sum "Si O2"
_cell_formula_units_Z 14
_cell_length_a 8.098792
_cell_length_b 9.021647
_cell_length_c 15.270296
_cell_angle_alpha 146.816235
_cell_angle_beta 88.285398
_cell_angle_gamma 100.174220
_cell_volume 586.483427
_symmetry_space_group_name_H-M "P -1"
_symmetry_group_IT_number 2
_symmetry_cell_setting 'triclinic'
loop_
_space_group_symop_operation_xyz
x,y,z
-x,-y,-z
loop_
_atom_site_type_symbol
_atom_site_label
_atom_site_fract_x
_atom_site_fract_y
_atom_site_fract_z
Si Si1 0.658536 0.543928 0.454897
Si Si2 0.622467 0.323245 0.155138
Si Si3 0.297649 0.256451 0.024324
Si Si4 0.533474 0.822895 0.331749
Si Si5 0.085220 0.899156 0.253950
Si Si6 0.766258 0.093505 0.315789
Si Si7 0.944832 0.304265 0.040570
O O1 0.500000 0.500000 0.500000
O O2 0.605635 0.365252 0.279107
O O3 0.743151 0.876288 0.600537
O O4 0.796162 0.407054 0.432083
O O5 0.427338 0.137011 0.028956
O O6 0.658611 0.630898 0.261450
O O7 0.787791 0.222492 0.071743
O O8 0.358368 0.598060 0.189620
O O9 0.094766 0.172664 0.011609
O O10 0.313351 0.146833 0.873200
O O11 0.619509 0.048642 0.369347
O O12 0.500000 0.000000 0.500000
O O13 0.028979 0.637843 0.191247
O O14 0.940446 0.063675 0.338819
O O15 0.122431 0.819701 0.114882
#
# Coordination Sequence:
#
# PCOD8010910 Si02
#       7
#     2   2   2   2   2   2   2
#     4  12  28  42  64  96 141 182 209 267 345 398
#     4  10  24  44  63 103 128 174 224 275 322 390
#     4   9  23  39  71  96 130 170 221 277 323 390
#     4  10  21  38  64  98 129 167 226 272 319 380
#     4  10  23  44  67 100 129 169 229 270 327 401
#     4  11  22  45  64  94 134 180 213 270 340 386
#     4  10  21  43  75  99 124 171 228 281 323 379
#
# _framework density 23.871092999999998
#
# number of rings (size 3 to 8) (size 9 to 14) (size 15 to 20)
#    0.857    0.857    1.429    1.714    6.000    2.286 
#    2.571    1.429    0.000    0.000    0.000    0.000 
#    0.000    0.000    0.000    0.000    0.000    0.000 
#
# Total GULP energy -173530.622852 kJ/mol
# GULP energy per Si atom -12395.044489 kJ/mol
# Density = 2.381676 g / cm^3
# Si number density = 23.871093 Si / 1000 Ang^3
#
#
#
# Elastic Constant Matrix: (Units=GPa)
#
#
# Indices 1 2 3 4 5 6 
#
# 1 132.3096 53.2380 48.7951 -17.4391 -5.2240 12.5670
# 2 53.2380 74.8150 32.5068 -14.5484 2.9692 18.2292
# 3 48.7951 32.5068 122.5978 -8.4600 -0.9215 33.4648
# 4 -17.4391 -14.5484 -8.4600 36.4459 7.7632 -5.8320
# 5 -5.2240 2.9692 -0.9215 7.7632 32.0304 -1.2225
# 6 12.5670 18.2292 33.4648 -5.8320 -1.2225 43.1528
#
#
#
# Elastic Compliance Matrix: (Units=1/GPa)
#
#
# Indices 1 2 3 4 5 6 
#
# 1 0.011810 -0.007294 -0.003308 0.001921 0.002138 0.002527
# 2 -0.007294 0.021496 -0.000936 0.004948 -0.004626 -0.005693
# 3 -0.003308 -0.000936 0.011845 -0.000402 -0.000316 -0.007890
# 4 0.001921 0.004948 -0.000402 0.032207 -0.007895 0.001792
# 5 0.002138 -0.004626 -0.000316 -0.007895 0.033958 0.001471
# 6 0.002527 -0.005693 -0.007890 0.001792 0.001471 0.031245
#
#
# Mechanical properties :
#
#
# Convention : Reuss Voigt Hill
#
# Bulk Modulus (GPa) = 45.29794 66.53358 55.91576
# Shear Modulus (GPa) = 28.90222 35.33799 32.12010
#
# Velocity S-wave (km/s) = 3.48338 3.85173 3.67217
# Velocity P-wave (km/s) = 5.93260 6.90750 6.43853
#
# Compressibility (1/GPa) = 0.02207606
#
# Stress axis : x y z
#
# Youngs Moduli (GPa) = 84.67056 46.51955 84.42265
#
# Poissons Ratio (x) = 0.33932 0.27926
# Poissons Ratio (y) = 0.61760 0.07901
# Poissons Ratio (z) = 0.28008 0.04354
#
# Static dielectric constant tensor:
#      x y z
#    x 4.341880 -0.306400 -0.121050 
#    y -0.306400 4.273470 0.296010 
#    z -0.121050 0.296010 4.271290 
# 
# 
# High freq. dielectric constant tensor:
#      x y z
#    x 1.955200 -0.012590 -0.010850 
#    y -0.012590 1.950130 0.015230 
#    z -0.010850 0.015230 1.947070 
# 
# From -- ./inp_files/495851.got.cif
#   From: 2010.06.25/outbox.cif.g09.slc.cpg/sg2_248_cif.got.tgz:495851.got - 2010.06.27 13:26:56.
