data_PCOD8010027
_publ_section_title
;
Structure prediction by ZEFSAII (Michael W. Deem and Ramdas Pophale) SiO2 
 PCOD8010027
Probable space group: P -1
;
_chemical_formula_sum "Si O2"
_cell_formula_units_Z 10
_cell_length_a 9.823947
_cell_length_b 8.983667
_cell_length_c 11.016337
_cell_angle_alpha 105.216777
_cell_angle_beta 120.099760
_cell_angle_gamma 123.928191
_cell_volume 457.186818
_symmetry_space_group_name_H-M "P -1"
_symmetry_group_IT_number 2
_symmetry_cell_setting 'triclinic'
loop_
_space_group_symop_operation_xyz
x,y,z
-x,-y,-z
loop_
_atom_site_type_symbol
_atom_site_label
_atom_site_fract_x
_atom_site_fract_y
_atom_site_fract_z
Si Si1 0.738826 0.745502 0.988894
Si Si2 0.244879 0.369122 0.289475
Si Si3 0.633014 0.057326 0.198700
Si Si4 0.734799 0.501530 0.132298
Si Si5 0.845185 0.411337 0.566496
O O1 0.720023 0.624033 0.836273
O O2 0.429902 0.562581 0.838892
O O3 0.847705 0.728869 0.145752
O O4 0.951593 0.059396 0.135313
O O5 0.500000 0.500000 0.500000
O O6 0.256501 0.562157 0.363951
O O7 0.586708 0.137209 0.309727
O O8 0.966586 0.328268 0.383155
O O9 0.500000 0.000000 0.000000
O O10 0.496725 0.782686 0.110764
O O11 0.991771 0.604270 0.310358
#
# Coordination Sequence:
#
# PCOD8010027 Si02
#       5
#     2   2   2   2   2
#     4  10  24  42  61  93 125 162 199 256 311 352
#     4  11  25  40  61  90 130 163 198 250 312 370
#     4   9  19  34  63  90 117 152 205 252 293 356
#     4  10  21  41  68  89 119 160 212 256 292 361
#     4  10  21  37  64  92 116 164 209 245 302 364
#
# _framework density 21.872896000000001
#
# number of rings (size 3 to 8) (size 9 to 14) (size 15 to 20)
#    0.000    2.000    2.000    0.000    8.400    4.000 
#    0.000    6.000    0.000    0.000    0.000    0.000 
#    0.000    0.000    0.000    0.000    0.000    0.000 
#
# Total GULP energy -123929.392810 kJ/mol
# GULP energy per Si atom -12392.939281 kJ/mol
# Density = 2.182311 g / cm^3
# Si number density = 21.872896 Si / 1000 Ang^3
#
#
#
# Elastic Constant Matrix: (Units=GPa)
#
#
# Indices 1 2 3 4 5 6 
#
# 1 183.9224 52.9464 59.8422 -20.1005 -27.0687 -5.2180
# 2 52.9464 79.0378 24.7743 -11.4501 -2.2935 2.6555
# 3 59.8422 24.7743 90.3642 -16.7366 -19.6986 -0.3547
# 4 -20.1005 -11.4501 -16.7366 23.4615 -9.8799 2.5946
# 5 -27.0687 -2.2935 -19.6986 -9.8799 47.9302 -3.7666
# 6 -5.2180 2.6555 -0.3547 2.5946 -3.7666 31.6331
#
#
#
# Elastic Compliance Matrix: (Units=1/GPa)
#
#
# Indices 1 2 3 4 5 6 
#
# 1 0.008929 -0.004272 -0.002574 0.005661 0.005100 0.001945
# 2 -0.004272 0.016437 -0.001614 0.002677 -0.001938 -0.002553
# 3 -0.002574 -0.001614 0.017413 0.012934 0.008278 -0.000169
# 4 0.005661 0.002677 0.012934 0.067676 0.022432 -0.002026
# 5 0.005100 -0.001938 0.008278 0.022432 0.031918 0.003057
# 6 0.001945 -0.002553 -0.000169 -0.002026 0.003057 0.032676
#
#
# Mechanical properties :
#
#
# Convention : Reuss Voigt Hill
#
# Bulk Modulus (GPa) = 38.67132 69.82780 54.24956
# Shear Modulus (GPa) = 24.92674 34.98907 29.95790
#
# Velocity S-wave (km/s) = 3.37948 4.00391 3.70487
# Velocity P-wave (km/s) = 5.73989 7.30539 6.56944
#
# Compressibility (1/GPa) = 0.02585896
#
# Stress axis : x y z
#
# Youngs Moduli (GPa) = 111.99776 60.83820 57.42922
#
# Poissons Ratio (x) = 0.25988 0.14781
# Poissons Ratio (y) = 0.47842 0.09271
# Poissons Ratio (z) = 0.28826 0.09821
#
# Static dielectric constant tensor:
#      x y z
#    x 4.243150 -0.141840 -0.532550 
#    y -0.141840 3.907840 0.337450 
#    z -0.532550 0.337450 4.224870 
# 
# 
# High freq. dielectric constant tensor:
#      x y z
#    x 1.866860 -0.008610 -0.022420 
#    y -0.008610 1.838050 -0.000150 
#    z -0.022420 -0.000150 1.854080 
# 
# From -- ./inp_files/17557.got.cif
#   From: 2010.06.25/outbox.cif.g09.slc.cpg/sg2_9_cif.got.tgz:17557.got - 2010.06.27 13:26:56.
