data_PCOD8010154
_publ_section_title
;
Structure prediction by ZEFSAII (Michael W. Deem and Ramdas Pophale) SiO2 
 PCOD8010154
Probable space group: P -1
;
_chemical_formula_sum "Si O2"
_cell_formula_units_Z 14
_cell_length_a 8.300496
_cell_length_b 8.889344
_cell_length_c 12.217092
_cell_angle_alpha 128.603251
_cell_angle_beta 58.307852
_cell_angle_gamma 107.168562
_cell_volume 598.700626
_symmetry_space_group_name_H-M "P -1"
_symmetry_group_IT_number 2
_symmetry_cell_setting 'triclinic'
loop_
_space_group_symop_operation_xyz
x,y,z
-x,-y,-z
loop_
_atom_site_type_symbol
_atom_site_label
_atom_site_fract_x
_atom_site_fract_y
_atom_site_fract_z
Si Si1 0.747977 0.699859 0.490782
Si Si2 0.294777 0.096620 0.624837
Si Si3 0.950810 0.303318 0.199706
Si Si4 0.819327 0.572719 0.028186
Si Si5 0.049526 0.126623 0.303583
Si Si6 0.591874 0.133879 0.186554
Si Si7 0.628837 0.196705 0.959604
O O1 0.783763 0.824129 0.426590
O O2 0.793919 0.478495 0.345236
O O3 0.893788 0.755211 0.557397
O O4 0.531351 0.737343 0.624431
O O5 0.299112 0.263349 0.789442
O O6 0.500000 0.000000 0.500000
O O7 0.166159 0.927191 0.632737
O O8 0.816805 0.128884 0.131980
O O9 0.063754 0.258074 0.250315
O O10 0.112398 0.345884 0.074342
O O11 0.678850 0.398446 0.978520
O O12 0.000000 0.500000 0.000000
O O13 0.177939 0.932850 0.156222
O O14 0.522332 0.913255 0.110978
O O15 0.547146 0.227700 0.125545
#
# Coordination Sequence:
#
# PCOD8010154 Si02
#       7
#     2   2   2   2   2   2   2
#     4  11  23  42  66  96 142 185 224 282 346 405
#     4  12  25  43  70 104 138 177 231 286 345 408
#     4  12  23  41  71 101 136 181 234 280 337 411
#     4  12  22  45  73  99 137 184 229 278 349 412
#     4  11  24  41  66 100 137 185 234 276 340 413
#     4  10  21  37  66  98 131 172 230 284 335 394
#     4  10  21  42  67  96 134 184 228 275 348 409
#
# _framework density 23.383976000000001
#
# number of rings (size 3 to 8) (size 9 to 14) (size 15 to 20)
#    0.000    0.857    4.286    2.143    0.000    5.714 
#    0.000    1.429    0.000   21.429    0.000    0.000 
#    0.000    0.000    0.000    0.000    0.000    0.000 
#
# Total GULP energy -173669.233533 kJ/mol
# GULP energy per Si atom -12404.945252 kJ/mol
# Density = 2.333075 g / cm^3
# Si number density = 23.383976 Si / 1000 Ang^3
#
#
#
# Elastic Constant Matrix: (Units=GPa)
#
#
# Indices 1 2 3 4 5 6 
#
# 1 85.6172 69.0717 36.6940 3.6177 16.2047 3.2484
# 2 69.0717 151.9663 56.2244 -21.5311 13.6117 17.4372
# 3 36.6940 56.2244 132.1314 -18.6313 1.2780 2.6450
# 4 3.6177 -21.5311 -18.6313 32.7356 -3.3698 8.2506
# 5 16.2047 13.6117 1.2780 -3.3698 34.4589 -8.2045
# 6 3.2484 17.4372 2.6450 8.2506 -8.2045 41.4547
#
#
#
# Elastic Compliance Matrix: (Units=1/GPa)
#
#
# Indices 1 2 3 4 5 6 
#
# 1 0.024567 -0.011683 -0.003930 -0.014559 -0.007089 0.004735
# 2 -0.011683 0.015159 -0.001277 0.012454 -0.001154 -0.008086
# 3 -0.003930 -0.001277 0.009983 0.005635 0.002430 -0.000433
# 4 -0.014559 0.012454 0.005635 0.047217 0.003187 -0.013224
# 5 -0.007089 -0.001154 0.002430 0.003187 0.034727 0.007124
# 6 0.004735 -0.008086 -0.000433 -0.013224 0.007124 0.031223
#
#
# Mechanical properties :
#
#
# Convention : Reuss Voigt Hill
#
# Bulk Modulus (GPa) = 62.78147 77.07724 69.92935
# Shear Modulus (GPa) = 24.75682 35.57816 30.16749
#
# Velocity S-wave (km/s) = 3.25731 3.90484 3.59568
# Velocity P-wave (km/s) = 6.40727 7.30503 6.87083
#
# Compressibility (1/GPa) = 0.01592827
#
# Stress axis : x y z
#
# Youngs Moduli (GPa) = 40.70499 65.96830 100.17339
#
# Poissons Ratio (x) = 0.77073 0.39370
# Poissons Ratio (y) = 0.47557 0.12789
# Poissons Ratio (z) = 0.15998 0.08422
#
# Static dielectric constant tensor:
#      x y z
#    x 3.971770 0.163840 0.106180 
#    y 0.163840 4.410600 -0.108780 
#    z 0.106180 -0.108780 4.417780 
# 
# 
# High freq. dielectric constant tensor:
#      x y z
#    x 1.916530 0.009940 0.002360 
#    y 0.009940 1.927770 -0.009710 
#    z 0.002360 -0.009710 1.938020 
# 
# From -- ./inp_files/383454.got.cif
#   From: 2010.06.25/outbox.cif.g09.slc.cpg/sg2_192_cif.got.tgz:383454.got - 2010.06.27 13:26:56.
