data_PCOD8010222
_publ_section_title
;
Structure prediction by ZEFSAII (Michael W. Deem and Ramdas Pophale) SiO2 
 PCOD8010222
Probable space group: P -1
;
_chemical_formula_sum "Si O2"
_cell_formula_units_Z 16
_cell_length_a 12.770961
_cell_length_b 12.604738
_cell_length_c 9.283262
_cell_angle_alpha 45.276208
_cell_angle_beta 123.346816
_cell_angle_gamma 131.585334
_cell_volume 784.501734
_symmetry_space_group_name_H-M "P -1"
_symmetry_group_IT_number 2
_symmetry_cell_setting 'triclinic'
loop_
_space_group_symop_operation_xyz
x,y,z
-x,-y,-z
loop_
_atom_site_type_symbol
_atom_site_label
_atom_site_fract_x
_atom_site_fract_y
_atom_site_fract_z
Si Si1 0.710759 0.457345 0.048656
Si Si2 0.539360 0.186745 0.389693
Si Si3 0.734308 0.787006 0.851662
Si Si4 0.287083 0.607678 0.414471
Si Si5 0.740115 0.763009 0.206908
Si Si6 0.011067 0.941864 0.722149
Si Si7 0.982139 0.405412 0.926455
Si Si8 0.540319 0.371267 0.728878
O O1 0.602550 0.277604 0.200099
O O2 0.871963 0.491657 0.148566
O O3 0.687404 0.589990 0.000069
O O4 0.671777 0.470747 0.840997
O O5 0.397138 0.190982 0.327991
O O6 0.658896 0.270901 0.522425
O O7 0.500000 0.000000 0.500000
O O8 0.867444 0.891868 0.749704
O O9 0.765975 0.838507 0.993315
O O10 0.270975 0.422959 0.615040
O O11 0.136644 0.588846 0.269896
O O12 0.401157 0.703775 0.281255
O O13 0.597824 0.763338 0.161458
O O14 0.869087 0.893844 0.271067
O O15 0.000000 0.000000 0.500000
O O16 0.048940 0.787663 0.889787
O O17 0.000000 0.500000 0.000000
O O18 0.500000 0.500000 0.500000
#
# Coordination Sequence:
#
# PCOD8010222 Si02
#       8
#     2   2   2   2   2   2   2   2
#     4  11  22  45  68  97 127 182 218 268 329 399
#     4  12  27  43  67 102 136 170 220 280 335 390
#     4  11  23  45  68  92 133 176 224 269 329 397
#     4  11  24  43  68 101 131 176 219 272 340 391
#     4  11  22  43  70  95 131 172 228 271 325 400
#     4  11  27  42  68  99 129 176 225 274 328 391
#     4  11  24  44  68  96 140 170 219 273 333 397
#     4  10  21  37  72  97 125 168 227 269 321 391
#
# _framework density 20.395112000000001
#
# number of rings (size 3 to 8) (size 9 to 14) (size 15 to 20)
#    0.000    1.000    3.750    3.000    8.750    2.500 
#    0.000    1.250    0.000    0.000    0.000    0.000 
#    0.000    0.000    0.000    0.000    0.000    0.000 
#
# Total GULP energy -198387.619703 kJ/mol
# GULP energy per Si atom -12399.226231 kJ/mol
# Density = 2.034869 g / cm^3
# Si number density = 20.395112 Si / 1000 Ang^3
#
#
#
# Elastic Constant Matrix: (Units=GPa)
#
#
# Indices 1 2 3 4 5 6 
#
# 1 132.7523 48.4912 64.3265 -2.5412 4.2195 11.8782
# 2 48.4912 145.5943 51.5519 8.2374 1.1375 1.1604
# 3 64.3265 51.5519 89.8201 24.0027 -8.0314 13.9060
# 4 -2.5412 8.2374 24.0027 43.0262 3.6069 -1.0238
# 5 4.2195 1.1375 -8.0314 3.6069 40.4460 6.1035
# 6 11.8782 1.1604 13.9060 -1.0238 6.1035 31.1818
#
#
#
# Elastic Compliance Matrix: (Units=1/GPa)
#
#
# Indices 1 2 3 4 5 6 
#
# 1 0.014089 -0.000664 -0.012655 0.008471 -0.004953 0.001549
# 2 -0.000664 0.009035 -0.005788 0.001691 -0.001927 0.002931
# 3 -0.012655 -0.005788 0.031182 -0.018238 0.011057 -0.011633
# 4 0.008471 0.001691 -0.018238 0.034513 -0.008792 0.007698
# 5 -0.004953 -0.001927 0.011057 -0.008792 0.029643 -0.009063
# 6 0.001549 0.002931 -0.011633 0.007698 -0.009063 0.038585
#
#
# Mechanical properties :
#
#
# Convention : Reuss Voigt Hill
#
# Bulk Modulus (GPa) = 62.14600 77.43399 69.78999
# Shear Modulus (GPa) = 24.92216 36.51727 30.71972
#
# Velocity S-wave (km/s) = 3.49946 4.23601 3.88523
# Velocity P-wave (km/s) = 6.84583 7.87238 7.37699
#
# Compressibility (1/GPa) = 0.01609114
#
# Stress axis : x y z
#
# Youngs Moduli (GPa) = 70.97935 110.68036 32.06987
#
# Poissons Ratio (x) = 0.07353 0.40585
# Poissons Ratio (y) = 0.04715 0.18561
# Poissons Ratio (z) = 0.89825 0.64060
#
# Static dielectric constant tensor:
#      x y z
#    x 4.049440 0.080630 -0.134550 
#    y 0.080630 3.714730 0.120020 
#    z -0.134550 0.120020 3.691410 
# 
# 
# High freq. dielectric constant tensor:
#      x y z
#    x 1.812750 0.005450 -0.006070 
#    y 0.005450 1.799410 0.017700 
#    z -0.006070 0.017700 1.796890 
# 
# From -- ./inp_files/226128.got.cif
#   From: 2010.06.25/outbox.cif.g09.slc.cpg/sg2_114_cif.got.tgz:226128.got - 2010.06.27 13:26:56.
