data_PCOD8010338
_publ_section_title
;
Structure prediction by ZEFSAII (Michael W. Deem and Ramdas Pophale) SiO2 
 PCOD8010338
Probable space group: P -1
;
_chemical_formula_sum "Si O2"
_cell_formula_units_Z 16
_cell_length_a 17.422444
_cell_length_b 16.076857
_cell_length_c 9.017902
_cell_angle_alpha 36.982279
_cell_angle_beta 107.478770
_cell_angle_gamma 136.024413
_cell_volume 795.230237
_symmetry_space_group_name_H-M "P -1"
_symmetry_group_IT_number 2
_symmetry_cell_setting 'triclinic'
loop_
_space_group_symop_operation_xyz
x,y,z
-x,-y,-z
loop_
_atom_site_type_symbol
_atom_site_label
_atom_site_fract_x
_atom_site_fract_y
_atom_site_fract_z
Si Si1 0.024573 0.695023 0.614311
Si Si2 0.059088 0.218866 0.801645
Si Si3 0.409547 0.742587 0.247731
Si Si4 0.269848 0.133385 0.367041
Si Si5 0.478059 0.686111 0.632573
Si Si6 0.551836 0.056476 0.613041
Si Si7 0.856150 0.424257 0.178364
Si Si8 0.973481 0.102056 0.250543
O O1 0.042936 0.564614 0.756343
O O2 0.006474 0.749141 0.374439
O O3 0.164861 0.945086 0.436450
O O4 0.877630 0.498649 0.910763
O O5 0.234436 0.488975 0.532872
O O6 0.980870 0.093060 0.092985
O O7 0.000000 0.000000 0.000000
O O8 0.479083 0.709706 0.420212
O O9 0.500000 0.000000 0.000000
O O10 0.443430 0.800963 0.008685
O O11 0.365328 0.135409 0.463773
O O12 0.181091 0.051265 0.577796
O O13 0.364598 0.401423 0.998633
O O14 0.425137 0.756544 0.571391
O O15 0.694325 0.166368 0.511745
O O16 0.500000 0.000000 0.500000
O O17 0.900220 0.611862 0.041811
O O18 0.000000 0.000000 0.500000
#
# Coordination Sequence:
#
# PCOD8010338 Si02
#       8
#     2   2   2   2   2   2   2   2
#     4  10  22  39  60  90 125 156 201 256 313 358
#     4  12  24  40  64  92 125 160 201 259 310 359
#     4  10  22  38  59  86 119 156 198 245 297 359
#     4  10  21  39  62  85 118 162 202 251 304 366
#     4  10  21  39  60  84 119 161 204 246 304 366
#     4  11  21  35  59  86 117 155 202 250 302 363
#     4  10  21  38  59  85 120 160 200 250 301 365
#     4  11  22  38  61  87 119 160 206 246 300 370
#
# _framework density 20.119959999999999
#
# number of rings (size 3 to 8) (size 9 to 14) (size 15 to 20)
#    0.000    1.500    0.000    6.750    0.000    7.500 
#    0.000    0.000    0.000    5.250    0.000    0.000 
#    0.000    0.000    0.000    0.000    0.000    0.000 
#
# Total GULP energy -198215.240133 kJ/mol
# GULP energy per Si atom -12388.452508 kJ/mol
# Density = 2.007417 g / cm^3
# Si number density = 20.119960 Si / 1000 Ang^3
#
#
#
# Elastic Constant Matrix: (Units=GPa)
#
#
# Indices 1 2 3 4 5 6 
#
# 1 91.2969 42.3083 40.0147 10.4420 -7.0123 0.0548
# 2 42.3083 116.7506 60.6000 28.0433 2.0225 7.2370
# 3 40.0147 60.6000 117.3557 18.9000 -8.5444 8.3162
# 4 10.4420 28.0433 18.9000 49.0466 1.3267 1.7930
# 5 -7.0123 2.0225 -8.5444 1.3267 33.9989 -1.3957
# 6 0.0548 7.2370 8.3162 1.7930 -1.3957 36.2575
#
#
#
# Elastic Compliance Matrix: (Units=1/GPa)
#
#
# Indices 1 2 3 4 5 6 
#
# 1 0.014128 -0.003847 -0.002775 0.000140 0.002500 0.001472
# 2 -0.003847 0.014019 -0.005214 -0.005059 -0.002800 -0.001454
# 3 -0.002775 -0.005214 0.012708 -0.001342 0.002914 -0.001691
# 4 0.000140 -0.005059 -0.001342 0.023790 -0.000931 0.000105
# 5 0.002500 -0.002800 0.002914 -0.000931 0.030910 0.001123
# 6 0.001472 -0.001454 -0.001691 0.000105 0.001123 0.028294
#
#
# Mechanical properties :
#
#
# Convention : Reuss Voigt Hill
#
# Bulk Modulus (GPa) = 58.19890 67.91657 63.05774
# Shear Modulus (GPa) = 32.62665 36.02595 34.32630
#
# Velocity S-wave (km/s) = 4.03129 4.23609 4.13496
# Velocity P-wave (km/s) = 7.11738 7.59967 7.36248
#
# Compressibility (1/GPa) = 0.01718245
#
# Stress axis : x y z
#
# Youngs Moduli (GPa) = 70.78295 71.32989 78.69201
#
# Poissons Ratio (x) = 0.27443 0.21839
# Poissons Ratio (y) = 0.27232 0.41027
# Poissons Ratio (z) = 0.19644 0.37188
#
# Static dielectric constant tensor:
#      x y z
#    x 3.733030 -0.028330 -0.024890 
#    y -0.028330 4.104590 0.483620 
#    z -0.024890 0.483620 4.253900 
# 
# 
# High freq. dielectric constant tensor:
#      x y z
#    x 1.780280 0.002760 0.003470 
#    y 0.002760 1.787320 0.002940 
#    z 0.003470 0.002940 1.802860 
# 
# From -- ./inp_files/263103.got.cif
#   From: 2010.06.25/outbox.cif.g09.slc.cpg/sg2_132_cif.got.tgz:263103.got - 2010.06.27 13:26:56.
