data_PCOD8010257
_publ_section_title
;
Structure prediction by ZEFSAII (Michael W. Deem and Ramdas Pophale) SiO2 
 PCOD8010257
Probable space group: P -1
;
_chemical_formula_sum "Si O2"
_cell_formula_units_Z 16
_cell_length_a 6.643480
_cell_length_b 20.580089
_cell_length_c 8.689764
_cell_angle_alpha 130.640735
_cell_angle_beta 117.990816
_cell_angle_gamma 82.493074
_cell_volume 768.434517
_symmetry_space_group_name_H-M "P -1"
_symmetry_group_IT_number 2
_symmetry_cell_setting 'triclinic'
loop_
_space_group_symop_operation_xyz
x,y,z
-x,-y,-z
loop_
_atom_site_type_symbol
_atom_site_label
_atom_site_fract_x
_atom_site_fract_y
_atom_site_fract_z
Si Si1 0.132732 0.826489 0.773578
Si Si2 0.576049 0.280721 0.834649
Si Si3 0.437436 0.689255 0.670905
Si Si4 0.513380 0.029413 0.725466
Si Si5 0.752982 0.144951 0.495090
Si Si6 0.087225 0.597242 0.615974
Si Si7 0.263013 0.175483 0.821794
Si Si8 0.702552 0.680993 0.460399
O O1 0.268939 0.752717 0.746407
O O2 0.178808 0.851180 0.651643
O O3 0.859703 0.782858 0.652647
O O4 0.222270 0.913791 0.046573
O O5 0.672371 0.230405 0.653932
O O6 0.394607 0.206556 0.755623
O O7 0.429261 0.343388 0.791180
O O8 0.795762 0.336705 0.100565
O O9 0.295223 0.598925 0.567236
O O10 0.485075 0.672905 0.487032
O O11 0.685732 0.738168 0.914886
O O12 0.343840 0.093275 0.795459
O O13 0.500000 0.000000 0.500000
O O14 0.447622 0.944738 0.682172
O O15 0.984344 0.140379 0.662789
O O16 0.000000 0.500000 0.500000
O O17 0.861527 0.618431 0.482374
#
# Coordination Sequence:
#
# PCOD8010257 Si02
#       8
#     2   2   2   2   2   2   2   2
#     4  10  22  38  57  85 121 159 204 252 295 349
#     4  11  22  40  66  91 118 161 208 245 297 373
#     4   9  20  38  64  85 117 157 200 242 297 361
#     4  11  23  37  55  85 125 160 207 261 301 348
#     4  12  21  38  59  84 120 160 208 253 303 349
#     4  10  24  43  63  96 129 150 190 251 307 369
#     4  10  21  38  57  86 117 165 204 249 305 350
#     4  11  21  41  67  90 118 163 205 244 301 361
#
# _framework density 20.821553000000002
#
# number of rings (size 3 to 8) (size 9 to 14) (size 15 to 20)
#    0.000    1.500    3.750    2.250    1.750    1.000 
#    0.000    1.875    0.000    0.000    0.000    0.000 
#    0.000    0.000    0.000    0.000    0.000    0.000 
#
# Total GULP energy -198276.128518 kJ/mol
# GULP energy per Si atom -12392.258032 kJ/mol
# Density = 2.077416 g / cm^3
# Si number density = 20.821553 Si / 1000 Ang^3
#
#
#
# Elastic Constant Matrix: (Units=GPa)
#
#
# Indices 1 2 3 4 5 6 
#
# 1 63.9323 22.8607 15.8908 5.5017 -0.2274 20.6502
# 2 22.8607 113.9178 36.6917 -2.8652 4.2200 16.0461
# 3 15.8908 36.6917 52.0992 -7.2020 8.4922 4.5756
# 4 5.5017 -2.8652 -7.2020 35.7672 4.4875 8.8021
# 5 -0.2274 4.2200 8.4922 4.4875 24.3354 -6.1288
# 6 20.6502 16.0461 4.5756 8.8021 -6.1288 39.6225
#
#
#
# Elastic Compliance Matrix: (Units=1/GPa)
#
#
# Indices 1 2 3 4 5 6 
#
# 1 0.020414 -0.001330 -0.004799 -0.002003 0.000180 -0.009074
# 2 -0.001330 0.012014 -0.007607 0.000544 -0.000418 -0.003480
# 3 -0.004799 -0.007607 0.028843 0.007499 -0.010433 -0.001028
# 4 -0.002003 0.000544 0.007499 0.033498 -0.011229 -0.009221
# 5 0.000180 -0.000418 -0.010433 -0.011229 0.049767 0.011473
# 6 -0.009074 -0.003480 -0.001028 -0.009221 0.011473 0.035318
#
#
# Mechanical properties :
#
#
# Convention : Reuss Voigt Hill
#
# Bulk Modulus (GPa) = 29.58655 42.31507 35.95081
# Shear Modulus (GPa) = 22.87362 30.24542 26.55952
#
# Velocity S-wave (km/s) = 3.31804 3.81544 3.57540
# Velocity P-wave (km/s) = 5.37770 6.30689 5.86074
#
# Compressibility (1/GPa) = 0.03379914
#
# Stress axis : x y z
#
# Youngs Moduli (GPa) = 48.98688 83.23279 34.67092
#
# Poissons Ratio (x) = 0.11068 0.16639
# Poissons Ratio (y) = 0.06514 0.26374
# Poissons Ratio (z) = 0.23510 0.63314
#
# Static dielectric constant tensor:
#      x y z
#    x 3.696190 0.180160 0.264410 
#    y 0.180160 3.863670 -0.191530 
#    z 0.264410 -0.191530 3.819200 
# 
# 
# High freq. dielectric constant tensor:
#      x y z
#    x 1.808900 0.019470 0.015730 
#    y 0.019470 1.814250 -0.022330 
#    z 0.015730 -0.022330 1.805480 
# 
# From -- ./inp_files/38134.got.cif
#   From: 2010.06.25/outbox.cif.g09.slc.cpg/sg2_20_cif.got.tgz:38134.got - 2010.06.27 13:26:56.
