data_PCOD8010895
_publ_section_title
;
Structure prediction by ZEFSAII (Michael W. Deem and Ramdas Pophale) SiO2 
 PCOD8010895
Probable space group: P -1
;
_chemical_formula_sum "Si O2"
_cell_formula_units_Z 14
_cell_length_a 16.422713
_cell_length_b 12.489356
_cell_length_c 5.297023
_cell_angle_alpha 49.992006
_cell_angle_beta 108.856019
_cell_angle_gamma 132.692000
_cell_volume 599.276502
_symmetry_space_group_name_H-M "P -1"
_symmetry_group_IT_number 2
_symmetry_cell_setting 'triclinic'
loop_
_space_group_symop_operation_xyz
x,y,z
-x,-y,-z
loop_
_atom_site_type_symbol
_atom_site_label
_atom_site_fract_x
_atom_site_fract_y
_atom_site_fract_z
Si Si1 0.749888 0.567493 0.169749
Si Si2 0.836541 0.168847 0.819893
Si Si3 0.416459 0.199743 0.884603
Si Si4 0.996067 0.903645 0.892095
Si Si5 0.653882 0.329509 0.934054
Si Si6 0.213320 0.803973 0.771153
Si Si7 0.653309 0.768802 0.733045
O O1 0.708957 0.476531 0.541535
O O2 0.884790 0.689952 0.105479
O O3 0.694856 0.423147 0.106870
O O4 0.725633 0.705212 0.903166
O O5 0.867992 0.289614 0.415317
O O6 0.862910 0.292301 0.905476
O O7 0.894897 0.080495 0.022688
O O8 0.700176 0.008459 0.912610
O O9 0.518655 0.196981 0.985927
O O10 0.424022 0.306705 0.482039
O O11 0.426365 0.306155 0.985048
O O12 0.000000 0.000000 0.500000
O O13 0.000000 0.000000 0.000000
O O14 0.686170 0.201878 0.126573
O O15 0.260754 0.011340 0.517985
#
# Coordination Sequence:
#
# PCOD8010895 Si02
#       7
#     2   2   2   2   2   2   2
#     4  12  26  43  64  99 132 166 209 264 328 380
#     4  10  21  39  66  94 120 167 227 264 302 367
#     4  10  21  38  64  95 128 167 211 264 318 377
#     4  12  23  43  71  96 127 167 219 269 308 371
#     4  12  26  42  63  96 139 168 202 262 334 387
#     4  10  22  42  64  92 129 172 215 260 312 380
#     4  10  21  39  63  91 125 169 223 258 303 378
#
# _framework density 23.361505999999999
#
# number of rings (size 3 to 8) (size 9 to 14) (size 15 to 20)
#    0.000    1.143    0.000    7.714    0.000    8.000 
#    0.000    4.286    0.000    0.000    0.000    0.000 
#    0.000    0.000    0.000    0.000    0.000    0.000 
#
# Total GULP energy -173572.044480 kJ/mol
# GULP energy per Si atom -12398.003177 kJ/mol
# Density = 2.330833 g / cm^3
# Si number density = 23.361506 Si / 1000 Ang^3
#
#
#
# Elastic Constant Matrix: (Units=GPa)
#
#
# Indices 1 2 3 4 5 6 
#
# 1 143.9867 40.3139 35.8253 22.8067 8.7982 -14.5548
# 2 40.3139 67.3061 41.2156 30.4405 -14.5151 -4.1852
# 3 35.8253 41.2156 102.3759 56.7927 7.3794 -19.7282
# 4 22.8067 30.4405 56.7927 59.7432 -11.6090 -13.3244
# 5 8.7982 -14.5151 7.3794 -11.6090 53.9886 4.0624
# 6 -14.5548 -4.1852 -19.7282 -13.3244 4.0624 45.2213
#
#
#
# Elastic Compliance Matrix: (Units=1/GPa)
#
#
# Indices 1 2 3 4 5 6 
#
# 1 0.009124 -0.005926 0.000593 -0.001140 -0.003604 0.002635
# 2 -0.005926 0.026594 -0.009294 -0.001711 0.009383 -0.004848
# 3 0.000593 -0.009294 0.028238 -0.023347 -0.011915 0.005841
# 4 -0.001140 -0.001711 -0.023347 0.042761 0.012051 0.000806
# 5 -0.003604 0.009383 -0.011915 0.012051 0.026175 -0.004290
# 6 0.002635 -0.004848 0.005841 0.000806 -0.004290 0.025684
#
#
# Mechanical properties :
#
#
# Convention : Reuss Voigt Hill
#
# Bulk Modulus (GPa) = 28.81707 60.93091 44.87399
# Shear Modulus (GPa) = 25.07547 44.87820 34.97683
#
# Velocity S-wave (km/s) = 3.27978 4.38771 3.87356
# Velocity P-wave (km/s) = 5.16766 7.19776 6.26548
#
# Compressibility (1/GPa) = 0.03470166
#
# Stress axis : x y z
#
# Youngs Moduli (GPa) = 109.60284 37.60230 35.41276
#
# Poissons Ratio (x) = 0.22282 -0.02099
# Poissons Ratio (y) = 0.64948 0.32914
# Poissons Ratio (z) = -0.06497 0.34949
#
# Static dielectric constant tensor:
#      x y z
#    x 4.623730 -0.567120 -0.700270 
#    y -0.567120 4.819310 1.442880 
#    z -0.700270 1.442880 5.434170 
# 
# 
# High freq. dielectric constant tensor:
#      x y z
#    x 1.937750 -0.013060 -0.005690 
#    y -0.013060 1.912720 0.039780 
#    z -0.005690 0.039780 1.935310 
# 
# From -- ./inp_files/94333.got.cif
#   From: 2010.06.25/outbox.cif.g09.slc.cpg/sg2_48_cif.got.tgz:94333.got - 2010.06.27 13:26:56.
