data_PCOD8010002
_publ_section_title
;
Structure prediction by ZEFSAII (Michael W. Deem and Ramdas Pophale) SiO2 
 PCOD8010002
Probable space group: P -1
;
_chemical_formula_sum "Si O2"
_cell_formula_units_Z 16
_cell_length_a 11.261211
_cell_length_b 8.376643
_cell_length_c 8.852898
_cell_angle_alpha 113.962536
_cell_angle_beta 107.030160
_cell_angle_gamma 69.709209
_cell_volume 704.421060
_symmetry_space_group_name_H-M "P -1"
_symmetry_group_IT_number 2
_symmetry_cell_setting 'triclinic'
loop_
_space_group_symop_operation_xyz
x,y,z
-x,-y,-z
loop_
_atom_site_type_symbol
_atom_site_label
_atom_site_fract_x
_atom_site_fract_y
_atom_site_fract_z
Si Si1 0.138309 0.824277 0.828228
Si Si2 0.524641 0.114683 0.196000
Si Si3 0.700795 0.028563 0.632803
Si Si4 0.346689 0.529667 0.955162
Si Si5 0.718945 0.561806 0.776694
Si Si6 0.118187 0.168226 0.119760
Si Si7 0.755932 0.223597 0.451330
Si Si8 0.433034 0.193828 0.672488
O O1 0.272417 0.709662 0.909543
O O2 0.127399 0.795346 0.631388
O O3 0.023599 0.756301 0.835948
O O4 0.117868 0.040142 0.925843
O O5 0.411271 0.290307 0.238557
O O6 0.650740 0.189885 0.276959
O O7 0.529271 0.991577 0.293412
O O8 0.500000 0.000000 0.000000
O O9 0.780552 0.075587 0.537683
O O10 0.578138 0.208957 0.686885
O O11 0.793174 0.975038 0.787540
O O12 0.648262 0.851089 0.515331
O O13 0.336955 0.355986 0.786934
O O14 0.500000 0.500000 0.000000
O O15 0.280793 0.529583 0.094086
O O16 0.835740 0.656913 0.844316
O O17 0.725709 0.420916 0.589572
#
# Coordination Sequence:
#
# PCOD8010002 Si02
#       8
#     2   2   2   2   2   2   2   2
#     4  11  27  46  68  96 133 177 228 273 334 402
#     4  11  20  38  65 100 133 173 219 269 333 394
#     4  10  22  42  66  95 136 170 218 271 332 394
#     4  12  25  42  68  99 138 173 217 278 335 393
#     4  12  24  40  69  98 134 177 220 278 332 392
#     4  11  25  48  70  93 130 182 226 273 331 405
#     4  11  25  40  64 101 135 172 221 279 333 394
#     4  10  21  37  64 100 129 171 216 266 329 396
#
# _framework density 22.713688000000001
#
# number of rings (size 3 to 8) (size 9 to 14) (size 15 to 20)
#    0.000    1.000    2.500    4.125    3.500    1.500 
#    0.000    0.000    0.000    0.000    0.000    0.000 
#    0.000    0.000    0.000    0.000    0.000    0.000 
#
# Total GULP energy -198277.572396 kJ/mol
# GULP energy per Si atom -12392.348275 kJ/mol
# Density = 2.266199 g / cm^3
# Si number density = 22.713688 Si / 1000 Ang^3
#
#
#
# Elastic Constant Matrix: (Units=GPa)
#
#
# Indices 1 2 3 4 5 6 
#
# 1 51.3055 21.4443 40.0241 -14.2400 -22.3048 11.6690
# 2 21.4443 62.1531 30.6838 6.8703 -15.4186 14.5272
# 3 40.0241 30.6838 136.3318 27.6755 -29.3692 8.8701
# 4 -14.2400 6.8703 27.6755 27.9436 -0.6027 -3.8746
# 5 -22.3048 -15.4186 -29.3692 -0.6027 38.3492 0.6444
# 6 11.6690 14.5272 8.8701 -3.8746 0.6444 35.1954
#
#
#
# Elastic Compliance Matrix: (Units=1/GPa)
#
#
# Indices 1 2 3 4 5 6 
#
# 1 0.079038 -0.014833 -0.030850 0.074241 0.017622 -0.004457
# 2 -0.014833 0.024171 0.004110 -0.018623 0.004084 -0.008220
# 3 -0.030850 0.004110 0.024316 -0.041075 0.001722 -0.002150
# 4 0.074241 -0.018623 -0.041075 0.119912 0.006010 0.006515
# 5 0.017622 0.004084 0.001722 0.006010 0.039516 -0.008024
# 6 -0.004457 -0.008220 -0.002150 0.006515 -0.008024 0.034689
#
#
# Mechanical properties :
#
#
# Convention : Reuss Voigt Hill
#
# Bulk Modulus (GPa) = 22.53346 48.23276 35.38311
# Shear Modulus (GPa) = 11.91661 30.80686 21.36174
#
# Velocity S-wave (km/s) = 2.29300 3.68681 3.07005
# Velocity P-wave (km/s) = 4.11736 6.27731 5.30835
#
# Compressibility (1/GPa) = 0.04437846
#
# Stress axis : x y z
#
# Youngs Moduli (GPa) = 12.65214 41.37176 41.12486
#
# Poissons Ratio (x) = 0.61366 1.26871
# Poissons Ratio (y) = 0.18767 -0.16901
# Poissons Ratio (z) = 0.39032 -0.17002
#
# Static dielectric constant tensor:
#      x y z
#    x 4.211330 0.163750 -0.054440 
#    y 0.163750 3.984720 0.070780 
#    z -0.054440 0.070780 4.753890 
# 
# 
# High freq. dielectric constant tensor:
#      x y z
#    x 1.886500 0.016460 -0.012570 
#    y 0.016460 1.882370 0.008520 
#    z -0.012570 0.008520 1.917020 
# 
# From -- ./inp_files/245081.got.cif
#   From: 2010.06.25/outbox.cif.g09.slc.cpg/sg2_123_cif.got.tgz:245081.got - 2010.06.27 13:26:56.
