data_PCOD8010292
_publ_section_title
;
Structure prediction by ZEFSAII (Michael W. Deem and Ramdas Pophale) SiO2 
 PCOD8010292
Probable space group: P -1
;
_chemical_formula_sum "Si O2"
_cell_formula_units_Z 14
_cell_length_a 16.421632
_cell_length_b 7.636771
_cell_length_c 8.000712
_cell_angle_alpha 125.792350
_cell_angle_beta 51.979502
_cell_angle_gamma 100.963426
_cell_volume 618.034243
_symmetry_space_group_name_H-M "P -1"
_symmetry_group_IT_number 2
_symmetry_cell_setting 'triclinic'
loop_
_space_group_symop_operation_xyz
x,y,z
-x,-y,-z
loop_
_atom_site_type_symbol
_atom_site_label
_atom_site_fract_x
_atom_site_fract_y
_atom_site_fract_z
Si Si1 0.088796 0.903155 0.085995
Si Si2 0.626070 0.675357 0.220393
Si Si3 0.532721 0.929564 0.168336
Si Si4 0.133667 0.008876 0.447107
Si Si5 0.630577 0.182392 0.924913
Si Si6 0.080572 0.499824 0.648795
Si Si7 0.142483 0.327955 0.120900
O O1 0.959996 0.014231 0.320643
O O2 0.132625 0.861810 0.197873
O O3 0.141822 0.076193 0.024842
O O4 0.119520 0.678228 0.811927
O O5 0.606377 0.741095 0.087518
O O6 0.538177 0.851252 0.532213
O O7 0.609615 0.435826 0.155235
O O8 0.746673 0.678816 0.115549
O O9 0.452908 0.810068 0.112550
O O10 0.614319 0.011563 0.992198
O O11 0.115979 0.267751 0.571275
O O12 0.246396 0.910155 0.343262
O O13 0.131324 0.480290 0.387821
O O14 0.951572 0.566394 0.832268
#
# Coordination Sequence:
#
# PCOD8010292 Si02
#       7
#     2   2   2   2   2   2   2
#     4  10  21  38  58  86 135 163 201 254 300 370
#     4  11  24  43  69  93 127 165 209 267 319 372
#     4  10  24  46  66  96 122 160 220 264 320 376
#     4  10  23  37  60  95 122 164 209 246 310 383
#     4  11  24  43  69  93 127 165 209 267 319 372
#     4  10  21  38  58  86 135 163 201 254 300 370
#     4  10  23  37  60  95 122 164 209 246 310 383
#
# _framework density 22.652466
#
# number of rings (size 3 to 8) (size 9 to 14) (size 15 to 20)
#    0.000    1.714    0.000    3.429   10.000    2.286 
#    0.000    7.143    0.000    0.000    0.000    0.000 
#    0.000    0.000    0.000    0.000    0.000    0.000 
#
# Total GULP energy -173635.456165 kJ/mol
# GULP energy per Si atom -12402.532583 kJ/mol
# Density = 2.260091 g / cm^3
# Si number density = 22.652466 Si / 1000 Ang^3
#
#
#
# Elastic Constant Matrix: (Units=GPa)
#
#
# Indices 1 2 3 4 5 6 
#
# 1 2327.5867-1240.7843-2771.4730 1305.7746 158.4212 -595.3853
# 2 -1240.7843 765.2353 1567.8094 -701.9309 -85.1458 372.5251
# 3 -2771.4730 1567.8094 3495.9326-1586.5948 -200.9284 778.4412
# 4 1305.7746 -701.9309-1586.5948 775.3601 105.9096 -351.7896
# 5 158.4212 -85.1458 -200.9284 105.9096 58.0788 -41.1384
# 6 -595.3853 372.5251 778.4412 -351.7896 -41.1384 198.8911
#
#
#
# Elastic Compliance Matrix: (Units=1/GPa)
#
#
# Indices 1 2 3 4 5 6 
#
# 1 0.019820 0.012541 0.007441 -0.020671 0.007758 -0.028236
# 2 0.012541 0.033297 -0.003266 -0.016939 0.005209 -0.040926
# 3 0.007441 -0.003266 0.011502 0.002121 0.002016 -0.012459
# 4 -0.020671 -0.016939 0.002121 0.041894 -0.014362 0.032677
# 5 0.007758 0.005209 0.002016 -0.014362 0.026731 -0.014300
# 6 -0.028236 -0.040926 -0.012459 0.032677 -0.014300 0.100758
#
#
# Mechanical properties :
#
#
# Convention : Reuss Voigt Hill
#
# Bulk Modulus (GPa) = 10.19871 188.87322 99.53596
# Shear Modulus (GPa) = 21.43577 808.67948 415.05763
#
# Velocity S-wave (km/s) = 3.07952 18.91478 13.55088
# Velocity P-wave (km/s) = 4.14205 23.67668 16.99620
#
# Compressibility (1/GPa) = 0.09805166
#
# Stress axis : x y z
#
# Youngs Moduli (GPa) = 50.45300 30.03233 86.94085
#
# Poissons Ratio (x) = -0.37664 -0.64691
# Poissons Ratio (y) = -0.63273 0.28395
# Poissons Ratio (z) = -0.37541 0.09809
#
# Static dielectric constant tensor:
#      x y z
#    x 4.150370 0.078830 0.064380 
#    y 0.078830 4.009900 0.042080 
#    z 0.064380 0.042080 3.961170 
# 
# 
# High freq. dielectric constant tensor:
#      x y z
#    x 1.891820 0.006700 -0.003430 
#    y 0.006700 1.901190 0.008070 
#    z -0.003430 0.008070 1.883910 
# 
# From -- ./inp_files/296576.got.cif
#   From: 2010.06.25/outbox.cif.g09.slc.cpg/sg2_149_cif.got.tgz:296576.got - 2010.06.27 13:26:56.
