data_PCOD8010410
_publ_section_title
;
Structure prediction by ZEFSAII (Michael W. Deem and Ramdas Pophale) SiO2 
 PCOD8010410
Probable space group: P -1
;
_chemical_formula_sum "Si O2"
_cell_formula_units_Z 16
_cell_length_a 9.534957
_cell_length_b 12.030073
_cell_length_c 8.686285
_cell_angle_alpha 127.091908
_cell_angle_beta 89.132251
_cell_angle_gamma 106.049438
_cell_volume 748.713694
_symmetry_space_group_name_H-M "P -1"
_symmetry_group_IT_number 2
_symmetry_cell_setting 'triclinic'
loop_
_space_group_symop_operation_xyz
x,y,z
-x,-y,-z
loop_
_atom_site_type_symbol
_atom_site_label
_atom_site_fract_x
_atom_site_fract_y
_atom_site_fract_z
Si Si1 0.908023 0.912822 0.285371
Si Si2 0.901743 0.448974 0.221138
Si Si3 0.734251 0.588143 0.131830
Si Si4 0.454997 0.598800 0.289341
Si Si5 0.178896 0.886164 0.083248
Si Si6 0.746087 0.091405 0.243269
Si Si7 0.802189 0.432634 0.538745
Si Si8 0.534546 0.939000 0.605865
O O1 0.791005 0.755696 0.209132
O O2 0.016404 0.887452 0.131646
O O3 0.820519 0.012874 0.298232
O O4 0.000000 0.000000 0.500000
O O5 0.872481 0.549817 0.170041
O O6 0.844031 0.497657 0.422419
O O7 0.077045 0.474457 0.259267
O O8 0.814174 0.278509 0.042754
O O9 0.605537 0.558567 0.241632
O O10 0.660039 0.473164 0.904224
O O11 0.358087 0.550291 0.407147
O O12 0.506074 0.772334 0.424425
O O13 0.295085 0.986214 0.286314
O O14 0.221626 0.951379 0.965477
O O15 0.809256 0.267480 0.412415
O O16 0.569307 0.036263 0.234082
O O17 0.500000 0.000000 0.500000
#
# Coordination Sequence:
#
# PCOD8010410 Si02
#       8
#     2   2   2   2   2   2   2   2
#     4  12  24  39  60  88 118 152 194 241 293 343
#     4  10  21  38  60  87 115 149 190 236 288 343
#     4  11  23  38  58  85 118 150 191 238 285 341
#     4  10  22  39  56  83 116 152 192 233 284 340
#     4  11  23  39  61  87 117 154 194 239 291 344
#     4  10  22  40  61  86 118 154 193 238 287 346
#     4   9  20  39  61  84 114 150 191 233 284 346
#     4  11  21  38  62  87 118 153 194 240 288 344
#
# _framework density 21.369983999999999
#
# number of rings (size 3 to 8) (size 9 to 14) (size 15 to 20)
#    0.000    1.500    0.000    5.250    0.000    5.500 
#    0.000    3.750    0.000    0.000    0.000    0.000 
#    0.000    0.000    0.000    0.000    0.000    0.000 
#
# Total GULP energy -198375.719668 kJ/mol
# GULP energy per Si atom -12398.482479 kJ/mol
# Density = 2.132135 g / cm^3
# Si number density = 21.369984 Si / 1000 Ang^3
#
#
#
# Elastic Constant Matrix: (Units=GPa)
#
#
# Indices 1 2 3 4 5 6 
#
# 1 85.2760 14.7384 24.0727 3.0274 -1.2613 15.6934
# 2 14.7384 70.1057 16.7414 -0.3081 9.2480 0.0412
# 3 24.0727 16.7414 91.7558 9.2513 11.8575 5.6920
# 4 3.0274 -0.3081 9.2513 19.2137 7.7201 1.9901
# 5 -1.2613 9.2480 11.8575 7.7201 41.3394 -4.8336
# 6 15.6934 0.0412 5.6920 1.9901 -4.8336 37.9518
#
#
#
# Elastic Compliance Matrix: (Units=1/GPa)
#
#
# Indices 1 2 3 4 5 6 
#
# 1 0.013981 -0.002404 -0.003009 -0.000819 0.001383 -0.005108
# 2 -0.002404 0.015749 -0.002140 0.002978 -0.003457 0.000701
# 3 -0.003009 -0.002140 0.012926 -0.004686 -0.002536 -0.000769
# 4 -0.000819 0.002978 -0.004686 0.059175 -0.010800 -0.003440
# 5 0.001383 -0.003457 -0.002536 -0.010800 0.028214 0.003972
# 6 -0.005108 0.000701 -0.000769 -0.003440 0.003972 0.029262
#
#
# Mechanical properties :
#
#
# Convention : Reuss Voigt Hill
#
# Bulk Modulus (GPa) = 36.29550 39.80471 38.05011
# Shear Modulus (GPa) = 27.23360 32.47331 29.85345
#
# Velocity S-wave (km/s) = 3.57373 3.90240 3.74168
# Velocity P-wave (km/s) = 5.83523 6.24275 6.04242
#
# Compressibility (1/GPa) = 0.02755162
#
# Stress axis : x y z
#
# Youngs Moduli (GPa) = 71.52549 63.49507 77.36270
#
# Poissons Ratio (x) = 0.15263 0.23276
# Poissons Ratio (y) = 0.17193 0.16555
# Poissons Ratio (z) = 0.21519 0.13587
#
# Static dielectric constant tensor:
#      x y z
#    x 4.147810 0.393190 -0.174830 
#    y 0.393190 3.773970 -0.050380 
#    z -0.174830 -0.050380 3.900610 
# 
# 
# High freq. dielectric constant tensor:
#      x y z
#    x 1.846070 0.021010 -0.007100 
#    y 0.021010 1.830000 -0.000140 
#    z -0.007100 -0.000140 1.848040 
# 
# From -- ./inp_files/190837.got.cif
#   From: 2010.06.25/outbox.cif.g09.slc.cpg/sg2_96_cif.got.tgz:190837.got - 2010.06.27 13:26:56.
