data_PCOD8010033
_publ_section_title
;
Structure prediction by ZEFSAII (Michael W. Deem and Ramdas Pophale) SiO2 
 PCOD8010033
Probable space group: P -1
;
_chemical_formula_sum "Si O2"
_cell_formula_units_Z 16
_cell_length_a 8.850966
_cell_length_b 19.111235
_cell_length_c 17.985368
_cell_angle_alpha 26.183932
_cell_angle_beta 142.123261
_cell_angle_gamma 149.724255
_cell_volume 675.387283
_symmetry_space_group_name_H-M "P -1"
_symmetry_group_IT_number 2
_symmetry_cell_setting 'triclinic'
loop_
_space_group_symop_operation_xyz
x,y,z
-x,-y,-z
loop_
_atom_site_type_symbol
_atom_site_label
_atom_site_fract_x
_atom_site_fract_y
_atom_site_fract_z
Si Si1 0.624581 0.653269 0.967949
Si Si2 0.202164 0.440270 0.725601
Si Si3 0.398336 0.948370 0.131465
Si Si4 0.794327 0.928375 0.195714
Si Si5 0.797703 0.725408 0.618828
Si Si6 0.733717 0.218925 0.356856
Si Si7 0.687595 0.045327 0.299141
Si Si8 0.153955 0.750212 0.472001
O O1 0.390472 0.713224 0.820899
O O2 0.500000 0.500000 0.000000
O O3 0.633023 0.559300 0.136471
O O4 0.949141 0.851479 0.890458
O O5 0.467987 0.525746 0.686594
O O6 0.078826 0.577156 0.552096
O O7 0.927781 0.228534 0.796912
O O8 0.558685 0.855950 0.241729
O O9 0.563304 0.082894 0.139957
O O10 0.368216 0.078701 0.936743
O O11 0.898999 0.787509 0.354275
O O12 0.950517 0.736278 0.590217
O O13 0.016963 0.757270 0.742968
O O14 0.771336 0.902997 0.439642
O O15 0.792411 0.325360 0.357551
O O16 0.500000 0.000000 0.500000
O O17 0.445557 0.950958 0.362424
#
# Coordination Sequence:
#
# PCOD8010033 Si02
#       8
#     2   2   2   2   2   2   2   2
#     4  11  22  36  65  94 127 159 202 268 314 358
#     4  10  24  42  60  95 132 160 207 259 315 371
#     4  10  23  42  62  87 129 172 207 253 314 370
#     4  10  22  40  64  89 122 171 214 252 307 378
#     4  10  22  37  64  97 122 162 210 257 312 367
#     4  12  21  38  65  96 126 159 209 263 309 371
#     4  10  21  37  64  92 124 168 206 253 309 378
#     4  11  21  38  64  93 123 161 215 257 308 372
#
# _framework density 23.690110000000001
#
# number of rings (size 3 to 8) (size 9 to 14) (size 15 to 20)
#    0.000    1.500    3.750    0.750    1.750    3.500 
#    0.000    1.250    0.000    0.000    0.000    0.000 
#    0.000    0.000    0.000    0.000    0.000    0.000 
#
# Total GULP energy -198250.811779 kJ/mol
# GULP energy per Si atom -12390.675736 kJ/mol
# Density = 2.363619 g / cm^3
# Si number density = 23.690110 Si / 1000 Ang^3
#
#
#
# Elastic Constant Matrix: (Units=GPa)
#
#
# Indices 1 2 3 4 5 6 
#
# 1 118.0606 25.0957 26.9558 3.2869 -9.8211 28.3936
# 2 25.0957 66.1722 5.8907 8.5308 -13.4362 8.8603
# 3 26.9558 5.8907 70.9863 15.2016 6.1640 8.6852
# 4 3.2869 8.5308 15.2016 35.2209 2.2722 -5.5789
# 5 -9.8211 -13.4362 6.1640 2.2722 35.2342 2.0016
# 6 28.3936 8.8603 8.6852 -5.5789 2.0016 36.6120
#
#
#
# Elastic Compliance Matrix: (Units=1/GPa)
#
#
# Indices 1 2 3 4 5 6 
#
# 1 0.012083 -0.002361 -0.003581 -0.000546 0.003597 -0.008230
# 2 -0.002361 0.018637 0.000427 -0.005562 0.006960 -0.004008
# 3 -0.003581 0.000427 0.017618 -0.007553 -0.003290 -0.002477
# 4 -0.000546 -0.005562 -0.007553 0.034724 -0.003705 0.009055
# 5 0.003597 0.006960 -0.003290 -0.003705 0.033198 -0.006073
# 6 -0.008230 -0.004008 -0.002477 0.009055 -0.006073 0.036965
#
#
# Mechanical properties :
#
#
# Convention : Reuss Voigt Hill
#
# Bulk Modulus (GPa) = 26.80401 41.23372 34.01886
# Shear Modulus (GPa) = 28.29802 34.56523 31.43162
#
# Velocity S-wave (km/s) = 3.45991 3.82390 3.64645
# Velocity P-wave (km/s) = 5.22497 6.07779 5.66745
#
# Compressibility (1/GPa) = 0.03730785
#
# Stress axis : x y z
#
# Youngs Moduli (GPa) = 82.75750 53.65788 56.76071
#
# Poissons Ratio (x) = 0.12670 0.20326
# Poissons Ratio (y) = 0.19540 -0.02425
# Poissons Ratio (z) = 0.29636 -0.02292
#
# Static dielectric constant tensor:
#      x y z
#    x 4.400810 0.043140 -0.134780 
#    y 0.043140 4.324210 0.505590 
#    z -0.134780 0.505590 4.601270 
# 
# 
# High freq. dielectric constant tensor:
#      x y z
#    x 1.941450 0.007510 -0.005090 
#    y 0.007510 1.925690 0.023650 
#    z -0.005090 0.023650 1.928330 
# 
# From -- ./inp_files/562640.got.cif
#   From: 2010.06.25/outbox.cif.g09.slc.cpg/sg2_282_cif.got.tgz:562640.got - 2010.06.27 13:26:56.
