data_PCOD8010945
_publ_section_title
;
Structure prediction by ZEFSAII (Michael W. Deem and Ramdas Pophale) SiO2 
 PCOD8010945
Probable space group: P -1
;
_chemical_formula_sum "Si O2"
_cell_formula_units_Z 16
_cell_length_a 8.131024
_cell_length_b 13.622496
_cell_length_c 21.977254
_cell_angle_alpha 25.426269
_cell_angle_beta 51.472341
_cell_angle_gamma 47.303479
_cell_volume 767.730007
_symmetry_space_group_name_H-M "P -1"
_symmetry_group_IT_number 2
_symmetry_cell_setting 'triclinic'
loop_
_space_group_symop_operation_xyz
x,y,z
-x,-y,-z
loop_
_atom_site_type_symbol
_atom_site_label
_atom_site_fract_x
_atom_site_fract_y
_atom_site_fract_z
Si Si1 0.861831 0.844118 0.595683
Si Si2 0.722636 0.019875 0.408426
Si Si3 0.396301 0.057587 0.879428
Si Si4 0.668972 0.346540 0.714335
Si Si5 0.643091 0.559391 0.150289
Si Si6 0.965810 0.670150 0.097567
Si Si7 0.834312 0.949834 0.187049
Si Si8 0.382585 0.134041 0.598216
O O1 0.617081 0.959982 0.615352
O O2 0.950884 0.561526 0.748567
O O3 0.901559 0.863246 0.503591
O O4 0.000000 0.000000 0.500000
O O5 0.708188 0.299059 0.249101
O O6 0.791340 0.893207 0.397758
O O7 0.500000 0.000000 0.500000
O O8 0.587278 0.176721 0.782390
O O9 0.226137 0.118373 0.941157
O O10 0.260337 0.141669 0.800525
O O11 0.513727 0.764930 0.016292
O O12 0.503263 0.437112 0.758363
O O13 0.919995 0.223473 0.750870
O O14 0.647248 0.583727 0.546585
O O15 0.869289 0.603967 0.094202
O O16 0.161010 0.778546 0.977341
O O17 0.657253 0.965908 0.271785
#
# Coordination Sequence:
#
# PCOD8010945 Si02
#       8
#     2   2   2   2   2   2   2   2
#     4  11  21  41  66  94 119 164 217 261 311 373
#     4  10  21  38  65  90 123 163 209 261 313 365
#     4  11  24  40  69  96 123 169 216 265 312 373
#     4  11  21  45  66  91 130 161 213 271 314 372
#     4  11  19  42  67  95 123 162 218 271 309 371
#     4  11  22  39  66  95 130 162 216 264 313 381
#     4  12  26  41  62  97 131 172 209 255 325 381
#     4  11  26  43  60  93 133 167 209 262 316 384
#
# _framework density 20.84066
#
# number of rings (size 3 to 8) (size 9 to 14) (size 15 to 20)
#    0.000    1.000    6.250    2.250    5.250    1.000 
#    2.250    0.625    0.000    0.000    0.000    0.000 
#    0.000    0.000    0.000    0.000    0.000    0.000 
#
# Total GULP energy -198309.671309 kJ/mol
# GULP energy per Si atom -12394.354457 kJ/mol
# Density = 2.079323 g / cm^3
# Si number density = 20.840660 Si / 1000 Ang^3
#
#
#
# Elastic Constant Matrix: (Units=GPa)
#
#
# Indices 1 2 3 4 5 6 
#
# 1 117.9131 15.6759 35.6614 2.5396 -2.5962 14.0293
# 2 15.6759 33.5991 32.1900 4.7757 -5.9651 8.5425
# 3 35.6614 32.1900 144.4229 -16.9325 1.7435 9.5876
# 4 2.5396 4.7757 -16.9325 30.6788 -1.9191 7.6925
# 5 -2.5962 -5.9651 1.7435 -1.9191 29.7337 -8.0045
# 6 14.0293 8.5425 9.5876 7.6925 -8.0045 27.7572
#
#
#
# Elastic Compliance Matrix: (Units=1/GPa)
#
#
# Indices 1 2 3 4 5 6 
#
# 1 0.009715 -0.001858 -0.001809 -0.000621 -0.000447 -0.003671
# 2 -0.001858 0.044815 -0.010693 -0.011287 0.007701 -0.003811
# 3 -0.001809 -0.010693 0.010960 0.008371 -0.003163 -0.002813
# 4 -0.000621 -0.011287 0.008371 0.041731 -0.003240 -0.011603
# 5 -0.000447 0.007701 -0.003163 -0.003240 0.038025 0.010811
# 6 -0.003671 -0.003811 -0.002813 -0.011603 0.010811 0.046360
#
#
# Mechanical properties :
#
#
# Convention : Reuss Voigt Hill
#
# Bulk Modulus (GPa) = 27.19523 51.44330 39.31926
# Shear Modulus (GPa) = 21.49782 31.79447 26.64614
#
# Velocity S-wave (km/s) = 3.21523 3.91013 3.57958
# Velocity P-wave (km/s) = 5.18277 6.71738 5.99934
#
# Compressibility (1/GPa) = 0.03677116
#
# Stress axis : x y z
#
# Youngs Moduli (GPa) = 102.93334 22.31412 91.23745
#
# Poissons Ratio (x) = 0.04145 0.16500
# Poissons Ratio (y) = 0.19123 0.97562
# Poissons Ratio (z) = 0.18616 0.23861
#
# Static dielectric constant tensor:
#      x y z
#    x 4.415790 0.231740 -0.012540 
#    y 0.231740 3.435960 -0.090180 
#    z -0.012540 -0.090180 3.872250 
# 
# 
# High freq. dielectric constant tensor:
#      x y z
#    x 1.831360 0.007750 -0.000700 
#    y 0.007750 1.773390 -0.015140 
#    z -0.000700 -0.015140 1.830190 
# 
# From -- ./inp_files/218344.got.cif
#   From: 2010.06.25/outbox.cif.g09.slc.cpg/sg2_110_cif.got.tgz:218344.got - 2010.06.27 13:26:56.
