data_PCOD8010045
_publ_section_title
;
Structure prediction by ZEFSAII (Michael W. Deem and Ramdas Pophale) SiO2 
 PCOD8010045
Probable space group: P -1
;
_chemical_formula_sum "Si O2"
_cell_formula_units_Z 14
_cell_length_a 13.143263
_cell_length_b 13.684189
_cell_length_c 11.416106
_cell_angle_alpha 116.248393
_cell_angle_beta 34.958943
_cell_angle_gamma 140.088108
_cell_volume 650.663106
_symmetry_space_group_name_H-M "P -1"
_symmetry_group_IT_number 2
_symmetry_cell_setting 'triclinic'
loop_
_space_group_symop_operation_xyz
x,y,z
-x,-y,-z
loop_
_atom_site_type_symbol
_atom_site_label
_atom_site_fract_x
_atom_site_fract_y
_atom_site_fract_z
Si Si1 0.473924 0.627505 0.661747
Si Si2 0.114743 0.888534 0.258773
Si Si3 0.272136 0.320130 0.780668
Si Si4 0.285640 0.325859 0.034337
Si Si5 0.718731 0.923231 0.022108
Si Si6 0.356026 0.917821 0.467315
Si Si7 0.539472 0.130707 0.185564
O O1 0.234718 0.429237 0.834621
O O2 0.505653 0.628185 0.492176
O O3 0.373773 0.701430 0.819771
O O4 0.773172 0.740479 0.504514
O O5 0.241693 0.963670 0.308322
O O6 0.196529 0.809489 0.087046
O O7 0.259838 0.049595 0.123203
O O8 0.399568 0.374034 0.819290
O O9 0.969352 0.111745 0.951674
O O10 0.982643 0.239762 0.279534
O O11 0.500000 0.500000 0.000000
O O12 0.257242 0.191832 0.040233
O O13 0.423205 0.831074 0.302664
O O14 0.500000 0.000000 0.500000
O O15 0.477273 0.069735 0.346412
#
# Coordination Sequence:
#
# PCOD8010045 Si02
#       7
#     2   2   2   2   2   2   2
#     4  10  21  38  64  89 130 165 209 266 312 370
#     4   9  20  38  62  95 127 160 215 261 314 379
#     4  10  22  41  62  96 126 166 216 252 315 391
#     4  12  27  42  67  97 128 167 216 269 320 374
#     4  10  22  44  68  90 130 169 212 262 317 383
#     4  11  23  41  68  94 127 172 216 251 322 389
#     4  10  21  37  64  94 124 169 210 261 320 368
#
# _framework density 21.51651
#
# number of rings (size 3 to 8) (size 9 to 14) (size 15 to 20)
#    0.000    1.714    1.429    2.571    6.000    0.571 
#    0.000   14.286    0.000    0.000    0.000    0.000 
#    0.000    0.000    0.000    0.000    0.000    0.000 
#
# Total GULP energy -173606.914636 kJ/mol
# GULP energy per Si atom -12400.493903 kJ/mol
# Density = 2.146754 g / cm^3
# Si number density = 21.516510 Si / 1000 Ang^3
#
#
#
# Elastic Constant Matrix: (Units=GPa)
#
#
# Indices 1 2 3 4 5 6 
#
# 1 133.6476 71.0848 40.4724 7.8211 6.9034 0.1949
# 2 71.0848 148.5865 46.2810 4.7848 1.2018 -16.8860
# 3 40.4724 46.2810 66.7451 1.2821 -9.1631 -10.9100
# 4 7.8211 4.7848 1.2821 21.2084 2.9326 -5.1809
# 5 6.9034 1.2018 -9.1631 2.9326 28.1676 0.4230
# 6 0.1949 -16.8860 -10.9100 -5.1809 0.4230 29.7586
#
#
#
# Elastic Compliance Matrix: (Units=1/GPa)
#
#
# Indices 1 2 3 4 5 6 
#
# 1 0.011950 -0.004441 -0.005504 -0.003786 -0.004057 -0.005217
# 2 -0.004441 0.010630 -0.004034 0.000752 -0.000827 0.004725
# 3 -0.005504 -0.004034 0.023357 0.001899 0.008824 0.006515
# 4 -0.003786 0.000752 0.001899 0.051288 -0.003978 0.010134
# 5 -0.004057 -0.000827 0.008824 -0.003978 0.039793 0.001534
# 6 -0.005217 0.004725 0.006515 0.010134 0.001534 0.040450
#
#
# Mechanical properties :
#
#
# Convention : Reuss Voigt Hill
#
# Bulk Modulus (GPa) = 55.61823 73.85061 64.73442
# Shear Modulus (GPa) = 23.64971 28.56964 26.10968
#
# Velocity S-wave (km/s) = 3.31893 3.64785 3.48727
# Velocity P-wave (km/s) = 6.37121 7.22078 6.80926
#
# Compressibility (1/GPa) = 0.01797971
#
# Stress axis : x y z
#
# Youngs Moduli (GPa) = 83.68375 94.06898 42.81402
#
# Poissons Ratio (x) = 0.41773 0.23564
# Poissons Ratio (y) = 0.37162 0.17272
# Poissons Ratio (z) = 0.46059 0.37948
#
# Static dielectric constant tensor:
#      x y z
#    x 4.094310 -0.031210 0.094270 
#    y -0.031210 3.768200 0.215400 
#    z 0.094270 0.215400 3.792060 
# 
# 
# High freq. dielectric constant tensor:
#      x y z
#    x 1.856360 -0.001490 0.004840 
#    y -0.001490 1.833570 0.013750 
#    z 0.004840 0.013750 1.838630 
# 
# From -- ./inp_files/455774.got.cif
#   From: 2010.06.25/outbox.cif.g09.slc.cpg/sg2_228_cif.got.tgz:455774.got - 2010.06.27 13:26:56.
