data_PCOD8010890
_publ_section_title
;
Structure prediction by ZEFSAII (Michael W. Deem and Ramdas Pophale) SiO2 
 PCOD8010890
Probable space group: P -1
;
_chemical_formula_sum "Si O2"
_cell_formula_units_Z 16
_cell_length_a 10.101067
_cell_length_b 11.754515
_cell_length_c 13.133647
_cell_angle_alpha 145.670701
_cell_angle_beta 85.670351
_cell_angle_gamma 79.872818
_cell_volume 794.370215
_symmetry_space_group_name_H-M "P -1"
_symmetry_group_IT_number 2
_symmetry_cell_setting 'triclinic'
loop_
_space_group_symop_operation_xyz
x,y,z
-x,-y,-z
loop_
_atom_site_type_symbol
_atom_site_label
_atom_site_fract_x
_atom_site_fract_y
_atom_site_fract_z
Si Si1 0.832701 0.646106 0.637946
Si Si2 0.546562 0.563224 0.832912
Si Si3 0.838557 0.585351 0.825179
Si Si4 0.971136 0.918914 0.550907
Si Si5 0.369502 0.562242 0.480406
Si Si6 0.809135 0.964534 0.247409
Si Si7 0.316458 0.006075 0.270064
Si Si8 0.529881 0.102809 0.474833
O O1 0.808436 0.700503 0.800230
O O2 0.753757 0.490134 0.496769
O O3 0.767385 0.860445 0.727107
O O4 0.000000 0.500000 0.500000
O O5 0.703411 0.544280 0.850808
O O6 0.559064 0.599904 0.739407
O O7 0.518840 0.343731 0.685367
O O8 0.418878 0.760641 0.044000
O O9 0.975790 0.346130 0.640479
O O10 0.879380 0.746214 0.013142
O O11 0.057300 0.996713 0.685626
O O12 0.799172 0.019922 0.663696
O O13 0.000000 0.000000 0.500000
O O14 0.500000 0.500000 0.500000
O O15 0.300325 0.821783 0.651052
O O16 0.698636 0.938853 0.317039
O O17 0.414386 0.114746 0.400934
O O18 0.500000 0.000000 0.500000
#
# Coordination Sequence:
#
# PCOD8010890 Si02
#       8
#     2   2   2   2   2   2   2   2
#     4  11  21  42  64  94 139 171 208 269 327 390
#     4  10  23  41  65  99 131 167 221 265 326 384
#     4  11  23  43  70  94 133 179 212 263 337 392
#     4  12  26  47  67  93 136 174 217 275 329 389
#     4  10  21  38  64  94 133 169 211 263 320 391
#     4  11  22  44  64  96 129 176 219 259 335 390
#     4  12  25  41  68 104 130 170 224 273 324 386
#     4  11  23  42  68  96 131 172 225 279 318 378
#
# _framework density 20.141742000000001
#
# number of rings (size 3 to 8) (size 9 to 14) (size 15 to 20)
#    0.000    1.000    6.250    2.250    1.750    4.000 
#    2.250    1.250    0.000    0.000    0.000    0.000 
#    0.000    0.000    0.000    0.000    0.000    0.000 
#
# Total GULP energy -198305.236621 kJ/mol
# GULP energy per Si atom -12394.077289 kJ/mol
# Density = 2.009590 g / cm^3
# Si number density = 20.141742 Si / 1000 Ang^3
#
#
#
# Elastic Constant Matrix: (Units=GPa)
#
#
# Indices 1 2 3 4 5 6 
#
# 1 120.9565 17.7107 57.2656 -7.4926 -1.8164 14.5195
# 2 17.7107 86.5677 30.3888 1.3730 3.7852 12.5763
# 3 57.2656 30.3888 144.0370 -11.2418 9.3542 1.2613
# 4 -7.4926 1.3730 -11.2418 11.9533 2.1208 -2.8941
# 5 -1.8164 3.7852 9.3542 2.1208 34.5869 -6.7548
# 6 14.5195 12.5763 1.2613 -2.8941 -6.7548 38.3265
#
#
#
# Elastic Compliance Matrix: (Units=1/GPa)
#
#
# Indices 1 2 3 4 5 6 
#
# 1 0.010821 -0.000325 -0.004110 0.001934 0.000903 -0.003552
# 2 -0.000325 0.013535 -0.003034 -0.005562 -0.001287 -0.004865
# 3 -0.004110 -0.003034 0.010009 0.008229 -0.002630 0.002381
# 4 0.001934 -0.005562 0.008229 0.096017 -0.006034 0.007008
# 5 0.000903 -0.001287 -0.002630 -0.006034 0.031200 0.005210
# 6 -0.003552 -0.004865 0.002381 0.007008 0.005210 0.030403
#
#
# Mechanical properties :
#
#
# Convention : Reuss Voigt Hill
#
# Bulk Modulus (GPa) = 51.47827 62.47683 56.97755
# Shear Modulus (GPa) = 23.43050 33.38641 28.40845
#
# Velocity S-wave (km/s) = 3.41439 4.07575 3.75964
# Velocity P-wave (km/s) = 6.41542 7.29622 6.86995
#
# Compressibility (1/GPa) = 0.01942567
#
# Stress axis : x y z
#
# Youngs Moduli (GPa) = 92.41588 73.88519 99.90968
#
# Poissons Ratio (x) = 0.02402 0.41063
# Poissons Ratio (y) = 0.03005 0.30314
# Poissons Ratio (z) = 0.37983 0.22418
#
# Static dielectric constant tensor:
#      x y z
#    x 4.067950 0.224510 0.171470 
#    y 0.224510 3.866480 0.015310 
#    z 0.171470 0.015310 3.672130 
# 
# 
# High freq. dielectric constant tensor:
#      x y z
#    x 1.803530 0.009170 0.004360 
#    y 0.009170 1.786730 -0.004990 
#    z 0.004360 -0.004990 1.778320 
# 
# From -- ./inp_files/188020.got.cif
#   From: 2010.06.25/outbox.cif.g09.slc.cpg/sg2_95_cif.got.tgz:188020.got - 2010.06.27 13:26:56.
