data_PCOD8010661
_publ_section_title
;
Structure prediction by ZEFSAII (Michael W. Deem and Ramdas Pophale) SiO2 
 PCOD8010661
Probable space group: P -1
;
_chemical_formula_sum "Si O2"
_cell_formula_units_Z 14
_cell_length_a 10.125138
_cell_length_b 11.048483
_cell_length_c 14.016105
_cell_angle_alpha 64.144360
_cell_angle_beta 112.445122
_cell_angle_gamma 152.428550
_cell_volume 653.038676
_symmetry_space_group_name_H-M "P -1"
_symmetry_group_IT_number 2
_symmetry_cell_setting 'triclinic'
loop_
_space_group_symop_operation_xyz
x,y,z
-x,-y,-z
loop_
_atom_site_type_symbol
_atom_site_label
_atom_site_fract_x
_atom_site_fract_y
_atom_site_fract_z
Si Si1 0.129646 0.832330 0.166569
Si Si2 0.130877 0.086890 0.358417
Si Si3 0.281662 0.671718 0.294116
Si Si4 0.792280 0.282101 0.936442
Si Si5 0.692451 0.648237 0.229662
Si Si6 0.668715 0.757629 0.003081
Si Si7 0.125227 0.895466 0.594174
O O1 0.245967 0.800115 0.271329
O O2 0.873087 0.690126 0.201874
O O3 0.045118 0.706253 0.080516
O O4 0.385696 0.147347 0.102423
O O5 0.415443 0.339909 0.289735
O O6 0.087682 0.181989 0.379535
O O7 0.171682 0.988560 0.468584
O O8 0.863107 0.843941 0.299305
O O9 0.280765 0.661066 0.181506
O O10 0.018848 0.368219 0.364403
O O11 0.575579 0.859712 0.353341
O O12 0.000000 0.500000 0.000000
O O13 0.500000 0.000000 0.000000
O O14 0.602513 0.701458 0.118375
O O15 0.500000 0.500000 0.000000
O O16 0.000000 0.000000 0.000000
#
# Coordination Sequence:
#
# PCOD8010661 Si02
#       7
#     2   2   2   2   2   2   2
#     4   9  24  41  65  96 141 160 212 268 320 395
#     4  11  25  41  70  88 128 163 231 271 316 381
#     4  10  23  40  69  90 137 166 206 271 329 376
#     4  10  22  38  61  93 129 173 206 248 313 385
#     4  11  22  42  64  98 122 175 209 271 327 374
#     4  10  21  38  62  91 130 171 204 247 317 385
#     4  11  23  46  62  96 121 174 216 277 319 375
#
# _framework density 21.43824
#
# number of rings (size 3 to 8) (size 9 to 14) (size 15 to 20)
#    0.857    0.857    0.000    4.286    0.000   12.571 
#    0.000    4.286    0.000    0.000    0.000    0.000 
#    0.000    0.000    0.000    0.000    0.000    0.000 
#
# Total GULP energy -173462.321123 kJ/mol
# GULP energy per Si atom -12390.165794 kJ/mol
# Density = 2.138945 g / cm^3
# Si number density = 21.438240 Si / 1000 Ang^3
#
#
#
# Elastic Constant Matrix: (Units=GPa)
#
#
# Indices 1 2 3 4 5 6 
#
# 1 48.6947 -0.8829 3.5883 -11.8742 -2.4875 -13.5158
# 2 -0.8829 135.8883 49.1122 -7.6747 14.3340 -9.7284
# 3 3.5883 49.1122 135.3467 -18.2815 20.0610 -6.3844
# 4 -11.8742 -7.6747 -18.2815 46.5201 -2.5208 1.5870
# 5 -2.4875 14.3340 20.0610 -2.5208 31.9357 -8.0572
# 6 -13.5158 -9.7284 -6.3844 1.5870 -8.0572 32.1518
#
#
#
# Elastic Compliance Matrix: (Units=1/GPa)
#
#
# Indices 1 2 3 4 5 6 
#
# 1 0.025789 0.000972 -0.000389 0.006469 0.005377 0.012086
# 2 0.000972 0.008713 -0.002807 0.000429 -0.001511 0.002088
# 3 -0.000389 -0.002807 0.009474 0.002926 -0.004599 -0.000429
# 4 0.006469 0.000429 0.002926 0.024339 0.001021 0.002485
# 5 0.005377 -0.001511 -0.004599 0.001021 0.037994 0.010361
# 6 0.012086 0.002088 -0.000429 0.002485 0.010361 0.039203
#
#
# Mechanical properties :
#
#
# Convention : Reuss Voigt Hill
#
# Bulk Modulus (GPa) = 25.29927 47.06277 36.18102
# Shear Modulus (GPa) = 30.64925 39.99566 35.32245
#
# Velocity S-wave (km/s) = 3.78518 4.32397 4.06351
# Velocity P-wave (km/s) = 5.56148 6.85050 6.23937
#
# Compressibility (1/GPa) = 0.03952683
#
# Stress axis : x y z
#
# Youngs Moduli (GPa) = 38.77588 114.77297 105.55303
#
# Poissons Ratio (x) = -0.11153 0.04110
# Poissons Ratio (y) = -0.03768 0.29627
# Poissons Ratio (z) = 0.01510 0.32215
#
# Static dielectric constant tensor:
#      x y z
#    x 3.787260 -0.168980 0.241340 
#    y -0.168980 3.777920 -0.209510 
#    z 0.241340 -0.209510 4.377120 
# 
# 
# High freq. dielectric constant tensor:
#      x y z
#    x 1.822500 -0.005210 0.004880 
#    y -0.005210 1.850490 -0.012790 
#    z 0.004880 -0.012790 1.853270 
# 
# From -- ./inp_files/518904.got.cif
#   From: 2010.06.25/outbox.cif.g09.slc.cpg/sg2_260_cif.got.tgz:518904.got - 2010.06.27 13:26:56.
