data_PCOD8010285
_publ_section_title
;
Structure prediction by ZEFSAII (Michael W. Deem and Ramdas Pophale) SiO2 
 PCOD8010285
Probable space group: P -1
;
_chemical_formula_sum "Si O2"
_cell_formula_units_Z 12
_cell_length_a 11.976179
_cell_length_b 9.070379
_cell_length_c 12.381788
_cell_angle_alpha 80.215245
_cell_angle_beta 118.961647
_cell_angle_gamma 48.342197
_cell_volume 579.213725
_symmetry_space_group_name_H-M "P -1"
_symmetry_group_IT_number 2
_symmetry_cell_setting 'triclinic'
loop_
_space_group_symop_operation_xyz
x,y,z
-x,-y,-z
loop_
_atom_site_type_symbol
_atom_site_label
_atom_site_fract_x
_atom_site_fract_y
_atom_site_fract_z
Si Si1 0.001216 0.850157 0.755974
Si Si2 0.636093 0.068476 0.984887
Si Si3 0.270121 0.691464 0.717465
Si Si4 0.094044 0.813617 0.169336
Si Si5 0.595132 0.788330 0.917836
Si Si6 0.563306 0.217867 0.347200
O O1 0.220157 0.733881 0.817703
O O2 0.834216 0.128666 0.718362
O O3 0.829029 0.949030 0.569486
O O4 0.140313 0.574689 0.918416
O O5 0.395807 0.404019 0.780356
O O6 0.666745 0.888566 0.951075
O O7 0.590840 0.074813 0.089077
O O8 0.890366 0.907595 0.113053
O O9 0.461963 0.625590 0.775749
O O10 0.000000 0.000000 0.500000
O O11 0.340467 0.464231 0.299840
O O12 0.000000 0.000000 0.000000
O O13 0.460990 0.906683 0.722106
#
# Coordination Sequence:
#
# PCOD8010285 Si02
#       6
#     2   2   2   2   2   2
#     4  10  21  38  58  85 116 148 196 235 277 337
#     4  10  21  38  60  85 115 153 188 233 287 338
#     4   9  18  35  59  85 109 146 193 238 273 325
#     4  12  21  36  60  86 115 151 189 237 286 332
#     4  10  21  40  61  81 117 154 188 232 284 340
#     4  11  21  37  60  87 114 151 191 236 285 334
#
# _framework density 20.717741
#
# number of rings (size 3 to 8) (size 9 to 14) (size 15 to 20)
#    0.000    1.667    3.333    1.500    0.000    3.333 
#    0.000   17.500    0.000    0.000    0.000    0.000 
#    0.000    0.000    0.000    0.000    0.000    0.000 
#
# Total GULP energy -148717.221720 kJ/mol
# GULP energy per Si atom -12393.101810 kJ/mol
# Density = 2.067059 g / cm^3
# Si number density = 20.717741 Si / 1000 Ang^3
#
#
#
# Elastic Constant Matrix: (Units=GPa)
#
#
# Indices 1 2 3 4 5 6 
#
# 1 51.4201 28.5664 19.3453 -5.2677 8.6797 4.1609
# 2 28.5664 141.5847 37.2728 15.8509 13.1984 8.1377
# 3 19.3453 37.2728 68.9127 13.7670 8.5271 3.0359
# 4 -5.2677 15.8509 13.7670 39.3154 -0.1343 5.4221
# 5 8.6797 13.1984 8.5271 -0.1343 19.7384 -2.8701
# 6 4.1609 8.1377 3.0359 5.4221 -2.8701 26.7607
#
#
#
# Elastic Compliance Matrix: (Units=1/GPa)
#
#
# Indices 1 2 3 4 5 6 
#
# 1 0.025987 -0.003651 -0.005752 0.007575 -0.007115 -0.004576
# 2 -0.003651 0.009340 -0.002895 -0.003015 -0.003660 -0.001726
# 3 -0.005752 -0.002895 0.019453 -0.006492 -0.003915 0.000463
# 4 0.007575 -0.003015 -0.006492 0.030722 0.000877 -0.005655
# 5 -0.007115 -0.003660 -0.003915 0.000877 0.059222 0.008838
# 6 -0.004576 -0.001726 0.000463 -0.005655 0.008838 0.040646
#
#
# Mechanical properties :
#
#
# Convention : Reuss Voigt Hill
#
# Bulk Modulus (GPa) = 33.13030 48.03184 40.58107
# Shear Modulus (GPa) = 22.72460 28.94510 25.83485
#
# Velocity S-wave (km/s) = 3.31549 3.74186 3.53511
# Velocity P-wave (km/s) = 5.53919 6.47325 6.02435
#
# Compressibility (1/GPa) = 0.03018385
#
# Stress axis : x y z
#
# Youngs Moduli (GPa) = 38.48069 107.06990 51.40642
#
# Poissons Ratio (x) = 0.39088 0.29568
# Poissons Ratio (y) = 0.14048 0.14884
# Poissons Ratio (z) = 0.22133 0.31001
#
# Static dielectric constant tensor:
#      x y z
#    x 4.012620 -0.178680 -0.015880 
#    y -0.178680 4.034060 -0.059750 
#    z -0.015880 -0.059750 3.475340 
# 
# 
# High freq. dielectric constant tensor:
#      x y z
#    x 1.799580 -0.010140 0.003260 
#    y -0.010140 1.817970 0.000290 
#    z 0.003260 0.000290 1.796140 
# 
# From -- ./inp_files/151501.got.cif
#   From: 2010.06.25/outbox.cif.g09.slc.cpg/sg2_76_cif.got.tgz:151501.got - 2010.06.27 13:26:56.
