data_PCOD8010656
_publ_section_title
;
Structure prediction by ZEFSAII (Michael W. Deem and Ramdas Pophale) SiO2 
 PCOD8010656
Probable space group: P -1
;
_chemical_formula_sum "Si O2"
_cell_formula_units_Z 14
_cell_length_a 9.138349
_cell_length_b 9.041147
_cell_length_c 17.037538
_cell_angle_alpha 149.999217
_cell_angle_beta 62.422362
_cell_angle_gamma 117.013702
_cell_volume 619.354596
_symmetry_space_group_name_H-M "P -1"
_symmetry_group_IT_number 2
_symmetry_cell_setting 'triclinic'
loop_
_space_group_symop_operation_xyz
x,y,z
-x,-y,-z
loop_
_atom_site_type_symbol
_atom_site_label
_atom_site_fract_x
_atom_site_fract_y
_atom_site_fract_z
Si Si1 0.900504 0.534010 0.815851
Si Si2 0.887950 0.753194 0.634659
Si Si3 0.530613 0.419354 0.543968
Si Si4 0.643267 0.462380 0.207118
Si Si5 0.107371 0.957385 0.071979
Si Si6 0.606329 0.231537 0.690511
Si Si7 0.901016 0.941450 0.406176
O O1 0.704199 0.403499 0.818887
O O2 0.016351 0.265644 0.644152
O O3 0.908746 0.742777 0.833673
O O4 0.966739 0.705335 0.956838
O O5 0.702165 0.592649 0.608740
O O6 0.000000 0.500000 0.500000
O O7 0.922391 0.991345 0.805638
O O8 0.937069 0.908649 0.611417
O O9 0.500000 0.500000 0.500000
O O10 0.393134 0.526941 0.685407
O O11 0.519867 0.058007 0.388225
O O12 0.485632 0.532092 0.227093
O O13 0.795113 0.716987 0.268515
O O14 0.706352 0.143274 0.027535
O O15 0.768762 0.157071 0.566879
#
# Coordination Sequence:
#
# PCOD8010656 Si02
#       7
#     2   2   2   2   2   2   2
#     4  10  21  38  62  91 125 164 205 255 306 370
#     4  12  24  41  65  93 125 163 212 264 309 370
#     4  11  24  40  63  96 129 163 209 262 310 363
#     4  10  22  42  64  90 130 171 207 253 314 381
#     4  10  24  42  63  93 126 168 213 255 314 374
#     4  11  21  41  67  95 126 166 210 253 315 375
#     4  10  21  39  64  93 125 166 212 256 309 371
#
# _framework density 22.604175000000001
#
# number of rings (size 3 to 8) (size 9 to 14) (size 15 to 20)
#    0.000    1.429    0.000    6.429    0.000   11.429 
#    0.000    1.429    0.000    6.857    0.000    0.000 
#    0.000    0.000    0.000    0.000    0.000    0.000 
#
# Total GULP energy -173475.905307 kJ/mol
# GULP energy per Si atom -12391.136093 kJ/mol
# Density = 2.255273 g / cm^3
# Si number density = 22.604175 Si / 1000 Ang^3
#
#
#
# Elastic Constant Matrix: (Units=GPa)
#
#
# Indices 1 2 3 4 5 6 
#
# 1 150.9620 44.2980 57.1883 9.3924 -9.9237 -8.8900
# 2 44.2980 114.3349 49.2232 3.4174 0.6875 -1.3613
# 3 57.1883 49.2232 114.0273 5.9422 -20.8156 -13.4668
# 4 9.3924 3.4174 5.9422 25.6991 -2.1612 5.4168
# 5 -9.9237 0.6875 -20.8156 -2.1612 41.2619 12.9409
# 6 -8.8900 -1.3613 -13.4668 5.4168 12.9409 39.3506
#
#
#
# Elastic Compliance Matrix: (Units=1/GPa)
#
#
# Indices 1 2 3 4 5 6 
#
# 1 0.008618 -0.001844 -0.003276 -0.002379 -0.000017 0.001095
# 2 -0.001844 0.011448 -0.004606 0.000140 -0.002725 -0.000720
# 3 -0.003276 -0.004606 0.013727 -0.001368 0.005455 0.002193
# 4 -0.002379 0.000140 -0.001368 0.042034 0.003418 -0.007911
# 5 -0.000017 -0.002725 0.005455 0.003418 0.029882 -0.008529
# 6 0.001095 -0.000720 0.002193 -0.007911 -0.008529 0.030279
#
#
# Mechanical properties :
#
#
# Convention : Reuss Voigt Hill
#
# Bulk Modulus (GPa) = 69.73754 75.63814 72.68784
# Shear Modulus (GPa) = 31.20685 36.50329 33.85507
#
# Velocity S-wave (km/s) = 3.71965 4.02293 3.87426
# Velocity P-wave (km/s) = 7.02611 7.42383 7.22771
#
# Compressibility (1/GPa) = 0.01433948
#
# Stress axis : x y z
#
# Youngs Moduli (GPa) = 116.04038 87.35448 72.84812
#
# Poissons Ratio (x) = 0.16111 0.23863
# Poissons Ratio (y) = 0.21402 0.33557
# Poissons Ratio (z) = 0.38011 0.40240
#
# Static dielectric constant tensor:
#      x y z
#    x 4.335440 0.221970 0.068480 
#    y 0.221970 3.205850 0.664150 
#    z 0.068480 0.664150 4.118430 
# 
# 
# High freq. dielectric constant tensor:
#      x y z
#    x 1.920220 0.002730 0.008270 
#    y 0.002730 1.865480 0.027960 
#    z 0.008270 0.027960 1.892750 
# 
# From -- ./inp_files/189944.got.cif
#   From: 2010.06.25/outbox.cif.g09.slc.cpg/sg2_95_cif.got.tgz:189944.got - 2010.06.27 13:26:56.
