data_PCOD8010245
_publ_section_title
;
Structure prediction by ZEFSAII (Michael W. Deem and Ramdas Pophale) SiO2 
 PCOD8010245
Probable space group: P -1
;
_chemical_formula_sum "Si O2"
_cell_formula_units_Z 16
_cell_length_a 20.127178
_cell_length_b 19.707256
_cell_length_c 5.396968
_cell_angle_alpha 114.591786
_cell_angle_beta 69.555727
_cell_angle_gamma 162.466747
_cell_volume 577.523070
_symmetry_space_group_name_H-M "P -1"
_symmetry_group_IT_number 2
_symmetry_cell_setting 'triclinic'
loop_
_space_group_symop_operation_xyz
x,y,z
-x,-y,-z
loop_
_atom_site_type_symbol
_atom_site_label
_atom_site_fract_x
_atom_site_fract_y
_atom_site_fract_z
Si Si1 0.751974 0.222675 0.306986
Si Si2 0.742591 0.444310 0.247427
Si Si3 0.640588 0.561324 0.201437
Si Si4 0.743430 0.044247 0.148056
Si Si5 0.759134 0.998166 0.560530
Si Si6 0.248840 0.717733 0.101821
Si Si7 0.762150 0.525774 0.849707
Si Si8 0.631520 0.710964 0.355769
O O1 0.744728 0.134111 0.304588
O O2 0.862088 0.386904 0.630497
O O3 0.499016 0.999238 0.250406
O O4 0.863234 0.340968 0.060395
O O5 0.640480 0.388565 0.533220
O O6 0.999014 0.724294 0.330901
O O7 0.736256 0.349293 0.137680
O O8 0.629700 0.353230 0.988522
O O9 0.763497 0.765446 0.333175
O O10 0.552048 0.461078 0.445868
O O11 0.796255 0.647504 0.050850
O O12 0.452531 0.377735 0.953250
O O13 0.637087 0.894694 0.298611
O O14 0.996719 0.269751 0.159969
O O15 0.627751 0.907371 0.824011
O O16 0.791021 0.942349 0.495519
#
# Coordination Sequence:
#
# PCOD8010245 Si02
#       8
#     2   2   2   2   2   2   2   2
#     4  10  21  38  59  84 115 152 194 242 294 347
#     4  10  21  38  58  85 120 154 195 239 291 354
#     4  10  21  38  61  88 118 154 196 242 291 345
#     4  10  21  38  58  85 120 154 195 239 291 354
#     4  10  21  38  56  85 120 154 194 237 292 350
#     4  10  21  38  59  84 115 152 194 242 294 347
#     4  10  21  38  56  85 120 154 194 237 292 350
#     4  10  21  38  61  88 118 154 196 242 291 345
#
# _framework density 27.704522999999998
#
# number of rings (size 3 to 8) (size 9 to 14) (size 15 to 20)
#    0.000    2.000    0.000    3.000    0.000    3.000 
#    0.000   20.000    0.000    0.000    0.000    0.000 
#    0.000    0.000    0.000    0.000    0.000    0.000 
#
# Total GULP energy -198341.345440 kJ/mol
# GULP energy per Si atom -12396.334090 kJ/mol
# Density = 2.764147 g / cm^3
# Si number density = 27.704523 Si / 1000 Ang^3
#
#
#
# Elastic Constant Matrix: (Units=GPa)
#
#
# Indices 1 2 3 4 5 6 
#
# 1 182.7756 36.1242 88.5715 -3.9584 -4.8167 -28.4802
# 2 36.1242 107.1582 66.4294 -23.5865 17.6323 -26.2704
# 3 88.5715 66.4294 234.2636 -23.9546 21.3507 -21.6083
# 4 -3.9584 -23.5865 -23.9546 52.3282 -6.2984 0.1050
# 5 -4.8167 17.6323 21.3507 -6.2984 73.6800 6.2234
# 6 -28.4802 -26.2704 -21.6083 0.1050 6.2234 57.2132
#
#
#
# Elastic Compliance Matrix: (Units=1/GPa)
#
#
# Indices 1 2 3 4 5 6 
#
# 1 0.007169 -0.000686 -0.002494 -0.000780 0.001104 0.002193
# 2 -0.000686 0.013899 -0.002450 0.004754 -0.002711 0.005401
# 3 -0.002494 -0.002450 0.006171 0.001381 -0.001255 0.000098
# 4 -0.000780 0.004754 0.001381 0.021832 0.000086 0.002266
# 5 0.001104 -0.002711 -0.001255 0.000086 0.014900 -0.002790
# 6 0.002193 0.005401 0.000098 0.002266 -0.002790 0.021386
#
#
# Mechanical properties :
#
#
# Convention : Reuss Voigt Hill
#
# Bulk Modulus (GPa) = 62.58770 100.71640 81.65205
# Shear Modulus (GPa) = 49.04591 58.84910 53.94750
#
# Velocity S-wave (km/s) = 4.21208 4.61387 4.41755
# Velocity P-wave (km/s) = 6.80410 8.05087 7.45360
#
# Compressibility (1/GPa) = 0.01597758
#
# Stress axis : x y z
#
# Youngs Moduli (GPa) = 139.48195 71.94780 162.04509
#
# Poissons Ratio (x) = 0.04939 0.40415
# Poissons Ratio (y) = 0.09575 0.39707
# Poissons Ratio (z) = 0.34788 0.17630
#
# Static dielectric constant tensor:
#      x y z
#    x 6.241580 -1.752980 2.744480 
#    y -1.752980 5.299850 -3.517030 
#    z 2.744480 -3.517030 11.414700 
# 
# 
# High freq. dielectric constant tensor:
#      x y z
#    x 2.123820 0.011230 0.033880 
#    y 0.011230 2.162010 -0.011430 
#    z 0.033880 -0.011430 2.167360 
# 
# From -- ./inp_files/111530.got.cif
#   From: 2010.06.25/outbox.cif.g09.slc.cpg/sg2_56_cif.got.tgz:111530.got - 2010.06.27 13:26:56.
