data_PCOD8010058
_publ_section_title
;
Structure prediction by ZEFSAII (Michael W. Deem and Ramdas Pophale) SiO2 
 PCOD8010058
Probable space group: P -1
;
_chemical_formula_sum "Si O2"
_cell_formula_units_Z 16
_cell_length_a 9.803277
_cell_length_b 11.682513
_cell_length_c 13.071945
_cell_angle_alpha 87.195234
_cell_angle_beta 138.585732
_cell_angle_gamma 65.192727
_cell_volume 715.407613
_symmetry_space_group_name_H-M "P -1"
_symmetry_group_IT_number 2
_symmetry_cell_setting 'triclinic'
loop_
_space_group_symop_operation_xyz
x,y,z
-x,-y,-z
loop_
_atom_site_type_symbol
_atom_site_label
_atom_site_fract_x
_atom_site_fract_y
_atom_site_fract_z
Si Si1 0.259710 0.673486 0.676603
Si Si2 0.580005 0.326508 0.823404
Si Si3 0.609829 0.832479 0.596311
Si Si4 0.181811 0.135789 0.097588
Si Si5 0.750311 0.832479 0.096312
Si Si6 0.700736 0.768746 0.431699
Si Si7 0.393907 0.768751 0.931695
Si Si8 0.877575 0.135791 0.597584
O O1 0.461862 0.499997 0.750010
O O2 0.399858 0.660156 0.862260
O O3 0.239990 0.788923 0.584078
O O4 0.942527 0.746928 0.511198
O O5 0.335504 0.339845 0.637740
O O6 0.667082 0.253052 0.988811
O O7 0.860766 0.211074 0.915924
O O8 0.794989 0.773361 0.806582
O O9 0.788359 0.719689 0.603008
O O10 0.358313 0.838678 0.470784
O O11 0.500000 0.000000 0.500000
O O12 0.399136 0.949153 0.247756
O O13 0.255428 0.161323 0.029217
O O14 0.044812 0.773359 0.306583
O O15 0.697961 0.719690 0.103007
O O16 0.500000 0.000000 0.000000
O O17 0.147221 0.949155 0.747750
#
# Coordination Sequence:
#
# PCOD8010058 Si02
#       8
#     2   2   2   2   2   2   2   2
#     4  12  25  41  63  97 133 168 210 267 324 372
#     4  12  25  41  63  97 133 168 210 267 324 372
#     4  10  21  37  64  96 122 160 214 266 309 365
#     4  11  21  40  64  93 125 167 216 261 312 382
#     4  10  21  37  64  96 122 160 214 266 309 365
#     4  11  21  40  65  92 127 173 218 260 310 383
#     4  11  21  40  65  92 127 173 218 260 310 383
#     4  11  21  40  64  93 125 167 216 261 312 382
#
# _framework density 22.364872999999999
#
# number of rings (size 3 to 8) (size 9 to 14) (size 15 to 20)
#    0.000    1.000    0.000   10.500    0.000    0.000 
#    0.000    6.250    0.000    0.000    0.000    0.000 
#    0.000    0.000    0.000    0.000    0.000    0.000 
#
# Total GULP energy -198413.393709 kJ/mol
# GULP energy per Si atom -12400.837107 kJ/mol
# Density = 2.231397 g / cm^3
# Si number density = 22.364873 Si / 1000 Ang^3
#
#
#
# Elastic Constant Matrix: (Units=GPa)
#
#
# Indices 1 2 3 4 5 6 
#
# 1 131.2950 14.1952 27.2800 -8.4425 1.1518 -2.6556
# 2 14.1952 77.2535 23.4692 6.4186 -1.5780 0.0099
# 3 27.2800 23.4692 58.1731 13.8116 -1.4617 -1.1354
# 4 -8.4425 6.4186 13.8116 32.5066 -0.6225 -0.1733
# 5 1.1518 -1.5780 -1.4617 -0.6225 44.0461 16.5916
# 6 -2.6556 0.0099 -1.1354 -0.1733 16.5916 33.4780
#
#
#
# Elastic Compliance Matrix: (Units=1/GPa)
#
#
# Indices 1 2 3 4 5 6 
#
# 1 0.009063 -0.000501 -0.005147 0.004631 -0.000706 0.000918
# 2 -0.000501 0.014796 -0.005570 -0.000677 0.000538 -0.000503
# 3 -0.005147 -0.005570 0.024380 -0.010584 0.000562 0.000087
# 4 0.004631 -0.000677 -0.010584 0.036597 -0.000066 0.000231
# 5 -0.000706 0.000538 0.000562 -0.000066 0.028000 -0.013914
# 6 0.000918 -0.000503 0.000087 0.000231 -0.013914 0.036843
#
#
# Mechanical properties :
#
#
# Convention : Reuss Voigt Hill
#
# Bulk Modulus (GPa) = 38.75580 44.06782 41.41181
# Shear Modulus (GPa) = 27.66796 35.45795 31.56296
#
# Velocity S-wave (km/s) = 3.52108 3.98607 3.76077
# Velocity P-wave (km/s) = 5.82213 6.39779 6.11674
#
# Compressibility (1/GPa) = 0.02580259
#
# Stress axis : x y z
#
# Youngs Moduli (GPa) = 110.34392 67.58660 41.01792
#
# Poissons Ratio (x) = 0.03385 0.21112
# Poissons Ratio (y) = 0.05527 0.22846
# Poissons Ratio (z) = 0.56795 0.37644
#
# Static dielectric constant tensor:
#      x y z
#    x 4.244880 0.016410 0.041790 
#    y 0.016410 4.109510 0.608180 
#    z 0.041790 0.608180 4.172410 
# 
# 
# High freq. dielectric constant tensor:
#      x y z
#    x 1.897670 -0.000630 0.001430 
#    y -0.000630 1.868220 0.035710 
#    z 0.001430 0.035710 1.869730 
# 
# From -- ./inp_files/392640.got.cif
#   From: 2010.06.25/outbox.cif.g09.slc.cpg/sg2_197_cif.got.tgz:392640.got - 2010.06.27 13:26:56.
