data_PCOD8010536
_publ_section_title
;
Structure prediction by ZEFSAII (Michael W. Deem and Ramdas Pophale) SiO2 
 PCOD8010536
Probable space group: P -1
;
_chemical_formula_sum "Si O2"
_cell_formula_units_Z 16
_cell_length_a 19.071850
_cell_length_b 8.136473
_cell_length_c 8.063386
_cell_angle_alpha 83.519182
_cell_angle_beta 143.745841
_cell_angle_gamma 98.997780
_cell_volume 730.659905
_symmetry_space_group_name_H-M "P -1"
_symmetry_group_IT_number 2
_symmetry_cell_setting 'triclinic'
loop_
_space_group_symop_operation_xyz
x,y,z
-x,-y,-z
loop_
_atom_site_type_symbol
_atom_site_label
_atom_site_fract_x
_atom_site_fract_y
_atom_site_fract_z
Si Si1 0.326088 0.281257 0.468698
Si Si2 0.919717 0.703979 0.126690
Si Si3 0.367802 0.538994 0.265314
Si Si4 0.099019 0.878378 0.220772
Si Si5 0.815740 0.703319 0.262991
Si Si6 0.531092 0.121409 0.694590
Si Si7 0.974285 0.392103 0.123579
Si Si8 0.686828 0.917398 0.226744
O O1 0.335601 0.475759 0.401547
O O2 0.409479 0.188070 0.516107
O O3 0.360485 0.245120 0.730121
O O4 0.185332 0.216883 0.184270
O O5 0.909570 0.763964 0.289669
O O6 0.905822 0.498599 0.114477
O O7 0.050254 0.761832 0.296281
O O8 0.500000 0.500000 0.500000
O O9 0.369368 0.734613 0.204104
O O10 0.281329 0.437895 0.979159
O O11 0.229057 0.962588 0.506085
O O12 0.105335 0.776938 0.070139
O O13 0.000000 0.000000 0.000000
O O14 0.751321 0.856532 0.193424
O O15 0.893701 0.639785 0.564948
O O16 0.500000 0.000000 0.500000
O O17 0.581806 0.021715 0.955816
O O18 0.000000 0.500000 0.000000
#
# Coordination Sequence:
#
# PCOD8010536 Si02
#       8
#     2   2   2   2   2   2   2   2
#     4  10  21  44  65  93 130 172 217 260 323 385
#     4  10  21  39  63  91 130 173 218 262 317 388
#     4   9  21  42  65  88 124 168 218 259 316 387
#     4  11  21  41  62  95 133 170 212 265 328 374
#     4  11  22  40  64  91 132 176 213 264 324 388
#     4  11  24  45  68  97 131 165 217 275 325 383
#     4  10  21  38  61  89 131 168 212 264 311 386
#     4  12  23  41  69  97 135 170 212 274 323 382
#
# _framework density 21.898012000000001
#
# number of rings (size 3 to 8) (size 9 to 14) (size 15 to 20)
#    0.000    1.500    2.500    3.750    3.500    0.500 
#    4.500    5.625    0.000    0.000    0.000    0.000 
#    0.000    0.000    0.000    0.000    0.000    0.000 
#
# Total GULP energy -198209.482962 kJ/mol
# GULP energy per Si atom -12388.092685 kJ/mol
# Density = 2.184817 g / cm^3
# Si number density = 21.898012 Si / 1000 Ang^3
#
#
#
# Elastic Constant Matrix: (Units=GPa)
#
#
# Indices 1 2 3 4 5 6 
#
# 1 80.1650 23.4602 -0.3006 1.4781 -10.7216 -1.6830
# 2 23.4602 93.0528 34.7296 1.3916 -15.6692 -5.2454
# 3 -0.3006 34.7296 108.8391 2.5383 -7.7983 7.9242
# 4 1.4781 1.3916 2.5383 38.5382 -1.3482 -5.4785
# 5 -10.7216 -15.6692 -7.7983 -1.3482 33.9887 -7.6075
# 6 -1.6830 -5.2454 7.9242 -5.4785 -7.6075 42.7728
#
#
#
# Elastic Compliance Matrix: (Units=1/GPa)
#
#
# Indices 1 2 3 4 5 6 
#
# 1 0.013930 -0.003450 0.001346 -0.000330 0.003189 0.000401
# 2 -0.003450 0.014370 -0.004481 0.000589 0.005310 0.003477
# 3 0.001346 -0.004481 0.010849 -0.000964 0.000230 -0.002589
# 4 -0.000330 0.000589 -0.000964 0.026636 0.001895 0.003987
# 5 0.003189 0.005310 0.000230 0.001895 0.034599 0.007131
# 6 0.000401 0.003477 -0.002589 0.003987 0.007131 0.026080
#
#
# Mechanical properties :
#
#
# Convention : Reuss Voigt Hill
#
# Bulk Modulus (GPa) = 38.49202 44.20390 41.34796
# Shear Modulus (GPa) = 33.71669 38.00446 35.86058
#
# Velocity S-wave (km/s) = 3.92818 4.17048 4.05114
# Velocity P-wave (km/s) = 6.17982 6.58943 6.38791
#
# Compressibility (1/GPa) = 0.02597941
#
# Stress axis : x y z
#
# Youngs Moduli (GPa) = 71.78771 69.58831 92.17411
#
# Poissons Ratio (x) = 0.24007 -0.12410
# Poissons Ratio (y) = 0.24766 0.41306
# Poissons Ratio (z) = -0.09665 0.31185
#
# Static dielectric constant tensor:
#      x y z
#    x 4.916850 -0.135320 -0.006780 
#    y -0.135320 5.005270 -0.084270 
#    z -0.006780 -0.084270 4.175770 
# 
# 
# High freq. dielectric constant tensor:
#      x y z
#    x 1.856350 0.002680 -0.001770 
#    y 0.002680 1.854980 -0.019380 
#    z -0.001770 -0.019380 1.862820 
# 
# From -- ./inp_files/342719.got.cif
#   From: 2010.06.25/outbox.cif.g09.slc.cpg/sg2_172_cif.got.tgz:342719.got - 2010.06.27 13:26:56.
