data_PCOD8010384
_publ_section_title
;
Structure prediction by ZEFSAII (Michael W. Deem and Ramdas Pophale) SiO2 
 PCOD8010384
Probable space group: P -1
;
_chemical_formula_sum "Si O2"
_cell_formula_units_Z 16
_cell_length_a 7.828763
_cell_length_b 16.752328
_cell_length_c 22.714147
_cell_angle_alpha 160.502088
_cell_angle_beta 60.136048
_cell_angle_gamma 110.412439
_cell_volume 783.838581
_symmetry_space_group_name_H-M "P -1"
_symmetry_group_IT_number 2
_symmetry_cell_setting 'triclinic'
loop_
_space_group_symop_operation_xyz
x,y,z
-x,-y,-z
loop_
_atom_site_type_symbol
_atom_site_label
_atom_site_fract_x
_atom_site_fract_y
_atom_site_fract_z
Si Si1 0.953909 0.793962 0.653704
Si Si2 0.342410 0.557898 0.152414
Si Si3 0.983436 0.257149 0.258051
Si Si4 0.567133 0.286215 0.036672
Si Si5 0.465070 0.909514 0.292946
Si Si6 0.293758 0.749592 0.478532
Si Si7 0.799261 0.873190 0.987482
Si Si8 0.015978 0.312850 0.606686
O O1 0.875752 0.574599 0.490143
O O2 0.920931 0.813732 0.742647
O O3 0.199956 0.717457 0.536160
O O4 0.815686 0.083894 0.853160
O O5 0.519524 0.455483 0.102962
O O6 0.363020 0.802259 0.287501
O O7 0.100772 0.656625 0.288700
O O8 0.382028 0.323429 0.937203
O O9 0.178643 0.127086 0.087335
O O10 0.810136 0.134588 0.193154
O O11 0.500796 0.481469 0.239893
O O12 0.430396 0.110314 0.941051
O O13 0.622146 0.022898 0.375018
O O14 0.269611 0.125415 0.438821
O O15 0.102503 0.806569 0.502490
O O16 0.989471 0.601138 0.790214
#
# Coordination Sequence:
#
# PCOD8010384 Si02
#       8
#     2   2   2   2   2   2   2   2
#     4  11  22  39  58  88 118 159 194 254 293 347
#     4   9  22  40  60  95 120 147 208 246 279 379
#     4  10  21  38  60  82 125 148 205 252 285 359
#     4  10  22  40  61  83 125 156 194 247 310 347
#     4  11  22  39  67  89 118 164 196 243 303 351
#     4  10  23  40  59  92 123 154 205 246 288 366
#     4   9  20  40  57  89 117 157 196 250 292 358
#     4  10  21  41  62  86 129 157 192 250 303 347
#
# _framework density 20.412365999999999
#
# number of rings (size 3 to 8) (size 9 to 14) (size 15 to 20)
#    0.000    2.250    2.500    1.125    5.250    3.000 
#    0.000    5.625    0.000    0.000    0.000    0.000 
#    0.000    0.000    0.000    0.000    0.000    0.000 
#
# Total GULP energy -198332.528948 kJ/mol
# GULP energy per Si atom -12395.783059 kJ/mol
# Density = 2.036591 g / cm^3
# Si number density = 20.412366 Si / 1000 Ang^3
#
#
#
# Elastic Constant Matrix: (Units=GPa)
#
#
# Indices 1 2 3 4 5 6 
#
# 1 61.5782 17.7712 46.5076 -1.2701 17.6407 2.7848
# 2 17.7712 91.8000 32.2765 -4.9719 13.5032 4.9434
# 3 46.5076 32.2765 104.9558 4.5447 18.8369 3.0467
# 4 -1.2701 -4.9719 4.5447 21.0673 -0.1313 2.7674
# 5 17.6407 13.5032 18.8369 -0.1313 31.4895 7.7256
# 6 2.7848 4.9434 3.0467 2.7674 7.7256 20.7227
#
#
#
# Elastic Compliance Matrix: (Units=1/GPa)
#
#
# Indices 1 2 3 4 5 6 
#
# 1 0.026696 -0.000045 -0.010403 0.003686 -0.008888 0.000774
# 2 -0.000045 0.012900 -0.003549 0.004055 -0.002871 -0.002021
# 3 -0.010403 -0.003549 0.015860 -0.005104 -0.002537 0.001540
# 4 0.003686 0.004055 -0.005104 0.050811 0.001432 -0.008032
# 5 -0.008888 -0.002871 -0.002537 0.001432 0.042910 -0.013936
# 6 0.000774 -0.002021 0.001540 -0.008032 -0.013936 0.054676
#
#
# Mechanical properties :
#
#
# Convention : Reuss Voigt Hill
#
# Bulk Modulus (GPa) = 36.41129 50.16052 43.28591
# Shear Modulus (GPa) = 20.74672 25.44115 23.09393
#
# Velocity S-wave (km/s) = 3.19153 3.53421 3.36723
# Velocity P-wave (km/s) = 5.60872 6.42504 6.03071
#
# Compressibility (1/GPa) = 0.02746401
#
# Stress axis : x y z
#
# Youngs Moduli (GPa) = 37.45816 77.51639 63.04991
#
# Poissons Ratio (x) = 0.00351 0.65589
# Poissons Ratio (y) = 0.00169 0.22375
# Poissons Ratio (z) = 0.38966 0.27509
#
# Static dielectric constant tensor:
#      x y z
#    x 3.312140 -0.011490 0.179740 
#    y -0.011490 3.875830 -0.078880 
#    z 0.179740 -0.078880 3.800070 
# 
# 
# High freq. dielectric constant tensor:
#      x y z
#    x 1.759530 0.001670 0.015380 
#    y 0.001670 1.812080 -0.009460 
#    z 0.015380 -0.009460 1.804680 
# 
# From -- ./inp_files/328378.got.cif
#   From: 2010.06.25/outbox.cif.g09.slc.cpg/sg2_165_cif.got.tgz:328378.got - 2010.06.27 13:26:56.
