data_PCOD8010398
_publ_section_title
;
Structure prediction by ZEFSAII (Michael W. Deem and Ramdas Pophale) SiO2 
 PCOD8010398
Probable space group: P -1
;
_chemical_formula_sum "Si O2"
_cell_formula_units_Z 12
_cell_length_a 9.796215
_cell_length_b 18.674699
_cell_length_c 14.186389
_cell_angle_alpha 158.615447
_cell_angle_beta 57.386891
_cell_angle_gamma 133.332028
_cell_volume 637.512703
_symmetry_space_group_name_H-M "P -1"
_symmetry_group_IT_number 2
_symmetry_cell_setting 'triclinic'
loop_
_space_group_symop_operation_xyz
x,y,z
-x,-y,-z
loop_
_atom_site_type_symbol
_atom_site_label
_atom_site_fract_x
_atom_site_fract_y
_atom_site_fract_z
Si Si1 0.723424 0.481319 0.306562
Si Si2 0.817899 0.256511 0.501718
Si Si3 0.230497 0.715802 0.660449
Si Si4 0.433149 0.667519 0.196413
Si Si5 0.439308 0.828076 0.191378
Si Si6 0.449328 0.233406 0.283312
O O1 0.558711 0.305627 0.230130
O O2 0.687843 0.680337 0.537358
O O3 0.947479 0.623785 0.439208
O O4 0.704615 0.334604 0.040993
O O5 0.735570 0.215765 0.376974
O O6 0.771613 0.425842 0.783570
O O7 0.679187 0.981668 0.262443
O O8 0.381949 0.650472 0.554389
O O9 0.000000 0.500000 0.500000
O O10 0.292078 0.939068 0.980632
O O11 0.389088 0.646606 0.074957
O O12 0.598437 0.964789 0.518650
O O13 0.500000 0.500000 0.000000
#
# Coordination Sequence:
#
# PCOD8010398 Si02
#       6
#     2   2   2   2   2   2
#     4  11  21  38  59  87 118 158 195 244 296 350
#     4  10  21  38  60  85 119 157 198 240 297 353
#     4  11  21  39  57  87 123 157 199 243 284 362
#     4   9  20  42  63  84 115 157 198 250 306 347
#     4   9  21  40  61  84 124 150 197 257 293 351
#     4  10  23  36  57  87 122 158 197 238 295 348
#
# _framework density 18.823153999999999
#
# number of rings (size 3 to 8) (size 9 to 14) (size 15 to 20)
#    1.000    1.000    3.333    0.000    2.333    2.667 
#    0.000    0.833    0.000    0.000    0.000    0.000 
#    0.000    0.000    0.000    0.000    0.000    0.000 
#
# Total GULP energy -148671.458298 kJ/mol
# GULP energy per Si atom -12389.288192 kJ/mol
# Density = 1.878031 g / cm^3
# Si number density = 18.823154 Si / 1000 Ang^3
#
#
#
# Elastic Constant Matrix: (Units=GPa)
#
#
# Indices 1 2 3 4 5 6 
#
# 1 130.5745 34.0284 50.0157 -10.7282 -5.4553 -3.7538
# 2 34.0284 61.1517 23.8640 -4.3790 3.5019 0.5322
# 3 50.0157 23.8640 66.7885 -4.9101 7.0860 -3.7874
# 4 -10.7282 -4.3790 -4.9101 26.1764 -5.7979 4.7367
# 5 -5.4553 3.5019 7.0860 -5.7979 37.0496 -3.0977
# 6 -3.7538 0.5322 -3.7874 4.7367 -3.0977 31.8668
#
#
#
# Elastic Compliance Matrix: (Units=1/GPa)
#
#
# Indices 1 2 3 4 5 6 
#
# 1 0.012152 -0.003637 -0.007956 0.003754 0.004276 0.000404
# 2 -0.003637 0.020256 -0.004361 0.001016 -0.001590 -0.001591
# 3 -0.007956 -0.004361 0.023047 -0.001098 -0.005211 0.001532
# 4 0.003754 0.001016 -0.001098 0.042177 0.006823 -0.005311
# 5 0.004276 -0.001590 -0.005211 0.006823 0.029987 0.001812
# 6 0.000404 -0.001591 0.001532 -0.005311 0.001812 0.032602
#
#
# Mechanical properties :
#
#
# Convention : Reuss Voigt Hill
#
# Bulk Modulus (GPa) = 42.46503 52.70343 47.58423
# Shear Modulus (GPa) = 25.00264 29.05900 27.03082
#
# Velocity S-wave (km/s) = 3.64853 3.93337 3.79362
# Velocity P-wave (km/s) = 6.35279 6.97772 6.67258
#
# Compressibility (1/GPa) = 0.02354879
#
# Stress axis : x y z
#
# Youngs Moduli (GPa) = 82.28832 49.36783 43.38867
#
# Poissons Ratio (x) = 0.17956 0.34519
# Poissons Ratio (y) = 0.29930 0.18920
# Poissons Ratio (z) = 0.65466 0.21528
#
# Static dielectric constant tensor:
#      x y z
#    x 3.387230 -0.201620 0.004900 
#    y -0.201620 3.403760 -0.094570 
#    z 0.004900 -0.094570 3.356200 
# 
# 
# High freq. dielectric constant tensor:
#      x y z
#    x 1.723950 -0.016360 0.008330 
#    y -0.016360 1.726980 -0.005880 
#    z 0.008330 -0.005880 1.722440 
# 
# From -- ./inp_files/139976.got.cif
#   From: 2010.06.25/outbox.cif.g09.slc.cpg/sg2_70_cif.got.tgz:139976.got - 2010.06.27 13:26:56.
