data_PCOD8010150
_publ_section_title
;
Structure prediction by ZEFSAII (Michael W. Deem and Ramdas Pophale) SiO2 
 PCOD8010150
Probable space group: P -1
;
_chemical_formula_sum "Si O2"
_cell_formula_units_Z 16
_cell_length_a 16.915815
_cell_length_b 5.198757
_cell_length_c 15.156347
_cell_angle_alpha 102.913676
_cell_angle_beta 147.921482
_cell_angle_gamma 80.286187
_cell_volume 689.408837
_symmetry_space_group_name_H-M "P -1"
_symmetry_group_IT_number 2
_symmetry_cell_setting 'triclinic'
loop_
_space_group_symop_operation_xyz
x,y,z
-x,-y,-z
loop_
_atom_site_type_symbol
_atom_site_label
_atom_site_fract_x
_atom_site_fract_y
_atom_site_fract_z
Si Si1 0.938489 0.278988 0.860342
Si Si2 0.159705 0.718345 0.579511
Si Si3 0.624728 0.195471 0.599065
Si Si4 0.082145 0.886023 0.860961
Si Si5 0.499308 0.462714 0.347840
Si Si6 0.187290 0.294345 0.713825
Si Si7 0.805917 0.549896 0.584667
Si Si8 0.746946 0.642969 0.029275
O O1 0.796691 0.117311 0.757789
O O2 0.892682 0.423928 0.738475
O O3 0.065094 0.065345 0.946886
O O4 0.000000 0.500000 0.000000
O O5 0.229342 0.512077 0.697134
O O6 0.216108 0.664454 0.530256
O O7 0.981625 0.686883 0.411338
O O8 0.220233 0.008974 0.684994
O O9 0.587573 0.238592 0.464503
O O10 0.612043 0.435703 0.674809
O O11 0.500000 0.000000 0.500000
O O12 0.178792 0.630772 0.950406
O O13 0.912910 0.791245 0.666146
O O14 0.152693 0.086762 0.870185
O O15 0.640468 0.652982 0.462093
O O16 0.405644 0.342462 0.168484
O O17 0.289161 0.361193 0.901201
#
# Coordination Sequence:
#
# PCOD8010150 Si02
#       8
#     2   2   2   2   2   2   2   2
#     4  11  24  42  69 100 134 172 228 287 327 387
#     4  10  21  37  66  96 132 169 217 278 326 396
#     4  10  22  43  67  93 129 180 227 266 336 402
#     4  12  24  43  69 102 134 173 229 278 328 394
#     4  10  25  45  64  96 137 181 218 274 336 408
#     4  10  21  38  64 100 129 169 219 274 334 389
#     4  11  24  44  68 101 135 179 225 273 340 396
#     4  12  25  44  69 102 138 177 222 277 339 398
#
# _framework density 23.208290000000002
#
# number of rings (size 3 to 8) (size 9 to 14) (size 15 to 20)
#    0.000    1.250    2.500    2.250    7.000    0.500 
#    0.000    1.250    0.000    0.000    0.000    0.000 
#    0.000    0.000    0.000    0.000    0.000    0.000 
#
# Total GULP energy -198262.071661 kJ/mol
# GULP energy per Si atom -12391.379479 kJ/mol
# Density = 2.315547 g / cm^3
# Si number density = 23.208290 Si / 1000 Ang^3
#
#
#
# Elastic Constant Matrix: (Units=GPa)
#
#
# Indices 1 2 3 4 5 6 
#
# 1 92.8913 31.6849 54.8690 -2.7078 -18.9414 3.9292
# 2 31.6849 112.0453 33.4307 10.1030 -10.9689 9.5757
# 3 54.8690 33.4307 127.5156 6.7682 -33.1435 14.0052
# 4 -2.7078 10.1030 6.7682 22.5670 1.1474 0.4680
# 5 -18.9414 -10.9689 -33.1435 1.1474 42.3062 10.0988
# 6 3.9292 9.5757 14.0052 0.4680 10.0988 34.9359
#
#
#
# Elastic Compliance Matrix: (Units=1/GPa)
#
#
# Indices 1 2 3 4 5 6 
#
# 1 0.015715 -0.003076 -0.006063 0.005003 0.001084 0.001126
# 2 -0.003076 0.010823 -0.000410 -0.005129 0.001951 -0.002951
# 3 -0.006063 -0.000410 0.014457 -0.005251 0.010552 -0.007981
# 4 0.005003 -0.005129 -0.005251 0.048981 -0.005455 0.003869
# 5 0.001084 0.001951 0.010552 -0.005455 0.036726 -0.015430
# 6 0.001126 -0.002951 -0.007981 0.003869 -0.015430 0.036914
#
#
# Mechanical properties :
#
#
# Convention : Reuss Voigt Hill
#
# Bulk Modulus (GPa) = 45.67119 63.60239 54.63679
# Shear Modulus (GPa) = 26.31387 34.12633 30.22010
#
# Velocity S-wave (km/s) = 3.37087 3.83879 3.61241
# Velocity P-wave (km/s) = 5.90524 6.86388 6.40253
#
# Compressibility (1/GPa) = 0.02189564
#
# Stress axis : x y z
#
# Youngs Moduli (GPa) = 63.63290 92.39565 69.17281
#
# Poissons Ratio (x) = 0.28423 0.41940
# Poissons Ratio (y) = 0.19575 0.02838
# Poissons Ratio (z) = 0.38581 0.03791
#
# Static dielectric constant tensor:
#      x y z
#    x 4.110690 -0.488130 -0.496950 
#    y -0.488130 5.547210 1.008470 
#    z -0.496950 1.008470 4.620360 
# 
# 
# High freq. dielectric constant tensor:
#      x y z
#    x 1.921040 0.001350 -0.012100 
#    y 0.001350 1.909880 0.010750 
#    z -0.012100 0.010750 1.902800 
# 
# From -- ./inp_files/536432.got.cif
#   From: 2010.06.25/outbox.cif.g09.slc.cpg/sg2_269_cif.got.tgz:536432.got - 2010.06.27 13:26:56.
