data_PCOD8010816
_publ_section_title
;
Structure prediction by ZEFSAII (Michael W. Deem and Ramdas Pophale) SiO2 
 PCOD8010816
Probable space group: P -1
;
_chemical_formula_sum "Si O2"
_cell_formula_units_Z 16
_cell_length_a 14.657642
_cell_length_b 12.255985
_cell_length_c 9.016248
_cell_angle_alpha 110.199047
_cell_angle_beta 38.640019
_cell_angle_gamma 129.338996
_cell_volume 743.608067
_symmetry_space_group_name_H-M "P -1"
_symmetry_group_IT_number 2
_symmetry_cell_setting 'triclinic'
loop_
_space_group_symop_operation_xyz
x,y,z
-x,-y,-z
loop_
_atom_site_type_symbol
_atom_site_label
_atom_site_fract_x
_atom_site_fract_y
_atom_site_fract_z
Si Si1 0.197612 0.345328 0.943052
Si Si2 0.958083 0.481951 0.873488
Si Si3 0.487738 0.562278 0.891741
Si Si4 0.101975 0.918672 0.586470
Si Si5 0.201407 0.610846 0.374118
Si Si6 0.432580 0.954269 0.229337
Si Si7 0.833359 0.172425 0.851937
Si Si8 0.851977 0.794003 0.365021
O O1 0.397535 0.441848 0.817563
O O2 0.223265 0.279386 0.734470
O O3 0.137346 0.445914 0.023646
O O4 0.054824 0.215760 0.176524
O O5 0.827227 0.309485 0.908834
O O6 0.159516 0.561986 0.576737
O O7 0.000000 0.500000 0.000000
O O8 0.690830 0.706749 0.652638
O O9 0.500000 0.500000 0.000000
O O10 0.351809 0.602984 0.106291
O O11 0.304500 0.004156 0.451510
O O12 0.106460 0.856901 0.392367
O O13 0.063272 0.035024 0.666062
O O14 0.284234 0.779204 0.347309
O O15 0.000000 0.500000 0.500000
O O16 0.500000 0.000000 0.000000
O O17 0.625307 0.034875 0.113639
O O18 0.979269 0.208440 0.809583
#
# Coordination Sequence:
#
# PCOD8010816 Si02
#       8
#     2   2   2   2   2   2   2   2
#     4  12  25  45  70 100 142 187 227 290 357 418
#     4  12  24  43  71 101 140 179 234 289 354 411
#     4  12  26  44  71 105 136 180 240 286 345 421
#     4  11  23  43  70  98 135 181 239 282 348 416
#     4  12  22  44  74 100 133 181 235 292 338 409
#     4  10  21  38  64 104 126 172 232 288 340 394
#     4  11  24  43  71  99 140 184 235 289 345 409
#     4  12  26  46  65 102 145 188 222 287 358 421
#
# _framework density 21.516711000000001
#
# number of rings (size 3 to 8) (size 9 to 14) (size 15 to 20)
#    0.000    0.500    3.750    6.375    1.750    1.000 
#    0.000    2.500    0.000    0.000    0.000    0.000 
#    0.000    0.000    0.000    0.000    0.000    0.000 
#
# Total GULP energy -198328.264336 kJ/mol
# GULP energy per Si atom -12395.516521 kJ/mol
# Density = 2.146774 g / cm^3
# Si number density = 21.516711 Si / 1000 Ang^3
#
#
#
# Elastic Constant Matrix: (Units=GPa)
#
#
# Indices 1 2 3 4 5 6 
#
# 1 106.5246 42.2852 26.6217 -13.2825 3.2586 4.3390
# 2 42.2852 136.1709 33.8247 -10.2621 6.8624 -11.2069
# 3 26.6217 33.8247 68.5514 -19.7489 0.6317 4.7259
# 4 -13.2825 -10.2621 -19.7489 43.8801 7.5151 2.1611
# 5 3.2586 6.8624 0.6317 7.5151 41.9966 1.9812
# 6 4.3390 -11.2069 4.7259 2.1611 1.9812 33.8957
#
#
#
# Elastic Compliance Matrix: (Units=1/GPa)
#
#
# Indices 1 2 3 4 5 6 
#
# 1 0.011505 -0.003019 -0.002247 0.001981 -0.000614 -0.002248
# 2 -0.003019 0.009663 -0.003996 -0.000420 -0.001410 0.004248
# 3 -0.002247 -0.003996 0.019945 0.007683 -0.000646 -0.004267
# 4 0.001981 -0.000420 0.007683 0.027754 -0.005028 -0.002939
# 5 -0.000614 -0.001410 -0.000646 -0.005028 0.025067 -0.001442
# 6 -0.002248 0.004248 -0.004267 -0.002939 -0.001442 0.032061
#
#
# Mechanical properties :
#
#
# Convention : Reuss Voigt Hill
#
# Bulk Modulus (GPa) = 44.27025 57.41222 50.84124
# Shear Modulus (GPa) = 32.88390 37.85549 35.36970
#
# Velocity S-wave (km/s) = 3.91358 4.19901 4.05881
# Velocity P-wave (km/s) = 6.40633 7.08869 6.75613
#
# Compressibility (1/GPa) = 0.02258853
#
# Stress axis : x y z
#
# Youngs Moduli (GPa) = 86.91959 103.48810 50.13680
#
# Poissons Ratio (x) = 0.31246 0.11264
# Poissons Ratio (y) = 0.26244 0.20036
# Poissons Ratio (z) = 0.19528 0.41357
#
# Static dielectric constant tensor:
#      x y z
#    x 4.122560 0.430170 -0.000960 
#    y 0.430170 3.597370 -0.657780 
#    z -0.000960 -0.657780 4.055900 
# 
# 
# High freq. dielectric constant tensor:
#      x y z
#    x 1.844260 -0.005880 -0.001380 
#    y -0.005880 1.852440 -0.007950 
#    z -0.001380 -0.007950 1.852190 
# 
# From -- ./inp_files/307896.got.cif
#   From: 2010.06.25/outbox.cif.g09.slc.cpg/sg2_154_cif.got.tgz:307896.got - 2010.06.27 13:26:56.
