data_PCOD8010873
_publ_section_title
;
Structure prediction by ZEFSAII (Michael W. Deem and Ramdas Pophale) SiO2 
 PCOD8010873
Probable space group: P -1
;
_chemical_formula_sum "Si O2"
_cell_formula_units_Z 16
_cell_length_a 11.616422
_cell_length_b 9.865808
_cell_length_c 19.077668
_cell_angle_alpha 131.261628
_cell_angle_beta 154.770777
_cell_angle_gamma 53.244884
_cell_volume 700.529406
_symmetry_space_group_name_H-M "P -1"
_symmetry_group_IT_number 2
_symmetry_cell_setting 'triclinic'
loop_
_space_group_symop_operation_xyz
x,y,z
-x,-y,-z
loop_
_atom_site_type_symbol
_atom_site_label
_atom_site_fract_x
_atom_site_fract_y
_atom_site_fract_z
Si Si1 0.305215 0.158241 0.917573
Si Si2 0.065757 0.908800 0.930966
Si Si3 0.862522 0.555870 0.630538
Si Si4 0.379752 0.136392 0.722017
Si Si5 0.072254 0.821266 0.408015
Si Si6 0.459216 0.507513 0.275574
Si Si7 0.020917 0.234708 0.923146
Si Si8 0.664508 0.492133 0.236688
O O1 0.138369 0.101368 0.738331
O O2 0.071099 0.205442 0.859199
O O3 0.462323 0.339422 0.045820
O O4 0.500000 0.000000 0.000000
O O5 0.911639 0.724393 0.766044
O O6 0.973403 0.042363 0.865367
O O7 0.388353 0.875927 0.095285
O O8 0.000000 0.000000 0.000000
O O9 0.849542 0.390480 0.622739
O O10 0.071550 0.538764 0.675219
O O11 0.581356 0.572375 0.438755
O O12 0.081229 0.166716 0.598274
O O13 0.453912 0.306163 0.771886
O O14 0.344040 0.944670 0.595982
O O15 0.686548 0.470044 0.326632
O O16 0.250942 0.651581 0.177501
O O17 0.286656 0.327454 0.134973
#
# Coordination Sequence:
#
# PCOD8010873 Si02
#       8
#     2   2   2   2   2   2   2   2
#     4  11  22  38  62  90 123 163 207 251 302 362
#     4  12  25  41  61  88 124 165 204 253 308 360
#     4  11  23  39  64  92 122 161 210 254 303 368
#     4  10  21  39  61  89 126 158 203 257 304 361
#     4  10  22  39  63  92 119 159 206 254 306 361
#     4  10  22  41  62  90 124 160 203 253 309 366
#     4  10  23  41  61  86 124 163 200 252 309 366
#     4  10  21  38  64  93 124 160 199 256 311 362
#
# _framework density 22.839870000000001
#
# number of rings (size 3 to 8) (size 9 to 14) (size 15 to 20)
#    0.000    1.500    0.000    4.875    0.000   12.500 
#    0.000    1.875    0.000    0.000    0.000    0.000 
#    0.000    0.000    0.000    0.000    0.000    0.000 
#
# Total GULP energy -198275.336081 kJ/mol
# GULP energy per Si atom -12392.208505 kJ/mol
# Density = 2.278789 g / cm^3
# Si number density = 22.839870 Si / 1000 Ang^3
#
#
#
# Elastic Constant Matrix: (Units=GPa)
#
#
# Indices 1 2 3 4 5 6 
#
# 1 56.3939 18.6223 26.5756 5.7570 -2.2188 -3.8521
# 2 18.6223 139.3591 67.8854 30.6727 -0.9126 20.6712
# 3 26.5756 67.8854 149.0314 19.2698 -25.2399 13.2348
# 4 5.7570 30.6727 19.2698 41.8192 3.2061 -2.6531
# 5 -2.2188 -0.9126 -25.2399 3.2061 26.6909 2.9982
# 6 -3.8521 20.6712 13.2348 -2.6531 2.9982 29.3562
#
#
#
# Elastic Compliance Matrix: (Units=1/GPa)
#
#
# Indices 1 2 3 4 5 6 
#
# 1 0.020445 -0.002009 -0.003920 0.001085 -0.002909 0.006260
# 2 -0.002009 0.011938 -0.003783 -0.007081 -0.001650 -0.007435
# 3 -0.003920 -0.003783 0.012007 -0.003430 0.011849 -0.004784
# 4 0.001085 -0.007081 -0.003430 0.031841 -0.008390 0.010410
# 5 -0.002909 -0.001650 0.011849 -0.008390 0.050558 -0.010483
# 6 0.006260 -0.007435 -0.004784 0.010410 -0.010483 0.044290
#
#
# Mechanical properties :
#
#
# Convention : Reuss Voigt Hill
#
# Bulk Modulus (GPa) = 40.05358 63.43900 51.74629
# Shear Modulus (GPa) = 25.14778 35.01999 30.08388
#
# Velocity S-wave (km/s) = 3.32180 3.91996 3.63321
# Velocity P-wave (km/s) = 5.68219 6.95155 6.34867
#
# Compressibility (1/GPa) = 0.02496656
#
# Stress axis : x y z
#
# Youngs Moduli (GPa) = 48.91096 83.76855 83.28295
#
# Poissons Ratio (x) = 0.16831 0.32643
# Poissons Ratio (y) = 0.09827 0.31506
# Poissons Ratio (z) = 0.19171 0.31690
#
# Static dielectric constant tensor:
#      x y z
#    x 3.695650 -0.109540 0.001130 
#    y -0.109540 4.136510 0.251120 
#    z 0.001130 0.251120 4.079580 
# 
# 
# High freq. dielectric constant tensor:
#      x y z
#    x 1.892320 0.005450 0.002880 
#    y 0.005450 1.906430 0.012650 
#    z 0.002880 0.012650 1.901500 
# 
# From -- ./inp_files/448043.got.cif
#   From: 2010.06.25/outbox.cif.g09.slc.cpg/sg2_225_cif.got.tgz:448043.got - 2010.06.27 13:26:56.
