data_PCOD8010487
_publ_section_title
;
Structure prediction by ZEFSAII (Michael W. Deem and Ramdas Pophale) SiO2 
 PCOD8010487
Probable space group: P -1
;
_chemical_formula_sum "Si O2"
_cell_formula_units_Z 16
_cell_length_a 16.582698
_cell_length_b 16.005009
_cell_length_c 16.454483
_cell_angle_alpha 39.568839
_cell_angle_beta 25.468346
_cell_angle_gamma 24.243428
_cell_volume 736.439220
_symmetry_space_group_name_H-M "P -1"
_symmetry_group_IT_number 2
_symmetry_cell_setting 'triclinic'
loop_
_space_group_symop_operation_xyz
x,y,z
-x,-y,-z
loop_
_atom_site_type_symbol
_atom_site_label
_atom_site_fract_x
_atom_site_fract_y
_atom_site_fract_z
Si Si1 0.916832 0.258771 0.160193
Si Si2 0.782615 0.942619 0.792519
Si Si3 0.948716 0.944015 0.342187
Si Si4 0.820514 0.251897 0.892011
Si Si5 0.320639 0.174018 0.730253
Si Si6 0.261747 0.732526 0.380904
Si Si7 0.067591 0.357675 0.659238
Si Si8 0.478850 0.197459 0.260921
O O1 0.560578 0.482751 0.310628
O O2 0.013656 0.212051 0.200564
O O3 0.990725 0.076032 0.192474
O O4 0.103088 0.264035 0.936195
O O5 0.993446 0.817290 0.615306
O O6 0.666294 0.156074 0.746133
O O7 0.500000 0.000000 0.000000
O O8 0.042076 0.814915 0.273347
O O9 0.163811 0.773058 0.346184
O O10 0.596777 0.109869 0.560286
O O11 0.044305 0.210950 0.778528
O O12 0.500000 0.500000 0.000000
O O13 0.778587 0.123884 0.053247
O O14 0.131621 0.356083 0.696313
O O15 0.453687 0.973558 0.716395
O O16 0.346444 0.254572 0.428630
O O17 0.757353 0.598597 0.736275
#
# Coordination Sequence:
#
# PCOD8010487 Si02
#       8
#     2   2   2   2   2   2   2   2
#     4  11  25  41  65  98 130 164 204 253 312 379
#     4  10  22  45  73  99 126 161 201 249 310 377
#     4  11  24  42  58  93 132 165 212 263 310 367
#     4  10  21  38  61  83 119 170 216 263 312 360
#     4  12  24  38  60  89 124 164 212 260 311 367
#     4  10  24  43  68  96 131 164 200 252 310 377
#     4  10  23  38  57  85 115 163 220 267 311 361
#     4  10  21  39  57  80 117 161 210 269 311 359
#
# _framework density 21.726164000000001
#
# number of rings (size 3 to 8) (size 9 to 14) (size 15 to 20)
#    0.000    1.500    2.500    1.500    3.500    4.000 
#    0.000    0.000    0.000    0.000    0.000    0.000 
#    0.000    0.000    0.000    0.000    0.000    0.000 
#
# Total GULP energy -198452.743571 kJ/mol
# GULP energy per Si atom -12403.296473 kJ/mol
# Density = 2.167671 g / cm^3
# Si number density = 21.726164 Si / 1000 Ang^3
#
#
#
# Elastic Constant Matrix: (Units=GPa)
#
#
# Indices 1 2 3 4 5 6 
#
# 1 73.4336 19.0383 24.7184 1.0228 -10.3078 -15.6231
# 2 19.0383 55.7347 17.0226 2.4380 1.2254 -20.2465
# 3 24.7184 17.0226 123.0112 -7.6506 -6.7737 -9.2136
# 4 1.0228 2.4380 -7.6506 32.4565 1.5119 3.7262
# 5 -10.3078 1.2254 -6.7737 1.5119 37.4634 1.0941
# 6 -15.6231 -20.2465 -9.2136 3.7262 1.0941 24.3824
#
#
#
# Elastic Compliance Matrix: (Units=1/GPa)
#
#
# Indices 1 2 3 4 5 6 
#
# 1 0.017459 -0.002049 -0.002475 -0.002176 0.004257 0.008692
# 2 -0.002049 0.027357 -0.002198 -0.004861 -0.002285 0.021418
# 3 -0.002475 -0.002198 0.009103 0.002388 0.000952 -0.000378
# 4 -0.002176 -0.004861 0.002388 0.032949 -0.001060 -0.009516
# 5 0.004257 -0.002285 0.000952 -0.001060 0.028151 0.000089
# 6 0.008692 0.021418 -0.000378 -0.009516 0.000089 0.065675
#
#
# Mechanical properties :
#
#
# Convention : Reuss Voigt Hill
#
# Bulk Modulus (GPa) = 24.70585 41.52647 33.11616
# Shear Modulus (GPa) = 24.08138 31.62048 27.85093
#
# Velocity S-wave (km/s) = 3.33288 3.81912 3.58426
# Velocity P-wave (km/s) = 5.11927 6.21310 5.69252
#
# Compressibility (1/GPa) = 0.04047625
#
# Stress axis : x y z
#
# Youngs Moduli (GPa) = 57.27691 36.55403 109.84986
#
# Poissons Ratio (x) = 0.07490 0.27184
# Poissons Ratio (y) = 0.11736 0.24144
# Poissons Ratio (z) = 0.14174 0.08034
#
# Static dielectric constant tensor:
#      x y z
#    x 3.913950 -0.063810 -0.097900 
#    y -0.063810 3.904390 -0.259450 
#    z -0.097900 -0.259450 4.360110 
# 
# 
# High freq. dielectric constant tensor:
#      x y z
#    x 1.850020 -0.011410 -0.004570 
#    y -0.011410 1.851600 -0.006650 
#    z -0.004570 -0.006650 1.870340 
# 
# From -- ./inp_files/348410.got.cif
#   From: 2010.06.25/outbox.cif.g09.slc.cpg/sg2_175_cif.got.tgz:348410.got - 2010.06.27 13:26:56.
