data_PCOD8010108
_publ_section_title
;
Structure prediction by ZEFSAII (Michael W. Deem and Ramdas Pophale) SiO2 
 PCOD8010108
Probable space group: P -1
;
_chemical_formula_sum "Si O2"
_cell_formula_units_Z 16
_cell_length_a 15.703082
_cell_length_b 8.994222
_cell_length_c 11.356039
_cell_angle_alpha 129.837837
_cell_angle_beta 108.506197
_cell_angle_gamma 41.948537
_cell_volume 782.736449
_symmetry_space_group_name_H-M "P -1"
_symmetry_group_IT_number 2
_symmetry_cell_setting 'triclinic'
loop_
_space_group_symop_operation_xyz
x,y,z
-x,-y,-z
loop_
_atom_site_type_symbol
_atom_site_label
_atom_site_fract_x
_atom_site_fract_y
_atom_site_fract_z
Si Si1 0.211418 0.104174 0.555309
Si Si2 0.484358 0.863716 0.195464
Si Si3 0.337690 0.119386 0.834941
Si Si4 0.050155 0.711763 0.419325
Si Si5 0.750315 0.819499 0.928275
Si Si6 0.651301 0.387624 0.193868
Si Si7 0.530005 0.502918 0.646042
Si Si8 0.268003 0.354960 0.528985
O O1 0.251639 0.123298 0.710657
O O2 0.221599 0.246420 0.529963
O O3 0.066632 0.240606 0.562144
O O4 0.312546 0.766715 0.394671
O O5 0.613958 0.772772 0.159778
O O6 0.557381 0.553809 0.120235
O O7 0.386392 0.983297 0.105307
O O8 0.406468 0.094760 0.386310
O O9 0.473886 0.807903 0.792863
O O10 0.250652 0.290808 0.002135
O O11 0.122063 0.473804 0.228135
O O12 0.151546 0.592090 0.507521
O O13 0.000000 0.000000 0.500000
O O14 0.760385 0.038341 0.057580
O O15 0.551540 0.519127 0.324760
O O16 0.722603 0.478678 0.294492
O O17 0.500000 0.500000 0.500000
#
# Coordination Sequence:
#
# PCOD8010108 Si02
#       8
#     2   2   2   2   2   2   2   2
#     4  11  21  41  64  93 127 167 215 256 309 367
#     4  11  20  38  66 100 133 161 203 254 329 376
#     4  10  21  37  65  96 130 161 207 259 320 374
#     4  11  28  45  65  87 121 173 220 263 307 368
#     4  10  25  42  60  92 134 166 207 262 312 377
#     4  11  20  39  66  98 127 163 200 260 327 373
#     4   9  19  31  60  97 125 155 196 260 307 369
#     4  11  22  40  66  96 127 164 215 257 304 384
#
# _framework density 20.441109999999998
#
# number of rings (size 3 to 8) (size 9 to 14) (size 15 to 20)
#    0.000    1.500    2.500    3.000    8.750    0.500 
#    0.000    1.875    0.000    0.000    0.000    0.000 
#    0.000    0.000    0.000    0.000    0.000    0.000 
#
# Total GULP energy -198267.078479 kJ/mol
# GULP energy per Si atom -12391.692405 kJ/mol
# Density = 2.039458 g / cm^3
# Si number density = 20.441110 Si / 1000 Ang^3
#
#
#
# Elastic Constant Matrix: (Units=GPa)
#
#
# Indices 1 2 3 4 5 6 
#
# 1 91.2253 28.7023 28.4667 6.3337 -11.9173 18.9347
# 2 28.7023 93.8759 30.8534 6.7903 -12.6931 18.8243
# 3 28.4667 30.8534 81.5233 7.2221 -6.7488 5.9010
# 4 6.3337 6.7903 7.2221 29.9352 -1.3418 -5.3719
# 5 -11.9173 -12.6931 -6.7488 -1.3418 21.7613 -0.9798
# 6 18.9347 18.8243 5.9010 -5.3719 -0.9798 32.5350
#
#
#
# Elastic Compliance Matrix: (Units=1/GPa)
#
#
# Indices 1 2 3 4 5 6 
#
# 1 0.015003 -0.000737 -0.003581 -0.003308 0.006111 -0.008018
# 2 -0.000737 0.014869 -0.003969 -0.003371 0.006479 -0.007816
# 3 -0.003581 -0.003969 0.015103 -0.001724 0.000363 0.001368
# 4 -0.003308 -0.003371 -0.001724 0.037057 -0.001566 0.010260
# 5 0.006111 0.006479 0.000363 -0.001566 0.052823 -0.006039
# 6 -0.008018 -0.007816 0.001368 0.010260 -0.006039 0.041189
#
#
# Mechanical properties :
#
#
# Convention : Reuss Voigt Hill
#
# Bulk Modulus (GPa) = 35.20953 49.18546 42.19750
# Shear Modulus (GPa) = 24.74199 28.75311 26.74755
#
# Velocity S-wave (km/s) = 3.48286 3.75458 3.62127
# Velocity P-wave (km/s) = 5.78239 6.55058 6.17843
#
# Compressibility (1/GPa) = 0.02840140
#
# Stress axis : x y z
#
# Youngs Moduli (GPa) = 66.65186 67.25210 66.21302
#
# Poissons Ratio (x) = 0.04957 0.23709
# Poissons Ratio (y) = 0.04912 0.26282
# Poissons Ratio (z) = 0.23866 0.26695
#
# Static dielectric constant tensor:
#      x y z
#    x 3.782670 0.004770 -0.381320 
#    y 0.004770 4.222010 0.436650 
#    z -0.381320 0.436650 4.156850 
# 
# 
# High freq. dielectric constant tensor:
#      x y z
#    x 1.794480 0.022170 -0.005430 
#    y 0.022170 1.806420 -0.009100 
#    z -0.005430 -0.009100 1.792580 
# 
# From -- ./inp_files/179190.got.cif
#   From: 2010.06.25/outbox.cif.g09.slc.cpg/sg2_90_cif.got.tgz:179190.got - 2010.06.27 13:26:56.
