data_PCOD8010914
_publ_section_title
;
Structure prediction by ZEFSAII (Michael W. Deem and Ramdas Pophale) SiO2 
 PCOD8010914
Probable space group: P -1
;
_chemical_formula_sum "Si O2"
_cell_formula_units_Z 16
_cell_length_a 11.537638
_cell_length_b 8.881233
_cell_length_c 11.161414
_cell_angle_alpha 78.586198
_cell_angle_beta 51.928731
_cell_angle_gamma 54.576421
_cell_volume 710.652846
_symmetry_space_group_name_H-M "P -1"
_symmetry_group_IT_number 2
_symmetry_cell_setting 'triclinic'
loop_
_space_group_symop_operation_xyz
x,y,z
-x,-y,-z
loop_
_atom_site_type_symbol
_atom_site_label
_atom_site_fract_x
_atom_site_fract_y
_atom_site_fract_z
Si Si1 0.669694 0.824577 0.990827
Si Si2 0.570529 0.269300 0.737278
Si Si3 0.052579 0.057911 0.838674
Si Si4 0.590063 0.148319 0.491727
Si Si5 0.580283 0.574128 0.812581
Si Si6 0.691691 0.745727 0.527539
Si Si7 0.245319 0.904393 0.119886
Si Si8 0.084239 0.564935 0.233903
O O1 0.812497 0.649107 0.843339
O O2 0.765800 0.919515 0.964363
O O3 0.602746 0.740555 0.143613
O O4 0.500000 0.000000 0.000000
O O5 0.619642 0.247233 0.568439
O O6 0.521350 0.471822 0.778780
O O7 0.730757 0.104549 0.748898
O O8 0.945962 0.054027 0.794257
O O9 0.995284 0.274007 0.846084
O O10 0.266330 0.905361 0.698326
O O11 0.000000 0.000000 0.000000
O O12 0.388782 0.280695 0.539601
O O13 0.621607 0.961109 0.555253
O O14 0.608900 0.711157 0.699148
O O15 0.774438 0.420790 0.778501
O O16 0.420590 0.698648 0.992357
O O17 0.911569 0.606348 0.411624
#
# Coordination Sequence:
#
# PCOD8010914 Si02
#       8
#     2   2   2   2   2   2   2   2
#     4  10  21  38  64  98 132 170 218 276 329 386
#     4  11  22  38  66  96 134 170 221 280 327 392
#     4  11  24  44  68  97 134 179 220 268 336 404
#     4  10  24  45  63  96 134 179 223 267 334 396
#     4  12  21  40  68  99 134 173 220 279 332 390
#     4  10  24  43  66  91 135 179 218 273 332 398
#     4  11  22  40  67  97 133 177 219 273 338 388
#     4  11  22  42  66 101 129 173 229 268 329 396
#
# _framework density 22.514507999999999
#
# number of rings (size 3 to 8) (size 9 to 14) (size 15 to 20)
#    0.000    1.250    3.750    3.000    1.750    4.000 
#    0.000    3.750    0.000    0.000    0.000    0.000 
#    0.000    0.000    0.000    0.000    0.000    0.000 
#
# Total GULP energy -198315.841826 kJ/mol
# GULP energy per Si atom -12394.740114 kJ/mol
# Density = 2.246326 g / cm^3
# Si number density = 22.514508 Si / 1000 Ang^3
#
#
#
# Elastic Constant Matrix: (Units=GPa)
#
#
# Indices 1 2 3 4 5 6 
#
# 1 92.3064 13.1853 26.2384 14.7434 -1.2232 0.6311
# 2 13.1853 64.3816 14.6725 8.8013 -1.2482 11.9860
# 3 26.2384 14.6725 80.3248 -1.9257 1.3760 -3.8201
# 4 14.7434 8.8013 -1.9257 35.7267 1.8475 -1.6139
# 5 -1.2232 -1.2482 1.3760 1.8475 39.8290 1.0300
# 6 0.6311 11.9860 -3.8201 -1.6139 1.0300 31.2424
#
#
#
# Elastic Compliance Matrix: (Units=1/GPa)
#
#
# Indices 1 2 3 4 5 6 
#
# 1 0.013066 -0.000775 -0.004311 -0.005511 0.000802 -0.000805
# 2 -0.000775 0.018689 -0.003673 -0.004897 0.001120 -0.007893
# 3 -0.004311 -0.003673 0.014802 0.003694 -0.001022 0.003530
# 4 -0.005511 -0.004897 0.003694 0.031964 -0.002041 0.004160
# 5 0.000802 0.001120 -0.001022 -0.002041 0.025336 -0.001511
# 6 -0.000805 -0.007893 0.003530 0.004160 -0.001511 0.035749
#
#
# Mechanical properties :
#
#
# Convention : Reuss Voigt Hill
#
# Bulk Modulus (GPa) = 34.43418 38.35613 36.39516
# Shear Modulus (GPa) = 29.97577 33.55405 31.76491
#
# Velocity S-wave (km/s) = 3.65279 3.86467 3.76022
# Velocity P-wave (km/s) = 5.75482 6.08172 5.92053
#
# Compressibility (1/GPa) = 0.02904091
#
# Stress axis : x y z
#
# Youngs Moduli (GPa) = 76.53527 53.50845 67.55674
#
# Poissons Ratio (x) = 0.04145 0.29121
# Poissons Ratio (y) = 0.05929 0.24811
# Poissons Ratio (z) = 0.32992 0.19652
#
# Static dielectric constant tensor:
#      x y z
#    x 4.301500 0.269600 -0.340130 
#    y 0.269600 4.363510 -0.261960 
#    z -0.340130 -0.261960 3.888950 
# 
# 
# High freq. dielectric constant tensor:
#      x y z
#    x 1.882250 0.010200 -0.017490 
#    y 0.010200 1.889690 -0.019670 
#    z -0.017490 -0.019670 1.874330 
# 
# From -- ./inp_files/419341.got.cif
#   From: 2010.06.25/outbox.cif.g09.slc.cpg/sg2_210_cif.got.tgz:419341.got - 2010.06.27 13:26:56.
