data_PCOD8010278
_publ_section_title
;
Structure prediction by ZEFSAII (Michael W. Deem and Ramdas Pophale) SiO2 
 PCOD8010278
Probable space group: P -1
;
_chemical_formula_sum "Si O2"
_cell_formula_units_Z 16
_cell_length_a 20.811002
_cell_length_b 24.276842
_cell_length_c 8.893389
_cell_angle_alpha 44.369667
_cell_angle_beta 147.833455
_cell_angle_gamma 158.435167
_cell_volume 816.810223
_symmetry_space_group_name_H-M "P -1"
_symmetry_group_IT_number 2
_symmetry_cell_setting 'triclinic'
loop_
_space_group_symop_operation_xyz
x,y,z
-x,-y,-z
loop_
_atom_site_type_symbol
_atom_site_label
_atom_site_fract_x
_atom_site_fract_y
_atom_site_fract_z
Si Si1 0.491239 0.225693 0.857768
Si Si2 0.501637 0.233378 0.220856
Si Si3 0.599165 0.583404 0.373998
Si Si4 0.219776 0.472481 0.664394
Si Si5 0.223257 0.471625 0.323699
Si Si6 0.945026 0.925084 0.384572
Si Si7 0.351120 0.838815 0.198948
Si Si8 0.343452 0.836559 0.841770
O O1 0.624869 0.375650 0.758192
O O2 0.509614 0.244636 0.035643
O O3 0.624374 0.221503 0.082808
O O4 0.207546 0.062827 0.552687
O O5 0.730325 0.412070 0.395133
O O6 0.512260 0.149410 0.455508
O O7 0.247907 0.129649 0.982908
O O8 0.500000 0.500000 0.500000
O O9 0.701951 0.570092 0.508500
O O10 0.823746 0.771501 0.476095
O O11 0.374449 0.494233 0.012867
O O12 0.290042 0.512745 0.550466
O O13 0.933473 0.288559 0.479815
O O14 0.935875 0.322983 0.013172
O O15 0.000000 0.000000 0.500000
O O16 0.470224 0.990075 0.183887
O O17 0.398107 0.845227 0.105520
#
# Coordination Sequence:
#
# PCOD8010278 Si02
#       8
#     2   2   2   2   2   2   2   2
#     4  11  22  37  60  84 114 150 190 232 280 332
#     4  10  21  38  58  83 113 148 188 234 278 332
#     4  11  22  38  61  86 115 146 187 235 278 330
#     4  10  22  39  58  82 115 150 187 228 282 338
#     4  11  22  38  59  83 114 152 187 228 280 337
#     4   9  20  38  56  83 116 146 182 229 282 331
#     4  10  22  39  58  82 115 148 189 234 280 334
#     4  10  22  39  58  83 113 150 188 233 282 334
#
# _framework density 19.588393
#
# number of rings (size 3 to 8) (size 9 to 14) (size 15 to 20)
#    0.000    1.750    0.000    4.875    0.000    8.500 
#    0.000    6.875    0.000    0.000    0.000    0.000 
#    0.000    0.000    0.000    0.000    0.000    0.000 
#
# Total GULP energy -198441.163656 kJ/mol
# GULP energy per Si atom -12402.572729 kJ/mol
# Density = 1.954381 g / cm^3
# Si number density = 19.588393 Si / 1000 Ang^3
#
#
#
# Elastic Constant Matrix: (Units=GPa)
#
#
# Indices 1 2 3 4 5 6 
#
# 1 103.1762 47.4680 47.6089 -8.0453 4.9907 -9.7802
# 2 47.4680 158.5113 73.4149 -4.7414 3.0077 0.6752
# 3 47.6089 73.4149 121.5587 -13.8532 -0.3657 8.3621
# 4 -8.0453 -4.7414 -13.8532 31.2666 -5.4891 2.2716
# 5 4.9907 3.0077 -0.3657 -5.4891 28.8181 -1.7973
# 6 -9.7802 0.6752 8.3621 2.2716 -1.7973 35.8476
#
#
#
# Elastic Compliance Matrix: (Units=1/GPa)
#
#
# Indices 1 2 3 4 5 6 
#
# 1 0.013071 -0.001942 -0.004192 0.000585 -0.001725 0.004457
# 2 -0.001942 0.009171 -0.004990 -0.001522 -0.000942 0.000511
# 3 -0.004192 -0.004990 0.013760 0.004952 0.002086 -0.004469
# 4 0.000585 -0.001522 0.004952 0.035482 0.006699 -0.002879
# 5 -0.001725 -0.000942 0.002086 0.006699 0.036429 0.000462
# 6 0.004457 0.000511 -0.004469 -0.002879 0.000462 0.030350
#
#
# Mechanical properties :
#
#
# Convention : Reuss Voigt Hill
#
# Bulk Modulus (GPa) = 72.69782 80.02553 76.36167
# Shear Modulus (GPa) = 30.28534 33.50341 31.89438
#
# Velocity S-wave (km/s) = 3.93630 4.14015 4.03951
# Velocity P-wave (km/s) = 7.60608 7.98728 7.79901
#
# Compressibility (1/GPa) = 0.01375557
#
# Stress axis : x y z
#
# Youngs Moduli (GPa) = 76.50379 109.03369 72.67428
#
# Poissons Ratio (x) = 0.21170 0.30464
# Poissons Ratio (y) = 0.14854 0.36265
# Poissons Ratio (z) = 0.32070 0.54409
#
# Static dielectric constant tensor:
#      x y z
#    x 3.581520 -0.002530 0.126990 
#    y -0.002530 3.837530 0.249820 
#    z 0.126990 0.249820 3.799930 
# 
# 
# High freq. dielectric constant tensor:
#      x y z
#    x 1.765610 -0.008210 0.008960 
#    y -0.008210 1.775140 0.006400 
#    z 0.008960 0.006400 1.770820 
# 
# From -- ./inp_files/190092.got.cif
#   From: 2010.06.25/outbox.cif.g09.slc.cpg/sg2_96_cif.got.tgz:190092.got - 2010.06.27 13:26:56.
