data_PCOD8010407
_publ_section_title
;
Structure prediction by ZEFSAII (Michael W. Deem and Ramdas Pophale) SiO2 
 PCOD8010407
Probable space group: P -1
;
_chemical_formula_sum "Si O2"
_cell_formula_units_Z 14
_cell_length_a 6.441842
_cell_length_b 15.598154
_cell_length_c 15.937116
_cell_angle_alpha 153.759111
_cell_angle_beta 90.088870
_cell_angle_gamma 80.185507
_cell_volume 654.233354
_symmetry_space_group_name_H-M "P -1"
_symmetry_group_IT_number 2
_symmetry_cell_setting 'triclinic'
loop_
_space_group_symop_operation_xyz
x,y,z
-x,-y,-z
loop_
_atom_site_type_symbol
_atom_site_label
_atom_site_fract_x
_atom_site_fract_y
_atom_site_fract_z
Si Si1 0.901860 0.074361 0.451603
Si Si2 0.923609 0.388553 0.284526
Si Si3 0.675565 0.750216 0.713999
Si Si4 0.199712 0.508396 0.253542
Si Si5 0.369742 0.871515 0.344522
Si Si6 0.183792 0.348865 0.930738
Si Si7 0.595063 0.202609 0.084755
O O1 0.820321 0.249553 0.532213
O O2 0.766618 0.196120 0.642343
O O3 0.841925 0.874136 0.255563
O O4 0.171407 0.010333 0.403482
O O5 0.713660 0.576361 0.490477
O O6 0.838185 0.217495 0.094363
O O7 0.100808 0.275375 0.257082
O O8 0.020508 0.487565 0.299164
O O9 0.491861 0.736584 0.766701
O O10 0.599620 0.973273 0.862563
O O11 0.446677 0.358467 0.150598
O O12 0.141121 0.453569 0.113173
O O13 0.564410 0.683229 0.130042
O O14 0.500000 0.000000 0.500000
O O15 0.000000 0.500000 0.000000
#
# Coordination Sequence:
#
# PCOD8010407 Si02
#       7
#     2   2   2   2   2   2   2
#     4  10  22  40  59  83 117 153 196 252 303 349
#     4  10  21  38  60  86 121 156 191 241 295 355
#     4   9  20  39  62  88 114 154 201 234 290 362
#     4  11  25  37  54  92 121 150 201 243 296 361
#     4   9  19  38  62  81 106 151 200 246 295 354
#     4  11  24  41  62  87 117 159 206 248 299 358
#     4  10  21  38  61  87 119 154 195 246 293 348
#
# _framework density 21.399092
#
# number of rings (size 3 to 8) (size 9 to 14) (size 15 to 20)
#    0.000    2.000    0.000    3.429    0.000   10.286 
#    0.000    2.857    0.000    0.000    0.000    0.000 
#    0.000    0.000    0.000    0.000    0.000    0.000 
#
# Total GULP energy -173558.780501 kJ/mol
# GULP energy per Si atom -12397.055750 kJ/mol
# Density = 2.135039 g / cm^3
# Si number density = 21.399092 Si / 1000 Ang^3
#
#
#
# Elastic Constant Matrix: (Units=GPa)
#
#
# Indices 1 2 3 4 5 6 
#
# 1 96.0909 27.3854 14.9585 16.5222 -4.6239 -1.8649
# 2 27.3854 111.8403 31.6770 28.5738 4.3402 -5.7168
# 3 14.9585 31.6770 65.8131 10.3203 -7.8839 3.6767
# 4 16.5222 28.5738 10.3203 37.2149 0.6381 -3.1370
# 5 -4.6239 4.3402 -7.8839 0.6381 36.6257 -0.2665
# 6 -1.8649 -5.7168 3.6767 -3.1370 -0.2665 19.1373
#
#
#
# Elastic Compliance Matrix: (Units=1/GPa)
#
#
# Indices 1 2 3 4 5 6 
#
# 1 0.011762 -0.001677 -0.001134 -0.003621 0.001505 0.000291
# 2 -0.001677 0.013026 -0.005239 -0.007465 -0.002728 0.003473
# 3 -0.001134 -0.005239 0.019028 -0.001291 0.004556 -0.005479
# 4 -0.003621 -0.007465 -0.001291 0.034860 -0.000433 0.003373
# 5 0.001505 -0.002728 0.004556 -0.000433 0.028796 -0.001214
# 6 0.000291 0.003473 -0.005479 0.003373 -0.001214 0.054909
#
#
# Mechanical properties :
#
#
# Convention : Reuss Voigt Hill
#
# Bulk Modulus (GPa) = 36.08026 46.86511 41.47269
# Shear Modulus (GPa) = 26.63541 31.91047 29.27294
#
# Velocity S-wave (km/s) = 3.53186 3.86580 3.70260
# Velocity P-wave (km/s) = 5.79045 6.47101 6.14016
#
# Compressibility (1/GPa) = 0.02771599
#
# Stress axis : x y z
#
# Youngs Moduli (GPa) = 85.01934 76.76748 52.55358
#
# Poissons Ratio (x) = 0.12876 0.05961
# Poissons Ratio (y) = 0.14260 0.27532
# Poissons Ratio (z) = 0.09643 0.40217
#
# Static dielectric constant tensor:
#      x y z
#    x 3.997810 0.089300 -0.285310 
#    y 0.089300 3.807330 0.047300 
#    z -0.285310 0.047300 3.922160 
# 
# 
# High freq. dielectric constant tensor:
#      x y z
#    x 1.845490 0.006340 -0.004540 
#    y 0.006340 1.831920 0.011870 
#    z -0.004540 0.011870 1.835970 
# 
# From -- ./inp_files/97866.got.cif
#   From: 2010.06.25/outbox.cif.g09.slc.cpg/sg2_49_cif.got.tgz:97866.got - 2010.06.27 13:26:56.
