data_PCOD8010938
_publ_section_title
;
Structure prediction by ZEFSAII (Michael W. Deem and Ramdas Pophale) SiO2 
 PCOD8010938
Probable space group: P -1
;
_chemical_formula_sum "Si O2"
_cell_formula_units_Z 16
_cell_length_a 14.305113
_cell_length_b 15.165291
_cell_length_c 14.664093
_cell_angle_alpha 30.249092
_cell_angle_beta 28.609071
_cell_angle_gamma 47.007171
_cell_volume 727.788514
_symmetry_space_group_name_H-M "P -1"
_symmetry_group_IT_number 2
_symmetry_cell_setting 'triclinic'
loop_
_space_group_symop_operation_xyz
x,y,z
-x,-y,-z
loop_
_atom_site_type_symbol
_atom_site_label
_atom_site_fract_x
_atom_site_fract_y
_atom_site_fract_z
Si Si1 0.795582 0.963144 0.147066
Si Si2 0.157458 0.482785 0.803718
Si Si3 0.538061 0.102910 0.017085
Si Si4 0.067231 0.557175 0.621202
Si Si5 0.402869 0.209814 0.859437
Si Si6 0.498296 0.824917 0.818993
Si Si7 0.896799 0.784264 0.450935
Si Si8 0.224483 0.411770 0.454019
O O1 0.643790 0.079025 0.201335
O O2 0.676160 0.743226 0.453315
O O3 0.889504 0.043209 0.895166
O O4 0.000000 0.000000 0.000000
O O5 0.028932 0.460642 0.838678
O O6 0.224198 0.301858 0.922105
O O7 0.364103 0.655790 0.473504
O O8 0.000000 0.500000 0.000000
O O9 0.704947 0.301953 0.699658
O O10 0.374753 0.111701 0.070583
O O11 0.436219 0.068342 0.235718
O O12 0.634585 0.942513 0.051795
O O13 0.059888 0.419117 0.666479
O O14 0.905101 0.666996 0.639708
O O15 0.701766 0.856523 0.556036
O O16 0.397740 0.605848 0.114702
O O17 0.891533 0.655281 0.482128
#
# Coordination Sequence:
#
# PCOD8010938 Si02
#       8
#     2   2   2   2   2   2   2   2
#     4  10  23  40  62  88 126 164 208 257 317 361
#     4  10  22  39  61  93 122 151 206 254 310 372
#     4   9  19  40  62  83 116 164 199 249 315 363
#     4  10  21  38  65  87 121 167 205 251 315 377
#     4   9  20  41  62  81 123 157 193 258 312 363
#     4  11  23  41  63  95 126 162 220 256 305 382
#     4  11  22  41  64  90 129 167 212 261 309 368
#     4  10  22  42  65  87 128 173 204 258 316 366
#
# _framework density 21.984407999999998
#
# number of rings (size 3 to 8) (size 9 to 14) (size 15 to 20)
#    0.000    2.000    2.500    0.750    5.250    2.000 
#    6.750    1.875    0.000    0.000    0.000    0.000 
#    0.000    0.000    0.000    0.000    0.000    0.000 
#
# Total GULP energy -198244.489287 kJ/mol
# GULP energy per Si atom -12390.280580 kJ/mol
# Density = 2.193437 g / cm^3
# Si number density = 21.984408 Si / 1000 Ang^3
#
#
#
# Elastic Constant Matrix: (Units=GPa)
#
#
# Indices 1 2 3 4 5 6 
#
# 1 114.4546 57.3403 9.2816 2.1452 22.9712 -5.9074
# 2 57.3403 145.0086 38.1335 -5.7937 15.0753 -25.8947
# 3 9.2816 38.1335 39.5629 -6.0972 7.6758 -11.4535
# 4 2.1452 -5.7937 -6.0972 40.4725 -1.5763 2.0162
# 5 22.9712 15.0753 7.6758 -1.5763 22.8227 -2.5249
# 6 -5.9074 -25.8947 -11.4535 2.0162 -2.5249 45.6126
#
#
#
# Elastic Compliance Matrix: (Units=1/GPa)
#
#
# Indices 1 2 3 4 5 6 
#
# 1 0.013344 -0.005283 0.003704 -0.001303 -0.011378 -0.000913
# 2 -0.005283 0.012057 -0.009391 0.000438 0.000966 0.003837
# 3 0.003704 -0.009391 0.036876 0.003467 -0.009273 0.003741
# 4 -0.001303 0.000438 0.003467 0.025429 0.001603 -0.000085
# 5 -0.011378 0.000966 -0.009273 0.001603 0.057846 -0.000122
# 6 -0.000913 0.003837 0.003741 -0.000085 -0.000122 0.024920
#
#
# Mechanical properties :
#
#
# Convention : Reuss Voigt Hill
#
# Bulk Modulus (GPa) = 24.79151 56.50409 40.64780
# Shear Modulus (GPa) = 24.28851 34.73293 29.51072
#
# Velocity S-wave (km/s) = 3.32747 3.97909 3.66778
# Velocity P-wave (km/s) = 5.10530 6.84607 6.03874
#
# Compressibility (1/GPa) = 0.04033639
#
# Stress axis : x y z
#
# Youngs Moduli (GPa) = 74.93793 82.93964 27.11800
#
# Poissons Ratio (x) = 0.43817 -0.10044
# Poissons Ratio (y) = 0.39589 0.25467
# Poissons Ratio (z) = -0.27756 0.77891
#
# Static dielectric constant tensor:
#      x y z
#    x 4.292190 0.033550 0.443670 
#    y 0.033550 4.095550 -0.366780 
#    z 0.443670 -0.366780 3.940240 
# 
# 
# High freq. dielectric constant tensor:
#      x y z
#    x 1.868450 -0.004490 0.020910 
#    y -0.004490 1.868880 -0.017680 
#    z 0.020910 -0.017680 1.835140 
# 
# From -- ./inp_files/534078.got.cif
#   From: 2010.06.25/outbox.cif.g09.slc.cpg/sg2_268_cif.got.tgz:534078.got - 2010.06.27 13:26:56.
