data_PCOD8010485
_publ_section_title
;
Structure prediction by ZEFSAII (Michael W. Deem and Ramdas Pophale) SiO2 
 PCOD8010485
Probable space group: P -1
;
_chemical_formula_sum "Si O2"
_cell_formula_units_Z 16
_cell_length_a 11.371785
_cell_length_b 11.665818
_cell_length_c 23.194717
_cell_angle_alpha 152.356802
_cell_angle_beta 140.413336
_cell_angle_gamma 56.108920
_cell_volume 824.333682
_symmetry_space_group_name_H-M "P -1"
_symmetry_group_IT_number 2
_symmetry_cell_setting 'triclinic'
loop_
_space_group_symop_operation_xyz
x,y,z
-x,-y,-z
loop_
_atom_site_type_symbol
_atom_site_label
_atom_site_fract_x
_atom_site_fract_y
_atom_site_fract_z
Si Si1 0.300984 0.283137 0.929416
Si Si2 0.846256 0.750914 0.024186
Si Si3 0.845725 0.020717 0.031159
Si Si4 0.787071 0.549950 0.238643
Si Si5 0.602362 0.187617 0.432691
Si Si6 0.264940 0.751892 0.174659
Si Si7 0.120693 0.028975 0.629503
Si Si8 0.274564 0.214238 0.235104
O O1 0.203291 0.116624 0.877609
O O2 0.210718 0.083414 0.752174
O O3 0.543926 0.407420 0.082783
O O4 0.237473 0.538568 0.016048
O O5 0.089237 0.857720 0.156417
O O6 0.757975 0.844741 0.977567
O O7 0.742673 0.418375 0.844954
O O8 0.870173 0.326453 0.185238
O O9 0.060692 0.014864 0.093892
O O10 0.692515 0.879460 0.857913
O O11 0.888915 0.790440 0.433005
O O12 0.865924 0.688926 0.267444
O O13 0.747165 0.068201 0.406049
O O14 0.451338 0.198348 0.331814
O O15 0.726489 0.489819 0.638127
O O16 0.481063 0.007246 0.361319
#
# Coordination Sequence:
#
# PCOD8010485 Si02
#       8
#     2   2   2   2   2   2   2   2
#     4  10  21  38  61  81 116 163 193 234 293 341
#     4   9  20  39  59  84 112 160 201 232 282 359
#     4  11  21  38  55  86 120 152 189 242 300 345
#     4  11  23  36  57  90 123 151 193 248 287 353
#     4  11  19  40  58  89 116 146 198 246 293 346
#     4   9  19  37  64  80 111 158 197 239 283 342
#     4  11  22  37  59  92 118 151 201 240 292 349
#     4  10  23  33  62  86 114 152 188 248 306 338
#
# _framework density 19.409616
#
# number of rings (size 3 to 8) (size 9 to 14) (size 15 to 20)
#    0.750    1.000    3.750    1.125    1.750    0.500 
#    0.000    2.500    0.000    0.000    0.000    0.000 
#    0.000    0.000    0.000    0.000    0.000    0.000 
#
# Total GULP energy -198230.115306 kJ/mol
# GULP energy per Si atom -12389.382207 kJ/mol
# Density = 1.936544 g / cm^3
# Si number density = 19.409616 Si / 1000 Ang^3
#
#
#
# Elastic Constant Matrix: (Units=GPa)
#
#
# Indices 1 2 3 4 5 6 
#
# 1 83.4978 32.3712 39.7229 -6.3888 0.3036 15.2343
# 2 32.3712 93.5599 27.3160 8.7362 -1.8319 17.7811
# 3 39.7229 27.3160 91.1461 -11.1108 -1.6797 11.6288
# 4 -6.3888 8.7362 -11.1108 29.5578 -1.8149 4.2104
# 5 0.3036 -1.8319 -1.6797 -1.8149 14.0979 -0.4206
# 6 15.2343 17.7811 11.6288 4.2104 -0.4206 29.2699
#
#
#
# Elastic Compliance Matrix: (Units=1/GPa)
#
#
# Indices 1 2 3 4 5 6 
#
# 1 0.017152 -0.003777 -0.005297 0.003478 -0.001194 -0.005045
# 2 -0.003777 0.014185 -0.002612 -0.005252 0.000793 -0.004847
# 3 -0.005297 -0.002612 0.015127 0.005803 0.002250 -0.002468
# 4 0.003478 -0.005252 0.005803 0.039546 0.004830 -0.006544
# 5 -0.001194 0.000793 0.002250 0.004830 0.071939 -0.000415
# 6 -0.005045 -0.004847 -0.002468 -0.006544 -0.000415 0.041651
#
#
# Mechanical properties :
#
#
# Convention : Reuss Voigt Hill
#
# Bulk Modulus (GPa) = 43.30890 51.89156 47.60023
# Shear Modulus (GPa) = 21.67604 25.83804 23.75704
#
# Velocity S-wave (km/s) = 3.34543 3.65252 3.50234
# Velocity P-wave (km/s) = 6.10607 6.67689 6.39785
#
# Compressibility (1/GPa) = 0.02308994
#
# Stress axis : x y z
#
# Youngs Moduli (GPa) = 58.30275 70.49771 66.10812
#
# Poissons Ratio (x) = 0.26627 0.35020
# Poissons Ratio (y) = 0.22021 0.17269
# Poissons Ratio (z) = 0.30886 0.18416
#
# Static dielectric constant tensor:
#      x y z
#    x 3.507720 -0.010560 0.070120 
#    y -0.010560 3.512640 0.098170 
#    z 0.070120 0.098170 3.530360 
# 
# 
# High freq. dielectric constant tensor:
#      x y z
#    x 1.743690 -0.008640 0.011930 
#    y -0.008640 1.754890 0.005180 
#    z 0.011930 0.005180 1.738360 
# 
# From -- ./inp_files/574985.got.cif
#   From: 2010.06.25/outbox.cif.g09.slc.cpg/sg2_288_cif.got.tgz:574985.got - 2010.06.27 13:26:56.
