data_PCOD8010679
_publ_section_title
;
Structure prediction by ZEFSAII (Michael W. Deem and Ramdas Pophale) SiO2 
 PCOD8010679
Probable space group: P -1
;
_chemical_formula_sum "Si O2"
_cell_formula_units_Z 14
_cell_length_a 7.283029
_cell_length_b 24.836598
_cell_length_c 6.386602
_cell_angle_alpha 101.028126
_cell_angle_beta 67.627147
_cell_angle_gamma 139.304921
_cell_volume 687.428084
_symmetry_space_group_name_H-M "P -1"
_symmetry_group_IT_number 2
_symmetry_cell_setting 'triclinic'
loop_
_space_group_symop_operation_xyz
x,y,z
-x,-y,-z
loop_
_atom_site_type_symbol
_atom_site_label
_atom_site_fract_x
_atom_site_fract_y
_atom_site_fract_z
Si Si1 0.144207 0.115098 0.505289
Si Si2 0.218600 0.754084 0.836474
Si Si3 0.167857 0.312442 0.425203
Si Si4 0.873779 0.170086 0.742951
Si Si5 0.286550 0.409644 0.823290
Si Si6 0.221447 0.036284 0.737787
Si Si7 0.321487 0.543220 0.955840
O O1 0.427011 0.187313 0.280961
O O2 0.239599 0.093255 0.627365
O O3 0.021499 0.142158 0.705657
O O4 0.882840 0.036926 0.410841
O O5 0.130172 0.739934 0.621506
O O6 0.164532 0.801133 0.011310
O O7 0.021684 0.665133 0.965229
O O8 0.234623 0.378336 0.590041
O O9 0.452700 0.366978 0.187711
O O10 0.114817 0.247900 0.538934
O O11 0.552668 0.092536 0.719342
O O12 0.352809 0.487440 0.823710
O O13 0.574269 0.438055 0.830158
O O14 0.000000 0.000000 0.000000
O O15 0.000000 0.500000 0.000000
#
# Coordination Sequence:
#
# PCOD8010679 Si02
#       7
#     2   2   2   2   2   2   2
#     4  11  24  40  65  90 120 167 202 252 314 355
#     4  10  21  42  60  91 128 157 209 252 297 369
#     4  10  21  41  61  86 128 161 196 252 303 355
#     4  11  23  41  63  92 123 163 206 253 304 365
#     4   9  21  40  60  86 127 159 193 256 299 344
#     4  11  23  43  63  91 124 158 208 257 304 365
#     4  10  21  38  62  93 118 158 206 243 296 366
#
# _framework density 20.365766000000001
#
# number of rings (size 3 to 8) (size 9 to 14) (size 15 to 20)
#    0.000    1.714    2.857    0.857    2.000    2.286 
#    7.714    0.000    0.000    0.000    0.000    0.000 
#    0.000    0.000    0.000    0.000    0.000    0.000 
#
# Total GULP energy -173529.035578 kJ/mol
# GULP energy per Si atom -12394.931113 kJ/mol
# Density = 2.031941 g / cm^3
# Si number density = 20.365766 Si / 1000 Ang^3
#
#
#
# Elastic Constant Matrix: (Units=GPa)
#
#
# Indices 1 2 3 4 5 6 
#
# 1 97.1607 41.7122 33.8652 4.0595 -6.9839 17.4204
# 2 41.7122 97.2038 22.8308 0.6102 -3.6421 16.4805
# 3 33.8652 22.8308 76.4539 10.9421 1.7926 7.4805
# 4 4.0595 0.6102 10.9421 37.4869 5.2114 0.8200
# 5 -6.9839 -3.6421 1.7926 5.2114 29.0498 3.0279
# 6 17.4204 16.4805 7.4805 0.8200 3.0279 27.1466
#
#
#
# Elastic Compliance Matrix: (Units=1/GPa)
#
#
# Indices 1 2 3 4 5 6 
#
# 1 0.015256 -0.004152 -0.004908 -0.000599 0.004221 -0.006370
# 2 -0.004152 0.013400 -0.001788 0.000699 0.001202 -0.005133
# 3 -0.004908 -0.001788 0.016396 -0.003989 -0.001703 0.000028
# 4 -0.000599 0.000699 -0.003989 0.028575 -0.005015 0.000756
# 5 0.004221 0.001202 -0.001703 -0.005015 0.037322 -0.006981
# 6 -0.006370 -0.005133 0.000028 0.000756 -0.006981 0.044789
#
#
# Mechanical properties :
#
#
# Convention : Reuss Voigt Hill
#
# Bulk Modulus (GPa) = 42.81579 51.95942 47.38760
# Shear Modulus (GPa) = 26.99508 30.23067 28.61287
#
# Velocity S-wave (km/s) = 3.64471 3.85695 3.75233
# Velocity P-wave (km/s) = 6.22743 6.73820 6.48784
#
# Compressibility (1/GPa) = 0.02335587
#
# Stress axis : x y z
#
# Youngs Moduli (GPa) = 65.54875 74.62452 60.99109
#
# Poissons Ratio (x) = 0.30984 0.29932
# Poissons Ratio (y) = 0.27216 0.10908
# Poissons Ratio (z) = 0.32169 0.13346
#
# Static dielectric constant tensor:
#      x y z
#    x 3.461610 0.129460 0.231320 
#    y 0.129460 4.068010 -0.021430 
#    z 0.231320 -0.021430 3.694840 
# 
# 
# High freq. dielectric constant tensor:
#      x y z
#    x 1.772470 0.009760 0.015900 
#    y 0.009760 1.824590 -0.001740 
#    z 0.015900 -0.001740 1.791330 
# 
# From -- ./inp_files/5049.got.cif
#   From: 2010.06.25/outbox.cif.g09.slc.cpg/sg2_3_cif.got.tgz:5049.got - 2010.06.27 13:26:56.
