data_PCOD8010884
_publ_section_title
;
Structure prediction by ZEFSAII (Michael W. Deem and Ramdas Pophale) SiO2 
 PCOD8010884
Probable space group: P -1
;
_chemical_formula_sum "Si O2"
_cell_formula_units_Z 16
_cell_length_a 9.127012
_cell_length_b 6.755329
_cell_length_c 21.927704
_cell_angle_alpha 127.662683
_cell_angle_beta 131.457258
_cell_angle_gamma 56.879958
_cell_volume 778.830209
_symmetry_space_group_name_H-M "P -1"
_symmetry_group_IT_number 2
_symmetry_cell_setting 'triclinic'
loop_
_space_group_symop_operation_xyz
x,y,z
-x,-y,-z
loop_
_atom_site_type_symbol
_atom_site_label
_atom_site_fract_x
_atom_site_fract_y
_atom_site_fract_z
Si Si1 0.220885 0.208489 0.667805
Si Si2 0.217376 0.308189 0.823207
Si Si3 0.787176 0.127740 0.095427
Si Si4 0.527731 0.903102 0.900339
Si Si5 0.805678 0.555006 0.603641
Si Si6 0.431366 0.632851 0.597833
Si Si7 0.497256 0.530512 0.275613
Si Si8 0.093015 0.934401 0.244651
O O1 0.285085 0.210769 0.756054
O O2 0.308752 0.416895 0.694367
O O3 0.978654 0.293462 0.611105
O O4 0.305664 0.925829 0.610753
O O5 0.170590 0.615509 0.873910
O O6 0.014837 0.223185 0.768993
O O7 0.396877 0.179757 0.894018
O O8 0.595546 0.208659 0.102871
O O9 0.984257 0.973907 0.156370
O O10 0.736442 0.945237 0.993381
O O11 0.574531 0.704252 0.820048
O O12 0.657823 0.595524 0.628737
O O13 0.682482 0.544825 0.505916
O O14 0.911800 0.792284 0.674021
O O15 0.439651 0.539453 0.651336
O O16 0.321320 0.785448 0.269379
#
# Coordination Sequence:
#
# PCOD8010884 Si02
#       8
#     2   2   2   2   2   2   2   2
#     4  12  22  43  68  95 127 170 214 260 320 380
#     4  11  20  40  67  89 126 172 206 260 326 373
#     4  10  21  40  63  92 125 168 211 261 316 378
#     4  10  21  38  64  94 125 162 217 261 312 378
#     4  11  24  47  66  93 132 168 210 267 321 380
#     4  11  26  45  66  96 129 166 214 267 321 376
#     4  12  24  41  64  95 128 168 213 266 315 376
#     4  11  24  40  63  93 129 169 212 261 322 377
#
# _framework density 20.543631999999999
#
# number of rings (size 3 to 8) (size 9 to 14) (size 15 to 20)
#    0.000    1.000    5.000    2.250    0.000    1.500 
#    2.250    0.625    0.000    0.000    0.000    0.000 
#    0.000    0.000    0.000    0.000    0.000    0.000 
#
# Total GULP energy -198491.171992 kJ/mol
# GULP energy per Si atom -12405.698249 kJ/mol
# Density = 2.049687 g / cm^3
# Si number density = 20.543632 Si / 1000 Ang^3
#
#
#
# Elastic Constant Matrix: (Units=GPa)
#
#
# Indices 1 2 3 4 5 6 
#
# 1 95.9401 47.9709 37.9511 -6.9455 2.6773 2.8434
# 2 47.9709 106.6420 38.7893 -9.5803 8.6382 -0.0960
# 3 37.9511 38.7893 125.1529 -10.9810 -0.4788 9.6717
# 4 -6.9455 -9.5803 -10.9810 18.3663 3.2796 -0.0218
# 5 2.6773 8.6382 -0.4788 3.2796 29.7033 -1.5695
# 6 2.8434 -0.0960 9.6717 -0.0218 -1.5695 42.0933
#
#
#
# Elastic Compliance Matrix: (Units=1/GPa)
#
#
# Indices 1 2 3 4 5 6 
#
# 1 0.014194 -0.005387 -0.002513 0.001034 0.000112 -0.000389
# 2 -0.005387 0.013291 -0.002183 0.004278 -0.003847 0.000755
# 3 -0.002513 -0.002183 0.009922 0.003752 0.000497 -0.002095
# 4 0.001034 0.004278 0.003752 0.060749 -0.008047 -0.001191
# 5 0.000112 -0.003847 0.000497 -0.008047 0.035735 0.001198
# 6 -0.000389 0.000755 -0.002095 -0.001191 0.001198 0.024310
#
#
# Mechanical properties :
#
#
# Convention : Reuss Voigt Hill
#
# Bulk Modulus (GPa) = 58.00620 64.12863 61.06741
# Shear Modulus (GPa) = 27.15666 31.56749 29.36208
#
# Velocity S-wave (km/s) = 3.63974 3.92421 3.78465
# Velocity P-wave (km/s) = 6.77942 7.19834 6.99202
#
# Compressibility (1/GPa) = 0.01723954
#
# Stress axis : x y z
#
# Youngs Moduli (GPa) = 70.45041 75.23627 100.78581
#
# Poissons Ratio (x) = 0.40533 0.25330
# Poissons Ratio (y) = 0.37954 0.22007
# Poissons Ratio (z) = 0.17706 0.16428
#
# Static dielectric constant tensor:
#      x y z
#    x 3.621220 0.040780 0.030660 
#    y 0.040780 3.664080 0.005240 
#    z 0.030660 0.005240 3.784260 
# 
# 
# High freq. dielectric constant tensor:
#      x y z
#    x 1.794440 0.004320 0.002900 
#    y 0.004320 1.807790 -0.002560 
#    z 0.002900 -0.002560 1.811530 
# 
# From -- ./inp_files/46830.got.cif
#   From: 2010.06.25/outbox.cif.g09.slc.cpg/sg2_24_cif.got.tgz:46830.got - 2010.06.27 13:26:56.
