data_PCOD8010708
_publ_section_title
;
Structure prediction by ZEFSAII (Michael W. Deem and Ramdas Pophale) SiO2 
 PCOD8010708
Probable space group: P -1
;
_chemical_formula_sum "Si O2"
_cell_formula_units_Z 16
_cell_length_a 13.263307
_cell_length_b 8.513306
_cell_length_c 13.933548
_cell_angle_alpha 109.141806
_cell_angle_beta 32.570652
_cell_angle_gamma 119.336150
_cell_volume 726.150725
_symmetry_space_group_name_H-M "P -1"
_symmetry_group_IT_number 2
_symmetry_cell_setting 'triclinic'
loop_
_space_group_symop_operation_xyz
x,y,z
-x,-y,-z
loop_
_atom_site_type_symbol
_atom_site_label
_atom_site_fract_x
_atom_site_fract_y
_atom_site_fract_z
Si Si1 0.201783 0.951337 0.512296
Si Si2 0.952557 0.807026 0.198976
Si Si3 0.224629 0.745337 0.632899
Si Si4 0.578790 0.645999 0.320992
Si Si5 0.957229 0.790369 0.505896
Si Si6 0.469991 0.283666 0.234274
Si Si7 0.793213 0.006422 0.134836
Si Si8 0.885992 0.377025 0.821805
O O1 0.297525 0.874446 0.504975
O O2 0.047436 0.780167 0.536866
O O3 0.062322 0.046240 0.686201
O O4 0.385386 0.097533 0.328339
O O5 0.740225 0.720691 0.293089
O O6 0.987694 0.652383 0.197008
O O7 0.162693 0.903089 0.987159
O O8 0.351996 0.624028 0.528247
O O9 0.265634 0.874775 0.717699
O O10 0.985628 0.599837 0.778887
O O11 0.578657 0.455025 0.252305
O O12 0.630671 0.794514 0.222541
O O13 0.710029 0.681365 0.670711
O O14 0.079454 0.718356 0.320078
O O15 0.000000 0.000000 0.500000
O O16 0.640673 0.288665 0.021292
O O17 0.000000 0.000000 0.000000
#
# Coordination Sequence:
#
# PCOD8010708 Si02
#       8
#     2   2   2   2   2   2   2   2
#     4  11  24  44  71  95 137 179 222 275 343 388
#     4  11  23  42  67 100 135 182 215 277 336 400
#     4  12  24  43  67 100 140 180 216 279 337 401
#     4  11  23  42  66  97 144 172 225 271 333 402
#     4  10  22  49  68  96 136 173 227 284 324 401
#     4  11  25  45  70 101 133 178 227 278 330 399
#     4  10  21  38  62  97 137 172 217 268 330 399
#     4  12  25  44  71 100 135 176 228 277 336 389
#
# _framework density 22.033994
#
# number of rings (size 3 to 8) (size 9 to 14) (size 15 to 20)
#    0.000    1.000    6.250    1.875    1.750    6.500 
#    0.000    0.625    0.000    0.000    0.000    0.000 
#    0.000    0.000    0.000    0.000    0.000    0.000 
#
# Total GULP energy -198301.557141 kJ/mol
# GULP energy per Si atom -12393.847321 kJ/mol
# Density = 2.198384 g / cm^3
# Si number density = 22.033994 Si / 1000 Ang^3
#
#
#
# Elastic Constant Matrix: (Units=GPa)
#
#
# Indices 1 2 3 4 5 6 
#
# 1 74.2973 23.4846 53.4277 -1.9363 2.8269 10.4833
# 2 23.4846 85.5212 37.6621 -5.5557 7.0184 9.3104
# 3 53.4277 37.6621 143.5582 3.4517 -1.7233 10.8930
# 4 -1.9363 -5.5557 3.4517 33.9693 -7.5337 -3.4961
# 5 2.8269 7.0184 -1.7233 -7.5337 21.2664 2.6303
# 6 10.4833 9.3104 10.8930 -3.4961 2.6303 26.2946
#
#
#
# Elastic Compliance Matrix: (Units=1/GPa)
#
#
# Indices 1 2 3 4 5 6 
#
# 1 0.019336 -0.001841 -0.006436 0.000643 -0.001746 -0.004131
# 2 -0.001841 0.014165 -0.002921 0.001394 -0.003864 -0.002500
# 3 -0.006436 -0.002921 0.010273 -0.001500 0.002254 -0.001080
# 4 0.000643 0.001394 -0.001500 0.032498 0.010456 0.003146
# 5 -0.001746 -0.003864 0.002254 0.010456 0.052758 -0.002757
# 6 -0.004131 -0.002500 -0.001080 0.003146 -0.002757 0.041704
#
#
# Mechanical properties :
#
#
# Convention : Reuss Voigt Hill
#
# Bulk Modulus (GPa) = 46.77969 59.16950 52.97460
# Shear Modulus (GPa) = 24.96823 28.89287 26.93055
#
# Velocity S-wave (km/s) = 3.36991 3.62510 3.49983
# Velocity P-wave (km/s) = 6.03477 6.66587 6.35816
#
# Compressibility (1/GPa) = 0.02137680
#
# Stress axis : x y z
#
# Youngs Moduli (GPa) = 51.71824 70.59798 97.34606
#
# Poissons Ratio (x) = 0.12994 0.62654
# Poissons Ratio (y) = 0.09519 0.28438
# Poissons Ratio (z) = 0.33287 0.20624
#
# Static dielectric constant tensor:
#      x y z
#    x 4.181900 0.292170 -0.687640 
#    y 0.292170 3.363500 1.922490 
#    z -0.687640 1.922490 -2.679750 
# 
# 
# High freq. dielectric constant tensor:
#      x y z
#    x 1.852280 0.001520 -0.002760 
#    y 0.001520 1.867950 -0.001240 
#    z -0.002760 -0.001240 1.873750 
# 
# From -- ./inp_files/528802.got.cif
#   From: 2010.06.25/outbox.cif.g09.slc.cpg/sg2_265_cif.got.tgz:528802.got - 2010.06.27 13:26:56.
