data_PCOD8010799
_publ_section_title
;
Structure prediction by ZEFSAII (Michael W. Deem and Ramdas Pophale) SiO2 
 PCOD8010799
Probable space group: P -1
;
_chemical_formula_sum "Si O2"
_cell_formula_units_Z 14
_cell_length_a 11.763365
_cell_length_b 17.636086
_cell_length_c 14.206904
_cell_angle_alpha 22.750768
_cell_angle_beta 141.632078
_cell_angle_gamma 141.260573
_cell_volume 687.284666
_symmetry_space_group_name_H-M "P -1"
_symmetry_group_IT_number 2
_symmetry_cell_setting 'triclinic'
loop_
_space_group_symop_operation_xyz
x,y,z
-x,-y,-z
loop_
_atom_site_type_symbol
_atom_site_label
_atom_site_fract_x
_atom_site_fract_y
_atom_site_fract_z
Si Si1 0.972529 0.911388 0.481267
Si Si2 0.754105 0.098030 0.985699
Si Si3 0.682680 0.175075 0.305681
Si Si4 0.748103 0.014580 0.732348
Si Si5 0.025690 0.736587 0.239192
Si Si6 0.782237 0.486455 0.876475
Si Si7 0.550891 0.290227 0.784520
O O1 0.786551 0.718708 0.586313
O O2 0.174747 0.883051 0.610915
O O3 0.919116 0.068229 0.195281
O O4 0.000000 0.000000 0.500000
O O5 0.629603 0.887320 0.107305
O O6 0.836837 0.213773 0.815215
O O7 0.640653 0.237550 0.806270
O O8 0.757481 0.144021 0.493887
O O9 0.467276 0.049752 0.298472
O O10 0.694536 0.409368 0.012034
O O11 0.875492 0.166571 0.712727
O O12 0.834950 0.816455 0.004764
O O13 0.000000 0.500000 0.500000
O O14 0.687479 0.318841 0.930248
O O15 0.000000 0.500000 0.000000
O O16 0.500000 0.500000 0.500000
#
# Coordination Sequence:
#
# PCOD8010799 Si02
#       7
#     2   2   2   2   2   2   2
#     4  11  22  39  63  97 134 164 211 268 330 394
#     4  11  23  41  65  97 132 167 217 272 319 392
#     4  10  21  43  68  91 129 171 215 267 327 381
#     4  10  23  46  67  92 129 173 219 274 318 374
#     4  11  25  43  67  94 127 175 224 265 324 379
#     4  10  21  38  63  96 126 172 204 254 339 385
#     4  11  23  41  67  98 133 172 213 264 334 389
#
# _framework density 20.370014999999999
#
# number of rings (size 3 to 8) (size 9 to 14) (size 15 to 20)
#    0.000    1.429    2.857    2.571    0.000    8.000 
#    2.571    1.429    0.000    0.000    0.000    0.000 
#    0.000    0.000    0.000    0.000    0.000    0.000 
#
# Total GULP energy -173453.307431 kJ/mol
# GULP energy per Si atom -12389.521959 kJ/mol
# Density = 2.032365 g / cm^3
# Si number density = 20.370015 Si / 1000 Ang^3
#
#
#
# Elastic Constant Matrix: (Units=GPa)
#
#
# Indices 1 2 3 4 5 6 
#
# 1 130.8750 52.8387 64.3270 -8.1348 -26.4945 8.6139
# 2 52.8387 120.6159 46.2932 -1.0950 -8.6184 -3.6641
# 3 64.3270 46.2932 125.1323 -14.1540 -8.8060 0.3631
# 4 -8.1348 -1.0950 -14.1540 33.7832 0.3483 0.1982
# 5 -26.4945 -8.6184 -8.8060 0.3483 31.8052 3.0175
# 6 8.6139 -3.6641 0.3631 0.1982 3.0175 30.7170
#
#
#
# Elastic Compliance Matrix: (Units=1/GPa)
#
#
# Indices 1 2 3 4 5 6 
#
# 1 0.013957 -0.003648 -0.005003 0.001077 0.009740 -0.005254
# 2 -0.003648 0.010786 -0.002364 -0.001523 -0.000986 0.002444
# 3 -0.005003 -0.002364 0.011726 0.003643 -0.001708 0.001127
# 4 0.001077 -0.001523 0.003643 0.031329 0.001230 -0.000850
# 5 0.009740 -0.000986 -0.001708 0.001230 0.039438 -0.006711
# 6 -0.005254 0.002444 0.001127 -0.000850 -0.006711 0.034971
#
#
# Mechanical properties :
#
#
# Convention : Reuss Voigt Hill
#
# Bulk Modulus (GPa) = 69.25084 78.17121 73.71103
# Shear Modulus (GPa) = 29.57690 33.47204 31.52447
#
# Velocity S-wave (km/s) = 3.81462 4.05804 3.93821
# Velocity P-wave (km/s) = 7.31246 7.77276 7.54612
#
# Compressibility (1/GPa) = 0.01444026
#
# Stress axis : x y z
#
# Youngs Moduli (GPa) = 71.64793 92.71188 85.27719
#
# Poissons Ratio (x) = 0.33821 0.42663
# Poissons Ratio (y) = 0.26137 0.20158
# Poissons Ratio (z) = 0.35845 0.21915
#
# Static dielectric constant tensor:
#      x y z
#    x 3.819110 0.176560 -0.544780 
#    y 0.176560 3.740760 -0.271030 
#    z -0.544780 -0.271030 4.903880 
# 
# 
# High freq. dielectric constant tensor:
#      x y z
#    x 1.795290 0.002760 -0.014630 
#    y 0.002760 1.801320 0.015070 
#    z -0.014630 0.015070 1.810580 
# 
# From -- ./inp_files/387329.got.cif
#   From: 2010.06.25/outbox.cif.g09.slc.cpg/sg2_194_cif.got.tgz:387329.got - 2010.06.27 13:26:56.
