data_PCOD8010449
_publ_section_title
;
Structure prediction by ZEFSAII (Michael W. Deem and Ramdas Pophale) SiO2 
 PCOD8010449
Probable space group: P -1
;
_chemical_formula_sum "Si O2"
_cell_formula_units_Z 16
_cell_length_a 5.393279
_cell_length_b 20.428893
_cell_length_c 9.635232
_cell_angle_alpha 139.475743
_cell_angle_beta 82.111406
_cell_angle_gamma 112.740860
_cell_volume 614.067685
_symmetry_space_group_name_H-M "P -1"
_symmetry_group_IT_number 2
_symmetry_cell_setting 'triclinic'
loop_
_space_group_symop_operation_xyz
x,y,z
-x,-y,-z
loop_
_atom_site_type_symbol
_atom_site_label
_atom_site_fract_x
_atom_site_fract_y
_atom_site_fract_z
Si Si1 0.731044 0.910965 0.804372
Si Si2 0.763226 0.849301 0.419380
Si Si3 0.180496 0.649896 0.073194
Si Si4 0.226584 0.928178 0.323965
Si Si5 0.880536 0.370908 0.271582
Si Si6 0.258662 0.438096 0.811626
Si Si7 0.280985 0.309706 0.338621
Si Si8 0.746023 0.123166 0.049826
O O1 0.782670 0.834345 0.560036
O O2 0.468233 0.831970 0.794287
O O3 0.610785 0.988680 0.857021
O O4 0.000000 0.000000 0.000000
O O5 0.470361 0.760118 0.240974
O O6 0.006681 0.834243 0.293396
O O7 0.860645 0.981599 0.594077
O O8 0.986939 0.653574 0.221989
O O9 0.070468 0.651560 0.928909
O O10 0.189242 0.530695 0.892741
O O11 0.500000 0.000000 0.500000
O O12 0.257731 0.851457 0.074374
O O13 0.549701 0.319590 0.251139
O O14 0.000000 0.500000 0.500000
O O15 0.058382 0.330314 0.293040
O O16 0.357727 0.380689 0.589003
O O17 0.500000 0.500000 0.000000
O O18 0.064462 0.179628 0.184289
#
# Coordination Sequence:
#
# PCOD8010449 Si02
#       8
#     2   2   2   2   2   2   2   2
#     4  10  21  39  64  89 134 171 217 274 328 397
#     4  10  22  39  61  91 125 164 216 262 329 395
#     4  11  25  43  68  98 136 181 228 280 347 407
#     4  10  21  38  60  90 126 162 207 267 323 385
#     4  12  26  47  72 100 141 180 229 288 345 408
#     4  11  26  45  68  98 138 178 228 286 339 409
#     4  12  27  45  74 104 138 182 232 284 344 412
#     4  10  23  39  61  97 125 171 223 266 333 393
#
# _framework density 26.055757
#
# number of rings (size 3 to 8) (size 9 to 14) (size 15 to 20)
#    0.000    1.250    1.250    3.375    7.000    2.000 
#    0.000    0.000    0.000    0.000    0.000    0.000 
#    0.000    0.000    0.000    0.000    0.000    0.000 
#
# Total GULP energy -198249.502977 kJ/mol
# GULP energy per Si atom -12390.593936 kJ/mol
# Density = 2.599645 g / cm^3
# Si number density = 26.055757 Si / 1000 Ang^3
#
#
#
# Elastic Constant Matrix: (Units=GPa)
#
#
# Indices 1 2 3 4 5 6 
#
# 1 99.0284 40.3378 16.9334 -17.7006 13.9494 32.8526
# 2 40.3378 127.0300 48.8301 -19.6148 -4.2189 38.1339
# 3 16.9334 48.8301 145.7869 -40.2882 17.7456 10.5789
# 4 -17.7006 -19.6148 -40.2882 54.6939 9.1374 -0.9093
# 5 13.9494 -4.2189 17.7456 9.1374 45.7530 -1.4603
# 6 32.8526 38.1339 10.5789 -0.9093 -1.4603 43.1076
#
#
#
# Elastic Compliance Matrix: (Units=1/GPa)
#
#
# Indices 1 2 3 4 5 6 
#
# 1 0.017058 -0.001876 0.002806 0.008128 -0.008473 -0.012145
# 2 -0.001876 0.012663 -0.003496 0.000768 0.002661 -0.008808
# 3 0.002806 -0.003496 0.011283 0.009179 -0.007447 -0.001873
# 4 0.008128 0.000768 0.009179 0.029843 -0.012212 -0.008911
# 5 -0.008473 0.002661 -0.007447 -0.012212 0.030226 0.006697
# 6 -0.012145 -0.008808 -0.001873 -0.008911 0.006697 0.040744
#
#
# Mechanical properties :
#
#
# Convention : Reuss Voigt Hill
#
# Bulk Modulus (GPa) = 27.87696 64.89420 46.38558
# Shear Modulus (GPa) = 31.46539 46.42715 38.94627
#
# Velocity S-wave (km/s) = 3.47885 4.22576 3.87037
# Velocity P-wave (km/s) = 5.18254 6.98351 6.14931
#
# Compressibility (1/GPa) = 0.03587192
#
# Stress axis : x y z
#
# Youngs Moduli (GPa) = 58.62483 78.97233 88.62657
#
# Poissons Ratio (x) = 0.14813 -0.24866
# Poissons Ratio (y) = 0.10996 0.30983
# Poissons Ratio (z) = -0.16448 0.27608
#
# Static dielectric constant tensor:
#      x y z
#    x 4.496430 0.658460 -0.081010 
#    y 0.658460 4.187730 -0.912070 
#    z -0.081010 -0.912070 4.520500 
# 
# 
# High freq. dielectric constant tensor:
#      x y z
#    x 2.035510 0.001270 -0.002810 
#    y 0.001270 2.076910 -0.005190 
#    z -0.002810 -0.005190 2.056930 
# 
# From -- ./inp_files/90708.got.cif
#   From: 2010.06.25/outbox.cif.g09.slc.cpg/sg2_46_cif.got.tgz:90708.got - 2010.06.27 13:26:56.
