data_PCOD8010421
_publ_section_title
;
Structure prediction by ZEFSAII (Michael W. Deem and Ramdas Pophale) SiO2 
 PCOD8010421
Probable space group: P -1
;
_chemical_formula_sum "Si O2"
_cell_formula_units_Z 16
_cell_length_a 26.305185
_cell_length_b 10.613951
_cell_length_c 5.196405
_cell_angle_alpha 119.651398
_cell_angle_beta 78.162185
_cell_angle_gamma 142.997107
_cell_volume 707.047767
_symmetry_space_group_name_H-M "P -1"
_symmetry_group_IT_number 2
_symmetry_cell_setting 'triclinic'
loop_
_space_group_symop_operation_xyz
x,y,z
-x,-y,-z
loop_
_atom_site_type_symbol
_atom_site_label
_atom_site_fract_x
_atom_site_fract_y
_atom_site_fract_z
Si Si1 0.466937 0.699858 0.273877
Si Si2 0.635004 0.245215 0.575211
Si Si3 0.999070 0.173366 0.189049
Si Si4 0.071962 0.037103 0.449159
Si Si5 0.779793 0.978725 0.687058
Si Si6 0.103979 0.677617 0.585454
Si Si7 0.579103 0.565417 0.444824
Si Si8 0.264920 0.463484 0.741436
O O1 0.423649 0.750652 0.281677
O O2 0.441319 0.607260 0.501162
O O3 0.575726 0.964177 0.394687
O O4 0.428835 0.495923 0.907567
O O5 0.663299 0.318032 0.321836
O O6 0.715640 0.432105 0.887743
O O7 0.939115 0.086130 0.408077
O O8 0.946895 0.109045 0.923364
O O9 0.094333 0.478065 0.411676
O O10 0.000000 0.000000 0.000000
O O11 0.171880 0.330932 0.625749
O O12 0.000000 0.000000 0.500000
O O13 0.839520 0.157465 0.560735
O O14 0.684930 0.854956 0.668833
O O15 0.749262 0.741479 0.459790
O O16 0.839052 0.138338 0.042407
O O17 0.000000 0.500000 0.500000
O O18 0.500000 0.500000 0.500000
#
# Coordination Sequence:
#
# PCOD8010421 Si02
#       8
#     2   2   2   2   2   2   2   2
#     4  11  22  44  66  98 133 170 222 276 344 388
#     4  11  22  38  69  99 130 167 218 285 327 391
#     4  10  21  41  61  85 121 174 208 258 332 391
#     4  10  21  38  60  87 125 171 207 256 331 398
#     4  12  24  41  66  96 130 170 227 270 325 395
#     4  12  24  41  66  98 128 165 219 277 326 390
#     4  12  25  46  68  94 138 185 225 276 339 405
#     4  12  21  39  63  99 130 168 223 272 330 395
#
# _framework density 22.629304999999999
#
# number of rings (size 3 to 8) (size 9 to 14) (size 15 to 20)
#    0.000    0.750    2.500    6.000    0.000    2.000 
#    0.000   15.000    0.000    0.000    0.000    0.000 
#    0.000    0.000    0.000    0.000    0.000    0.000 
#
# Total GULP energy -198219.332066 kJ/mol
# GULP energy per Si atom -12388.708254 kJ/mol
# Density = 2.257780 g / cm^3
# Si number density = 22.629305 Si / 1000 Ang^3
#
#
#
# Elastic Constant Matrix: (Units=GPa)
#
#
# Indices 1 2 3 4 5 6 
#
# 1 69.9503 26.0137 27.0747 13.5962 12.1353 23.4426
# 2 26.0137 176.4465 49.0444 -3.7030 11.7474 -7.8473
# 3 27.0747 49.0444 134.9240 -6.2267 28.3748 -11.1099
# 4 13.5962 -3.7030 -6.2267 53.1942 -3.6162 10.5872
# 5 12.1353 11.7474 28.3748 -3.6162 25.3492 11.3988
# 6 23.4426 -7.8473 -11.1099 10.5872 11.3988 32.9013
#
#
#
# Elastic Compliance Matrix: (Units=1/GPa)
#
#
# Indices 1 2 3 4 5 6 
#
# 1 0.025419 -0.003253 -0.007695 -0.002376 0.008210 -0.023566
# 2 -0.003253 0.006768 -0.000889 0.000131 -0.002582 0.004485
# 3 -0.007695 -0.000889 0.015199 -0.001395 -0.021318 0.018238
# 4 -0.002376 0.000131 -0.001395 0.021746 0.009860 -0.009160
# 5 0.008210 -0.002582 -0.021318 0.009860 0.082390 -0.045381
# 6 -0.023566 0.004485 0.018238 -0.009160 -0.045381 0.073083
#
#
# Mechanical properties :
#
#
# Convention : Reuss Voigt Hill
#
# Bulk Modulus (GPa) = 42.17251 65.06518 53.61884
# Shear Modulus (GPa) = 19.51717 40.90147 30.20932
#
# Velocity S-wave (km/s) = 2.93998 4.25603 3.65768
# Velocity P-wave (km/s) = 5.49557 7.27783 6.44857
#
# Compressibility (1/GPa) = 0.02371213
#
# Stress axis : x y z
#
# Youngs Moduli (GPa) = 39.34040 147.74756 65.79206
#
# Poissons Ratio (x) = 0.48066 0.50626
# Poissons Ratio (y) = 0.12798 0.05850
# Poissons Ratio (z) = 0.30272 0.13138
#
# Static dielectric constant tensor:
#      x y z
#    x 3.924140 0.175590 0.223880 
#    y 0.175590 4.029390 0.175880 
#    z 0.223880 0.175880 4.596110 
# 
# 
# High freq. dielectric constant tensor:
#      x y z
#    x 1.867130 -0.000480 0.017800 
#    y -0.000480 1.913640 -0.010000 
#    z 0.017800 -0.010000 1.908620 
# 
# From -- ./inp_files/128496.got.cif
#   From: 2010.06.25/outbox.cif.g09.slc.cpg/sg2_65_cif.got.tgz:128496.got - 2010.06.27 13:26:56.
