data_PCOD8010521
_publ_section_title
;
Structure prediction by ZEFSAII (Michael W. Deem and Ramdas Pophale) SiO2 
 PCOD8010521
Probable space group: P -1
;
_chemical_formula_sum "Si O2"
_cell_formula_units_Z 16
_cell_length_a 15.521771
_cell_length_b 7.711409
_cell_length_c 8.794893
_cell_angle_alpha 51.754222
_cell_angle_beta 91.893065
_cell_angle_gamma 108.668373
_cell_volume 763.725677
_symmetry_space_group_name_H-M "P -1"
_symmetry_group_IT_number 2
_symmetry_cell_setting 'triclinic'
loop_
_space_group_symop_operation_xyz
x,y,z
-x,-y,-z
loop_
_atom_site_type_symbol
_atom_site_label
_atom_site_fract_x
_atom_site_fract_y
_atom_site_fract_z
Si Si1 0.727954 0.479897 0.878471
Si Si2 0.242227 0.185535 0.567868
Si Si3 0.872075 0.305118 0.089908
Si Si4 0.125790 0.447800 0.526869
Si Si5 0.000412 0.445658 0.774460
Si Si6 0.412860 0.532807 0.551871
Si Si7 0.681417 0.159294 0.762276
Si Si8 0.598412 0.586703 0.041026
O O1 0.736108 0.715919 0.655645
O O2 0.687604 0.247544 0.890724
O O3 0.660930 0.469412 0.019880
O O4 0.829552 0.504157 0.934420
O O5 0.153113 0.229762 0.601088
O O6 0.326183 0.300835 0.624635
O O7 0.216934 0.905977 0.730223
O O8 0.950086 0.371407 0.187646
O O9 0.916840 0.238136 0.974212
O O10 0.080559 0.383586 0.727874
O O11 0.216596 0.699522 0.386879
O O12 0.044183 0.435679 0.414611
O O13 0.500000 0.500000 0.500000
O O14 0.397473 0.769398 0.365020
O O15 0.421976 0.539536 0.729093
O O16 0.650131 0.874730 0.902239
O O17 0.500000 0.500000 0.000000
#
# Coordination Sequence:
#
# PCOD8010521 Si02
#       8
#     2   2   2   2   2   2   2   2
#     4  10  23  43  62  95 133 159 217 258 311 381
#     4  10  22  40  64  87 127 170 204 257 330 367
#     4  11  22  38  61  93 125 165 205 272 311 358
#     4   9  20  42  59  89 126 168 208 258 314 376
#     4  10  21  38  61  88 128 161 216 261 308 378
#     4  10  23  43  67  96 128 165 212 254 312 388
#     4  10  23  45  66  89 138 169 198 271 317 360
#     4  12  26  41  70 101 120 169 217 250 317 387
#
# _framework density 20.949933000000001
#
# number of rings (size 3 to 8) (size 9 to 14) (size 15 to 20)
#    0.000    2.000    2.500    2.250    5.250    4.500 
#    0.000    0.000    0.000    0.000    0.000    0.000 
#    0.000    0.000    0.000    0.000    0.000    0.000 
#
# Total GULP energy -198222.410334 kJ/mol
# GULP energy per Si atom -12388.900646 kJ/mol
# Density = 2.090225 g / cm^3
# Si number density = 20.949933 Si / 1000 Ang^3
#
#
#
# Elastic Constant Matrix: (Units=GPa)
#
#
# Indices 1 2 3 4 5 6 
#
# 1 119.6334 27.8634 34.4532 31.6509 -6.0947 -13.0757
# 2 27.8634 66.6833 38.7490 9.8771 -3.1295 -0.0762
# 3 34.4532 38.7490 87.4007 29.8112 -6.4281 -4.1155
# 4 31.6509 9.8771 29.8112 34.7629 -6.5688 -4.1333
# 5 -6.0947 -3.1295 -6.4281 -6.5688 36.3191 16.9340
# 6 -13.0757 -0.0762 -4.1155 -4.1333 16.9340 29.6304
#
#
#
# Elastic Compliance Matrix: (Units=1/GPa)
#
#
# Indices 1 2 3 4 5 6 
#
# 1 0.012384 -0.004065 0.000544 -0.010425 -0.002674 0.005604
# 2 -0.004065 0.021792 -0.010195 0.006242 0.002160 -0.003518
# 3 0.000544 -0.010195 0.021105 -0.015637 -0.000449 0.001221
# 4 -0.010425 0.006242 -0.015637 0.050767 0.006886 -0.003610
# 5 -0.002674 0.002160 -0.000449 0.006886 0.038943 -0.022533
# 6 0.005604 -0.003518 0.001221 -0.003610 -0.022533 0.048757
#
#
# Mechanical properties :
#
#
# Convention : Reuss Voigt Hill
#
# Bulk Modulus (GPa) = 35.90918 52.87207 44.39062
# Shear Modulus (GPa) = 21.69561 31.65260 26.67410
#
# Velocity S-wave (km/s) = 3.22155 3.89121 3.57211
# Velocity P-wave (km/s) = 5.56916 6.74394 6.18451
#
# Compressibility (1/GPa) = 0.02784804
#
# Stress axis : x y z
#
# Youngs Moduli (GPa) = 80.75236 45.88891 47.38211
#
# Poissons Ratio (x) = 0.18656 -0.02578
# Poissons Ratio (y) = 0.32829 0.48305
# Poissons Ratio (z) = -0.04393 0.46782
#
# Static dielectric constant tensor:
#      x y z
#    x 3.859770 0.048500 -0.122130 
#    y 0.048500 3.549440 0.222410 
#    z -0.122130 0.222410 3.935240 
# 
# 
# High freq. dielectric constant tensor:
#      x y z
#    x 1.837750 0.006750 -0.001520 
#    y 0.006750 1.791180 0.023190 
#    z -0.001520 0.023190 1.828890 
# 
# From -- ./inp_files/297506.got.cif
#   From: 2010.06.25/outbox.cif.g09.slc.cpg/sg2_149_cif.got.tgz:297506.got - 2010.06.27 13:26:56.
