data_PCOD8010263
_publ_section_title
;
Structure prediction by ZEFSAII (Michael W. Deem and Ramdas Pophale) SiO2 
 PCOD8010263
Probable space group: P -1
;
_chemical_formula_sum "Si O2"
_cell_formula_units_Z 16
_cell_length_a 18.815082
_cell_length_b 12.386323
_cell_length_c 9.114902
_cell_angle_alpha 99.927699
_cell_angle_beta 99.413637
_cell_angle_gamma 26.987953
_cell_volume 949.311132
_symmetry_space_group_name_H-M "P -1"
_symmetry_group_IT_number 2
_symmetry_cell_setting 'triclinic'
loop_
_space_group_symop_operation_xyz
x,y,z
-x,-y,-z
loop_
_atom_site_type_symbol
_atom_site_label
_atom_site_fract_x
_atom_site_fract_y
_atom_site_fract_z
Si Si1 0.461022 0.747919 0.800197
Si Si2 0.660425 0.689554 0.336956
Si Si3 0.031788 0.639433 0.537932
Si Si4 0.476650 0.894558 0.605365
Si Si5 0.794956 0.792138 0.621021
Si Si6 0.476789 0.573557 0.299233
Si Si7 0.547258 0.194890 0.855279
Si Si8 0.266635 0.880998 0.568608
O O1 0.539557 0.738753 0.728184
O O2 0.566680 0.493532 0.777436
O O3 0.297269 0.938733 0.708176
O O4 0.426981 0.837672 0.970910
O O5 0.848314 0.452345 0.343196
O O6 0.615818 0.715239 0.493205
O O7 0.607909 0.666461 0.200723
O O8 0.571517 0.920073 0.311943
O O9 0.125940 0.435294 0.407403
O O10 0.926745 0.706802 0.626140
O O11 0.919786 0.874630 0.463946
O O12 0.327839 0.035759 0.513904
O O13 0.702971 0.930947 0.775528
O O14 0.481429 0.643285 0.174676
O O15 0.348283 0.795807 0.418712
O O16 0.648332 0.342253 0.386061
#
# Coordination Sequence:
#
# PCOD8010263 Si02
#       8
#     2   2   2   2   2   2   2   2
#     4  10  19  30  57  74 102 130 175 213 237 293
#     4   9  20  29  54  73 107 130 162 210 254 307
#     4  10  16  32  53  78  97 129 172 212 254 282
#     4   9  16  35  50  77  95 137 177 202 241 294
#     4   9  17  29  57  72 101 130 172 212 240 298
#     4   9  18  33  55  78  92 131 180 218 232 285
#     4  11  19  34  49  82 103 136 164 198 263 308
#     4   9  17  31  55  77  89 126 175 219 236 278
#
# _framework density 16.854326
#
# number of rings (size 3 to 8) (size 9 to 14) (size 15 to 20)
#    0.750    1.750    2.500    1.875    0.000    0.500 
#    0.000    1.250    2.750    0.750    0.000    0.000 
#    0.000    0.000    0.000    0.000    0.000    0.000 
#
# Total GULP energy -198222.976564 kJ/mol
# GULP energy per Si atom -12388.936035 kJ/mol
# Density = 1.681596 g / cm^3
# Si number density = 16.854326 Si / 1000 Ang^3
#
#
#
# Elastic Constant Matrix: (Units=GPa)
#
#
# Indices 1 2 3 4 5 6 
#
# 1 88.4382 31.9569 42.0131 -0.9788 -2.4621 -0.5530
# 2 31.9569 85.3030 29.3702 2.1535 3.9210 -3.4929
# 3 42.0131 29.3702 105.5663 6.9575 1.5239 5.8294
# 4 -0.9788 2.1535 6.9575 12.0173 4.7712 0.6259
# 5 -2.4621 3.9210 1.5239 4.7712 18.5858 -4.7573
# 6 -0.5530 -3.4929 5.8294 0.6259 -4.7573 29.9857
#
#
#
# Elastic Compliance Matrix: (Units=1/GPa)
#
#
# Indices 1 2 3 4 5 6 
#
# 1 0.015477 -0.004119 -0.005381 0.004006 0.002636 0.001186
# 2 -0.004119 0.014283 -0.002350 -0.000496 -0.002828 0.001606
# 3 -0.005381 -0.002350 0.012902 -0.007303 -0.000103 -0.002745
# 4 0.004006 -0.000496 -0.007303 0.098069 -0.025118 -0.004596
# 5 0.002636 -0.002828 -0.000103 -0.025118 0.063868 0.010396
# 6 0.001186 0.001606 -0.002745 -0.004596 0.010396 0.035837
#
#
# Mechanical properties :
#
#
# Convention : Reuss Voigt Hill
#
# Bulk Modulus (GPa) = 52.73447 53.99867 53.36657
# Shear Modulus (GPa) = 18.48711 23.84889 21.16800
#
# Velocity S-wave (km/s) = 3.31550 3.76573 3.54777
# Velocity P-wave (km/s) = 6.78329 7.14252 6.96523
#
# Compressibility (1/GPa) = 0.01896293
#
# Stress axis : x y z
#
# Youngs Moduli (GPa) = 64.61081 70.01145 77.50454
#
# Poissons Ratio (x) = 0.28839 0.41707
# Poissons Ratio (y) = 0.26614 0.18212
# Poissons Ratio (z) = 0.34768 0.16451
#
# Static dielectric constant tensor:
#      x y z
#    x 3.132020 0.085190 0.023090 
#    y 0.085190 3.130680 -0.015030 
#    z 0.023090 -0.015030 2.824380 
# 
# 
# High freq. dielectric constant tensor:
#      x y z
#    x 1.641200 0.017850 -0.000180 
#    y 0.017850 1.636920 -0.000480 
#    z -0.000180 -0.000480 1.620120 
# 
# From -- ./inp_files/331031.got.cif
#   From: 2010.06.25/outbox.cif.g09.slc.cpg/sg2_166_cif.got.tgz:331031.got - 2010.06.27 13:26:56.
