data_PCOD8010295
_publ_section_title
;
Structure prediction by ZEFSAII (Michael W. Deem and Ramdas Pophale) SiO2 
 PCOD8010295
Probable space group: P -1
;
_chemical_formula_sum "Si O2"
_cell_formula_units_Z 16
_cell_length_a 14.764887
_cell_length_b 9.430032
_cell_length_c 14.428374
_cell_angle_alpha 90.435759
_cell_angle_beta 30.483333
_cell_angle_gamma 110.890781
_cell_volume 737.580705
_symmetry_space_group_name_H-M "P -1"
_symmetry_group_IT_number 2
_symmetry_cell_setting 'triclinic'
loop_
_space_group_symop_operation_xyz
x,y,z
-x,-y,-z
loop_
_atom_site_type_symbol
_atom_site_label
_atom_site_fract_x
_atom_site_fract_y
_atom_site_fract_z
Si Si1 0.630181 0.878530 0.297585
Si Si2 0.938356 0.781309 0.976066
Si Si3 0.260248 0.211070 0.298153
Si Si4 0.718945 0.389484 0.229259
Si Si5 0.926688 0.666845 0.787992
Si Si6 0.405442 0.756410 0.860675
Si Si7 0.487373 0.618879 0.105952
Si Si8 0.572689 0.141606 0.713413
O O1 0.445951 0.715009 0.535121
O O2 0.467664 0.852381 0.359217
O O3 0.818975 0.869800 0.087457
O O4 0.806871 0.094332 0.189310
O O5 0.016045 0.793279 0.802608
O O6 0.727644 0.560164 0.196857
O O7 0.350021 0.187494 0.314360
O O8 0.253960 0.381247 0.316411
O O9 0.466490 0.292099 0.036835
O O10 0.000000 0.000000 0.500000
O O11 0.590825 0.239914 0.254793
O O12 0.000000 0.500000 0.000000
O O13 0.151468 0.769003 0.519336
O O14 0.832341 0.456725 0.893769
O O15 0.726117 0.655494 0.917120
O O16 0.394525 0.915842 0.903882
O O17 0.458190 0.732622 0.201452
#
# Coordination Sequence:
#
# PCOD8010295 Si02
#       8
#     2   2   2   2   2   2   2   2
#     4  11  22  36  59  94 125 170 217 259 315 379
#     4  10  21  38  58  87 131 169 215 262 310 380
#     4  10  22  45  68  91 127 169 206 266 326 375
#     4  11  22  39  61  90 131 174 211 262 316 377
#     4  10  21  42  62  89 132 168 207 265 316 372
#     4  10  23  39  62  96 127 165 218 260 313 383
#     4  10  23  43  67  94 125 161 214 260 319 388
#     4  12  23  39  66  96 126 168 212 262 319 378
#
# _framework density 21.692542
#
# number of rings (size 3 to 8) (size 9 to 14) (size 15 to 20)
#    0.000    1.500    1.250    4.125    0.000    3.000 
#    0.000    8.750    0.000    0.000    0.000    0.000 
#    0.000    0.000    0.000    0.000    0.000    0.000 
#
# Total GULP energy -198338.235617 kJ/mol
# GULP energy per Si atom -12396.139726 kJ/mol
# Density = 2.164317 g / cm^3
# Si number density = 21.692542 Si / 1000 Ang^3
#
#
#
# Elastic Constant Matrix: (Units=GPa)
#
#
# Indices 1 2 3 4 5 6 
#
# 1 94.6648 37.8352 25.3377 1.4842 -3.3481 13.4455
# 2 37.8352 121.5542 37.3531 -18.9418 -6.7432 11.1374
# 3 25.3377 37.3531 81.5440 -2.5286 -8.1497 7.3301
# 4 1.4842 -18.9418 -2.5286 29.4646 0.6915 -3.9366
# 5 -3.3481 -6.7432 -8.1497 0.6915 28.4882 -6.7550
# 6 13.4455 11.1374 7.3301 -3.9366 -6.7550 28.4151
#
#
#
# Elastic Compliance Matrix: (Units=1/GPa)
#
#
# Indices 1 2 3 4 5 6 
#
# 1 0.013380 -0.003672 -0.002243 -0.003884 -0.001054 -0.005102
# 2 -0.003672 0.011822 -0.003896 0.007341 0.000919 -0.000656
# 3 -0.002243 -0.003896 0.015072 -0.001271 0.002974 -0.000769
# 4 -0.003884 0.007341 -0.001271 0.039389 0.001152 0.005019
# 5 -0.001054 0.000919 0.002974 0.001152 0.038053 0.008577
# 6 -0.005102 -0.000656 -0.000769 0.005019 0.008577 0.040796
#
#
# Mechanical properties :
#
#
# Convention : Reuss Voigt Hill
#
# Bulk Modulus (GPa) = 48.41968 55.42387 51.92177
# Shear Modulus (GPa) = 27.02481 30.42272 28.72376
#
# Velocity S-wave (km/s) = 3.53343 3.74899 3.64281
# Velocity P-wave (km/s) = 6.24630 6.65921 6.45606
#
# Compressibility (1/GPa) = 0.02065276
#
# Stress axis : x y z
#
# Youngs Moduli (GPa) = 74.74106 84.58891 66.34913
#
# Poissons Ratio (x) = 0.31057 0.14880
# Poissons Ratio (y) = 0.27442 0.25850
# Poissons Ratio (z) = 0.16762 0.32956
#
# Static dielectric constant tensor:
#      x y z
#    x 4.123650 0.093990 -0.069740 
#    y 0.093990 4.190180 -0.353580 
#    z -0.069740 -0.353580 3.697640 
# 
# 
# High freq. dielectric constant tensor:
#      x y z
#    x 1.865060 0.004120 -0.003380 
#    y 0.004120 1.864210 -0.023840 
#    z -0.003380 -0.023840 1.829370 
# 
# From -- ./inp_files/357751.got.cif
#   From: 2010.06.25/outbox.cif.g09.slc.cpg/sg2_179_cif.got.tgz:357751.got - 2010.06.27 13:26:56.
