data_PCOD8010851
_publ_section_title
;
Structure prediction by ZEFSAII (Michael W. Deem and Ramdas Pophale) SiO2 
 PCOD8010851
Probable space group: P -1
;
_chemical_formula_sum "Si O2"
_cell_formula_units_Z 16
_cell_length_a 10.239887
_cell_length_b 11.038348
_cell_length_c 19.229221
_cell_angle_alpha 30.140171
_cell_angle_beta 134.559884
_cell_angle_gamma 131.523605
_cell_volume 767.976858
_symmetry_space_group_name_H-M "P -1"
_symmetry_group_IT_number 2
_symmetry_cell_setting 'triclinic'
loop_
_space_group_symop_operation_xyz
x,y,z
-x,-y,-z
loop_
_atom_site_type_symbol
_atom_site_label
_atom_site_fract_x
_atom_site_fract_y
_atom_site_fract_z
Si Si1 0.428979 0.224467 0.897588
Si Si2 0.607729 0.666558 0.825690
Si Si3 0.116291 0.498710 0.886721
Si Si4 0.780293 0.646884 0.375164
Si Si5 0.785455 0.203755 0.348958
Si Si6 0.863243 0.150792 0.670480
Si Si7 0.076986 0.002314 0.949921
Si Si8 0.116070 0.029980 0.628616
O O1 0.588034 0.431026 0.884786
O O2 0.336539 0.350871 0.738536
O O3 0.289938 0.127537 0.957313
O O4 0.500000 0.000000 0.000000
O O5 0.415444 0.772268 0.708722
O O6 0.747112 0.891664 0.732970
O O7 0.694531 0.581374 0.972001
O O8 0.145256 0.541776 0.792778
O O9 0.068109 0.749395 0.778825
O O10 0.944494 0.281494 0.942206
O O11 0.741115 0.367037 0.524537
O O12 0.737331 0.814889 0.340881
O O13 0.992109 0.764712 0.378757
O O14 0.930192 0.156639 0.486942
O O15 0.778786 0.980100 0.401678
O O16 0.953597 0.141487 0.784595
O O17 0.000000 0.000000 0.000000
#
# Coordination Sequence:
#
# PCOD8010851 Si02
#       8
#     2   2   2   2   2   2   2   2
#     4  11  25  41  61  94 127 161 205 260 316 357
#     4  11  21  39  62  89 121 155 210 254 305 367
#     4   9  19  37  59  87 117 161 198 248 307 363
#     4  10  21  43  60  83 126 163 203 247 303 379
#     4   9  20  35  60  95 118 161 203 251 310 362
#     4   9  23  38  62  89 114 166 206 243 311 365
#     4  10  21  38  64  91 119 163 210 253 299 378
#     4   9  20  36  62  85 123 162 200 249 303 369
#
# _framework density 20.833960999999999
#
# number of rings (size 3 to 8) (size 9 to 14) (size 15 to 20)
#    0.750    1.500    0.000    1.875    7.000    2.500 
#    2.250    4.375    0.000    0.000    0.000    0.000 
#    0.000    0.000    0.000    0.000    0.000    0.000 
#
# Total GULP energy -198209.002225 kJ/mol
# GULP energy per Si atom -12388.062639 kJ/mol
# Density = 2.078654 g / cm^3
# Si number density = 20.833961 Si / 1000 Ang^3
#
#
#
# Elastic Constant Matrix: (Units=GPa)
#
#
# Indices 1 2 3 4 5 6 
#
# 1 59.4120 26.4031 28.3483 -2.9351 -2.7604 -7.8265
# 2 26.4031 106.2992 41.1731 -24.3479 -9.1198 -3.8071
# 3 28.3483 41.1731 130.1407 -16.5926 0.6841 7.5078
# 4 -2.9351 -24.3479 -16.5926 33.8232 -0.9114 2.0059
# 5 -2.7604 -9.1198 0.6841 -0.9114 28.3197 0.7993
# 6 -7.8265 -3.8071 7.5078 2.0059 0.7993 28.7974
#
#
#
# Elastic Compliance Matrix: (Units=1/GPa)
#
#
# Indices 1 2 3 4 5 6 
#
# 1 0.021423 -0.004259 -0.004164 -0.003626 0.000515 0.006583
# 2 -0.004259 0.013708 -0.002393 0.008407 0.004311 0.000573
# 3 -0.004164 -0.002393 0.009985 0.003033 -0.001201 -0.004229
# 4 -0.003626 0.008407 0.003033 0.037085 0.003568 -0.003347
# 5 0.000515 0.004311 -0.001201 0.003568 0.036901 -0.000250
# 6 0.006583 0.000573 -0.004229 -0.003347 -0.000250 0.037933
#
#
# Mechanical properties :
#
#
# Convention : Reuss Voigt Hill
#
# Bulk Modulus (GPa) = 42.58150 54.18897 48.38524
# Shear Modulus (GPa) = 26.81036 31.51655 29.16346
#
# Velocity S-wave (km/s) = 3.59117 3.89363 3.74545
# Velocity P-wave (km/s) = 6.13826 6.80295 6.47914
#
# Compressibility (1/GPa) = 0.02348438
#
# Stress axis : x y z
#
# Youngs Moduli (GPa) = 46.67844 72.94929 100.14915
#
# Poissons Ratio (x) = 0.31069 0.41702
# Poissons Ratio (y) = 0.19880 0.23967
# Poissons Ratio (z) = 0.19437 0.17458
#
# Static dielectric constant tensor:
#      x y z
#    x 3.358880 -0.294090 -0.217420 
#    y -0.294090 2.825630 -0.905930 
#    z -0.217420 -0.905930 3.314400 
# 
# 
# High freq. dielectric constant tensor:
#      x y z
#    x 1.778860 -0.018260 -0.003390 
#    y -0.018260 1.811560 -0.006110 
#    z -0.003390 -0.006110 1.834210 
# 
# From -- ./inp_files/588895.got.cif
#   From: 2010.06.25/outbox.cif.g09.slc.cpg/sg2_295_cif.got.tgz:588895.got - 2010.06.27 13:26:56.
