data_PCOD8010645
_publ_section_title
;
Structure prediction by ZEFSAII (Michael W. Deem and Ramdas Pophale) SiO2 
 PCOD8010645
Probable space group: P -1
;
_chemical_formula_sum "Si O2"
_cell_formula_units_Z 16
_cell_length_a 9.429130
_cell_length_b 16.131599
_cell_length_c 11.460105
_cell_angle_alpha 144.908129
_cell_angle_beta 59.771350
_cell_angle_gamma 135.559019
_cell_volume 687.400685
_symmetry_space_group_name_H-M "P -1"
_symmetry_group_IT_number 2
_symmetry_cell_setting 'triclinic'
loop_
_space_group_symop_operation_xyz
x,y,z
-x,-y,-z
loop_
_atom_site_type_symbol
_atom_site_label
_atom_site_fract_x
_atom_site_fract_y
_atom_site_fract_z
Si Si1 0.419720 0.683907 0.955778
Si Si2 0.996180 0.863199 0.134693
Si Si3 0.333145 0.528759 0.574317
Si Si4 0.555747 0.072014 0.402988
Si Si5 0.826189 0.084180 0.476926
Si Si6 0.189530 0.337893 0.783760
Si Si7 0.573999 0.803193 0.590510
Si Si8 0.869587 0.795587 0.863768
O O1 0.280137 0.581214 0.778346
O O2 0.305437 0.551461 0.962589
O O3 0.638993 0.724715 0.900512
O O4 0.443318 0.864779 0.172599
O O5 0.858991 0.713359 0.118801
O O6 0.924609 0.988283 0.284264
O O7 0.963490 0.774000 0.918547
O O8 0.236433 0.990397 0.216222
O O9 0.500000 0.500000 0.500000
O O10 0.436146 0.695697 0.635238
O O11 0.135074 0.338329 0.382812
O O12 0.399587 0.069351 0.552812
O O13 0.779734 0.161499 0.472645
O O14 0.583708 0.192684 0.421311
O O15 0.974716 0.234998 0.684208
O O16 0.333999 0.287902 0.616577
O O17 0.000000 0.000000 0.000000
#
# Coordination Sequence:
#
# PCOD8010645 Si02
#       8
#     2   2   2   2   2   2   2   2
#     4  11  24  40  65  94 132 171 212 261 326 384
#     4  11  20  39  65 100 121 171 220 260 310 379
#     4  10  21  41  62  94 120 172 210 271 309 372
#     4  11  22  40  60  98 133 173 205 256 333 375
#     4  10  21  38  62  90 135 169 207 253 322 390
#     4  11  21  40  65  97 127 170 218 263 310 377
#     4  11  20  40  67  93 130 166 216 263 310 382
#     4  11  23  40  66  94 122 164 222 265 318 374
#
# _framework density 23.27609
#
# number of rings (size 3 to 8) (size 9 to 14) (size 15 to 20)
#    0.000    1.250    6.250    2.250    1.750    1.500 
#    4.500    0.000    0.000    2.250    0.000    0.000 
#    0.000    0.000    0.000    0.000    0.000    0.000 
#
# Total GULP energy -198331.602369 kJ/mol
# GULP energy per Si atom -12395.725148 kJ/mol
# Density = 2.322311 g / cm^3
# Si number density = 23.276090 Si / 1000 Ang^3
#
#
#
# Elastic Constant Matrix: (Units=GPa)
#
#
# Indices 1 2 3 4 5 6 
#
# 1 117.7438 29.6753 4.7450 -3.8931 11.8983 -32.4814
# 2 29.6753 130.8068 12.9547 13.7915 13.6224 -35.4872
# 3 4.7450 12.9547 64.0076 -6.5161 21.1826 -12.3330
# 4 -3.8931 13.7915 -6.5161 26.2258 -9.4052 4.4524
# 5 11.8983 13.6224 21.1826 -9.4052 27.2766 -4.5302
# 6 -32.4814 -35.4872 -12.3330 4.4524 -4.5302 40.7021
#
#
#
# Elastic Compliance Matrix: (Units=1/GPa)
#
#
# Indices 1 2 3 4 5 6 
#
# 1 0.011658 0.000828 0.003028 -0.002186 -0.006874 0.010417
# 2 0.000828 0.013157 0.002017 -0.012285 -0.010590 0.012908
# 3 0.003028 0.002017 0.023001 -0.003611 -0.019887 0.009326
# 4 -0.002186 -0.012285 -0.003611 0.055638 0.026303 -0.016708
# 5 -0.006874 -0.010590 -0.019887 0.026303 0.066773 -0.016190
# 6 0.010417 0.012908 0.009326 -0.016708 -0.016190 0.046988
#
#
# Mechanical properties :
#
#
# Convention : Reuss Voigt Hill
#
# Bulk Modulus (GPa) = 16.78949 45.25647 31.02298
# Shear Modulus (GPa) = 22.19022 36.51979 29.35500
#
# Velocity S-wave (km/s) = 3.09098 3.96534 3.55514
# Velocity P-wave (km/s) = 4.46853 6.36009 5.49629
#
# Compressibility (1/GPa) = 0.05956106
#
# Stress axis : x y z
#
# Youngs Moduli (GPa) = 85.77540 76.00278 43.47650
#
# Poissons Ratio (x) = -0.06290 -0.13163
# Poissons Ratio (y) = -0.07099 -0.08769
# Poissons Ratio (z) = -0.25969 -0.15330
#
# Static dielectric constant tensor:
#      x y z
#    x 4.356440 -0.220760 0.590850 
#    y -0.220760 4.160490 -0.136060 
#    z 0.590850 -0.136060 4.950250 
# 
# 
# High freq. dielectric constant tensor:
#      x y z
#    x 1.914310 -0.016740 0.020990 
#    y -0.016740 1.918730 -0.002710 
#    z 0.020990 -0.002710 1.905000 
# 
# From -- ./inp_files/262095.got.cif
#   From: 2010.06.25/outbox.cif.g09.slc.cpg/sg2_132_cif.got.tgz:262095.got - 2010.06.27 13:26:56.
