data_PCOD8010771
_publ_section_title
;
Structure prediction by ZEFSAII (Michael W. Deem and Ramdas Pophale) SiO2 
 PCOD8010771
Probable space group: P -1
;
_chemical_formula_sum "Si O2"
_cell_formula_units_Z 12
_cell_length_a 9.313584
_cell_length_b 7.899567
_cell_length_c 7.672244
_cell_angle_alpha 75.386148
_cell_angle_beta 74.122818
_cell_angle_gamma 81.339205
_cell_volume 523.351661
_symmetry_space_group_name_H-M "P -1"
_symmetry_group_IT_number 2
_symmetry_cell_setting 'triclinic'
loop_
_space_group_symop_operation_xyz
x,y,z
-x,-y,-z
loop_
_atom_site_type_symbol
_atom_site_label
_atom_site_fract_x
_atom_site_fract_y
_atom_site_fract_z
Si Si1 0.249844 0.675965 0.285574
Si Si2 0.907749 0.232288 0.017868
Si Si3 0.020118 0.202245 0.449814
Si Si4 0.212162 0.402943 0.100794
Si Si5 0.448773 0.172331 0.865424
Si Si6 0.819006 0.884177 0.249557
O O1 0.266103 0.480523 0.247971
O O2 0.408949 0.735666 0.277378
O O3 0.136655 0.684493 0.485390
O O4 0.175685 0.809520 0.127220
O O5 0.856399 0.088595 0.209161
O O6 0.858485 0.434004 0.038525
O O7 0.085951 0.204978 0.922874
O O8 0.082106 0.273493 0.226870
O O9 0.141703 0.222762 0.558729
O O10 0.000000 0.000000 0.500000
O O11 0.355873 0.305957 0.989700
O O12 0.354564 0.126600 0.737978
O O13 0.500000 0.000000 0.000000
#
# Coordination Sequence:
#
# PCOD8010771 Si02
#       6
#     2   2   2   2   2   2
#     4   9  20  39  61  86 125 157 202 246 308 359
#     4   8  19  38  62  86 123 155 213 245 292 360
#     4  11  23  42  63  89 124 168 204 256 311 361
#     4  10  22  39  67  89 123 163 209 252 310 357
#     4  12  21  38  65  93 124 165 204 254 308 366
#     4  10  21  38  63  92 126 158 211 251 302 372
#
# _framework density 22.929131999999999
#
# number of rings (size 3 to 8) (size 9 to 14) (size 15 to 20)
#    1.000    1.000    1.667    2.000    4.667    0.667 
#    0.000    4.167    0.000    0.000    0.000    0.000 
#    0.000    0.000    0.000    0.000    0.000    0.000 
#
# Total GULP energy -148756.647793 kJ/mol
# GULP energy per Si atom -12396.387316 kJ/mol
# Density = 2.287694 g / cm^3
# Si number density = 22.929132 Si / 1000 Ang^3
#
#
#
# Elastic Constant Matrix: (Units=GPa)
#
#
# Indices 1 2 3 4 5 6 
#
# 1 119.1375 20.1242 22.9737 -5.0509 -27.8330 -1.5941
# 2 20.1242 113.1866 14.0612 -6.6093 -9.0683 -25.0150
# 3 22.9737 14.0612 81.7310 -8.3154 -6.1777 -16.6467
# 4 -5.0509 -6.6093 -8.3154 31.5158 2.7717 -5.4488
# 5 -27.8330 -9.0683 -6.1777 2.7717 25.3426 -5.9180
# 6 -1.5941 -25.0150 -16.6467 -5.4488 -5.9180 35.9913
#
#
#
# Elastic Compliance Matrix: (Units=1/GPa)
#
#
# Indices 1 2 3 4 5 6 
#
# 1 0.011845 -0.000519 -0.001961 0.000403 0.012627 0.001394
# 2 -0.000519 0.011739 0.001033 0.003896 0.005829 0.010162
# 3 -0.001961 0.001033 0.015238 0.005179 0.003474 0.009035
# 4 0.000403 0.003896 0.005179 0.035696 0.001718 0.010808
# 5 0.012627 0.005829 0.003474 0.001718 0.059884 0.016324
# 6 0.001394 0.010162 0.009035 0.010808 0.016324 0.043408
#
#
# Mechanical properties :
#
#
# Convention : Reuss Voigt Hill
#
# Bulk Modulus (GPa) = 27.83284 47.59701 37.71493
# Shear Modulus (GPa) = 25.94965 35.69635 30.82300
#
# Velocity S-wave (km/s) = 3.36777 3.94993 3.67041
# Velocity P-wave (km/s) = 5.22375 6.45027 5.86913
#
# Compressibility (1/GPa) = 0.03592878
#
# Stress axis : x y z
#
# Youngs Moduli (GPa) = 84.42315 85.18334 65.62362
#
# Poissons Ratio (x) = 0.04423 0.12868
# Poissons Ratio (y) = 0.04383 -0.06779
# Poissons Ratio (z) = 0.16555 -0.08800
#
# Static dielectric constant tensor:
#      x y z
#    x 4.139750 0.021070 0.046370 
#    y 0.021070 4.033210 -0.000250 
#    z 0.046370 -0.000250 3.773420 
# 
# 
# High freq. dielectric constant tensor:
#      x y z
#    x 1.905790 0.007450 0.004540 
#    y 0.007450 1.913330 -0.001040 
#    z 0.004540 -0.001040 1.876110 
# 
# From -- ./inp_files/157883.got.cif
#   From: 2010.06.25/outbox.cif.g09.slc.cpg/sg2_79_cif.got.tgz:157883.got - 2010.06.27 13:26:56.
