data_PCOD8010165
_publ_section_title
;
Structure prediction by ZEFSAII (Michael W. Deem and Ramdas Pophale) SiO2 
 PCOD8010165
Probable space group: P -1
;
_chemical_formula_sum "Si O2"
_cell_formula_units_Z 16
_cell_length_a 11.625284
_cell_length_b 8.721903
_cell_length_c 16.090742
_cell_angle_alpha 68.302803
_cell_angle_beta 49.933852
_cell_angle_gamma 106.404245
_cell_volume 790.639527
_symmetry_space_group_name_H-M "P -1"
_symmetry_group_IT_number 2
_symmetry_cell_setting 'triclinic'
loop_
_space_group_symop_operation_xyz
x,y,z
-x,-y,-z
loop_
_atom_site_type_symbol
_atom_site_label
_atom_site_fract_x
_atom_site_fract_y
_atom_site_fract_z
Si Si1 0.649615 0.665853 0.144821
Si Si2 0.083028 0.922063 0.363600
Si Si3 0.176321 0.331152 0.626756
Si Si4 0.855160 0.185116 0.925459
Si Si5 0.467711 0.834996 0.980165
Si Si6 0.233889 0.367457 0.291263
Si Si7 0.997634 0.682760 0.995817
Si Si8 0.345770 0.217078 0.699503
O O1 0.418101 0.441831 0.253226
O O2 0.647893 0.661855 0.246197
O O3 0.813083 0.648545 0.044646
O O4 0.727460 0.908853 0.031615
O O5 0.892623 0.778030 0.411385
O O6 0.969878 0.734140 0.533319
O O7 0.139306 0.151396 0.318934
O O8 0.306375 0.023171 0.202049
O O9 0.204148 0.191095 0.698807
O O10 0.401542 0.614727 0.472790
O O11 0.991562 0.306980 0.752227
O O12 0.693114 0.211819 0.004045
O O13 0.031759 0.335334 0.887513
O O14 0.344985 0.586387 0.133070
O O15 0.500000 0.000000 0.000000
O O16 0.240198 0.953697 0.814686
O O17 0.000000 0.500000 0.000000
#
# Coordination Sequence:
#
# PCOD8010165 Si02
#       8
#     2   2   2   2   2   2   2   2
#     4  11  19  42  66  89 126 165 215 256 319 392
#     4  11  25  43  66  96 135 177 213 272 328 387
#     4  11  19  39  66  91 123 162 221 255 317 387
#     4  11  22  41  63  93 126 169 216 264 316 388
#     4  12  24  41  65  97 130 174 221 269 317 385
#     4  11  25  44  65  99 134 175 218 267 332 387
#     4  11  24  40  63  95 127 163 206 271 326 377
#     4  10  21  37  67  92 115 167 210 262 314 380
#
# _framework density 20.236781000000001
#
# number of rings (size 3 to 8) (size 9 to 14) (size 15 to 20)
#    0.000    1.000    6.250    1.125    1.750    1.500 
#    4.500    0.625    0.000    0.000    0.000    0.000 
#    0.000    0.000    0.000    0.000    0.000    0.000 
#
# Total GULP energy -198249.053588 kJ/mol
# GULP energy per Si atom -12390.565849 kJ/mol
# Density = 2.019072 g / cm^3
# Si number density = 20.236781 Si / 1000 Ang^3
#
#
#
# Elastic Constant Matrix: (Units=GPa)
#
#
# Indices 1 2 3 4 5 6 
#
# 1 96.5821 29.4872 42.4445 2.1058 -10.8834 -6.1343
# 2 29.4872 86.6649 30.5215 0.1025 -0.5760 -0.7439
# 3 42.4445 30.5215 129.2368 14.6073 -0.5387 -9.0892
# 4 2.1058 0.1025 14.6073 27.7349 1.3448 -1.5832
# 5 -10.8834 -0.5760 -0.5387 1.3448 26.6292 0.8362
# 6 -6.1343 -0.7439 -9.0892 -1.5832 0.8362 27.3064
#
#
#
# Elastic Compliance Matrix: (Units=1/GPa)
#
#
# Indices 1 2 3 4 5 6 
#
# 1 0.013660 -0.003314 -0.003648 0.000731 0.005349 0.001643
# 2 -0.003314 0.013469 -0.002331 0.001426 -0.001150 -0.001036
# 3 -0.003648 -0.002331 0.010194 -0.004898 -0.001159 0.002262
# 4 0.000731 0.001426 -0.004898 0.038709 -0.001752 0.000871
# 5 0.005349 -0.001150 -0.001159 -0.001752 0.039796 -0.000536
# 6 0.001643 -0.001036 0.002262 0.000871 -0.000536 0.037782
#
#
# Mechanical properties :
#
#
# Convention : Reuss Voigt Hill
#
# Bulk Modulus (GPa) = 53.37354 57.48780 55.43067
# Shear Modulus (GPa) = 28.01996 30.33613 29.17804
#
# Velocity S-wave (km/s) = 3.72507 3.87597 3.80127
# Velocity P-wave (km/s) = 6.70323 6.96420 6.83496
#
# Compressibility (1/GPa) = 0.01873588
#
# Stress axis : x y z
#
# Youngs Moduli (GPa) = 73.20523 74.24373 98.09257
#
# Poissons Ratio (x) = 0.24605 0.35789
# Poissons Ratio (y) = 0.24261 0.22869
# Poissons Ratio (z) = 0.26709 0.17309
#
# Static dielectric constant tensor:
#      x y z
#    x 4.185870 -0.078340 -0.239480 
#    y -0.078340 3.666240 0.204010 
#    z -0.239480 0.204010 4.324260 
# 
# 
# High freq. dielectric constant tensor:
#      x y z
#    x 1.792700 0.018330 -0.002080 
#    y 0.018330 1.770020 -0.002600 
#    z -0.002080 -0.002600 1.806430 
# 
# From -- ./inp_files/177708.got.cif
#   From: 2010.06.25/outbox.cif.g09.slc.cpg/sg2_89_cif.got.tgz:177708.got - 2010.06.27 13:26:56.
