data_PCOD8010341
_publ_section_title
;
Structure prediction by ZEFSAII (Michael W. Deem and Ramdas Pophale) SiO2 
 PCOD8010341
Probable space group: P -1
;
_chemical_formula_sum "Si O2"
_cell_formula_units_Z 16
_cell_length_a 8.448043
_cell_length_b 16.893093
_cell_length_c 9.198153
_cell_angle_alpha 56.478829
_cell_angle_beta 58.822429
_cell_angle_gamma 95.232424
_cell_volume 794.763231
_symmetry_space_group_name_H-M "P -1"
_symmetry_group_IT_number 2
_symmetry_cell_setting 'triclinic'
loop_
_space_group_symop_operation_xyz
x,y,z
-x,-y,-z
loop_
_atom_site_type_symbol
_atom_site_label
_atom_site_fract_x
_atom_site_fract_y
_atom_site_fract_z
Si Si1 0.446082 0.696958 0.903375
Si Si2 0.087860 0.262533 0.363596
Si Si3 0.553157 0.299211 0.764277
Si Si4 0.692624 0.502650 0.324919
Si Si5 0.653051 0.114114 0.230866
Si Si6 0.915957 0.746846 0.958293
Si Si7 0.338059 0.884580 0.115975
Si Si8 0.174636 0.496691 0.027597
O O1 0.681407 0.721328 0.719008
O O2 0.433216 0.805124 0.767492
O O3 0.259196 0.591266 0.012248
O O4 0.397821 0.666542 0.126214
O O5 0.028890 0.217524 0.272364
O O6 0.905887 0.169328 0.651153
O O7 0.092574 0.377983 0.263769
O O8 0.728902 0.409282 0.475892
O O9 0.579529 0.198704 0.805479
O O10 0.307363 0.262580 0.878945
O O11 0.500000 0.500000 0.500000
O O12 0.634401 0.478913 0.204169
O O13 0.901925 0.628918 0.111574
O O14 0.895997 0.161053 0.124177
O O15 0.500000 0.000000 0.500000
O O16 0.655530 0.093828 0.079732
O O17 0.500000 0.000000 0.000000
O O18 0.000000 0.500000 0.000000
#
# Coordination Sequence:
#
# PCOD8010341 Si02
#       8
#     2   2   2   2   2   2   2   2
#     4  10  22  39  59  85 117 154 191 230 286 344
#     4  10  21  38  59  86 118 151 187 233 283 340
#     4   9  20  38  60  84 115 150 186 232 285 340
#     4   9  18  33  56  86 115 144 178 223 276 331
#     4  11  24  41  59  80 110 151 196 241 286 338
#     4   9  19  38  60  83 114 150 186 228 284 341
#     4  11  24  40  58  83 112 148 194 241 286 336
#     4  11  21  35  59  89 120 154 187 228 281 338
#
# _framework density 20.131782999999999
#
# number of rings (size 3 to 8) (size 9 to 14) (size 15 to 20)
#    0.000    2.000    0.000    4.125    0.000    5.000 
#    0.000    8.125    0.000    0.000    0.000    0.000 
#    0.000    0.000    0.000    0.000    0.000    0.000 
#
# Total GULP energy -198351.103687 kJ/mol
# GULP energy per Si atom -12396.943980 kJ/mol
# Density = 2.008596 g / cm^3
# Si number density = 20.131783 Si / 1000 Ang^3
#
#
#
# Elastic Constant Matrix: (Units=GPa)
#
#
# Indices 1 2 3 4 5 6 
#
# 1 91.7674 29.4281 14.9613 -11.9158 -5.0513 13.8818
# 2 29.4281 99.0157 22.9850 -9.3300 -3.7205 20.3185
# 3 14.9613 22.9850 108.2013 -8.4127 9.0367 13.8323
# 4 -11.9158 -9.3300 -8.4127 26.2252 -3.5632 -6.8395
# 5 -5.0513 -3.7205 9.0367 -3.5632 25.3874 -1.6158
# 6 13.8818 20.3185 13.8323 -6.8395 -1.6158 31.8072
#
#
#
# Elastic Compliance Matrix: (Units=1/GPa)
#
#
# Indices 1 2 3 4 5 6 
#
# 1 0.012995 -0.002622 -0.000817 0.004450 0.002955 -0.002534
# 2 -0.002622 0.012656 -0.001609 0.001513 0.001747 -0.005826
# 3 -0.000817 -0.001609 0.010536 0.001033 -0.004207 -0.003189
# 4 0.004450 0.001513 0.001033 0.043682 0.007278 0.006405
# 5 0.002955 0.001747 -0.004207 0.007278 0.042954 0.003171
# 6 -0.002534 -0.005826 -0.003189 0.006405 0.003171 0.039193
#
#
# Mechanical properties :
#
#
# Convention : Reuss Voigt Hill
#
# Bulk Modulus (GPa) = 38.32779 48.19259 43.26019
# Shear Modulus (GPa) = 27.65335 32.12463 29.88899
#
# Velocity S-wave (km/s) = 3.71025 3.99898 3.85732
# Velocity P-wave (km/s) = 6.11837 6.73149 6.43224
#
# Compressibility (1/GPa) = 0.02609073
#
# Stress axis : x y z
#
# Youngs Moduli (GPa) = 76.95242 79.01296 94.91110
#
# Poissons Ratio (x) = 0.20719 0.07751
# Poissons Ratio (y) = 0.20179 0.15275
# Poissons Ratio (z) = 0.06284 0.12717
#
# Static dielectric constant tensor:
#      x y z
#    x 3.704610 -0.155490 0.304450 
#    y -0.155490 3.930810 0.302340 
#    z 0.304450 0.302340 4.385190 
# 
# 
# High freq. dielectric constant tensor:
#      x y z
#    x 1.781240 -0.011530 0.002790 
#    y -0.011530 1.791440 0.008990 
#    z 0.002790 0.008990 1.792390 
# 
# From -- ./inp_files/205872.got.cif
#   From: 2010.06.25/outbox.cif.g09.slc.cpg/sg2_103_cif.got.tgz:205872.got - 2010.06.27 13:26:56.
