data_PCOD8010586
_publ_section_title
;
Structure prediction by ZEFSAII (Michael W. Deem and Ramdas Pophale) SiO2 
 PCOD8010586
Probable space group: P -1
;
_chemical_formula_sum "Si O2"
_cell_formula_units_Z 16
_cell_length_a 5.393683
_cell_length_b 7.077574
_cell_length_c 19.465623
_cell_angle_alpha 70.698595
_cell_angle_beta 104.974573
_cell_angle_gamma 120.697117
_cell_volume 599.356733
_symmetry_space_group_name_H-M "P -1"
_symmetry_group_IT_number 2
_symmetry_cell_setting 'triclinic'
loop_
_space_group_symop_operation_xyz
x,y,z
-x,-y,-z
loop_
_atom_site_type_symbol
_atom_site_label
_atom_site_fract_x
_atom_site_fract_y
_atom_site_fract_z
Si Si1 0.759366 0.682302 0.420920
Si Si2 0.692838 0.596482 0.795300
Si Si3 0.830691 0.349522 0.270584
Si Si4 0.693794 0.378783 0.958754
Si Si5 0.722116 0.969072 0.945103
Si Si6 0.903292 0.880508 0.267586
Si Si7 0.080281 0.414507 0.422344
Si Si8 0.630778 0.102344 0.781002
O O1 0.414910 0.602477 0.410484
O O2 0.901977 0.757090 0.498256
O O3 0.892289 0.878707 0.349767
O O4 0.851367 0.494990 0.424112
O O5 0.373540 0.527845 0.747783
O O6 0.651568 0.536254 0.880533
O O7 0.889232 0.501843 0.778789
O O8 0.882068 0.867797 0.772675
O O9 0.633395 0.108698 0.250323
O O10 0.945857 0.290747 0.356053
O O11 0.616499 0.145096 0.942711
O O12 0.486898 0.296676 0.020988
O O13 0.000000 0.500000 0.000000
O O14 0.756683 0.008494 0.861579
O O15 0.000000 0.000000 0.000000
O O16 0.089695 0.751778 0.267815
O O17 0.569048 0.776326 0.224482
#
# Coordination Sequence:
#
# PCOD8010586 Si02
#       8
#     2   2   2   2   2   2   2   2
#     4  10  21  38  62  94 137 174 223 277 337 408
#     4  10  23  40  65  93 129 168 226 281 336 404
#     4  10  21  40  62  93 130 175 223 277 334 408
#     4  11  26  47  71  98 137 186 234 295 356 424
#     4  11  28  46  70 100 137 186 233 292 360 422
#     4  10  21  41  64  93 129 177 216 281 334 403
#     4  10  21  38  61  95 133 180 221 275 340 406
#     4  10  23  42  66  90 134 167 225 279 336 407
#
# _framework density 26.695288999999999
#
# number of rings (size 3 to 8) (size 9 to 14) (size 15 to 20)
#    0.000    1.750    0.000    3.000    8.750    3.500 
#    0.000    5.000    0.000    0.000    0.000    0.000 
#    0.000    0.000    0.000    0.000    0.000    0.000 
#
# Total GULP energy -198231.466995 kJ/mol
# GULP energy per Si atom -12389.466687 kJ/mol
# Density = 2.663453 g / cm^3
# Si number density = 26.695289 Si / 1000 Ang^3
#
#
#
# Elastic Constant Matrix: (Units=GPa)
#
#
# Indices 1 2 3 4 5 6 
#
# 1 184.8499 32.9394 47.9250 2.9677 10.9420 38.1685
# 2 32.9394 51.2310 24.2842 2.5781 6.1055 30.2087
# 3 47.9250 24.2842 235.9489 15.0250 0.1946 34.5408
# 4 2.9677 2.5781 15.0250 40.6868 12.9396 4.6662
# 5 10.9420 6.1055 0.1946 12.9396 49.9470 -1.1880
# 6 38.1685 30.2087 34.5408 4.6662 -1.1880 55.3079
#
#
#
# Elastic Compliance Matrix: (Units=1/GPa)
#
#
# Indices 1 2 3 4 5 6 
#
# 1 0.006680 -0.001920 -0.000738 0.000749 -0.001496 -0.003195
# 2 -0.001920 0.030338 -0.000615 0.001452 -0.004020 -0.015069
# 3 -0.000738 -0.000615 0.004854 -0.001657 0.000599 -0.002034
# 4 0.000749 0.001452 -0.001657 0.027779 -0.007598 -0.002782
# 5 -0.001496 -0.004020 0.000599 -0.007598 0.022901 0.003987
# 6 -0.003195 -0.015069 -0.002034 -0.002782 0.003987 0.030107
#
#
# Mechanical properties :
#
#
# Convention : Reuss Voigt Hill
#
# Bulk Modulus (GPa) = 28.30906 75.81411 52.06159
# Shear Modulus (GPa) = 35.46613 53.64709 44.55661
#
# Velocity S-wave (km/s) = 3.64889 4.48773 4.08987
# Velocity P-wave (km/s) = 5.32729 7.43737 6.46894
#
# Compressibility (1/GPa) = 0.03532438
#
# Stress axis : x y z
#
# Youngs Moduli (GPa) = 149.71046 32.96240 206.01077
#
# Poissons Ratio (x) = 0.06329 0.15199
# Poissons Ratio (y) = 0.28748 0.12679
# Poissons Ratio (z) = 0.11045 0.02029
#
# Static dielectric constant tensor:
#      x y z
#    x 6.275190 -0.339400 0.053760 
#    y -0.339400 4.882980 -0.128000 
#    z 0.053760 -0.128000 5.259700 
# 
# 
# High freq. dielectric constant tensor:
#      x y z
#    x 2.112320 0.002740 0.003330 
#    y 0.002740 2.087250 -0.001740 
#    z 0.003330 -0.001740 2.080160 
# 
# From -- ./inp_files/582362.got.cif
#   From: 2010.06.25/outbox.cif.g09.slc.cpg/sg2_292_cif.got.tgz:582362.got - 2010.06.27 13:26:56.
