data_PCOD8010035
_publ_section_title
;
Structure prediction by ZEFSAII (Michael W. Deem and Ramdas Pophale) SiO2 
 PCOD8010035
Probable space group: P -1
;
_chemical_formula_sum "Si O2"
_cell_formula_units_Z 14
_cell_length_a 12.654274
_cell_length_b 9.288594
_cell_length_c 11.334060
_cell_angle_alpha 61.946223
_cell_angle_beta 36.947487
_cell_angle_gamma 51.375804
_cell_volume 624.447947
_symmetry_space_group_name_H-M "P -1"
_symmetry_group_IT_number 2
_symmetry_cell_setting 'triclinic'
loop_
_space_group_symop_operation_xyz
x,y,z
-x,-y,-z
loop_
_atom_site_type_symbol
_atom_site_label
_atom_site_fract_x
_atom_site_fract_y
_atom_site_fract_z
Si Si1 0.008929 0.362769 0.443229
Si Si2 0.157498 0.435914 0.716282
Si Si3 0.632656 0.305302 0.788468
Si Si4 0.422566 0.691482 0.724517
Si Si5 0.327162 0.935395 0.937868
Si Si6 0.605129 0.014391 0.783453
Si Si7 0.057549 0.737769 0.883630
O O1 0.207603 0.173573 0.347614
O O2 0.000000 0.500000 0.500000
O O3 0.996198 0.455337 0.292585
O O4 0.830181 0.316251 0.636539
O O5 0.383060 0.332308 0.509169
O O6 0.149183 0.577547 0.768332
O O7 0.084613 0.294003 0.884273
O O8 0.456055 0.506708 0.835464
O O9 0.663394 0.177311 0.693752
O O10 0.581209 0.227733 0.982834
O O11 0.368209 0.854660 0.802295
O O12 0.238223 0.753833 0.776794
O O13 0.443803 0.058322 0.805069
O O14 0.090539 0.065027 0.119840
O O15 0.500000 0.000000 0.000000
#
# Coordination Sequence:
#
# PCOD8010035 Si02
#       7
#     2   2   2   2   2   2   2
#     4  11  23  42  68 102 133 170 222 284 331 390
#     4  10  24  43  67  99 131 180 228 262 338 407
#     4  10  23  40  69  97 132 174 225 272 332 399
#     4  11  24  44  69  97 133 176 228 277 335 393
#     4  11  24  43  64 104 131 173 221 279 340 389
#     4  10  21  37  64  92 132 168 215 271 323 392
#     4  11  25  43  70  93 141 179 220 273 334 407
#
# _framework density 22.419803999999999
#
# number of rings (size 3 to 8) (size 9 to 14) (size 15 to 20)
#    0.000    1.429    0.000    5.143   10.000    1.714 
#    2.571    0.000    0.000    0.000    0.000    0.000 
#    0.000    0.000    0.000    0.000    0.000    0.000 
#
# Total GULP energy -173600.188382 kJ/mol
# GULP energy per Si atom -12400.013456 kJ/mol
# Density = 2.236878 g / cm^3
# Si number density = 22.419804 Si / 1000 Ang^3
#
#
#
# Elastic Constant Matrix: (Units=GPa)
#
#
# Indices 1 2 3 4 5 6 
#
# 1 102.4631 4.9396 3.1393 13.7164 -13.1934 13.4287
# 2 4.9396 55.0712 1.2220 21.0404 -9.9068 12.7192
# 3 3.1393 1.2220 46.0859 9.3430 -5.8668 7.4179
# 4 13.7164 21.0404 9.3430 38.0952 -6.9106 1.4842
# 5 -13.1934 -9.9068 -5.8668 -6.9106 34.7603 6.8429
# 6 13.4287 12.7192 7.4179 1.4842 6.8429 49.3283
#
#
#
# Elastic Compliance Matrix: (Units=1/GPa)
#
#
# Indices 1 2 3 4 5 6 
#
# 1 0.011558 0.002905 0.001601 -0.004989 0.005426 -0.004739
# 2 0.002905 0.027348 0.004773 -0.015425 0.008461 -0.009270
# 3 0.001601 0.004773 0.024774 -0.008018 0.005725 -0.005945
# 4 -0.004989 -0.015425 -0.008018 0.038105 -0.001161 0.005556
# 5 0.005426 0.008461 0.005725 -0.001161 0.035836 -0.009456
# 6 -0.004739 -0.009270 -0.005945 0.005556 -0.009456 0.025991
#
#
# Mechanical properties :
#
#
# Convention : Reuss Voigt Hill
#
# Bulk Modulus (GPa) = 12.15995 24.69133 18.42564
# Shear Modulus (GPa) = 28.99077 37.39137 33.19107
#
# Velocity S-wave (km/s) = 3.59985 4.08828 3.85182
# Velocity P-wave (km/s) = 4.76593 5.77256 5.29323
#
# Compressibility (1/GPa) = 0.08223718
#
# Stress axis : x y z
#
# Youngs Moduli (GPa) = 86.51898 36.56569 40.36437
#
# Poissons Ratio (x) = -0.10621 -0.06461
# Poissons Ratio (y) = -0.25130 -0.19267
# Poissons Ratio (z) = -0.13848 -0.17454
#
# Static dielectric constant tensor:
#      x y z
#    x 4.397590 0.246410 -0.010710 
#    y 0.246410 4.221840 -0.135300 
#    z -0.010710 -0.135300 3.696170 
# 
# 
# High freq. dielectric constant tensor:
#      x y z
#    x 1.905690 0.008260 -0.010430 
#    y 0.008260 1.884300 0.010480 
#    z -0.010430 0.010480 1.875070 
# 
# From -- ./inp_files/218586.got.cif
#   From: 2010.06.25/outbox.cif.g09.slc.cpg/sg2_110_cif.got.tgz:218586.got - 2010.06.27 13:26:56.
