data_PCOD8010571
_publ_section_title
;
Structure prediction by ZEFSAII (Michael W. Deem and Ramdas Pophale) SiO2 
 PCOD8010571
Probable space group: P -1
;
_chemical_formula_sum "Si O2"
_cell_formula_units_Z 14
_cell_length_a 12.790416
_cell_length_b 9.380010
_cell_length_c 9.983911
_cell_angle_alpha 100.588549
_cell_angle_beta 35.274009
_cell_angle_gamma 107.434750
_cell_volume 655.904877
_symmetry_space_group_name_H-M "P -1"
_symmetry_group_IT_number 2
_symmetry_cell_setting 'triclinic'
loop_
_space_group_symop_operation_xyz
x,y,z
-x,-y,-z
loop_
_atom_site_type_symbol
_atom_site_label
_atom_site_fract_x
_atom_site_fract_y
_atom_site_fract_z
Si Si1 0.995863 0.606695 0.351828
Si Si2 0.670285 0.214292 0.821256
Si Si3 0.248216 0.867037 0.005651
Si Si4 0.209417 0.175428 0.976537
Si Si5 0.537091 0.172685 0.464339
Si Si6 0.845942 0.264368 0.371112
Si Si7 0.348840 0.343436 0.122603
O O1 0.940691 0.437705 0.331426
O O2 0.827605 0.660502 0.602447
O O3 0.171968 0.628564 0.276438
O O4 0.063903 0.724684 0.178339
O O5 0.730591 0.173856 0.602877
O O6 0.678100 0.093547 0.910321
O O7 0.457937 0.225437 0.042500
O O8 0.403794 0.805801 0.749517
O O9 0.201194 0.010259 0.013191
O O10 0.282814 0.302124 0.033242
O O11 0.001680 0.179493 0.150073
O O12 0.347055 0.218732 0.710872
O O13 0.706755 0.263549 0.394781
O O14 0.500000 0.000000 0.500000
O O15 0.500000 0.500000 0.000000
#
# Coordination Sequence:
#
# PCOD8010571 Si02
#       7
#     2   2   2   2   2   2   2
#     4  10  22  40  60  94 128 148 203 258 294 367
#     4  10  21  38  61  93 121 157 196 255 301 351
#     4   9  24  43  57  89 133 152 202 257 300 352
#     4  11  22  40  65  90 118 165 207 243 301 373
#     4  10  23  45  59  88 125 163 206 249 294 371
#     4  12  21  39  71  86 119 166 203 244 312 352
#     4  12  20  35  66  93 120 160 203 247 305 357
#
# _framework density 21.344557999999999
#
# number of rings (size 3 to 8) (size 9 to 14) (size 15 to 20)
#    0.857    0.571    4.286    1.286    0.000    5.714 
#    7.714    0.714    0.000    0.000    0.000    0.000 
#    0.000    0.000    0.000    0.000    0.000    0.000 
#
# Total GULP energy -173470.938348 kJ/mol
# GULP energy per Si atom -12390.781311 kJ/mol
# Density = 2.129598 g / cm^3
# Si number density = 21.344558 Si / 1000 Ang^3
#
#
#
# Elastic Constant Matrix: (Units=GPa)
#
#
# Indices 1 2 3 4 5 6 
#
# 1 41.0806 -3.7381 22.0421 -1.1367 -0.6732 0.7432
# 2 -3.7381 47.8732 27.7708 3.4709 13.9073 -4.6790
# 3 22.0421 27.7708 186.5207 8.5200 8.5435 -17.2351
# 4 -1.1367 3.4709 8.5200 26.7300 -7.8052 0.1652
# 5 -0.6732 13.9073 8.5435 -7.8052 37.2348 4.5359
# 6 0.7432 -4.6790 -17.2351 0.1652 4.5359 17.5212
#
#
#
# Elastic Compliance Matrix: (Units=1/GPa)
#
#
# Indices 1 2 3 4 5 6 
#
# 1 0.027196 0.003651 -0.004372 0.002467 0.001236 -0.004823
# 2 0.003651 0.027443 -0.003050 -0.005866 -0.011595 0.007230
# 3 -0.004372 -0.003050 0.007195 -0.002714 -0.002011 0.006994
# 4 0.002467 -0.005866 -0.002714 0.042943 0.012843 -0.008070
# 5 0.001236 -0.011595 -0.002011 0.012843 0.036143 -0.014605
# 6 -0.004823 0.007230 0.006994 -0.008070 -0.014605 0.069946
#
#
# Mechanical properties :
#
#
# Convention : Reuss Voigt Hill
#
# Bulk Modulus (GPa) = 18.41949 40.84711 29.63330
# Shear Modulus (GPa) = 21.14105 31.59054 26.36579
#
# Velocity S-wave (km/s) = 3.15058 3.85129 3.51842
# Velocity P-wave (km/s) = 4.67795 6.24140 5.51536
#
# Compressibility (1/GPa) = 0.05429031
#
# Stress axis : x y z
#
# Youngs Moduli (GPa) = 36.76957 36.43870 138.99345
#
# Poissons Ratio (x) = -0.13303 0.60774
# Poissons Ratio (y) = -0.13423 0.42396
# Poissons Ratio (z) = 0.16077 0.11115
#
# Static dielectric constant tensor:
#      x y z
#    x 3.653910 0.169860 -0.039450 
#    y 0.169860 3.709040 0.024820 
#    z -0.039450 0.024820 4.866870 
# 
# 
# High freq. dielectric constant tensor:
#      x y z
#    x 1.817450 0.016550 -0.002530 
#    y 0.016550 1.824600 -0.004740 
#    z -0.002530 -0.004740 1.858270 
# 
# From -- ./inp_files/447740.got.cif
#   From: 2010.06.25/outbox.cif.g09.slc.cpg/sg2_224_cif.got.tgz:447740.got - 2010.06.27 13:26:56.
