data_PCOD8010502
_publ_section_title
;
Structure prediction by ZEFSAII (Michael W. Deem and Ramdas Pophale) SiO2 
 PCOD8010502
Probable space group: P -1
;
_chemical_formula_sum "Si O2"
_cell_formula_units_Z 16
_cell_length_a 12.785535
_cell_length_b 17.867322
_cell_length_c 10.298878
_cell_angle_alpha 77.885379
_cell_angle_beta 145.894385
_cell_angle_gamma 126.958740
_cell_volume 807.601111
_symmetry_space_group_name_H-M "P -1"
_symmetry_group_IT_number 2
_symmetry_cell_setting 'triclinic'
loop_
_space_group_symop_operation_xyz
x,y,z
-x,-y,-z
loop_
_atom_site_type_symbol
_atom_site_label
_atom_site_fract_x
_atom_site_fract_y
_atom_site_fract_z
Si Si1 0.337901 0.543394 0.715588
Si Si2 0.418099 0.405335 0.544996
Si Si3 0.884433 0.310957 0.159739
Si Si4 0.547952 0.751602 0.459803
Si Si5 0.441103 0.743521 0.652382
Si Si6 0.616670 0.951364 0.147861
Si Si7 0.047084 0.012132 0.756635
Si Si8 0.796420 0.563321 0.114754
O O1 0.418788 0.655585 0.731009
O O2 0.242928 0.507754 0.780730
O O3 0.067173 0.429181 0.390059
O O4 0.633767 0.590095 0.971464
O O5 0.500000 0.500000 0.500000
O O6 0.407642 0.324736 0.481233
O O7 0.095066 0.315187 0.308770
O O8 0.662654 0.477794 0.883228
O O9 0.725514 0.308944 0.886705
O O10 0.657208 0.194249 0.062411
O O11 0.470028 0.745087 0.528693
O O12 0.847258 0.890528 0.677850
O O13 0.140758 0.694201 0.394843
O O14 0.727221 0.878003 0.951497
O O15 0.779858 0.983225 0.171417
O O16 0.847758 0.014393 0.482025
O O17 0.500000 0.000000 0.000000
#
# Coordination Sequence:
#
# PCOD8010502 Si02
#       8
#     2   2   2   2   2   2   2   2
#     4  10  22  38  58  88 118 148 190 245 295 342
#     4  11  22  38  61  88 117 154 197 238 288 349
#     4  10  21  38  61  87 115 152 198 242 294 346
#     4  11  23  40  58  82 119 157 194 242 288 341
#     4  12  23  38  59  83 119 158 193 233 288 349
#     4  10  21  41  65  87 114 150 193 244 294 343
#     4  10  24  39  59  89 115 151 198 237 287 349
#     4  10  22  37  58  88 118 149 191 241 294 344
#
# _framework density 19.811762000000002
#
# number of rings (size 3 to 8) (size 9 to 14) (size 15 to 20)
#    0.000    1.500    0.000    5.250    0.000    8.500 
#    0.000    0.000    0.000    6.750    0.000    0.000 
#    0.000    0.000    0.000    0.000    0.000    0.000 
#
# Total GULP energy -198485.779264 kJ/mol
# GULP energy per Si atom -12405.361204 kJ/mol
# Density = 1.976667 g / cm^3
# Si number density = 19.811762 Si / 1000 Ang^3
#
#
#
# Elastic Constant Matrix: (Units=GPa)
#
#
# Indices 1 2 3 4 5 6 
#
# 1 104.8443 52.3998 60.8702 -0.8054 -4.6315 13.7136
# 2 52.3998 98.7719 77.4181 -3.9809 -11.7023 -6.5545
# 3 60.8702 77.4181 137.2202 6.3434 -0.9928 4.3540
# 4 -0.8054 -3.9809 6.3434 24.6284 1.4952 -1.1023
# 5 -4.6315 -11.7023 -0.9928 1.4952 34.7107 -3.3671
# 6 13.7136 -6.5545 4.3540 -1.1023 -3.3671 32.2606
#
#
#
# Elastic Compliance Matrix: (Units=1/GPa)
#
#
# Indices 1 2 3 4 5 6 
#
# 1 0.015451 -0.006508 -0.002945 -0.000070 -0.000950 -0.007595
# 2 -0.006508 0.024462 -0.011495 0.006693 0.007763 0.010327
# 3 -0.002945 -0.011495 0.015441 -0.005861 -0.003941 -0.003779
# 4 -0.000070 0.006693 -0.005861 0.043324 0.000574 0.003721
# 5 -0.000950 0.007763 -0.003941 0.000574 0.031730 0.005844
# 6 -0.007595 0.010327 -0.003779 0.003721 0.005844 0.037571
#
#
# Mechanical properties :
#
#
# Convention : Reuss Voigt Hill
#
# Bulk Modulus (GPa) = 74.30291 80.24586 77.27439
# Shear Modulus (GPa) = 23.32510 28.32983 25.82746
#
# Velocity S-wave (km/s) = 3.43496 3.78557 3.61452
# Velocity P-wave (km/s) = 7.30190 7.72654 7.51722
#
# Compressibility (1/GPa) = 0.01345842
#
# Stress axis : x y z
#
# Youngs Moduli (GPa) = 64.71953 40.88045 64.76088
#
# Poissons Ratio (x) = 0.26607 0.19071
# Poissons Ratio (y) = 0.42122 0.74441
# Poissons Ratio (z) = 0.19059 0.46991
#
# Static dielectric constant tensor:
#      x y z
#    x 3.742970 0.177750 0.121120 
#    y 0.177750 3.549290 -0.089190 
#    z 0.121120 -0.089190 4.033760 
# 
# 
# High freq. dielectric constant tensor:
#      x y z
#    x 1.786470 0.012190 0.007380 
#    y 0.012190 1.773110 -0.005100 
#    z 0.007380 -0.005100 1.785290 
# 
# From -- ./inp_files/273932.got.cif
#   From: 2010.06.25/outbox.cif.g09.slc.cpg/sg2_137_cif.got.tgz:273932.got - 2010.06.27 13:26:56.
