data_PCOD8010319
_publ_section_title
;
Structure prediction by ZEFSAII (Michael W. Deem and Ramdas Pophale) SiO2 
 PCOD8010319
Probable space group: P -1
;
_chemical_formula_sum "Si O2"
_cell_formula_units_Z 12
_cell_length_a 8.491950
_cell_length_b 12.572986
_cell_length_c 6.921076
_cell_angle_alpha 116.634861
_cell_angle_beta 110.986818
_cell_angle_gamma 65.706402
_cell_volume 588.204704
_symmetry_space_group_name_H-M "P -1"
_symmetry_group_IT_number 2
_symmetry_cell_setting 'triclinic'
loop_
_space_group_symop_operation_xyz
x,y,z
-x,-y,-z
loop_
_atom_site_type_symbol
_atom_site_label
_atom_site_fract_x
_atom_site_fract_y
_atom_site_fract_z
Si Si1 0.194620 0.343620 0.078611
Si Si2 0.128849 0.620267 0.317255
Si Si3 0.227437 0.034803 0.329667
Si Si4 0.728928 0.225706 0.770137
Si Si5 0.978193 0.263864 0.229106
Si Si6 0.440439 0.160290 0.779179
O O1 0.236504 0.474632 0.222065
O O2 0.127970 0.310127 0.227394
O O3 0.372721 0.235573 0.007895
O O4 0.054149 0.349200 0.852554
O O5 0.248677 0.703450 0.357408
O O6 0.090593 0.649184 0.547522
O O7 0.062429 0.118049 0.202550
O O8 0.278802 0.126801 0.578721
O O9 0.173136 0.924483 0.328869
O O10 0.397848 0.967083 0.211609
O O11 0.520849 0.246335 0.742004
O O12 0.812657 0.279553 0.029705
#
# Coordination Sequence:
#
# PCOD8010319 Si02
#       6
#     2   2   2   2   2   2
#     4  10  21  38  60  82 113 152 191 226 277 337
#     4  10  21  38  59  83 114 152 186 231 278 333
#     4   9  19  38  59  84 114 149 184 227 286 338
#     4   9  21  38  57  88 113 144 186 237 279 327
#     4  11  20  37  59  88 111 147 189 232 276 335
#     4   9  19  40  57  85 112 151 186 225 289 329
#
# _framework density 20.401062
#
# number of rings (size 3 to 8) (size 9 to 14) (size 15 to 20)
#    1.000    1.333    1.667    1.000    0.000    2.000 
#    6.000    0.833    0.000    0.000    0.000    0.000 
#    0.000    0.000    0.000    0.000    0.000    0.000 
#
# Total GULP energy -148717.244783 kJ/mol
# GULP energy per Si atom -12393.103732 kJ/mol
# Density = 2.035463 g / cm^3
# Si number density = 20.401062 Si / 1000 Ang^3
#
#
#
# Elastic Constant Matrix: (Units=GPa)
#
#
# Indices 1 2 3 4 5 6 
#
# 1 53.8191 28.1090 41.8605 15.4252 -21.4099 22.4553
# 2 28.1090 105.9012 44.0275 23.2319 -18.6378 23.6413
# 3 41.8605 44.0275 94.4583 13.7592 -34.8464 3.8469
# 4 15.4252 23.2319 13.7592 24.2441 -3.7672 -5.0553
# 5 -21.4099 -18.6378 -34.8464 -3.7672 31.3555 1.7294
# 6 22.4553 23.6413 3.8469 -5.0553 1.7294 41.4222
#
#
#
# Elastic Compliance Matrix: (Units=1/GPa)
#
#
# Indices 1 2 3 4 5 6 
#
# 1 0.110765 0.033465 -0.023492 -0.098580 0.062625 -0.091610
# 2 0.033465 0.028697 -0.010538 -0.047383 0.024730 -0.040357
# 3 -0.023492 -0.010538 0.025459 0.015409 0.006849 0.017980
# 4 -0.098580 -0.047383 0.015409 0.151326 -0.065701 0.100265
# 5 0.062625 0.024730 0.006849 -0.065701 0.092412 -0.060577
# 6 -0.091610 -0.040357 0.017980 0.100265 -0.060577 0.109933
#
#
# Mechanical properties :
#
#
# Convention : Reuss Voigt Hill
#
# Bulk Modulus (GPa) = 6.10530 53.57472 29.84001
# Shear Modulus (GPa) = 8.70596 28.74979 18.72787
#
# Velocity S-wave (km/s) = 2.06801 3.75804 3.03311
# Velocity P-wave (km/s) = 2.94981 6.71925 5.18891
#
# Compressibility (1/GPa) = 0.16379204
#
# Stress axis : x y z
#
# Youngs Moduli (GPa) = 9.02813 34.84636 39.27894
#
# Poissons Ratio (x) = -1.16613 0.92274
# Poissons Ratio (y) = -0.30213 0.41391
# Poissons Ratio (z) = 0.21209 0.36720
#
# Static dielectric constant tensor:
#      x y z
#    x 3.511890 0.160170 -0.029150 
#    y 0.160170 3.710520 0.167570 
#    z -0.029150 0.167570 3.414980 
# 
# 
# High freq. dielectric constant tensor:
#      x y z
#    x 1.781010 0.010500 -0.004590 
#    y 0.010500 1.791670 0.021230 
#    z -0.004590 0.021230 1.782910 
# 
# From -- ./inp_files/19046.got.cif
#   From: 2010.06.25/outbox.cif.g09.slc.cpg/sg2_10_cif.got.tgz:19046.got - 2010.06.27 13:26:56.
