data_PCOD8010169
_publ_section_title
;
Structure prediction by ZEFSAII (Michael W. Deem and Ramdas Pophale) SiO2 
 PCOD8010169
Probable space group: P -1
;
_chemical_formula_sum "Si O2"
_cell_formula_units_Z 14
_cell_length_a 9.240183
_cell_length_b 14.146117
_cell_length_c 15.145957
_cell_angle_alpha 160.458823
_cell_angle_beta 100.331575
_cell_angle_gamma 84.778608
_cell_volume 632.893476
_symmetry_space_group_name_H-M "P -1"
_symmetry_group_IT_number 2
_symmetry_cell_setting 'triclinic'
loop_
_space_group_symop_operation_xyz
x,y,z
-x,-y,-z
loop_
_atom_site_type_symbol
_atom_site_label
_atom_site_fract_x
_atom_site_fract_y
_atom_site_fract_z
Si Si1 0.891325 0.315625 0.478938
Si Si2 0.898283 0.186491 0.697452
Si Si3 0.310928 0.002689 0.159683
Si Si4 0.080056 0.920133 0.203157
Si Si5 0.218754 0.140922 0.083589
Si Si6 0.227108 0.587055 0.273458
Si Si7 0.486057 0.415122 0.237995
O O1 0.904218 0.659029 0.763079
O O2 0.785212 0.223340 0.473057
O O3 0.050946 0.234412 0.447317
O O4 0.819760 0.138127 0.229135
O O5 0.838024 0.048496 0.664008
O O6 0.765263 0.215140 0.639631
O O7 0.000000 0.000000 0.500000
O O8 0.000000 0.500000 0.000000
O O9 0.218975 0.037237 0.092063
O O10 0.380106 0.313243 0.484221
O O11 0.191185 0.823877 0.060046
O O12 0.443476 0.844479 0.015454
O O13 0.919313 0.685744 0.981994
O O14 0.384621 0.327659 0.237867
O O15 0.381683 0.479848 0.202732
#
# Coordination Sequence:
#
# PCOD8010169 Si02
#       7
#     2   2   2   2   2   2   2
#     4  11  20  38  66  92 119 156 212 258 297 356
#     4  10  21  37  67  95 119 157 205 254 307 368
#     4  12  27  40  62  92 132 163 203 262 308 357
#     4  11  24  42  65  96 127 157 207 260 316 357
#     4  11  23  41  64  89 122 170 216 244 299 373
#     4  10  22  43  69  91 121 163 212 254 301 377
#     4  11  23  42  63  87 124 172 209 245 307 370
#
# _framework density 22.120628
#
# number of rings (size 3 to 8) (size 9 to 14) (size 15 to 20)
#    0.000    1.143    4.286    3.429    2.000    1.143 
#    0.000    1.429    0.000    0.000    0.000    0.000 
#    0.000    0.000    0.000    0.000    0.000    0.000 
#
# Total GULP energy -173547.654729 kJ/mol
# GULP energy per Si atom -12396.261052 kJ/mol
# Density = 2.207028 g / cm^3
# Si number density = 22.120628 Si / 1000 Ang^3
#
#
#
# Elastic Constant Matrix: (Units=GPa)
#
#
# Indices 1 2 3 4 5 6 
#
# 1 51.7324 56.5331 14.8887 -2.2988 -16.9714 -2.0721
# 2 56.5331 201.4365 35.5360 -29.3871 -20.3847 -24.6277
# 3 14.8887 35.5360 102.0067 -7.6632 -18.3562 -3.9610
# 4 -2.2988 -29.3871 -7.6632 27.4296 -9.5637 -2.7332
# 5 -16.9714 -20.3847 -18.3562 -9.5637 28.1821 0.6343
# 6 -2.0721 -24.6277 -3.9610 -2.7332 0.6343 28.2026
#
#
#
# Elastic Compliance Matrix: (Units=1/GPa)
#
#
# Indices 1 2 3 4 5 6 
#
# 1 0.033141 -0.009419 0.000092 -0.003711 0.012090 -0.006409
# 2 -0.009419 0.012287 0.000399 0.016734 0.008895 0.011515
# 3 0.000092 0.000399 0.012338 0.007990 0.011033 0.002615
# 4 -0.003711 0.016734 0.007990 0.072070 0.039045 0.021569
# 5 0.012090 0.008895 0.011033 0.039045 0.069355 0.012430
# 6 -0.006409 0.011515 0.002615 0.021569 0.012430 0.047220
#
#
# Mechanical properties :
#
#
# Convention : Reuss Voigt Hill
#
# Bulk Modulus (GPa) = 25.05589 63.23236 44.14413
# Shear Modulus (GPa) = 18.01355 33.31069 25.66212
#
# Velocity S-wave (km/s) = 2.85675 3.88476 3.40972
# Velocity P-wave (km/s) = 4.71517 6.98349 5.95827
#
# Compressibility (1/GPa) = 0.03991077
#
# Stress axis : x y z
#
# Youngs Moduli (GPa) = 30.17387 81.38964 81.05122
#
# Poissons Ratio (x) = 0.76659 -0.00745
# Poissons Ratio (y) = 0.28420 -0.03238
# Poissons Ratio (z) = -0.00277 -0.03251
#
# Static dielectric constant tensor:
#      x y z
#    x 3.756750 -0.276460 -0.261690 
#    y -0.276460 4.864960 -0.218820 
#    z -0.261690 -0.218820 4.060190 
# 
# 
# High freq. dielectric constant tensor:
#      x y z
#    x 1.839560 -0.022560 -0.019560 
#    y -0.022560 1.876140 -0.008750 
#    z -0.019560 -0.008750 1.881990 
# 
# From -- ./inp_files/134058.got.cif
#   From: 2010.06.25/outbox.cif.g09.slc.cpg/sg2_68_cif.got.tgz:134058.got - 2010.06.27 13:26:56.
