data_PCOD8010865
_publ_section_title
;
Structure prediction by ZEFSAII (Michael W. Deem and Ramdas Pophale) SiO2 
 PCOD8010865
Probable space group: P -1
;
_chemical_formula_sum "Si O2"
_cell_formula_units_Z 14
_cell_length_a 11.596493
_cell_length_b 7.559884
_cell_length_c 8.832544
_cell_angle_alpha 66.494014
_cell_angle_beta 54.345984
_cell_angle_gamma 72.567516
_cell_volume 574.630328
_symmetry_space_group_name_H-M "P -1"
_symmetry_group_IT_number 2
_symmetry_cell_setting 'triclinic'
loop_
_space_group_symop_operation_xyz
x,y,z
-x,-y,-z
loop_
_atom_site_type_symbol
_atom_site_label
_atom_site_fract_x
_atom_site_fract_y
_atom_site_fract_z
Si Si1 0.908547 0.836512 0.558892
Si Si2 0.322533 0.683743 0.604705
Si Si3 0.065653 0.933853 0.130947
Si Si4 0.995986 0.322147 0.179446
Si Si5 0.597926 0.834086 0.892667
Si Si6 0.601542 0.737303 0.239364
Si Si7 0.637973 0.161857 0.151468
O O1 0.957538 0.813327 0.354008
O O2 0.955525 0.643547 0.694417
O O3 0.738254 0.893645 0.677304
O O4 0.000000 0.000000 0.500000
O O5 0.159615 0.761898 0.674426
O O6 0.427596 0.758450 0.372531
O O7 0.329752 0.450567 0.661818
O O8 0.381381 0.754158 0.695284
O O9 0.209650 0.790213 0.050398
O O10 0.103370 0.138352 0.107449
O O11 0.000000 0.000000 0.000000
O O12 0.000000 0.500000 0.000000
O O13 0.647664 0.694441 0.042572
O O14 0.494804 0.744386 0.879325
O O15 0.500000 0.000000 0.000000
O O16 0.648414 0.927596 0.221157
#
# Coordination Sequence:
#
# PCOD8010865 Si02
#       7
#     2   2   2   2   2   2   2
#     4  10  22  38  64  94 127 174 219 265 324 396
#     4  11  23  39  65  96 128 172 212 272 328 384
#     4  11  23  40  63  97 128 165 223 266 323 396
#     4  11  22  40  66  89 133 172 216 265 329 388
#     4  10  21  38  64  92 129 169 216 269 323 388
#     4  10  23  40  62  97 129 166 222 261 326 395
#     4  11  23  40  67  95 128 171 214 271 328 388
#
# _framework density 24.363488
#
# number of rings (size 3 to 8) (size 9 to 14) (size 15 to 20)
#    0.000    1.429    1.429    5.571   10.000    1.714 
#    0.000    0.714    0.000    0.000    0.000    0.000 
#    0.000    0.000    0.000    0.000    0.000    0.000 
#
# Total GULP energy -173442.228167 kJ/mol
# GULP energy per Si atom -12388.730583 kJ/mol
# Density = 2.430804 g / cm^3
# Si number density = 24.363488 Si / 1000 Ang^3
#
#
#
# Elastic Constant Matrix: (Units=GPa)
#
#
# Indices 1 2 3 4 5 6 
#
# 1 112.2516 2.4456 49.3540 10.0506 1.5603 -8.0731
# 2 2.4456 47.0262 15.4491 1.1686 3.3752 3.4995
# 3 49.3540 15.4491 183.7925 14.5382 -2.1085 -9.2311
# 4 10.0506 1.1686 14.5382 23.0872 -9.5227 0.4718
# 5 1.5603 3.3752 -2.1085 -9.5227 49.7025 7.5363
# 6 -8.0731 3.4995 -9.2311 0.4718 7.5363 27.6607
#
#
#
# Elastic Compliance Matrix: (Units=1/GPa)
#
#
# Indices 1 2 3 4 5 6 
#
# 1 0.010528 0.000256 -0.002431 -0.003776 -0.001588 0.002726
# 2 0.000256 0.022261 -0.002081 -0.000362 -0.001207 -0.003101
# 3 -0.002431 -0.002081 0.006615 -0.003210 -0.000409 0.001927
# 4 -0.003776 -0.000362 -0.003210 0.051569 0.010789 -0.005946
# 5 -0.001588 -0.001207 -0.000409 0.010789 0.023362 -0.006996
# 6 0.002726 -0.003101 0.001927 -0.005946 -0.006996 0.039991
#
#
# Mechanical properties :
#
#
# Convention : Reuss Voigt Hill
#
# Bulk Modulus (GPa) = 32.37070 53.06310 42.71690
# Shear Modulus (GPa) = 28.87902 38.47818 33.67860
#
# Velocity S-wave (km/s) = 3.44661 3.97840 3.72202
# Velocity P-wave (km/s) = 5.39947 6.55214 6.00353
#
# Compressibility (1/GPa) = 0.03089213
#
# Stress axis : x y z
#
# Youngs Moduli (GPa) = 94.98349 44.92062 151.17813
#
# Poissons Ratio (x) = -0.01151 0.36756
# Poissons Ratio (y) = -0.02433 0.31459
# Poissons Ratio (z) = 0.23093 0.09348
#
# Static dielectric constant tensor:
#      x y z
#    x 4.659810 -0.292910 0.409060 
#    y -0.292910 4.008840 0.083640 
#    z 0.409060 0.083640 5.756990 
# 
# 
# High freq. dielectric constant tensor:
#      x y z
#    x 1.969950 -0.023450 -0.005160 
#    y -0.023450 1.929910 0.008010 
#    z -0.005160 0.008010 1.993660 
# 
# From -- ./inp_files/233402.got.cif
#   From: 2010.06.25/outbox.cif.g09.slc.cpg/sg2_117_cif.got.tgz:233402.got - 2010.06.27 13:26:56.
