data_PCOD8010499
_publ_section_title
;
Structure prediction by ZEFSAII (Michael W. Deem and Ramdas Pophale) SiO2 
 PCOD8010499
Probable space group: P -1
;
_chemical_formula_sum "Si O2"
_cell_formula_units_Z 16
_cell_length_a 10.153607
_cell_length_b 9.164390
_cell_length_c 11.408958
_cell_angle_alpha 111.093923
_cell_angle_beta 58.362614
_cell_angle_gamma 122.625549
_cell_volume 756.819909
_symmetry_space_group_name_H-M "P -1"
_symmetry_group_IT_number 2
_symmetry_cell_setting 'triclinic'
loop_
_space_group_symop_operation_xyz
x,y,z
-x,-y,-z
loop_
_atom_site_type_symbol
_atom_site_label
_atom_site_fract_x
_atom_site_fract_y
_atom_site_fract_z
Si Si1 0.489663 0.794688 0.024031
Si Si2 0.634436 0.404189 0.754699
Si Si3 0.894386 0.645303 0.292333
Si Si4 0.231347 0.947358 0.171246
Si Si5 0.730256 0.841398 0.567166
Si Si6 0.565329 0.425974 0.238554
Si Si7 0.987704 0.414099 0.355245
Si Si8 0.681784 0.110679 0.506930
O O1 0.484343 0.667007 0.094593
O O2 0.375257 0.893465 0.140665
O O3 0.412866 0.685893 0.909666
O O4 0.688469 0.936062 0.949172
O O5 0.538229 0.467119 0.723530
O O6 0.666073 0.246957 0.642600
O O7 0.818327 0.565041 0.752282
O O8 0.844542 0.748080 0.444218
O O9 0.750045 0.557817 0.237005
O O10 0.940280 0.508190 0.298942
O O11 0.056679 0.776490 0.177529
O O12 0.190325 0.061572 0.320035
O O13 0.535351 0.696371 0.640567
O O14 0.735089 0.977091 0.507741
O O15 0.837085 0.215363 0.372065
O O16 0.000000 0.500000 0.500000
O O17 0.500000 0.000000 0.500000
#
# Coordination Sequence:
#
# PCOD8010499 Si02
#       8
#     2   2   2   2   2   2   2   2
#     4  10  21  42  62  84 120 164 207 236 294 364
#     4  11  21  43  59  86 118 164 202 240 295 364
#     4  12  22  40  61  96 121 151 201 258 303 346
#     4  10  21  38  63  90 113 159 204 247 290 361
#     4  11  21  38  60  89 120 158 193 244 304 362
#     4  11  25  38  63  89 125 157 199 254 300 346
#     4  10  21  38  61  86 122 159 199 240 293 371
#     4  11  21  35  58  90 124 153 191 250 308 348
#
# _framework density 21.141090999999999
#
# number of rings (size 3 to 8) (size 9 to 14) (size 15 to 20)
#    0.000    1.250    2.500    4.875    0.000    2.500 
#    0.000    0.625    0.000    0.000    0.000    0.000 
#    0.000    0.000    0.000    0.000    0.000    0.000 
#
# Total GULP energy -198383.057056 kJ/mol
# GULP energy per Si atom -12398.941066 kJ/mol
# Density = 2.109297 g / cm^3
# Si number density = 21.141091 Si / 1000 Ang^3
#
#
#
# Elastic Constant Matrix: (Units=GPa)
#
#
# Indices 1 2 3 4 5 6 
#
# 1 116.6865 57.4675 28.3940 -31.0190 0.5081 15.1141
# 2 57.4675 129.9056 53.0689 -49.4863 0.3649 18.3776
# 3 28.3940 53.0689 85.9361 -33.2439 1.7438 9.5115
# 4 -31.0190 -49.4863 -33.2439 47.0521 1.8301 -16.1417
# 5 0.5081 0.3649 1.7438 1.8301 11.6032 -9.0587
# 6 15.1141 18.3776 9.5115 -16.1417 -9.0587 31.6155
#
#
#
# Elastic Compliance Matrix: (Units=1/GPa)
#
#
# Indices 1 2 3 4 5 6 
#
# 1 0.011484 -0.003500 -0.000114 0.002979 -0.003000 -0.002760
# 2 -0.003500 0.014958 -0.003898 0.010336 -0.002329 -0.001239
# 3 -0.000114 -0.003898 0.017337 0.008331 -0.003519 0.000350
# 4 0.002979 0.010336 0.008331 0.044443 0.001595 0.013210
# 5 -0.003000 -0.002329 -0.003519 0.001595 0.116325 0.037991
# 6 -0.002760 -0.001239 0.000350 0.013210 0.037991 0.051194
#
#
# Mechanical properties :
#
#
# Convention : Reuss Voigt Hill
#
# Bulk Modulus (GPa) = 34.77732 67.82100 51.29916
# Shear Modulus (GPa) = 17.83487 30.96068 24.39778
#
# Velocity S-wave (km/s) = 2.90765 3.83100 3.40081
# Velocity P-wave (km/s) = 5.26862 7.19156 6.30385
#
# Compressibility (1/GPa) = 0.02875438
#
# Stress axis : x y z
#
# Youngs Moduli (GPa) = 87.07843 66.85542 57.68035
#
# Poissons Ratio (x) = 0.23399 0.00660
# Poissons Ratio (y) = 0.30476 0.22483
# Poissons Ratio (z) = 0.00996 0.26059
#
# Static dielectric constant tensor:
#      x y z
#    x 3.588900 0.082860 -0.196240 
#    y 0.082860 4.262670 -0.389550 
#    z -0.196240 -0.389550 3.846660 
# 
# 
# High freq. dielectric constant tensor:
#      x y z
#    x 1.809140 -0.005440 -0.011530 
#    y -0.005440 1.843840 -0.024280 
#    z -0.011530 -0.024280 1.824250 
# 
# From -- ./inp_files/225864.got.cif
#   From: 2010.06.25/outbox.cif.g09.slc.cpg/sg2_113_cif.got.tgz:225864.got - 2010.06.27 13:26:56.
