data_PCOD8010044
_publ_section_title
;
Structure prediction by ZEFSAII (Michael W. Deem and Ramdas Pophale) SiO2 
 PCOD8010044
Probable space group: P -1
;
_chemical_formula_sum "Si O2"
_cell_formula_units_Z 16
_cell_length_a 9.511856
_cell_length_b 6.400286
_cell_length_c 20.598101
_cell_angle_alpha 131.140274
_cell_angle_beta 59.615520
_cell_angle_gamma 97.702840
_cell_volume 775.614404
_symmetry_space_group_name_H-M "P -1"
_symmetry_group_IT_number 2
_symmetry_cell_setting 'triclinic'
loop_
_space_group_symop_operation_xyz
x,y,z
-x,-y,-z
loop_
_atom_site_type_symbol
_atom_site_label
_atom_site_fract_x
_atom_site_fract_y
_atom_site_fract_z
Si Si1 0.337881 0.945458 0.493643
Si Si2 0.988346 0.843413 0.879507
Si Si3 0.255979 0.694957 0.898580
Si Si4 0.927209 0.808879 0.286184
Si Si5 0.156220 0.167954 0.327718
Si Si6 0.225189 0.101671 0.799603
Si Si7 0.482318 0.311503 0.273133
Si Si8 0.101220 0.219052 0.500802
O O1 0.379198 0.625011 0.389234
O O2 0.500000 0.000000 0.500000
O O3 0.183577 0.994687 0.590724
O O4 0.269790 0.170876 0.496504
O O5 0.095154 0.751873 0.900895
O O6 0.004857 0.532720 0.778477
O O7 0.056960 0.058372 0.862792
O O8 0.792723 0.032799 0.983323
O O9 0.266650 0.395078 0.872646
O O10 0.426598 0.669919 0.812853
O O11 0.802644 0.880763 0.267645
O O12 0.098515 0.903302 0.257081
O O13 0.347101 0.139958 0.252868
O O14 0.166767 0.158495 0.400540
O O15 0.019450 0.457915 0.392749
O O16 0.385458 0.834976 0.730754
O O17 0.000000 0.000000 0.500000
#
# Coordination Sequence:
#
# PCOD8010044 Si02
#       8
#     2   2   2   2   2   2   2   2
#     4  12  24  39  63  94 129 157 200 265 310 360
#     4   9  19  39  63  90 121 158 209 263 313 366
#     4   9  19  39  63  90 121 158 209 263 313 366
#     4  11  24  39  59  95 125 167 205 254 310 369
#     4  11  24  40  61  88 122 178 213 241 302 380
#     4  10  21  37  64  94 124 159 205 256 324 364
#     4  11  24  39  59  95 125 167 205 254 310 369
#     4  11  22  43  60  82 126 176 214 244 300 370
#
# _framework density 20.628807999999999
#
# number of rings (size 3 to 8) (size 9 to 14) (size 15 to 20)
#    0.000    1.500    2.500    3.375    7.000    1.500 
#    0.000    0.625    0.000    1.500    0.000    0.000 
#    0.000    0.000    0.000    0.000    0.000    0.000 
#
# Total GULP energy -198342.599149 kJ/mol
# GULP energy per Si atom -12396.412447 kJ/mol
# Density = 2.058186 g / cm^3
# Si number density = 20.628808 Si / 1000 Ang^3
#
#
#
# Elastic Constant Matrix: (Units=GPa)
#
#
# Indices 1 2 3 4 5 6 
#
# 1 103.9799 39.8072 25.5106 1.7112 -6.4015 8.7650
# 2 39.8072 132.7919 56.7174 3.9433 -13.4562 10.8351
# 3 25.5106 56.7174 135.3718 0.5248 -21.8466 11.6275
# 4 1.7112 3.9433 0.5248 14.4054 5.3863 0.3579
# 5 -6.4015 -13.4562 -21.8466 5.3863 8.2651 -5.1479
# 6 8.7650 10.8351 11.6275 0.3579 -5.1479 47.6894
#
#
#
# Elastic Compliance Matrix: (Units=1/GPa)
#
#
# Indices 1 2 3 4 5 6 
#
# 1 0.011071 -0.002610 -0.000042 -0.002592 0.005385 -0.000831
# 2 -0.002610 0.011061 -0.000660 -0.010787 0.021609 0.000541
# 3 -0.000042 -0.000660 0.017746 -0.024223 0.063362 0.002852
# 4 -0.002592 -0.010787 -0.024223 0.142717 -0.184151 -0.012116
# 5 0.005385 0.021609 0.063362 -0.184151 0.466780 0.030421
# 6 -0.000831 0.000541 0.002852 -0.012116 0.030421 0.023678
#
#
# Mechanical properties :
#
#
# Convention : Reuss Voigt Hill
#
# Bulk Modulus (GPa) = 30.07215 68.46821 49.27018
# Shear Modulus (GPa) = 7.23838 30.74588 18.99213
#
# Velocity S-wave (km/s) = 1.87523 3.86480 3.03753
# Velocity P-wave (km/s) = 4.39295 7.29234 6.01981
#
# Compressibility (1/GPa) = 0.03325335
#
# Stress axis : x y z
#
# Youngs Moduli (GPa) = 90.32493 90.41032 56.35138
#
# Poissons Ratio (x) = 0.23600 0.00238
# Poissons Ratio (y) = 0.23578 0.03717
# Poissons Ratio (z) = 0.00381 0.05963
#
# Static dielectric constant tensor:
#      x y z
#    x 3.743090 -0.051320 -0.079920 
#    y -0.051320 4.078380 0.169020 
#    z -0.079920 0.169020 3.888940 
# 
# 
# High freq. dielectric constant tensor:
#      x y z
#    x 1.786120 -0.000490 -0.008210 
#    y -0.000490 1.822480 0.005010 
#    z -0.008210 0.005010 1.796320 
# 
# From -- ./inp_files/101148.got.cif
#   From: 2010.06.25/outbox.cif.g09.slc.cpg/sg2_51_cif.got.tgz:101148.got - 2010.06.27 13:26:56.
