data_PCOD8010004
_publ_section_title
;
Structure prediction by ZEFSAII (Michael W. Deem and Ramdas Pophale) SiO2 
 PCOD8010004
Probable space group: P -1
;
_chemical_formula_sum "Si O2"
_cell_formula_units_Z 14
_cell_length_a 5.059354
_cell_length_b 28.431605
_cell_length_c 11.881324
_cell_angle_alpha 22.389165
_cell_angle_beta 113.090605
_cell_angle_gamma 110.660849
_cell_volume 598.592949
_symmetry_space_group_name_H-M "P -1"
_symmetry_group_IT_number 2
_symmetry_cell_setting 'triclinic'
loop_
_space_group_symop_operation_xyz
x,y,z
-x,-y,-z
loop_
_atom_site_type_symbol
_atom_site_label
_atom_site_fract_x
_atom_site_fract_y
_atom_site_fract_z
Si Si1 0.121835 0.692351 0.948862
Si Si2 0.832285 0.274086 0.472053
Si Si3 0.895467 0.792067 0.120663
Si Si4 0.699457 0.314157 0.758945
Si Si5 0.481428 0.419193 0.926064
Si Si6 0.924276 0.031565 0.728738
Si Si7 0.305369 0.112561 0.796697
O O1 0.176368 0.648968 0.181303
O O2 0.341031 0.612421 0.086492
O O3 0.793340 0.666801 0.918778
O O4 0.182782 0.837358 0.627568
O O5 0.601288 0.179572 0.688832
O O6 0.016225 0.302026 0.553297
O O7 0.036535 0.210585 0.552259
O O8 0.679407 0.393964 0.125605
O O9 0.562394 0.776931 0.072266
O O10 0.056969 0.758805 0.107371
O O11 0.957152 0.933823 0.849216
O O12 0.610546 0.438294 0.402983
O O13 0.231219 0.041274 0.825441
O O14 0.687277 0.981125 0.888568
#
# Coordination Sequence:
#
# PCOD8010004 Si02
#       7
#     2   2   2   2   2   2   2
#     4  12  25  44  70  98 123 170 223 273 313 369
#     4  11  21  41  67  99 129 159 219 265 330 372
#     4  11  26  42  64  96 134 179 201 257 330 400
#     4  12  27  46  63  91 139 177 216 252 315 394
#     4  12  24  44  71  97 122 169 224 278 312 360
#     4  10  22  40  68  98 131 165 210 267 329 379
#     4  10  21  37  64 103 130 158 205 279 323 373
#
# _framework density 23.388182
#
# number of rings (size 3 to 8) (size 9 to 14) (size 15 to 20)
#    0.000    0.857    2.857    4.286    0.000   12.000 
#    0.000    0.000    0.000    0.000    0.000    0.000 
#    0.000    0.000    0.000    0.000    0.000    0.000 
#
# Total GULP energy -173651.147995 kJ/mol
# GULP energy per Si atom -12403.653428 kJ/mol
# Density = 2.333495 g / cm^3
# Si number density = 23.388182 Si / 1000 Ang^3
#
#
#
# Elastic Constant Matrix: (Units=GPa)
#
#
# Indices 1 2 3 4 5 6 
#
# 1 309.4323 90.7003 -45.8977 -49.1808 72.1693 -36.7743
# 2 90.7003 78.1811 -27.4122 -15.6505 24.1317 -15.0850
# 3 -45.8977 -27.4122 65.3990 12.3046 -11.4499 2.6459
# 4 -49.1808 -15.6505 12.3046 36.7828 -14.8511 9.8313
# 5 72.1693 24.1317 -11.4499 -14.8511 47.2086 -6.7225
# 6 -36.7743 -15.0850 2.6459 9.8313 -6.7225 40.3130
#
#
#
# Elastic Compliance Matrix: (Units=1/GPa)
#
#
# Indices 1 2 3 4 5 6 
#
# 1 0.007328 -0.004650 0.001134 0.003904 -0.006929 0.002763
# 2 -0.004650 0.021168 0.005224 -0.000691 -0.002215 0.003135
# 3 0.001134 0.005224 0.018717 -0.003427 -0.000587 0.002499
# 4 0.003904 -0.000691 -0.003427 0.036219 0.004295 -0.004589
# 5 -0.006929 -0.002215 -0.000587 0.004295 0.033755 -0.002529
# 6 0.002763 0.003135 0.002499 -0.004589 -0.002529 0.029033
#
#
# Mechanical properties :
#
#
# Convention : Reuss Voigt Hill
#
# Bulk Modulus (GPa) = 19.75141 54.19925 36.97533
# Shear Modulus (GPa) = 31.31249 53.90234 42.60741
#
# Velocity S-wave (km/s) = 3.66295 4.80592 4.27283
# Velocity P-wave (km/s) = 5.13352 7.34982 6.33928
#
# Compressibility (1/GPa) = 0.05062929
#
# Stress axis : x y z
#
# Youngs Moduli (GPa) = 136.46591 47.24111 53.42615
#
# Poissons Ratio (x) = 0.21969 -0.06060
# Poissons Ratio (y) = 0.63463 -0.27911
# Poissons Ratio (z) = -0.15478 -0.24680
#
# Static dielectric constant tensor:
#      x y z
#    x 4.311000 0.060490 0.190750 
#    y 0.060490 1.745630 -5.589180 
#    z 0.190750 -5.589180 -9.205500 
# 
# 
# High freq. dielectric constant tensor:
#      x y z
#    x 1.940220 -0.002710 0.002550 
#    y -0.002710 1.920060 0.001840 
#    z 0.002550 0.001840 1.917980 
# 
# From -- ./inp_files/371383.got.cif
#   From: 2010.06.25/outbox.cif.g09.slc.cpg/sg2_186_cif.got.tgz:371383.got - 2010.06.27 13:26:56.
