data_PCOD8010005
_publ_section_title
;
Structure prediction by ZEFSAII (Michael W. Deem and Ramdas Pophale) SiO2 
 PCOD8010005
Probable space group: P -1
;
_chemical_formula_sum "Si O2"
_cell_formula_units_Z 14
_cell_length_a 7.720936
_cell_length_b 17.144481
_cell_length_c 12.805268
_cell_angle_alpha 38.370215
_cell_angle_beta 133.690266
_cell_angle_gamma 147.760939
_cell_volume 559.337056
_symmetry_space_group_name_H-M "P -1"
_symmetry_group_IT_number 2
_symmetry_cell_setting 'triclinic'
loop_
_space_group_symop_operation_xyz
x,y,z
-x,-y,-z
loop_
_atom_site_type_symbol
_atom_site_label
_atom_site_fract_x
_atom_site_fract_y
_atom_site_fract_z
Si Si1 0.732684 0.757904 0.830522
Si Si2 0.279201 0.749849 0.343741
Si Si3 0.879662 0.476527 0.304277
Si Si4 0.318267 0.885302 0.825246
Si Si5 0.732161 0.553537 0.634981
Si Si6 0.983992 0.881393 0.489976
Si Si7 0.384734 0.640309 0.026345
O O1 0.485282 0.619493 0.783097
O O2 0.590985 0.684063 0.963589
O O3 0.057996 0.788559 0.914887
O O4 0.799977 0.931144 0.666787
O O5 0.090760 0.631565 0.490732
O O6 0.608305 0.785604 0.437578
O O7 0.062514 0.657708 0.245568
O O8 0.359236 0.925447 0.202808
O O9 0.058486 0.495805 0.252966
O O10 0.462537 0.805461 0.931215
O O11 0.130696 0.901863 0.642682
O O12 0.500000 0.500000 0.500000
O O13 0.987404 0.757207 0.550459
O O14 0.522303 0.438505 0.770853
O O15 0.000000 0.500000 0.000000
#
# Coordination Sequence:
#
# PCOD8010005 Si02
#       7
#     2   2   2   2   2   2   2
#     4  11  23  42  73 105 137 178 232 284 341 401
#     4  10  21  37  64 107 134 180 230 271 337 413
#     4  11  20  37  68 102 132 180 232 268 343 402
#     4  11  22  43  70 102 146 174 229 286 334 409
#     4  12  26  46  69  95 142 180 228 293 342 412
#     4  11  20  41  72  99 135 185 227 277 339 410
#     4  12  26  44  69 107 136 179 234 285 349 402
#
# _framework density 25.029630000000001
#
# number of rings (size 3 to 8) (size 9 to 14) (size 15 to 20)
#    0.000    0.857    7.143    0.857    2.000    1.714 
#    2.571    1.429    0.000    0.000    0.000    0.000 
#    0.000    0.000    0.000    0.000    0.000    0.000 
#
# Total GULP energy -173609.456464 kJ/mol
# GULP energy per Si atom -12400.675462 kJ/mol
# Density = 2.497266 g / cm^3
# Si number density = 25.029630 Si / 1000 Ang^3
#
#
#
# Elastic Constant Matrix: (Units=GPa)
#
#
# Indices 1 2 3 4 5 6 
#
# 1 65.6401 35.3638 25.1007 -2.3429 -19.4540 -22.2903
# 2 35.3638 185.3780 45.7903 -17.7235 -5.1202 -38.6301
# 3 25.1007 45.7903 100.2034 12.9055 -17.5838 -3.8971
# 4 -2.3429 -17.7235 12.9055 21.3550 -6.2001 1.5388
# 5 -19.4540 -5.1202 -17.5838 -6.2001 43.6049 -5.0513
# 6 -22.2903 -38.6301 -3.8971 1.5388 -5.0513 36.4019
#
#
#
# Elastic Compliance Matrix: (Units=1/GPa)
#
#
# Indices 1 2 3 4 5 6 
#
# 1 0.027780 0.001631 -0.005847 0.010588 0.014005 0.019611
# 2 0.001631 0.009894 -0.005573 0.011724 0.002556 0.010760
# 3 -0.005847 -0.005573 0.015556 -0.014099 0.000170 -0.007209
# 4 0.010588 0.011724 -0.014099 0.068569 0.012040 0.016188
# 5 0.014005 0.002556 0.000170 0.012040 0.033044 0.015382
# 6 0.019611 0.010760 -0.007209 0.016188 0.015382 0.051577
#
#
# Mechanical properties :
#
#
# Convention : Reuss Voigt Hill
#
# Bulk Modulus (GPa) = 29.71644 62.63677 46.17661
# Shear Modulus (GPa) = 21.07776 36.60345 28.84061
#
# Velocity S-wave (km/s) = 2.90507 3.82829 3.39818
# Velocity P-wave (km/s) = 4.81153 6.67985 5.82114
#
# Compressibility (1/GPa) = 0.03365140
#
# Stress axis : x y z
#
# Youngs Moduli (GPa) = 35.99657 101.07545 64.28249
#
# Poissons Ratio (x) = -0.16482 0.37589
# Poissons Ratio (y) = -0.05870 0.35822
# Poissons Ratio (z) = 0.21049 0.56326
#
# Static dielectric constant tensor:
#      x y z
#    x 4.516260 -0.186340 -0.190110 
#    y -0.186340 4.756040 -0.312170 
#    z -0.190110 -0.312170 4.773170 
# 
# 
# High freq. dielectric constant tensor:
#      x y z
#    x 1.995480 -0.014470 -0.008130 
#    y -0.014470 2.004560 -0.007780 
#    z -0.008130 -0.007780 1.994900 
# 
# From -- ./inp_files/158922.got.cif
#   From: 2010.06.25/outbox.cif.g09.slc.cpg/sg2_80_cif.got.tgz:158922.got - 2010.06.27 13:26:56.
