data_PCOD8010023
_publ_section_title
;
Structure prediction by ZEFSAII (Michael W. Deem and Ramdas Pophale) SiO2 
 PCOD8010023
Probable space group: P -1
;
_chemical_formula_sum "Si O2"
_cell_formula_units_Z 12
_cell_length_a 8.097311
_cell_length_b 9.565513
_cell_length_c 13.051998
_cell_angle_alpha 72.455640
_cell_angle_beta 34.488230
_cell_angle_gamma 71.146082
_cell_volume 540.556557
_symmetry_space_group_name_H-M "P -1"
_symmetry_group_IT_number 2
_symmetry_cell_setting 'triclinic'
loop_
_space_group_symop_operation_xyz
x,y,z
-x,-y,-z
loop_
_atom_site_type_symbol
_atom_site_label
_atom_site_fract_x
_atom_site_fract_y
_atom_site_fract_z
Si Si1 0.136477 0.368144 0.225835
Si Si2 0.334042 0.562783 0.918253
Si Si3 0.690748 0.878319 0.498413
Si Si4 0.750307 0.542500 0.535312
Si Si5 0.832162 0.936929 0.818432
Si Si6 0.138877 0.866511 0.890784
O O1 0.394456 0.408046 0.156681
O O2 0.150148 0.192756 0.245668
O O3 0.822744 0.436298 0.422629
O O4 0.169257 0.436102 0.080485
O O5 0.445528 0.519440 0.754281
O O6 0.097572 0.712052 0.000107
O O7 0.744455 0.712142 0.461098
O O8 0.494537 0.869301 0.702998
O O9 0.500000 0.000000 0.500000
O O10 0.007902 0.932049 0.342658
O O11 0.000000 0.500000 0.500000
O O12 0.996507 0.874379 0.850284
O O13 0.500000 0.000000 0.000000
O O14 0.000000 0.000000 0.000000
#
# Coordination Sequence:
#
# PCOD8010023 Si02
#       6
#     2   2   2   2   2   2
#     4  10  21  37  64  91 123 166 205 262 310 369
#     4   9  20  38  62  88 124 168 208 243 321 381
#     4   9  21  40  62  86 125 165 204 251 316 378
#     4   9  19  37  62  88 118 167 210 246 307 384
#     4  11  24  39  62  97 126 157 214 263 311 368
#     4  10  21  41  63  89 125 169 205 254 317 380
#
# _framework density 22.199342999999999
#
# number of rings (size 3 to 8) (size 9 to 14) (size 15 to 20)
#    0.000    2.333    0.000    1.000   11.667    0.667 
#    3.000   15.833    0.000    0.000    0.000    0.000 
#    0.000    0.000    0.000    0.000    0.000    0.000 
#
# Total GULP energy -148704.779814 kJ/mol
# GULP energy per Si atom -12392.064985 kJ/mol
# Density = 2.214882 g / cm^3
# Si number density = 22.199343 Si / 1000 Ang^3
#
#
#
# Elastic Constant Matrix: (Units=GPa)
#
#
# Indices 1 2 3 4 5 6 
#
# 1 31.9908 18.3491 27.9830 -0.4598 5.1924 -2.2483
# 2 18.3491 141.9511 62.6326 28.8880 17.5572 5.0204
# 3 27.9830 62.6326 131.6869 15.0456 12.1511 16.5694
# 4 -0.4598 28.8880 15.0456 43.0152 -0.7467 7.9332
# 5 5.1924 17.5572 12.1511 -0.7467 28.3950 5.1631
# 6 -2.2483 5.0204 16.5694 7.9332 5.1631 41.6407
#
#
#
# Elastic Compliance Matrix: (Units=1/GPa)
#
#
# Indices 1 2 3 4 5 6 
#
# 1 0.040895 -0.002048 -0.008519 0.003704 -0.003482 0.005571
# 2 -0.002048 0.010860 -0.003754 -0.006455 -0.005260 0.001956
# 3 -0.008519 -0.003754 0.011900 -0.000906 -0.000416 -0.004518
# 4 0.003704 -0.006455 -0.000906 0.028923 0.005341 -0.004834
# 5 -0.003482 -0.005260 -0.000416 0.005341 0.040410 -0.005416
# 6 0.005571 0.001956 -0.004518 -0.004834 -0.005416 0.027470
#
#
# Mechanical properties :
#
#
# Convention : Reuss Voigt Hill
#
# Bulk Modulus (GPa) = 28.55923 58.17314 43.36618
# Shear Modulus (GPa) = 24.90402 35.72110 30.31256
#
# Velocity S-wave (km/s) = 3.35302 4.01572 3.69924
# Velocity P-wave (km/s) = 5.28045 6.91109 6.15005
#
# Compressibility (1/GPa) = 0.03501495
#
# Stress axis : x y z
#
# Youngs Moduli (GPa) = 24.45278 92.07681 84.03540
#
# Poissons Ratio (x) = 0.18853 0.71590
# Poissons Ratio (y) = 0.05007 0.31544
# Poissons Ratio (z) = 0.20831 0.34562
#
# Static dielectric constant tensor:
#      x y z
#    x 3.665670 -0.238660 -0.036360 
#    y -0.238660 4.262990 -0.075680 
#    z -0.036360 -0.075680 4.358990 
# 
# 
# High freq. dielectric constant tensor:
#      x y z
#    x 1.844570 -0.020860 0.009970 
#    y -0.020860 1.884790 0.008260 
#    z 0.009970 0.008260 1.879540 
# 
# From -- ./inp_files/152178.got.cif
#   From: 2010.06.25/outbox.cif.g09.slc.cpg/sg2_77_cif.got.tgz:152178.got - 2010.06.27 13:26:56.
