data_PCOD8010358
_publ_section_title
;
Structure prediction by ZEFSAII (Michael W. Deem and Ramdas Pophale) SiO2 
 PCOD8010358
Probable space group: P -1
;
_chemical_formula_sum "Si O2"
_cell_formula_units_Z 16
_cell_length_a 21.194872
_cell_length_b 8.487592
_cell_length_c 18.447759
_cell_angle_alpha 132.861463
_cell_angle_beta 161.040296
_cell_angle_gamma 55.468421
_cell_volume 748.501990
_symmetry_space_group_name_H-M "P -1"
_symmetry_group_IT_number 2
_symmetry_cell_setting 'triclinic'
loop_
_space_group_symop_operation_xyz
x,y,z
-x,-y,-z
loop_
_atom_site_type_symbol
_atom_site_label
_atom_site_fract_x
_atom_site_fract_y
_atom_site_fract_z
Si Si1 0.372336 0.936450 0.564692
Si Si2 0.609512 0.610567 0.749761
Si Si3 0.409837 0.845259 0.991865
Si Si4 0.752125 0.912212 0.288125
Si Si5 0.127715 0.378194 0.554095
Si Si6 0.192918 0.188187 0.837909
Si Si7 0.446331 0.086092 0.392062
Si Si8 0.936296 0.967263 0.119236
O O1 0.416322 0.704522 0.563292
O O2 0.468531 0.023953 0.617481
O O3 0.130681 0.895023 0.284554
O O4 0.472057 0.125144 0.793368
O O5 0.546739 0.356063 0.573550
O O6 0.681454 0.604208 0.909714
O O7 0.802444 0.775229 0.967994
O O8 0.550458 0.970350 0.114441
O O9 0.313132 0.580584 0.783843
O O10 0.230280 0.959734 0.837893
O O11 0.776030 0.768734 0.337820
O O12 0.724546 0.760060 0.138102
O O13 0.946978 0.140397 0.559831
O O14 0.000000 0.500000 0.500000
O O15 0.995133 0.216484 0.297033
O O16 0.500000 0.000000 0.500000
O O17 0.200091 0.022805 0.096829
#
# Coordination Sequence:
#
# PCOD8010358 Si02
#       8
#     2   2   2   2   2   2   2   2
#     4  10  21  40  69  89 118 165 207 255 296 368
#     4  10  21  42  64  89 118 163 210 253 303 366
#     4  11  21  38  60  92 125 159 205 244 295 359
#     4  11  21  36  58  88 127 160 199 243 296 358
#     4  12  21  37  60  90 128 165 204 250 293 363
#     4  10  21  38  59  88 125 163 199 244 299 359
#     4  11  26  44  63  91 123 154 200 267 326 365
#     4  11  22  42  64  91 120 162 218 248 299 370
#
# _framework density 21.37603
#
# number of rings (size 3 to 8) (size 9 to 14) (size 15 to 20)
#    0.000    1.250    3.750    3.750    0.000    4.500 
#    0.000    0.000    0.000    0.000    0.000    0.000 
#    0.000    0.000    0.000    0.000    0.000    0.000 
#
# Total GULP energy -198342.221936 kJ/mol
# GULP energy per Si atom -12396.388871 kJ/mol
# Density = 2.132738 g / cm^3
# Si number density = 21.376030 Si / 1000 Ang^3
#
#
#
# Elastic Constant Matrix: (Units=GPa)
#
#
# Indices 1 2 3 4 5 6 
#
# 1 129.4677 19.0923 61.1580 -4.4457 -6.9162 -0.7584
# 2 19.0923 48.1203 33.8539 8.8884 4.5452 -0.4296
# 3 61.1580 33.8539 133.3825 -1.3402 -3.6296 -3.9602
# 4 -4.4457 8.8884 -1.3402 31.6866 -5.6774 -2.4474
# 5 -6.9162 4.5452 -3.6296 -5.6774 42.9802 -13.7443
# 6 -0.7584 -0.4296 -3.9602 -2.4474 -13.7443 27.0788
#
#
#
# Elastic Compliance Matrix: (Units=1/GPa)
#
#
# Indices 1 2 3 4 5 6 
#
# 1 0.010097 -0.001707 -0.004093 0.002153 0.002025 0.000880
# 2 -0.001707 0.028872 -0.006985 -0.010255 -0.006881 -0.005031
# 3 -0.004093 -0.006985 0.011316 0.002485 0.002260 0.002801
# 4 0.002153 -0.010255 0.002485 0.037130 0.009195 0.008284
# 5 0.002025 -0.006881 0.002260 0.009195 0.031133 0.016911
# 6 0.000880 -0.005031 0.002801 0.008284 0.016911 0.046616
#
#
# Mechanical properties :
#
#
# Convention : Reuss Voigt Hill
#
# Bulk Modulus (GPa) = 40.46255 59.90875 50.18565
# Shear Modulus (GPa) = 25.12892 33.47354 29.30123
#
# Velocity S-wave (km/s) = 3.43237 3.96149 3.70638
# Velocity P-wave (km/s) = 5.88883 7.00082 6.46876
#
# Compressibility (1/GPa) = 0.02471421
#
# Stress axis : x y z
#
# Youngs Moduli (GPa) = 99.04356 34.63553 88.36673
#
# Poissons Ratio (x) = 0.05914 0.36170
# Poissons Ratio (y) = 0.16911 0.61723
# Poissons Ratio (z) = 0.40541 0.24192
#
# Static dielectric constant tensor:
#      x y z
#    x 4.087800 -0.227480 -0.064440 
#    y -0.227480 3.725780 -0.201340 
#    z -0.064440 -0.201340 4.196290 
# 
# 
# High freq. dielectric constant tensor:
#      x y z
#    x 1.842700 -0.010450 -0.007610 
#    y -0.010450 1.810280 -0.017920 
#    z -0.007610 -0.017920 1.849480 
# 
# From -- ./inp_files/577450.got.cif
#   From: 2010.06.25/outbox.cif.g09.slc.cpg/sg2_289_cif.got.tgz:577450.got - 2010.06.27 13:26:56.
