data_PCOD8010950
_publ_section_title
;
Structure prediction by ZEFSAII (Michael W. Deem and Ramdas Pophale) SiO2 
 PCOD8010950
Probable space group: P -1
;
_chemical_formula_sum "Si O2"
_cell_formula_units_Z 14
_cell_length_a 14.291268
_cell_length_b 15.687568
_cell_length_c 15.934987
_cell_angle_alpha 161.340176
_cell_angle_beta 36.244953
_cell_angle_gamma 143.743025
_cell_volume 658.717019
_symmetry_space_group_name_H-M "P -1"
_symmetry_group_IT_number 2
_symmetry_cell_setting 'triclinic'
loop_
_space_group_symop_operation_xyz
x,y,z
-x,-y,-z
loop_
_atom_site_type_symbol
_atom_site_label
_atom_site_fract_x
_atom_site_fract_y
_atom_site_fract_z
Si Si1 0.366892 0.897698 0.572444
Si Si2 0.328361 0.321066 0.133287
Si Si3 0.980432 0.187805 0.333892
Si Si4 0.396098 0.052181 0.996005
Si Si5 0.109115 0.548144 0.885951
Si Si6 0.324577 0.135976 0.304782
Si Si7 0.050964 0.664922 0.861798
O O1 0.401357 0.638470 0.355953
O O2 0.185613 0.788758 0.566964
O O3 0.500000 0.000000 0.500000
O O4 0.377502 0.148094 0.860715
O O5 0.131425 0.240085 0.208546
O O6 0.419382 0.262181 0.097456
O O7 0.027275 0.414801 0.582624
O O8 0.947380 0.883835 0.114146
O O9 0.538834 0.888634 0.749136
O O10 0.238294 0.817993 0.871857
O O11 0.393635 0.232095 0.251229
O O12 0.219342 0.329225 0.599682
O O13 0.998298 0.535897 0.871158
O O14 0.000000 0.500000 0.000000
O O15 0.219959 0.841746 0.086931
#
# Coordination Sequence:
#
# PCOD8010950 Si02
#       7
#     2   2   2   2   2   2   2
#     4  12  26  44  62  93 133 162 202 268 325 372
#     4  11  22  41  69  93 122 164 218 256 306 386
#     4  11  22  42  68  91 118 167 217 256 315 368
#     4   9  21  40  65  99 122 157 214 266 315 351
#     4  11  22  39  57  88 130 171 209 240 309 378
#     4  10  22  38  64  91 130 162 201 268 310 353
#     4  10  21  38  65  91 121 160 208 262 298 371
#
# _framework density 21.253436000000001
#
# number of rings (size 3 to 8) (size 9 to 14) (size 15 to 20)
#    0.000    1.429    0.000    6.857    0.000    9.714 
#    7.714    0.000    0.000    0.000    0.000    0.000 
#    0.000    0.000    0.000    0.000    0.000    0.000 
#
# Total GULP energy -173586.733344 kJ/mol
# GULP energy per Si atom -12399.052382 kJ/mol
# Density = 2.120506 g / cm^3
# Si number density = 21.253436 Si / 1000 Ang^3
#
#
#
# Elastic Constant Matrix: (Units=GPa)
#
#
# Indices 1 2 3 4 5 6 
#
# 1 81.4455 60.6028 16.9632 -24.1059 -6.0804 -22.9350
# 2 60.6028 90.5884 60.2894 -3.9642 -17.3674 -33.6525
# 3 16.9632 60.2894 142.8044 -25.7107 -6.1365 -16.9827
# 4 -24.1059 -3.9642 -25.7107 17.9383 -4.7396 1.3328
# 5 -6.0804 -17.3674 -6.1365 -4.7396 25.8169 5.1494
# 6 -22.9350 -33.6525 -16.9827 1.3328 5.1494 29.8439
#
#
#
# Elastic Compliance Matrix: (Units=1/GPa)
#
#
# Indices 1 2 3 4 5 6 
#
# 1 -0.045700 0.050202 -0.032885 -0.099271 -0.004630 0.008007
# 2 0.050202 -0.026361 0.026188 0.102116 0.015776 0.016474
# 3 -0.032885 0.026188 -0.009590 -0.052912 -0.002437 0.001584
# 4 -0.099271 0.102116 -0.052912 -0.130314 0.006119 0.013513
# 5 -0.004630 0.015776 -0.002437 0.006119 0.047943 0.004298
# 6 0.008007 0.016474 0.001584 0.013513 0.004298 0.057794
#
#
# Mechanical properties :
#
#
# Convention : Reuss Voigt Hill
#
# Bulk Modulus (GPa) = 186.64685 65.61656 126.13171
# Shear Modulus (GPa) = -26.11626 26.51869 0.20122
#
# Velocity S-wave (km/s) = -3.50923 3.53616 0.30803
# Velocity P-wave (km/s) = 8.46113 6.90022 7.72022
#
# Compressibility (1/GPa) = 0.00535771
#
# Stress axis : x y z
#
# Youngs Moduli (GPa) = -21.88184 -37.93413 -104.27685
#
# Poissons Ratio (x) = 1.90436 -3.42919
# Poissons Ratio (y) = 1.09850 2.73083
# Poissons Ratio (z) = -0.71959 0.99343
#
# Static dielectric constant tensor:
#      x y z
#    x 3.709640 0.287180 -0.207740 
#    y 0.287180 3.233480 0.105560 
#    z -0.207740 0.105560 3.958960 
# 
# 
# High freq. dielectric constant tensor:
#      x y z
#    x 1.842510 -0.018730 -0.001700 
#    y -0.018730 1.814140 0.008680 
#    z -0.001700 0.008680 1.851410 
# 
# From -- ./inp_files/134187.got.cif
#   From: 2010.06.25/outbox.cif.g09.slc.cpg/sg2_68_cif.got.tgz:134187.got - 2010.06.27 13:26:56.
