data_PCOD8010578
_publ_section_title
;
Structure prediction by ZEFSAII (Michael W. Deem and Ramdas Pophale) SiO2 
 PCOD8010578
Probable space group: P -1
;
_chemical_formula_sum "Si O2"
_cell_formula_units_Z 16
_cell_length_a 18.424884
_cell_length_b 11.966468
_cell_length_c 10.575175
_cell_angle_alpha 67.382216
_cell_angle_beta 50.389806
_cell_angle_gamma 27.661974
_cell_volume 720.479409
_symmetry_space_group_name_H-M "P -1"
_symmetry_group_IT_number 2
_symmetry_cell_setting 'triclinic'
loop_
_space_group_symop_operation_xyz
x,y,z
-x,-y,-z
loop_
_atom_site_type_symbol
_atom_site_label
_atom_site_fract_x
_atom_site_fract_y
_atom_site_fract_z
Si Si1 0.230591 0.295156 0.331652
Si Si2 0.042991 0.029890 0.762502
Si Si3 0.815839 0.719595 0.215470
Si Si4 0.666661 0.446155 0.524722
Si Si5 0.433594 0.300226 0.726994
Si Si6 0.330200 0.329558 0.436263
Si Si7 0.924389 0.404063 0.852431
Si Si8 0.348184 0.610683 0.833392
O O1 0.237321 0.402579 0.370948
O O2 0.258054 0.311342 0.149888
O O3 0.000000 0.500000 0.500000
O O4 0.410279 0.994817 0.311389
O O5 0.042306 0.175650 0.721692
O O6 0.143794 0.866985 0.589246
O O7 0.196180 0.794948 0.799784
O O8 0.799197 0.257229 0.941381
O O9 0.770703 0.639795 0.357331
O O10 0.892122 0.720307 0.242390
O O11 0.592135 0.026400 0.271853
O O12 0.000000 0.500000 0.000000
O O13 0.572670 0.640235 0.433118
O O14 0.747859 0.442998 0.545265
O O15 0.471621 0.591186 0.735017
O O16 0.508785 0.315017 0.739940
O O17 0.191572 0.534515 0.932574
#
# Coordination Sequence:
#
# PCOD8010578 Si02
#       8
#     2   2   2   2   2   2   2   2
#     4  12  25  40  60  84 126 166 201 243 300 367
#     4   9  19  35  58  93 116 154 202 244 296 358
#     4  11  22  39  63  90 121 157 197 260 306 345
#     4  11  21  36  63  88 125 151 196 258 305 340
#     4  10  21  38  61  94 118 155 206 249 299 362
#     4  11  24  39  56  92 122 155 208 245 300 363
#     4  11  22  40  66  87 124 161 202 245 302 364
#     4   9  19  33  60  90 120 149 197 251 301 350
#
# _framework density 22.207436000000001
#
# number of rings (size 3 to 8) (size 9 to 14) (size 15 to 20)
#    0.000    1.500    1.250    6.375    3.500    1.000 
#    0.000    0.625    0.000    1.500    0.000    0.000 
#    0.000    0.000    0.000    0.000    0.000    0.000 
#
# Total GULP energy -198349.004506 kJ/mol
# GULP energy per Si atom -12396.812782 kJ/mol
# Density = 2.215689 g / cm^3
# Si number density = 22.207436 Si / 1000 Ang^3
#
#
#
# Elastic Constant Matrix: (Units=GPa)
#
#
# Indices 1 2 3 4 5 6 
#
# 1 179.0445 38.4007 54.9293 10.7835 -19.8569 23.9805
# 2 38.4007 45.9143 14.9058 6.1603 2.1455 11.7713
# 3 54.9293 14.9058 92.8945 7.6130 -10.3509 9.4750
# 4 10.7835 6.1603 7.6130 26.4508 7.1898 2.4998
# 5 -19.8569 2.1455 -10.3509 7.1898 28.4500 -4.2282
# 6 23.9805 11.7713 9.4750 2.4998 -4.2282 37.4599
#
#
#
# Elastic Compliance Matrix: (Units=1/GPa)
#
#
# Indices 1 2 3 4 5 6 
#
# 1 0.008928 -0.005740 -0.003254 -0.002741 0.005839 -0.002247
# 2 -0.005740 0.029051 -0.001346 -0.001542 -0.007162 -0.005820
# 3 -0.003254 -0.001346 0.013594 -0.003205 0.003539 -0.000319
# 4 -0.002741 -0.001542 -0.003205 0.044257 -0.014374 -0.001526
# 5 0.005839 -0.007162 0.003539 -0.014374 0.045233 0.003682
# 6 -0.002247 -0.005820 -0.000319 -0.001526 0.003682 0.030560
#
#
# Mechanical properties :
#
#
# Convention : Reuss Voigt Hill
#
# Bulk Modulus (GPa) = 32.36789 59.36943 45.86866
# Shear Modulus (GPa) = 24.67930 32.44662 28.56296
#
# Velocity S-wave (km/s) = 3.33724 3.82654 3.59024
# Velocity P-wave (km/s) = 5.42738 6.80553 6.15515
#
# Compressibility (1/GPa) = 0.03089481
#
# Stress axis : x y z
#
# Youngs Moduli (GPa) = 112.00542 34.42277 73.56026
#
# Poissons Ratio (x) = 0.19758 0.23935
# Poissons Ratio (y) = 0.64289 0.09898
# Poissons Ratio (z) = 0.36444 0.04632
#
# Static dielectric constant tensor:
#      x y z
#    x 4.113880 0.296530 -0.033940 
#    y 0.296530 4.163230 0.043930 
#    z -0.033940 0.043930 4.114560 
# 
# 
# High freq. dielectric constant tensor:
#      x y z
#    x 1.871060 0.033740 -0.010240 
#    y 0.033740 1.846350 0.003990 
#    z -0.010240 0.003990 1.880670 
# 
# From -- ./inp_files/432762.got.cif
#   From: 2010.06.25/outbox.cif.g09.slc.cpg/sg2_217_cif.got.tgz:432762.got - 2010.06.27 13:26:56.
