data_PCOD8010496
_publ_section_title
;
Structure prediction by ZEFSAII (Michael W. Deem and Ramdas Pophale) SiO2 
 PCOD8010496
Probable space group: P -1
;
_chemical_formula_sum "Si O2"
_cell_formula_units_Z 16
_cell_length_a 13.464156
_cell_length_b 14.259231
_cell_length_c 13.757167
_cell_angle_alpha 57.676043
_cell_angle_beta 34.657828
_cell_angle_gamma 34.423772
_cell_volume 759.396330
_symmetry_space_group_name_H-M "P -1"
_symmetry_group_IT_number 2
_symmetry_cell_setting 'triclinic'
loop_
_space_group_symop_operation_xyz
x,y,z
-x,-y,-z
loop_
_atom_site_type_symbol
_atom_site_label
_atom_site_fract_x
_atom_site_fract_y
_atom_site_fract_z
Si Si1 0.300928 0.995933 0.688984
Si Si2 0.186685 0.418529 0.745207
Si Si3 0.731971 0.328353 0.086473
Si Si4 0.666805 0.637511 0.702484
Si Si5 0.759867 0.165720 0.327385
Si Si6 0.286039 0.967188 0.124919
Si Si7 0.303914 0.209173 0.943930
Si Si8 0.710415 0.578373 0.917711
O O1 0.463119 0.847015 0.727552
O O2 0.250629 0.945454 0.661593
O O3 0.500000 0.000000 0.500000
O O4 0.982187 0.192910 0.876744
O O5 0.456664 0.349288 0.522814
O O6 0.306594 0.262770 0.806778
O O7 0.047959 0.428754 0.756550
O O8 0.965371 0.610807 0.873487
O O9 0.439323 0.407034 0.256857
O O10 0.849845 0.221168 0.153033
O O11 0.622839 0.510447 0.082776
O O12 0.633054 0.603582 0.854463
O O13 0.000000 0.500000 0.500000
O O14 0.996546 0.043187 0.292271
O O15 0.378006 0.929324 0.185718
O O16 0.551542 0.768760 0.973362
O O17 0.259404 0.101655 0.024629
#
# Coordination Sequence:
#
# PCOD8010496 Si02
#       8
#     2   2   2   2   2   2   2   2
#     4  11  23  40  61  87 124 163 196 237 292 347
#     4  10  21  39  63  86 115 151 198 238 300 362
#     4  11  22  39  58  83 125 161 195 239 291 343
#     4  11  22  36  57  88 123 155 196 244 291 342
#     4  11  22  37  60  90 115 153 197 240 288 356
#     4  10  21  38  61  85 114 147 197 245 298 349
#     4   9  21  42  61  83 115 154 186 249 307 348
#     4  11  21  37  59  83 113 159 200 236 284 352
#
# _framework density 21.069367
#
# number of rings (size 3 to 8) (size 9 to 14) (size 15 to 20)
#    0.000    1.500    0.000    7.125    0.000    3.000 
#    0.000    3.750    0.000    0.000    0.000    0.000 
#    0.000    0.000    0.000    0.000    0.000    0.000 
#
# Total GULP energy -198301.304465 kJ/mol
# GULP energy per Si atom -12393.831529 kJ/mol
# Density = 2.102141 g / cm^3
# Si number density = 21.069367 Si / 1000 Ang^3
#
#
#
# Elastic Constant Matrix: (Units=GPa)
#
#
# Indices 1 2 3 4 5 6 
#
# 1 103.2766 44.4899 33.4301 3.9416 -23.9285 -18.8984
# 2 44.4899 122.5853 30.2639 -15.1891 -10.5295 1.5520
# 3 33.4301 30.2639 96.6844 -1.8649 -17.6104 -3.6766
# 4 3.9416 -15.1891 -1.8649 22.9597 -3.1223 -5.4190
# 5 -23.9285 -10.5295 -17.6104 -3.1223 34.1731 4.6297
# 6 -18.8984 1.5520 -3.6766 -5.4190 4.6297 32.6930
#
#
#
# Elastic Compliance Matrix: (Units=1/GPa)
#
#
# Indices 1 2 3 4 5 6 
#
# 1 0.015744 -0.005067 -0.002385 -0.003538 0.006893 0.007510
# 2 -0.005067 0.011425 -0.001748 0.007734 0.000104 -0.002400
# 3 -0.002385 -0.001748 0.012509 0.000773 0.004360 -0.000378
# 4 -0.003538 0.007734 0.000773 0.051230 0.004230 0.005567
# 5 0.006893 0.000104 0.004360 0.004230 0.036759 -0.000034
# 6 0.007510 -0.002400 -0.000378 0.005567 -0.000034 0.035928
#
#
# Mechanical properties :
#
#
# Convention : Reuss Voigt Hill
#
# Bulk Modulus (GPa) = 46.99183 59.87931 53.43557
# Shear Modulus (GPa) = 26.44273 32.25599 29.34936
#
# Velocity S-wave (km/s) = 3.54649 3.91697 3.73632
# Velocity P-wave (km/s) = 6.25475 6.99562 6.63553
#
# Compressibility (1/GPa) = 0.02128030
#
# Stress axis : x y z
#
# Youngs Moduli (GPa) = 63.51739 87.52384 79.94098
#
# Poissons Ratio (x) = 0.44344 0.19065
# Poissons Ratio (y) = 0.32181 0.13971
# Poissons Ratio (z) = 0.15148 0.15297
#
# Static dielectric constant tensor:
#      x y z
#    x 5.801680 -0.688330 0.155590 
#    y -0.688330 4.075220 -0.091800 
#    z 0.155590 -0.091800 3.636560 
# 
# 
# High freq. dielectric constant tensor:
#      x y z
#    x 1.838780 -0.013570 -0.017010 
#    y -0.013570 1.833810 -0.001670 
#    z -0.017010 -0.001670 1.804750 
# 
# From -- ./inp_files/215725.got.cif
#   From: 2010.06.25/outbox.cif.g09.slc.cpg/sg2_108_cif.got.tgz:215725.got - 2010.06.27 13:26:56.
