data_PCOD8010815
_publ_section_title
;
Structure prediction by ZEFSAII (Michael W. Deem and Ramdas Pophale) SiO2 
 PCOD8010815
Probable space group: P -1
;
_chemical_formula_sum "Si O2"
_cell_formula_units_Z 16
_cell_length_a 21.973260
_cell_length_b 5.438916
_cell_length_c 11.647137
_cell_angle_alpha 107.848487
_cell_angle_beta 30.262666
_cell_angle_gamma 98.584588
_cell_volume 648.104388
_symmetry_space_group_name_H-M "P -1"
_symmetry_group_IT_number 2
_symmetry_cell_setting 'triclinic'
loop_
_space_group_symop_operation_xyz
x,y,z
-x,-y,-z
loop_
_atom_site_type_symbol
_atom_site_label
_atom_site_fract_x
_atom_site_fract_y
_atom_site_fract_z
Si Si1 0.999196 0.227766 0.303725
Si Si2 0.800887 0.973115 0.238604
Si Si3 0.516387 0.283231 0.150328
Si Si4 0.139713 0.251244 0.290028
Si Si5 0.751170 0.569312 0.459140
Si Si6 0.437249 0.086015 0.466956
Si Si7 0.223598 0.028716 0.350422
Si Si8 0.367487 0.361516 0.826605
O O1 0.960595 0.543186 0.439722
O O2 0.074693 0.100630 0.278658
O O3 0.880702 0.110770 0.454790
O O4 0.080744 0.173633 0.049388
O O5 0.821843 0.256798 0.290673
O O6 0.680446 0.050797 0.362080
O O7 0.785665 0.757113 0.329347
O O8 0.397921 0.416053 0.283834
O O9 0.551613 0.479674 0.213380
O O10 0.467515 0.081608 0.282190
O O11 0.638921 0.141942 0.857695
O O12 0.220681 0.040054 0.217350
O O13 0.225439 0.419677 0.108931
O O14 0.795599 0.677665 0.521392
O O15 0.566074 0.946327 0.298715
O O16 0.382669 0.372196 0.664062
#
# Coordination Sequence:
#
# PCOD8010815 Si02
#       8
#     2   2   2   2   2   2   2   2
#     4  11  26  46  71  99 142 184 245 290 355 419
#     4  11  25  49  70 105 142 191 236 298 344 419
#     4  11  22  42  65 106 135 184 230 292 356 426
#     4  11  24  45  68 105 139 183 240 292 361 419
#     4  11  28  47  75 104 145 186 243 289 356 419
#     4  10  21  38  64 100 138 178 228 286 361 415
#     4  12  26  45  70 100 139 192 231 298 350 428
#     4  11  19  38  66  98 138 177 227 290 359 422
#
# _framework density 24.687379
#
# number of rings (size 3 to 8) (size 9 to 14) (size 15 to 20)
#    0.000    1.000    5.000    1.125    3.500    1.000 
#    4.500    2.500    0.000    0.000    0.000    0.000 
#    0.000    0.000    0.000    0.000    0.000    0.000 
#
# Total GULP energy -198212.248002 kJ/mol
# GULP energy per Si atom -12388.265500 kJ/mol
# Density = 2.463119 g / cm^3
# Si number density = 24.687379 Si / 1000 Ang^3
#
#
#
# Elastic Constant Matrix: (Units=GPa)
#
#
# Indices 1 2 3 4 5 6 
#
# 1 46.9632 8.9209 17.4969 -5.4923 8.4827 11.5312
# 2 8.9209 90.8267 31.7699 1.8915 2.0450 19.4050
# 3 17.4969 31.7699 126.2568 -10.1650 -5.0965 12.3851
# 4 -5.4923 1.8915 -10.1650 32.1832 8.3367 2.5353
# 5 8.4827 2.0450 -5.0965 8.3367 23.6915 7.0682
# 6 11.5312 19.4050 12.3851 2.5353 7.0682 39.3477
#
#
#
# Elastic Compliance Matrix: (Units=1/GPa)
#
#
# Indices 1 2 3 4 5 6 
#
# 1 0.026514 -0.000366 -0.002971 0.006857 -0.010985 -0.005123
# 2 -0.000366 0.013236 -0.002831 -0.001438 0.000536 -0.005533
# 3 -0.002971 -0.002831 0.009463 0.001963 0.003067 -0.001389
# 4 0.006857 -0.001438 0.001963 0.036798 -0.014347 -0.001712
# 5 -0.010985 0.000536 0.003067 -0.014347 0.053820 -0.006754
# 6 -0.005123 -0.005533 -0.001389 -0.001712 -0.006754 0.031405
#
#
# Mechanical properties :
#
#
# Convention : Reuss Voigt Hill
#
# Bulk Modulus (GPa) = 27.11781 42.26910 34.69345
# Shear Modulus (GPa) = 25.52794 32.76840 29.14817
#
# Velocity S-wave (km/s) = 3.21915 3.64721 3.43985
# Velocity P-wave (km/s) = 4.98253 5.90721 5.46446
#
# Compressibility (1/GPa) = 0.03687614
#
# Stress axis : x y z
#
# Youngs Moduli (GPa) = 37.71642 75.55030 105.67871
#
# Poissons Ratio (x) = 0.02764 0.31398
# Poissons Ratio (y) = 0.01380 0.29921
# Poissons Ratio (z) = 0.11206 0.21390
#
# Static dielectric constant tensor:
#      x y z
#    x 4.575980 0.278350 -0.064880 
#    y 0.278350 4.120270 -0.000210 
#    z -0.064880 -0.000210 4.457670 
# 
# 
# High freq. dielectric constant tensor:
#      x y z
#    x 1.983040 0.025850 -0.002030 
#    y 0.025850 1.954220 -0.001680 
#    z -0.002030 -0.001680 1.994570 
# 
# From -- ./inp_files/69212.got.cif
#   From: 2010.06.25/outbox.cif.g09.slc.cpg/sg2_35_cif.got.tgz:69212.got - 2010.06.27 13:26:56.
