data_PCOD8010575
_publ_section_title
;
Structure prediction by ZEFSAII (Michael W. Deem and Ramdas Pophale) SiO2 
 PCOD8010575
Probable space group: P -1
;
_chemical_formula_sum "Si O2"
_cell_formula_units_Z 16
_cell_length_a 25.450212
_cell_length_b 9.968828
_cell_length_c 8.855859
_cell_angle_alpha 60.691214
_cell_angle_beta 127.027846
_cell_angle_gamma 153.516786
_cell_volume 792.117555
_symmetry_space_group_name_H-M "P -1"
_symmetry_group_IT_number 2
_symmetry_cell_setting 'triclinic'
loop_
_space_group_symop_operation_xyz
x,y,z
-x,-y,-z
loop_
_atom_site_type_symbol
_atom_site_label
_atom_site_fract_x
_atom_site_fract_y
_atom_site_fract_z
Si Si1 0.269441 0.775782 0.802221
Si Si2 0.121545 0.352360 0.514335
Si Si3 0.642846 0.160348 0.527257
Si Si4 0.638549 0.850377 0.520017
Si Si5 0.636618 0.277314 0.780763
Si Si6 0.952082 0.263089 0.143933
Si Si7 0.176988 0.067438 0.182551
Si Si8 0.936918 0.446549 0.274176
O O1 0.160405 0.464934 0.690916
O O2 0.195223 0.730466 0.820131
O O3 0.358044 0.054571 0.687931
O O4 0.358520 0.832449 0.012456
O O5 0.242007 0.518579 0.540320
O O6 0.079384 0.423154 0.318677
O O7 0.000000 0.000000 0.500000
O O8 0.657978 0.224918 0.693626
O O9 0.663261 0.020510 0.604997
O O10 0.504912 0.932796 0.346564
O O11 0.500000 0.500000 0.500000
O O12 0.745171 0.932722 0.657204
O O13 0.745694 0.629599 0.788206
O O14 0.890430 0.210757 0.217710
O O15 0.000000 0.500000 0.000000
O O16 0.849688 0.961829 0.028148
O O17 0.039784 0.771363 0.195421
O O18 0.000000 0.500000 0.500000
#
# Coordination Sequence:
#
# PCOD8010575 Si02
#       8
#     2   2   2   2   2   2   2   2
#     4  11  24  40  66  97 127 165 215 269 325 377
#     4  11  23  40  61  92 128 167 209 260 327 383
#     4  10  24  44  66  88 135 171 210 272 323 380
#     4  11  22  45  69  88 126 175 217 258 324 388
#     4  11  25  43  65  95 129 169 218 268 327 377
#     4  10  21  38  61  93 127 166 206 258 323 379
#     4  11  23  40  67  97 125 176 215 255 330 390
#     4  11  20  38  64  95 133 160 209 274 315 373
#
# _framework density 20.199023
#
# number of rings (size 3 to 8) (size 9 to 14) (size 15 to 20)
#    0.000    1.250    3.750    3.000    7.000    2.500 
#    2.250    0.625    0.000    0.000    0.000    0.000 
#    0.000    0.000    0.000    0.000    0.000    0.000 
#
# Total GULP energy -198355.619815 kJ/mol
# GULP energy per Si atom -12397.226238 kJ/mol
# Density = 2.015305 g / cm^3
# Si number density = 20.199023 Si / 1000 Ang^3
#
#
#
# Elastic Constant Matrix: (Units=GPa)
#
#
# Indices 1 2 3 4 5 6 
#
# 1 116.7562 54.4784 44.0836 -4.2220 -11.4238 -0.8523
# 2 54.4784 128.8696 27.3547 6.4570 -13.4170 5.5793
# 3 44.0836 27.3547 119.0956 4.1213 -14.1996 -16.3062
# 4 -4.2220 6.4570 4.1213 23.8692 -4.0792 -0.7279
# 5 -11.4238 -13.4170 -14.1996 -4.0792 30.5807 0.6465
# 6 -0.8523 5.5793 -16.3062 -0.7279 0.6465 25.8438
#
#
#
# Elastic Compliance Matrix: (Units=1/GPa)
#
#
# Indices 1 2 3 4 5 6 
#
# 1 0.012302 -0.004450 -0.003607 0.004243 0.001552 -0.000829
# 2 -0.004450 0.010316 -0.000767 -0.003170 0.002148 -0.003001
# 3 -0.003607 -0.000767 0.011312 -0.001621 0.003203 0.007059
# 4 0.004243 -0.003170 -0.001621 0.044732 0.005389 0.000927
# 5 0.001552 0.002148 0.003203 0.005389 0.036411 0.000849
# 6 -0.000829 -0.003001 0.007059 0.000927 0.000849 0.043773
#
#
# Mechanical properties :
#
#
# Convention : Reuss Voigt Hill
#
# Bulk Modulus (GPa) = 61.41660 68.50610 64.96135
# Shear Modulus (GPa) = 27.48412 31.97904 29.73158
#
# Velocity S-wave (km/s) = 3.69272 3.98326 3.84074
# Velocity P-wave (km/s) = 6.97519 7.42592 7.20408
#
# Compressibility (1/GPa) = 0.01628224
#
# Stress axis : x y z
#
# Youngs Moduli (GPa) = 81.28505 96.93342 88.39872
#
# Poissons Ratio (x) = 0.43138 0.31884
# Poissons Ratio (y) = 0.36174 0.06783
# Poissons Ratio (z) = 0.29318 0.07438
#
# Static dielectric constant tensor:
#      x y z
#    x 4.437080 -0.189560 -0.821830 
#    y -0.189560 3.693730 0.073870 
#    z -0.821830 0.073870 4.026090 
# 
# 
# High freq. dielectric constant tensor:
#      x y z
#    x 1.801670 -0.003290 -0.001470 
#    y -0.003290 1.780070 0.006580 
#    z -0.001470 0.006580 1.795320 
# 
# From -- ./inp_files/225856.got.cif
#   From: 2010.06.25/outbox.cif.g09.slc.cpg/sg2_113_cif.got.tgz:225856.got - 2010.06.27 13:26:56.
