data_PCOD8010793
_publ_section_title
;
Structure prediction by ZEFSAII (Michael W. Deem and Ramdas Pophale) SiO2 
 PCOD8010793
Probable space group: P -1
;
_chemical_formula_sum "Si O2"
_cell_formula_units_Z 16
_cell_length_a 18.525740
_cell_length_b 8.744161
_cell_length_c 8.551585
_cell_angle_alpha 102.551408
_cell_angle_beta 135.122333
_cell_angle_gamma 52.751855
_cell_volume 720.754195
_symmetry_space_group_name_H-M "P -1"
_symmetry_group_IT_number 2
_symmetry_cell_setting 'triclinic'
loop_
_space_group_symop_operation_xyz
x,y,z
-x,-y,-z
loop_
_atom_site_type_symbol
_atom_site_label
_atom_site_fract_x
_atom_site_fract_y
_atom_site_fract_z
Si Si1 0.839927 0.900742 0.731586
Si Si2 0.747824 0.604882 0.793463
Si Si3 0.575047 0.317107 0.887339
Si Si4 0.291367 0.731359 0.616031
Si Si5 0.603936 0.035816 0.602813
Si Si6 0.921344 0.303749 0.728641
Si Si7 0.006413 0.494221 0.693582
Si Si8 0.589586 0.545240 0.724785
O O1 0.902543 0.724176 0.657511
O O2 0.744792 0.125435 0.555413
O O3 0.752510 0.892053 0.720218
O O4 0.957944 0.866319 0.006124
O O5 0.815741 0.514361 0.710713
O O6 0.718949 0.464154 0.799085
O O7 0.602945 0.847770 0.602927
O O8 0.840862 0.614382 0.051784
O O9 0.412869 0.490680 0.702532
O O10 0.604066 0.143135 0.781351
O O11 0.629876 0.431214 0.928170
O O12 0.657237 0.210482 0.150072
O O13 0.156883 0.771325 0.470123
O O14 0.498816 0.205411 0.347468
O O15 0.973001 0.353677 0.673133
O O16 0.000000 0.500000 0.500000
O O17 0.500000 0.500000 0.500000
#
# Coordination Sequence:
#
# PCOD8010793 Si02
#       8
#     2   2   2   2   2   2   2   2
#     4  11  22  42  66  92 125 169 217 264 312 382
#     4  11  22  40  68  92 127 167 217 259 316 379
#     4  10  24  41  62  94 135 169 207 266 321 373
#     4  11  24  42  63  94 133 170 210 266 322 373
#     4  11  20  40  66  94 127 166 215 260 307 389
#     4  11  22  43  65  94 124 171 216 264 314 381
#     4  11  25  43  64  93 130 166 209 269 324 375
#     4  10  21  38  63  95 126 167 209 259 311 377
#
# _framework density 22.198971
#
# number of rings (size 3 to 8) (size 9 to 14) (size 15 to 20)
#    0.000    1.250    3.750    3.000    5.250    0.000 
#    0.000    1.250    0.000    4.500    0.000    0.000 
#    0.000    0.000    0.000    0.000    0.000    0.000 
#
# Total GULP energy -198342.876887 kJ/mol
# GULP energy per Si atom -12396.429805 kJ/mol
# Density = 2.214845 g / cm^3
# Si number density = 22.198971 Si / 1000 Ang^3
#
#
#
# Elastic Constant Matrix: (Units=GPa)
#
#
# Indices 1 2 3 4 5 6 
#
# 1 123.6614 21.9269 31.7046 9.2362 -10.4732 16.6061
# 2 21.9269 68.2215 28.8054 -5.2766 -7.9080 0.3473
# 3 31.7046 28.8054 102.5007 -3.7234 -17.5787 2.9856
# 4 9.2362 -5.2766 -3.7234 29.3055 0.7867 -2.0138
# 5 -10.4732 -7.9080 -17.5787 0.7867 29.1899 4.1330
# 6 16.6061 0.3473 2.9856 -2.0138 4.1330 44.2976
#
#
#
# Elastic Compliance Matrix: (Units=1/GPa)
#
#
# Indices 1 2 3 4 5 6 
#
# 1 0.010107 -0.002399 -0.002073 -0.004224 0.002415 -0.004048
# 2 -0.002399 0.017467 -0.003847 0.003450 0.001312 0.001056
# 3 -0.002073 -0.003847 0.012538 0.001363 0.005801 -0.000517
# 4 -0.004224 0.003450 0.001363 0.036503 -0.001202 0.003236
# 5 0.002415 0.001312 0.005801 -0.001202 0.039724 -0.005067
# 6 -0.004048 0.001056 -0.000517 0.003236 -0.005067 0.024738
#
#
# Mechanical properties :
#
#
# Convention : Reuss Voigt Hill
#
# Bulk Modulus (GPa) = 42.60260 51.02860 46.81560
# Shear Modulus (GPa) = 30.20394 34.68838 32.44616
#
# Velocity S-wave (km/s) = 3.69263 3.95728 3.82724
# Velocity P-wave (km/s) = 6.11667 6.62698 6.37693
#
# Compressibility (1/GPa) = 0.02347275
#
# Stress axis : x y z
#
# Youngs Moduli (GPa) = 98.94000 57.25030 79.75829
#
# Poissons Ratio (x) = 0.13736 0.16537
# Poissons Ratio (y) = 0.23738 0.30684
# Poissons Ratio (z) = 0.20514 0.22025
#
# Static dielectric constant tensor:
#      x y z
#    x 4.685240 0.221550 0.075310 
#    y 0.221550 3.839240 -0.227160 
#    z 0.075310 -0.227160 4.119520 
# 
# 
# High freq. dielectric constant tensor:
#      x y z
#    x 1.898680 0.006930 0.012010 
#    y 0.006930 1.861230 -0.017350 
#    z 0.012010 -0.017350 1.865950 
# 
# From -- ./inp_files/225308.got.cif
#   From: 2010.06.25/outbox.cif.g09.slc.cpg/sg2_113_cif.got.tgz:225308.got - 2010.06.27 13:26:56.
