data_PCOD8010378
_publ_section_title
;
Structure prediction by ZEFSAII (Michael W. Deem and Ramdas Pophale) SiO2 
 PCOD8010378
Probable space group: P -1
;
_chemical_formula_sum "Si O2"
_cell_formula_units_Z 14
_cell_length_a 5.337659
_cell_length_b 10.769068
_cell_length_c 14.573967
_cell_angle_alpha 123.152034
_cell_angle_beta 101.577564
_cell_angle_gamma 60.082194
_cell_volume 604.902709
_symmetry_space_group_name_H-M "P -1"
_symmetry_group_IT_number 2
_symmetry_cell_setting 'triclinic'
loop_
_space_group_symop_operation_xyz
x,y,z
-x,-y,-z
loop_
_atom_site_type_symbol
_atom_site_label
_atom_site_fract_x
_atom_site_fract_y
_atom_site_fract_z
Si Si1 0.289369 0.171169 0.505318
Si Si2 0.380373 0.301922 0.893242
Si Si3 0.205197 0.910642 0.617571
Si Si4 0.439429 0.988068 0.839987
Si Si5 0.529669 0.523596 0.874304
Si Si6 0.995429 0.289725 0.707065
Si Si7 0.067925 0.151529 0.045152
O O1 0.496597 0.206944 0.465812
O O2 0.020482 0.163448 0.431155
O O3 0.145749 0.309283 0.632705
O O4 0.500000 0.000000 0.500000
O O5 0.559541 0.097691 0.835684
O O6 0.571662 0.367048 0.878179
O O7 0.102612 0.339648 0.827592
O O8 0.306328 0.387727 0.023614
O O9 0.309441 0.901896 0.726458
O O10 0.038634 0.100046 0.639676
O O11 0.690285 0.851204 0.867381
O O12 0.180054 0.125506 0.938795
O O13 0.661937 0.438422 0.750092
O O14 0.200813 0.664378 0.889407
O O15 0.000000 0.000000 0.000000
#
# Coordination Sequence:
#
# PCOD8010378 Si02
#       7
#     2   2   2   2   2   2   2
#     4  10  21  38  59  94 129 166 211 265 320 378
#     4  10  23  36  57  92 128 157 205 251 326 380
#     4  10  23  37  65  90 128 167 216 262 318 377
#     4  10  24  40  62  90 123 172 211 267 307 387
#     4  11  24  35  61  91 129 167 200 265 317 390
#     4  10  22  33  58  87 130 159 205 260 326 368
#     4  11  24  41  62  86 127 167 219 252 318 387
#
# _framework density 23.144216
#
# number of rings (size 3 to 8) (size 9 to 14) (size 15 to 20)
#    0.000    1.714    1.429    2.143   20.000    0.000 
#    0.000    0.000    0.000    1.714    0.000    0.000 
#    0.000    0.000    0.000    0.000    0.000    0.000 
#
# Total GULP energy -173434.484435 kJ/mol
# GULP energy per Si atom -12388.177460 kJ/mol
# Density = 2.309154 g / cm^3
# Si number density = 23.144216 Si / 1000 Ang^3
#
#
#
# Elastic Constant Matrix: (Units=GPa)
#
#
# Indices 1 2 3 4 5 6 
#
# 1 99.5221 26.5249 47.5203 2.7603 -12.4302 -21.2963
# 2 26.5249 61.9178 46.3970 -9.7671 -9.6910 -20.5349
# 3 47.5203 46.3970 121.9198 -3.1860 -33.6818 -34.5322
# 4 2.7603 -9.7671 -3.1860 25.9883 -7.3345 0.5021
# 5 -12.4302 -9.6910 -33.6818 -7.3345 45.1315 10.5316
# 6 -21.2963 -20.5349 -34.5322 0.5021 10.5316 29.0480
#
#
#
# Elastic Compliance Matrix: (Units=1/GPa)
#
#
# Indices 1 2 3 4 5 6 
#
# 1 0.013171 -0.002284 -0.003318 -0.002995 -0.000868 0.004463
# 2 -0.002284 0.026384 -0.006370 0.009072 -0.000438 0.009407
# 3 -0.003318 -0.006370 0.017324 0.002297 0.008567 0.010513
# 4 -0.002995 0.009072 0.002297 0.045128 0.009539 0.002710
# 5 -0.000868 -0.000438 0.008567 0.009539 0.030207 -0.001878
# 6 0.004463 0.009407 0.010513 0.002710 -0.001878 0.057480
#
#
# Mechanical properties :
#
#
# Convention : Reuss Voigt Hill
#
# Bulk Modulus (GPa) = 30.36285 58.24934 44.30609
# Shear Modulus (GPa) = 22.26014 30.89473 26.57744
#
# Velocity S-wave (km/s) = 3.10466 3.65756 3.39239
# Velocity P-wave (km/s) = 5.09895 6.56199 5.87618
#
# Compressibility (1/GPa) = 0.03293499
#
# Stress axis : x y z
#
# Youngs Moduli (GPa) = 75.92487 37.90121 57.72262
#
# Poissons Ratio (x) = 0.08656 0.19154
# Poissons Ratio (y) = 0.17340 0.36770
# Poissons Ratio (z) = 0.25194 0.24144
#
# Static dielectric constant tensor:
#      x y z
#    x 4.343130 -0.043770 -0.193470 
#    y -0.043770 3.820200 -0.149240 
#    z -0.193470 -0.149240 4.564340 
# 
# 
# High freq. dielectric constant tensor:
#      x y z
#    x 1.919930 -0.012310 -0.003760 
#    y -0.012310 1.863050 -0.012300 
#    z -0.003760 -0.012300 1.918260 
# 
# From -- ./inp_files/123786.got.cif
#   From: 2010.06.25/outbox.cif.g09.slc.cpg/sg2_62_cif.got.tgz:123786.got - 2010.06.27 13:26:56.
