data_PCOD8010464
_publ_section_title
;
Structure prediction by ZEFSAII (Michael W. Deem and Ramdas Pophale) SiO2 
 PCOD8010464
Probable space group: P -1
;
_chemical_formula_sum "Si O2"
_cell_formula_units_Z 16
_cell_length_a 14.156989
_cell_length_b 11.719089
_cell_length_c 8.171715
_cell_angle_alpha 100.712363
_cell_angle_beta 139.213056
_cell_angle_gamma 58.989244
_cell_volume 706.767358
_symmetry_space_group_name_H-M "P -1"
_symmetry_group_IT_number 2
_symmetry_cell_setting 'triclinic'
loop_
_space_group_symop_operation_xyz
x,y,z
-x,-y,-z
loop_
_atom_site_type_symbol
_atom_site_label
_atom_site_fract_x
_atom_site_fract_y
_atom_site_fract_z
Si Si1 0.130402 0.435849 0.312126
Si Si2 0.982700 0.860159 0.277267
Si Si3 0.737568 0.171591 0.112256
Si Si4 0.686408 0.835749 0.019440
Si Si5 0.579222 0.473418 0.918696
Si Si6 0.764129 0.394379 0.655229
Si Si7 0.423349 0.151665 0.756082
Si Si8 0.206449 0.460358 0.956355
O O1 0.228780 0.513274 0.459326
O O2 0.278347 0.263725 0.462093
O O3 0.000000 0.500000 0.000000
O O4 0.002488 0.476536 0.313218
O O5 0.146803 0.823999 0.593159
O O6 0.068088 0.771196 0.196492
O O7 0.855801 0.029608 0.117707
O O8 0.870435 0.813572 0.210483
O O9 0.667006 0.308361 0.940612
O O10 0.576132 0.177408 0.988155
O O11 0.683679 0.708591 0.901577
O O12 0.516269 0.988950 0.771462
O O13 0.677053 0.826154 0.200255
O O14 0.425727 0.578494 0.613806
O O15 0.722459 0.512362 0.109179
O O16 0.500000 0.500000 0.000000
O O17 0.769818 0.450742 0.853191
#
# Coordination Sequence:
#
# PCOD8010464 Si02
#       8
#     2   2   2   2   2   2   2   2
#     4  10  22  40  62  89 128 166 212 258 315 379
#     4  10  21  38  62  88 126 163 208 260 316 380
#     4  10  21  38  60  93 121 163 211 259 316 369
#     4  10  22  38  63  96 126 167 209 266 324 373
#     4  12  23  39  64  94 121 165 216 262 317 374
#     4  11  22  42  60  88 128 168 208 259 318 379
#     4  10  21  40  63  93 130 162 214 268 317 377
#     4  11  25  40  61  93 130 164 212 261 323 381
#
# _framework density 22.638283999999999
#
# number of rings (size 3 to 8) (size 9 to 14) (size 15 to 20)
#    0.000    1.500    3.750    1.125    1.750    0.500 
#    0.000    5.625    0.000    0.000    0.000    0.000 
#    0.000    0.000    0.000    0.000    0.000    0.000 
#
# Total GULP energy -198272.756389 kJ/mol
# GULP energy per Si atom -12392.047274 kJ/mol
# Density = 2.258676 g / cm^3
# Si number density = 22.638284 Si / 1000 Ang^3
#
#
#
# Elastic Constant Matrix: (Units=GPa)
#
#
# Indices 1 2 3 4 5 6 
#
# 1 97.3969 39.7448 20.7725 -8.2513 23.9192 8.6051
# 2 39.7448 174.7835 35.4764 -27.8167 8.1557 -4.8958
# 3 20.7725 35.4764 66.7459 -20.1955 9.3458 -4.3991
# 4 -8.2513 -27.8167 -20.1955 37.8575 0.4531 2.8338
# 5 23.9192 8.1557 9.3458 0.4531 24.4138 3.1502
# 6 8.6051 -4.8958 -4.3991 2.8338 3.1502 36.8477
#
#
#
# Elastic Compliance Matrix: (Units=1/GPa)
#
#
# Indices 1 2 3 4 5 6 
#
# 1 0.015153 -0.002448 -0.001438 0.001118 -0.013111 -0.003001
# 2 -0.002448 0.007269 -0.002008 0.003658 0.000546 0.000970
# 3 -0.001438 -0.002008 0.020194 0.008884 -0.006115 0.002320
# 4 0.001118 0.003658 0.008884 0.034221 -0.006248 -0.000812
# 5 -0.013111 0.000546 -0.006115 -0.006248 0.056329 -0.001931
# 6 -0.003001 0.000970 0.002320 -0.000812 -0.001931 0.028473
#
#
# Mechanical properties :
#
#
# Convention : Reuss Voigt Hill
#
# Bulk Modulus (GPa) = 32.43805 58.99040 45.71422
# Shear Modulus (GPa) = 27.21791 36.01932 31.61861
#
# Velocity S-wave (km/s) = 3.47117 3.99316 3.74128
# Velocity P-wave (km/s) = 5.51592 6.88294 6.23699
#
# Compressibility (1/GPa) = 0.03082799
#
# Stress axis : x y z
#
# Youngs Moduli (GPa) = 65.99511 137.56380 49.51985
#
# Poissons Ratio (x) = 0.33676 0.07122
# Poissons Ratio (y) = 0.16156 0.09942
# Poissons Ratio (z) = 0.09492 0.27618
#
# Static dielectric constant tensor:
#      x y z
#    x 4.460580 0.124760 0.660080 
#    y 0.124760 4.563110 -0.299610 
#    z 0.660080 -0.299610 3.913780 
# 
# 
# High freq. dielectric constant tensor:
#      x y z
#    x 1.893290 0.001640 0.038670 
#    y 0.001640 1.907700 -0.012540 
#    z 0.038670 -0.012540 1.866380 
# 
# From -- ./inp_files/307826.got.cif
#   From: 2010.06.25/outbox.cif.g09.slc.cpg/sg2_154_cif.got.tgz:307826.got - 2010.06.27 13:26:56.
