data_PCOD8010660
_publ_section_title
;
Structure prediction by ZEFSAII (Michael W. Deem and Ramdas Pophale) SiO2 
 PCOD8010660
Probable space group: P -1
;
_chemical_formula_sum "Si O2"
_cell_formula_units_Z 16
_cell_length_a 24.438631
_cell_length_b 15.093032
_cell_length_c 17.608892
_cell_angle_alpha 30.744817
_cell_angle_beta 159.348947
_cell_angle_gamma 159.313091
_cell_volume 802.533684
_symmetry_space_group_name_H-M "P -1"
_symmetry_group_IT_number 2
_symmetry_cell_setting 'triclinic'
loop_
_space_group_symop_operation_xyz
x,y,z
-x,-y,-z
loop_
_atom_site_type_symbol
_atom_site_label
_atom_site_fract_x
_atom_site_fract_y
_atom_site_fract_z
Si Si1 0.505538 0.209339 0.361213
Si Si2 0.819581 0.523755 0.398567
Si Si3 0.693588 0.403149 0.625352
Si Si4 0.332061 0.352464 0.459725
Si Si5 0.114791 0.905232 0.730066
Si Si6 0.727891 0.076675 0.239899
Si Si7 0.575941 0.925299 0.866995
Si Si8 0.840913 0.931841 0.083865
O O1 0.694703 0.437482 0.381461
O O2 0.553519 0.308053 0.436075
O O3 0.500000 0.000000 0.500000
O O4 0.255849 0.082312 0.112294
O O5 0.694036 0.295617 0.342055
O O6 0.834082 0.721338 0.232813
O O7 0.080315 0.676030 0.640181
O O8 0.594729 0.456479 0.519428
O O9 0.953945 0.658399 0.756596
O O10 0.674960 0.197582 0.787462
O O11 0.500000 0.500000 0.500000
O O12 0.333893 0.162969 0.635123
O O13 0.088961 0.209317 0.216365
O O14 0.159308 0.846516 0.752575
O O15 0.000000 0.000000 0.500000
O O16 0.356951 0.103084 0.943269
O O17 0.500000 0.000000 0.000000
O O18 0.673375 0.872598 0.971641
#
# Coordination Sequence:
#
# PCOD8010660 Si02
#       8
#     2   2   2   2   2   2   2   2
#     4  11  20  34  61  99 129 157 209 267 318 377
#     4  10  21  39  61  92 131 168 204 259 325 387
#     4  12  23  38  65  98 130 163 217 262 325 374
#     4  11  26  44  62  88 129 174 214 265 327 389
#     4  12  23  40  66  97 129 162 222 269 312 389
#     4  11  25  43  67  94 124 172 216 270 326 382
#     4  11  22  36  63 100 127 164 206 268 325 376
#     4  10  21  38  62  91 129 166 209 261 325 375
#
# _framework density 19.936857
#
# number of rings (size 3 to 8) (size 9 to 14) (size 15 to 20)
#    0.000    1.000    6.250    2.625    3.500    1.000 
#    0.000    1.250    0.000    0.000    0.000    0.000 
#    0.000    0.000    0.000    0.000    0.000    0.000 
#
# Total GULP energy -198339.514181 kJ/mol
# GULP energy per Si atom -12396.219636 kJ/mol
# Density = 1.989148 g / cm^3
# Si number density = 19.936857 Si / 1000 Ang^3
#
#
#
# Elastic Constant Matrix: (Units=GPa)
#
#
# Indices 1 2 3 4 5 6 
#
# 1 101.8457 36.5025 44.3487 8.7576 -16.5879 -7.7882
# 2 36.5025 98.3711 49.5217 6.0211 -10.1519 -13.8568
# 3 44.3487 49.5217 155.0449 15.6124 -25.7329 -13.6393
# 4 8.7576 6.0211 15.6124 26.5748 -3.1253 -8.1065
# 5 -16.5879 -10.1519 -25.7329 -3.1253 35.0600 5.0608
# 6 -7.7882 -13.8568 -13.6393 -8.1065 5.0608 25.0574
#
#
#
# Elastic Compliance Matrix: (Units=1/GPa)
#
#
# Indices 1 2 3 4 5 6 
#
# 1 0.012493 -0.003302 -0.001755 -0.002002 0.003525 -0.000258
# 2 -0.003302 0.013590 -0.003169 0.001432 -0.000598 0.005348
# 3 -0.001755 -0.003169 0.009112 -0.003317 0.004547 0.000670
# 4 -0.002002 0.001432 -0.003317 0.043674 -0.000904 0.012676
# 5 0.003525 -0.000598 0.004547 -0.000904 0.033835 -0.003886
# 6 -0.000258 0.005348 0.000670 0.012676 -0.003886 0.048036
#
#
# Mechanical properties :
#
#
# Convention : Reuss Voigt Hill
#
# Bulk Modulus (GPa) = 53.35418 68.44527 60.89972
# Shear Modulus (GPa) = 27.25676 32.33104 29.79390
#
# Velocity S-wave (km/s) = 3.70152 4.03137 3.86996
# Velocity P-wave (km/s) = 6.71476 7.48831 7.11206
#
# Compressibility (1/GPa) = 0.01874267
#
# Stress axis : x y z
#
# Youngs Moduli (GPa) = 80.04417 73.58121 109.75044
#
# Poissons Ratio (x) = 0.24300 0.19257
# Poissons Ratio (y) = 0.26434 0.34781
# Poissons Ratio (z) = 0.14045 0.23319
#
# Static dielectric constant tensor:
#      x y z
#    x 3.812090 -0.355110 -0.675620 
#    y -0.355110 4.044130 0.488250 
#    z -0.675620 0.488250 4.315500 
# 
# 
# High freq. dielectric constant tensor:
#      x y z
#    x 1.755730 -0.011180 -0.034390 
#    y -0.011180 1.785110 0.001210 
#    z -0.034390 0.001210 1.783200 
# 
# From -- ./inp_files/256957.got.cif
#   From: 2010.06.25/outbox.cif.g09.slc.cpg/sg2_129_cif.got.tgz:256957.got - 2010.06.27 13:26:56.
