data_PCOD8010144
_publ_section_title
;
Structure prediction by ZEFSAII (Michael W. Deem and Ramdas Pophale) SiO2 
 PCOD8010144
Probable space group: P -1
;
_chemical_formula_sum "Si O2"
_cell_formula_units_Z 12
_cell_length_a 8.787142
_cell_length_b 8.967993
_cell_length_c 14.566401
_cell_angle_alpha 54.920802
_cell_angle_beta 138.294418
_cell_angle_gamma 121.279054
_cell_volume 616.343053
_symmetry_space_group_name_H-M "P -1"
_symmetry_group_IT_number 2
_symmetry_cell_setting 'triclinic'
loop_
_space_group_symop_operation_xyz
x,y,z
-x,-y,-z
loop_
_atom_site_type_symbol
_atom_site_label
_atom_site_fract_x
_atom_site_fract_y
_atom_site_fract_z
Si Si1 0.912938 0.375481 0.381499
Si Si2 0.650100 0.556515 0.336579
Si Si3 0.255695 0.535592 0.914800
Si Si4 0.512359 0.158344 0.374609
Si Si5 0.346680 0.810969 0.025073
Si Si6 0.921582 0.849201 0.941256
O O1 0.817258 0.550308 0.324337
O O2 0.891607 0.388837 0.258297
O O3 0.757649 0.187081 0.418790
O O4 0.184830 0.384579 0.522502
O O5 0.494048 0.352278 0.349958
O O6 0.483067 0.706071 0.197351
O O7 0.500000 0.500000 0.000000
O O8 0.289186 0.689122 0.952808
O O9 0.114116 0.349578 0.957495
O O10 0.310083 0.108113 0.226802
O O11 0.500000 0.000000 0.500000
O O12 0.113734 0.857005 0.947234
O O13 0.500000 0.000000 0.000000
O O14 0.000000 0.000000 0.000000
#
# Coordination Sequence:
#
# PCOD8010144 Si02
#       6
#     2   2   2   2   2   2
#     4   9  20  37  68  89 128 170 208 257 333 373
#     4   9  20  40  60  94 129 170 211 252 329 379
#     4  12  20  43  65  95 130 166 215 271 319 383
#     4  10  21  37  66  94 131 163 220 258 328 380
#     4  12  26  41  66  94 134 173 221 268 320 385
#     4  12  27  40  67  97 130 173 223 266 326 380
#
# _framework density 19.469676
#
# number of rings (size 3 to 8) (size 9 to 14) (size 15 to 20)
#    1.000    0.333    5.000    1.500    4.667    0.000 
#    0.000    3.333    0.000    0.000    0.000    0.000 
#    0.000    0.000    0.000    0.000    0.000    0.000 
#
# Total GULP energy -148774.113669 kJ/mol
# GULP energy per Si atom -12397.842806 kJ/mol
# Density = 1.942536 g / cm^3
# Si number density = 19.469676 Si / 1000 Ang^3
#
#
#
# Elastic Constant Matrix: (Units=GPa)
#
#
# Indices 1 2 3 4 5 6 
#
# 1 83.3368 55.2079 20.5996 9.0758 -15.6329 -1.1080
# 2 55.2079 166.2785 71.2532 9.6514 -17.5371 8.1589
# 3 20.5996 71.2532 141.3159 23.1309 -26.7692 2.4188
# 4 9.0758 9.6514 23.1309 45.0120 5.7177 -8.8002
# 5 -15.6329 -17.5371 -26.7692 5.7177 32.8368 -6.6277
# 6 -1.1080 8.1589 2.4188 -8.8002 -6.6277 36.3579
#
#
#
# Elastic Compliance Matrix: (Units=1/GPa)
#
#
# Indices 1 2 3 4 5 6 
#
# 1 0.017307 -0.005870 0.002709 -0.004277 0.008498 0.002178
# 2 -0.005870 0.009760 -0.004623 0.001309 -0.002005 -0.002110
# 3 0.002709 -0.004623 0.012009 -0.006895 0.009904 0.000458
# 4 -0.004277 0.001309 -0.006895 0.028707 -0.010950 0.004987
# 5 0.008498 -0.002005 0.009904 -0.010950 0.044522 0.005516
# 6 0.002178 -0.002110 0.000458 0.004987 0.005516 0.030226
#
#
# Mechanical properties :
#
#
# Convention : Reuss Voigt Hill
#
# Bulk Modulus (GPa) = 42.53726 76.11696 59.32711
# Shear Modulus (GPa) = 30.13203 39.09938 34.61571
#
# Velocity S-wave (km/s) = 3.93827 4.48618 4.22112
# Velocity P-wave (km/s) = 6.52498 8.12492 7.36851
#
# Compressibility (1/GPa) = 0.02350880
#
# Stress axis : x y z
#
# Youngs Moduli (GPa) = 57.77997 102.45672 83.26792
#
# Poissons Ratio (x) = 0.60138 -0.22558
# Poissons Ratio (y) = 0.33915 0.38499
# Poissons Ratio (z) = -0.15653 0.47370
#
# Static dielectric constant tensor:
#      x y z
#    x 4.046100 0.029020 -0.630060 
#    y 0.029020 3.673090 0.206450 
#    z -0.630060 0.206450 4.246630 
# 
# 
# High freq. dielectric constant tensor:
#      x y z
#    x 1.736620 0.014000 -0.007790 
#    y 0.014000 1.762650 0.016730 
#    z -0.007790 0.016730 1.763500 
# 
# From -- ./inp_files/173591.got.cif
#   From: 2010.06.25/outbox.cif.g09.slc.cpg/sg2_87_cif.got.tgz:173591.got - 2010.06.27 13:26:56.
