data_PCOD8010711
_publ_section_title
;
Structure prediction by ZEFSAII (Michael W. Deem and Ramdas Pophale) SiO2 
 PCOD8010711
Probable space group: P -1
;
_chemical_formula_sum "Si O2"
_cell_formula_units_Z 16
_cell_length_a 5.306236
_cell_length_b 20.228677
_cell_length_c 16.293606
_cell_angle_alpha 32.475416
_cell_angle_beta 119.164194
_cell_angle_gamma 100.429473
_cell_volume 714.493278
_symmetry_space_group_name_H-M "P -1"
_symmetry_group_IT_number 2
_symmetry_cell_setting 'triclinic'
loop_
_space_group_symop_operation_xyz
x,y,z
-x,-y,-z
loop_
_atom_site_type_symbol
_atom_site_label
_atom_site_fract_x
_atom_site_fract_y
_atom_site_fract_z
Si Si1 0.640717 0.096716 0.677288
Si Si2 0.646047 0.083771 0.984019
Si Si3 0.896668 0.605837 0.169773
Si Si4 0.533165 0.681054 0.442087
Si Si5 0.870283 0.816555 0.073853
Si Si6 0.238815 0.132574 0.422968
Si Si7 0.962016 0.414364 0.510439
Si Si8 0.476908 0.816910 0.742950
O O1 0.499865 0.209274 0.609906
O O2 0.423511 0.167293 0.488330
O O3 0.036688 0.035056 0.788828
O O4 0.593499 0.964568 0.834898
O O5 0.352245 0.202777 0.870292
O O6 0.181183 0.844109 0.122627
O O7 0.500000 0.000000 0.000000
O O8 0.741066 0.530368 0.283384
O O9 0.232109 0.478295 0.318576
O O10 0.000046 0.696983 0.150237
O O11 0.655973 0.695795 0.965455
O O12 0.188013 0.678444 0.375420
O O13 0.696689 0.698343 0.364771
O O14 0.288296 0.210079 0.270306
O O15 0.854789 0.189989 0.324179
O O16 0.405976 0.965036 0.613867
O O17 0.000000 0.500000 0.500000
#
# Coordination Sequence:
#
# PCOD8010711 Si02
#       8
#     2   2   2   2   2   2   2   2
#     4  10  24  42  65  91 136 167 213 260 337 384
#     4  10  23  39  60  92 128 163 211 263 322 384
#     4  10  24  42  68  92 132 162 223 271 318 374
#     4  10  25  41  66  90 131 174 206 266 324 386
#     4  10  23  38  65  90 123 164 212 266 320 371
#     4  10  22  36  65  93 129 161 213 260 330 382
#     4  10  24  44  65  92 126 177 220 258 314 386
#     4  10  21  38  62  98 122 164 212 271 315 378
#
# _framework density 22.393495000000001
#
# number of rings (size 3 to 8) (size 9 to 14) (size 15 to 20)
#    1.500    0.500    1.250    0.750    7.000    2.000 
#    0.000    1.250    0.000    0.000    0.000    0.000 
#    0.000    0.000    0.000    0.000    0.000    0.000 
#
# Total GULP energy -198248.462516 kJ/mol
# GULP energy per Si atom -12390.528907 kJ/mol
# Density = 2.234253 g / cm^3
# Si number density = 22.393495 Si / 1000 Ang^3
#
#
#
# Elastic Constant Matrix: (Units=GPa)
#
#
# Indices 1 2 3 4 5 6 
#
# 1 148.9415 43.7098 62.5458 12.7096 -9.8429 4.5696
# 2 43.7098 108.7519 42.6239 6.9943 2.5315 0.6909
# 3 62.5458 42.6239 122.2049 9.5110 -10.8259 -4.3593
# 4 12.7096 6.9943 9.5110 38.8294 -2.9276 5.4599
# 5 -9.8429 2.5315 -10.8259 -2.9276 44.5164 -3.1818
# 6 4.5696 0.6909 -4.3593 5.4599 -3.1818 32.1032
#
#
#
# Elastic Compliance Matrix: (Units=1/GPa)
#
#
# Indices 1 2 3 4 5 6 
#
# 1 0.009164 -0.002117 -0.003802 -0.001408 0.001027 -0.001434
# 2 -0.002117 0.011311 -0.002992 -0.000697 -0.001915 -0.000420
# 3 -0.003802 -0.002992 0.011562 -0.001246 0.002246 0.002610
# 4 -0.001408 -0.000697 -0.001246 0.027348 0.000901 -0.004516
# 5 0.001027 -0.001915 0.002246 0.000901 0.023575 0.002383
# 6 -0.001434 -0.000420 0.002610 -0.004516 0.002383 0.032721
#
#
# Mechanical properties :
#
#
# Convention : Reuss Voigt Hill
#
# Bulk Modulus (GPa) = 70.35501 75.29529 72.82515
# Shear Modulus (GPa) = 36.16833 38.49104 37.32969
#
# Velocity S-wave (km/s) = 4.02322 4.15040 4.08731
# Velocity P-wave (km/s) = 7.28475 7.52758 7.40716
#
# Compressibility (1/GPa) = 0.01421363
#
# Stress axis : x y z
#
# Youngs Moduli (GPa) = 109.12074 88.41049 86.49249
#
# Poissons Ratio (x) = 0.18718 0.32889
# Poissons Ratio (y) = 0.23103 0.25877
# Poissons Ratio (z) = 0.41493 0.26451
#
# Static dielectric constant tensor:
#      x y z
#    x 4.373660 -0.033240 -0.167320 
#    y -0.033240 3.656970 -0.141220 
#    z -0.167320 -0.141220 4.295260 
# 
# 
# High freq. dielectric constant tensor:
#      x y z
#    x 1.897590 -0.004820 -0.005000 
#    y -0.004820 1.854200 -0.008920 
#    z -0.005000 -0.008920 1.909650 
# 
# From -- ./inp_files/485223.got.cif
#   From: 2010.06.25/outbox.cif.g09.slc.cpg/sg2_243_cif.got.tgz:485223.got - 2010.06.27 13:26:56.
