data_PCOD8010115
_publ_section_title
;
Structure prediction by ZEFSAII (Michael W. Deem and Ramdas Pophale) SiO2 
 PCOD8010115
Probable space group: P -1
;
_chemical_formula_sum "Si O2"
_cell_formula_units_Z 16
_cell_length_a 18.846739
_cell_length_b 11.563079
_cell_length_c 9.209521
_cell_angle_alpha 79.108272
_cell_angle_beta 48.954341
_cell_angle_gamma 39.694797
_cell_volume 729.109121
_symmetry_space_group_name_H-M "P -1"
_symmetry_group_IT_number 2
_symmetry_cell_setting 'triclinic'
loop_
_space_group_symop_operation_xyz
x,y,z
-x,-y,-z
loop_
_atom_site_type_symbol
_atom_site_label
_atom_site_fract_x
_atom_site_fract_y
_atom_site_fract_z
Si Si1 0.778255 0.326521 0.302848
Si Si2 0.400304 0.249072 0.665720
Si Si3 0.317117 0.016732 0.411269
Si Si4 0.049734 0.465065 0.107306
Si Si5 0.437243 0.750288 0.050562
Si Si6 0.675789 0.025786 0.142233
Si Si7 0.801942 0.058804 0.214495
Si Si8 0.200074 0.779587 0.369811
O O1 0.616539 0.598304 0.414783
O O2 0.710169 0.287611 0.309568
O O3 0.813392 0.258905 0.441377
O O4 0.971713 0.171667 0.019321
O O5 0.499180 0.131854 0.716983
O O6 0.562287 0.039253 0.375388
O O7 0.196187 0.413710 0.917332
O O8 0.135381 0.302795 0.600746
O O9 0.387456 0.917762 0.176526
O O10 0.261909 0.951190 0.564145
O O11 0.138336 0.247511 0.104232
O O12 0.000000 0.500000 0.000000
O O13 0.269789 0.837563 0.272034
O O14 0.645300 0.465905 0.872493
O O15 0.449077 0.784470 0.863009
O O16 0.746193 0.057969 0.138767
O O17 0.000000 0.000000 0.500000
#
# Coordination Sequence:
#
# PCOD8010115 Si02
#       8
#     2   2   2   2   2   2   2   2
#     4  11  20  38  66  96 130 164 218 261 323 385
#     4  11  23  40  69  97 122 168 217 268 321 377
#     4  11  24  41  64  95 133 169 212 274 318 378
#     4  12  23  43  70  96 126 166 222 275 318 369
#     4  11  25  44  60  95 136 169 215 257 327 389
#     4  11  23  42  66  93 129 172 217 266 317 381
#     4  10  21  37  65  98 124 167 214 267 319 375
#     4  11  24  40  65  92 134 178 209 258 325 392
#
# _framework density 21.944589000000001
#
# number of rings (size 3 to 8) (size 9 to 14) (size 15 to 20)
#    0.000    1.000    6.250    1.125    0.000    7.500 
#    0.000    0.625    0.000    0.000    0.000    0.000 
#    0.000    0.000    0.000    0.000    0.000    0.000 
#
# Total GULP energy -198290.572729 kJ/mol
# GULP energy per Si atom -12393.160796 kJ/mol
# Density = 2.189464 g / cm^3
# Si number density = 21.944589 Si / 1000 Ang^3
#
#
#
# Elastic Constant Matrix: (Units=GPa)
#
#
# Indices 1 2 3 4 5 6 
#
# 1 110.0219 34.7700 52.5191 16.5941 4.7316 -10.8235
# 2 34.7700 90.4530 16.0440 22.5061 3.1165 -14.0289
# 3 52.5191 16.0440 61.5797 19.5647 -2.6813 -3.0178
# 4 16.5941 22.5061 19.5647 35.7748 2.7039 0.2520
# 5 4.7316 3.1165 -2.6813 2.7039 43.4357 4.5092
# 6 -10.8235 -14.0289 -3.0178 0.2520 4.5092 19.7068
#
#
#
# Elastic Compliance Matrix: (Units=1/GPa)
#
#
# Indices 1 2 3 4 5 6 
#
# 1 0.017607 -0.003829 -0.014684 0.002481 -0.003266 0.005411
# 2 -0.003829 0.016100 0.002632 -0.009786 -0.001017 0.010119
# 3 -0.014684 0.002632 0.032230 -0.012789 0.004415 -0.002103
# 4 0.002481 -0.009786 -0.012789 0.040162 -0.002068 -0.007603
# 5 -0.003266 -0.001017 0.004415 -0.002068 0.024626 -0.007450
# 6 0.005411 0.010119 -0.002103 -0.007603 -0.007450 0.062399
#
#
# Mechanical properties :
#
#
# Convention : Reuss Voigt Hill
#
# Bulk Modulus (GPa) = 29.26222 52.08008 40.67115
# Shear Modulus (GPa) = 21.16139 30.36490 25.76314
#
# Velocity S-wave (km/s) = 3.10870 3.72386 3.43010
# Velocity P-wave (km/s) = 5.12337 6.50181 5.85331
#
# Compressibility (1/GPa) = 0.03417375
#
# Stress axis : x y z
#
# Youngs Moduli (GPa) = 56.79423 62.11190 31.02726
#
# Poissons Ratio (x) = 0.23784 0.45562
# Poissons Ratio (y) = 0.21748 -0.08166
# Poissons Ratio (z) = 0.83399 -0.16347
#
# Static dielectric constant tensor:
#      x y z
#    x 4.011380 0.229590 0.068180 
#    y 0.229590 4.159690 0.336890 
#    z 0.068180 0.336890 4.002150 
# 
# 
# High freq. dielectric constant tensor:
#      x y z
#    x 1.858810 0.009710 -0.004040 
#    y 0.009710 1.865110 0.023250 
#    z -0.004040 0.023250 1.867470 
# 
# From -- ./inp_files/333227.got.cif
#   From: 2010.06.25/outbox.cif.g09.slc.cpg/sg2_167_cif.got.tgz:333227.got - 2010.06.27 13:26:56.
