data_PCOD8010106
_publ_section_title
;
Structure prediction by ZEFSAII (Michael W. Deem and Ramdas Pophale) SiO2 
 PCOD8010106
Probable space group: P -1
;
_chemical_formula_sum "Si O2"
_cell_formula_units_Z 16
_cell_length_a 20.384747
_cell_length_b 12.280885
_cell_length_c 18.045404
_cell_angle_alpha 30.633614
_cell_angle_beta 19.346858
_cell_angle_gamma 41.038091
_cell_volume 716.848599
_symmetry_space_group_name_H-M "P -1"
_symmetry_group_IT_number 2
_symmetry_cell_setting 'triclinic'
loop_
_space_group_symop_operation_xyz
x,y,z
-x,-y,-z
loop_
_atom_site_type_symbol
_atom_site_label
_atom_site_fract_x
_atom_site_fract_y
_atom_site_fract_z
Si Si1 0.213779 0.687719 0.134231
Si Si2 0.743941 0.906825 0.258027
Si Si3 0.332865 0.536852 0.951313
Si Si4 0.230802 0.673726 0.736576
Si Si5 0.984270 0.813570 0.797754
Si Si6 0.645331 0.035192 0.039001
Si Si7 0.102003 0.747180 0.986158
Si Si8 0.579515 0.912748 0.893612
O O1 0.000000 0.500000 0.500000
O O2 0.328707 0.558062 0.033117
O O3 0.186152 0.900157 0.993543
O O4 0.352664 0.788992 0.999975
O O5 0.496852 0.763609 0.606057
O O6 0.866293 0.725015 0.224837
O O7 0.797569 0.012347 0.220785
O O8 0.108905 0.541354 0.154258
O O9 0.384658 0.323144 0.992382
O O10 0.049734 0.749733 0.845840
O O11 0.463182 0.793447 0.386449
O O12 0.242308 0.743597 0.768105
O O13 0.176446 0.404299 0.944176
O O14 0.195919 0.903566 0.471920
O O15 0.872751 0.002713 0.813513
O O16 0.595495 0.132225 0.957812
O O17 0.500000 0.000000 0.000000
#
# Coordination Sequence:
#
# PCOD8010106 Si02
#       8
#     2   2   2   2   2   2   2   2
#     4  11  23  43  71 104 137 171 218 278 337 406
#     4  10  22  40  65  99 131 166 223 263 327 406
#     4  11  24  43  66  93 135 173 220 272 329 394
#     4  10  21  39  66  97 127 171 226 267 333 400
#     4  10  23  42  63  95 132 170 225 281 324 396
#     4  11  23  43  69  93 133 177 216 276 344 388
#     4  10  21  37  65  96 127 168 213 270 327 385
#     4  11  28  45  62  97 135 177 235 276 328 398
#
# _framework density 22.319914000000001
#
# number of rings (size 3 to 8) (size 9 to 14) (size 15 to 20)
#    0.000    1.500    0.000    4.875    3.500    6.000 
#    2.250    0.000    0.000    0.000    0.000    0.000 
#    0.000    0.000    0.000    0.000    0.000    0.000 
#
# Total GULP energy -198361.718179 kJ/mol
# GULP energy per Si atom -12397.607386 kJ/mol
# Density = 2.226911 g / cm^3
# Si number density = 22.319914 Si / 1000 Ang^3
#
#
#
# Elastic Constant Matrix: (Units=GPa)
#
#
# Indices 1 2 3 4 5 6 
#
# 1 129.5635 55.5234 32.6736 3.4114 8.3309 16.6219
# 2 55.5234 137.1130 23.0038 4.4949 7.2220 7.4108
# 3 32.6736 23.0038 99.7402 -7.4354 3.4915 7.3288
# 4 3.4114 4.4949 -7.4354 33.9503 0.4993 -0.8517
# 5 8.3309 7.2220 3.4915 0.4993 28.8467 5.2799
# 6 16.6219 7.4108 7.3288 -0.8517 5.2799 34.0426
#
#
#
# Elastic Compliance Matrix: (Units=1/GPa)
#
#
# Indices 1 2 3 4 5 6 
#
# 1 0.010397 -0.003516 -0.002374 -0.001174 -0.001146 -0.003651
# 2 -0.003516 0.008964 -0.000962 -0.001025 -0.001117 0.000120
# 3 -0.002374 -0.000962 0.011317 0.002825 -0.000319 -0.000948
# 4 -0.001174 -0.001025 0.002825 0.030360 -0.000458 0.001019
# 5 -0.001146 -0.001117 -0.000319 -0.000458 0.036193 -0.004754
# 6 -0.003651 0.000120 -0.000948 0.001019 -0.004754 0.032099
#
#
# Mechanical properties :
#
#
# Convention : Reuss Voigt Hill
#
# Bulk Modulus (GPa) = 58.91104 65.42425 62.16764
# Shear Modulus (GPa) = 33.62695 36.38232 35.00464
#
# Velocity S-wave (km/s) = 3.88569 4.04175 3.96449
# Velocity P-wave (km/s) = 6.82515 7.15239 6.99069
#
# Compressibility (1/GPa) = 0.01697475
#
# Stress axis : x y z
#
# Youngs Moduli (GPa) = 96.18606 111.55510 88.36248
#
# Poissons Ratio (x) = 0.39217 0.20978
# Poissons Ratio (y) = 0.33814 0.08500
# Poissons Ratio (z) = 0.22835 0.10731
#
# Static dielectric constant tensor:
#      x y z
#    x 4.091130 -0.027670 -0.042290 
#    y -0.027670 4.028730 0.071180 
#    z -0.042290 0.071180 3.917200 
# 
# 
# High freq. dielectric constant tensor:
#      x y z
#    x 1.883740 0.003200 -0.001640 
#    y 0.003200 1.879690 0.005370 
#    z -0.001640 0.005370 1.871490 
# 
# From -- ./inp_files/577907.got.cif
#   From: 2010.06.25/outbox.cif.g09.slc.cpg/sg2_289_cif.got.tgz:577907.got - 2010.06.27 13:26:56.
