data_PCOD8010330
_publ_section_title
;
Structure prediction by ZEFSAII (Michael W. Deem and Ramdas Pophale) SiO2 
 PCOD8010330
Probable space group: P -1
;
_chemical_formula_sum "Si O2"
_cell_formula_units_Z 16
_cell_length_a 12.779526
_cell_length_b 8.174245
_cell_length_c 8.979407
_cell_angle_alpha 107.382545
_cell_angle_beta 115.453502
_cell_angle_gamma 71.760399
_cell_volume 789.522283
_symmetry_space_group_name_H-M "P -1"
_symmetry_group_IT_number 2
_symmetry_cell_setting 'triclinic'
loop_
_space_group_symop_operation_xyz
x,y,z
-x,-y,-z
loop_
_atom_site_type_symbol
_atom_site_label
_atom_site_fract_x
_atom_site_fract_y
_atom_site_fract_z
Si Si1 0.700349 0.738183 0.701960
Si Si2 0.961054 0.190028 0.453884
Si Si3 0.094993 0.326890 0.963154
Si Si4 0.271595 0.555842 0.600066
Si Si5 0.718217 0.005134 0.541560
Si Si6 0.534448 0.323246 0.382092
Si Si7 0.968593 0.025437 0.817189
Si Si8 0.183928 0.306114 0.695965
O O1 0.726901 0.559582 0.576944
O O2 0.586931 0.743086 0.744156
O O3 0.666828 0.898126 0.609586
O O4 0.818600 0.746731 0.867255
O O5 0.829045 0.272038 0.445929
O O6 0.045715 0.326270 0.573757
O O7 0.000000 0.000000 0.500000
O O8 0.964818 0.155545 0.269049
O O9 0.183433 0.340611 0.882635
O O10 0.018839 0.187716 0.828472
O O11 0.000000 0.500000 0.000000
O O12 0.394530 0.627683 0.707144
O O13 0.243677 0.456443 0.703524
O O14 0.620221 0.176580 0.492402
O O15 0.830824 0.064043 0.699475
O O16 0.748790 0.885069 0.377545
O O17 0.500000 0.500000 0.500000
O O18 0.000000 0.000000 0.000000
#
# Coordination Sequence:
#
# PCOD8010330 Si02
#       8
#     2   2   2   2   2   2   2   2
#     4  10  22  41  61  91 118 158 202 248 300 346
#     4  11  20  35  59  84 119 158 200 239 292 359
#     4  12  25  38  59  91 131 153 191 248 307 358
#     4  10  21  38  59  84 117 158 207 244 284 353
#     4  10  21  41  66  86 120 157 203 247 290 363
#     4  10  22  38  65  89 114 155 210 251 288 347
#     4  11  23  37  58  93 121 153 192 243 310 353
#     4  10  22  37  59  88 120 162 196 239 302 352
#
# _framework density 20.265419000000001
#
# number of rings (size 3 to 8) (size 9 to 14) (size 15 to 20)
#    0.000    1.500    2.500    3.000    5.250    0.000 
#    0.000    1.250    0.000    0.000    0.000    0.000 
#    0.000    0.000    0.000    0.000    0.000    0.000 
#
# Total GULP energy -198264.768259 kJ/mol
# GULP energy per Si atom -12391.548016 kJ/mol
# Density = 2.021929 g / cm^3
# Si number density = 20.265419 Si / 1000 Ang^3
#
#
#
# Elastic Constant Matrix: (Units=GPa)
#
#
# Indices 1 2 3 4 5 6 
#
# 1 140.0087 46.0904 20.2779 -1.4128 -1.5745 9.3544
# 2 46.0904 110.6500 23.1176 -7.0907 -2.5686 -10.3180
# 3 20.2779 23.1176 71.1335 -3.8628 -11.6322 -3.0764
# 4 -1.4128 -7.0907 -3.8628 16.8023 5.2875 0.9766
# 5 -1.5745 -2.5686 -11.6322 5.2875 33.5215 -3.8940
# 6 9.3544 -10.3180 -3.0764 0.9766 -3.8940 34.9202
#
#
#
# Elastic Compliance Matrix: (Units=1/GPa)
#
#
# Indices 1 2 3 4 5 6 
#
# 1 0.008843 -0.003754 -0.001623 -0.000766 -0.000742 -0.003683
# 2 -0.003754 0.011731 -0.002391 0.003923 -0.000247 0.004124
# 3 -0.001623 -0.002391 0.016313 0.000777 0.005482 0.001755
# 4 -0.000766 0.003923 0.000777 0.064455 -0.009802 -0.001463
# 5 -0.000742 -0.000247 0.005482 -0.009802 0.033766 0.004648
# 6 -0.003683 0.004124 0.001755 -0.001463 0.004648 0.031556
#
#
# Mechanical properties :
#
#
# Convention : Reuss Voigt Hill
#
# Bulk Modulus (GPa) = 46.83907 55.64045 51.23976
# Shear Modulus (GPa) = 26.41057 32.53589 29.47323
#
# Velocity S-wave (km/s) = 3.61395 4.01120 3.81775
# Velocity P-wave (km/s) = 6.37002 6.99775 6.69125
#
# Compressibility (1/GPa) = 0.02134970
#
# Stress axis : x y z
#
# Youngs Moduli (GPa) = 113.07932 85.24328 61.30249
#
# Poissons Ratio (x) = 0.32002 0.09950
# Poissons Ratio (y) = 0.42453 0.14659
# Poissons Ratio (z) = 0.18355 0.20384
#
# Static dielectric constant tensor:
#      x y z
#    x 4.397910 0.139410 -0.145580 
#    y 0.139410 3.720820 0.182670 
#    z -0.145580 0.182670 3.524190 
# 
# 
# High freq. dielectric constant tensor:
#      x y z
#    x 1.812370 0.012890 -0.011240 
#    y 0.012890 1.794000 0.009390 
#    z -0.011240 0.009390 1.759030 
# 
# From -- ./inp_files/189235.got.cif
#   From: 2010.06.25/outbox.cif.g09.slc.cpg/sg2_95_cif.got.tgz:189235.got - 2010.06.27 13:26:56.
