data_PCOD8010807
_publ_section_title
;
Structure prediction by ZEFSAII (Michael W. Deem and Ramdas Pophale) SiO2 
 PCOD8010807
Probable space group: P -1
;
_chemical_formula_sum "Si O2"
_cell_formula_units_Z 16
_cell_length_a 8.317887
_cell_length_b 17.801268
_cell_length_c 18.892025
_cell_angle_alpha 29.154583
_cell_angle_beta 141.895383
_cell_angle_gamma 147.150965
_cell_volume 724.056269
_symmetry_space_group_name_H-M "P -1"
_symmetry_group_IT_number 2
_symmetry_cell_setting 'triclinic'
loop_
_space_group_symop_operation_xyz
x,y,z
-x,-y,-z
loop_
_atom_site_type_symbol
_atom_site_label
_atom_site_fract_x
_atom_site_fract_y
_atom_site_fract_z
Si Si1 0.455591 0.821781 0.546077
Si Si2 0.057969 0.470603 0.887494
Si Si3 0.966195 0.726520 0.342538
Si Si4 0.452881 0.491864 0.873618
Si Si5 0.937524 0.198585 0.439943
Si Si6 0.059306 0.786705 0.160248
Si Si7 0.566081 0.386108 0.560788
Si Si8 0.563577 0.880238 0.067561
O O1 0.530154 0.663866 0.710809
O O2 0.248205 0.809874 0.548775
O O3 0.283506 0.808235 0.425335
O O4 0.766458 0.010818 0.494345
O O5 0.247465 0.469411 0.887841
O O6 0.009295 0.639521 0.726192
O O7 0.739861 0.286338 0.931351
O O8 0.235044 0.489208 0.006606
O O9 0.773388 0.514165 0.463911
O O10 0.769227 0.812408 0.232979
O O11 0.030488 0.765833 0.250634
O O12 0.269736 0.314398 0.907905
O O13 0.259024 0.227670 0.551603
O O14 0.250151 0.696933 0.269804
O O15 0.239713 0.996459 0.031663
O O16 0.500000 0.500000 0.500000
O O17 0.500000 0.000000 0.000000
#
# Coordination Sequence:
#
# PCOD8010807 Si02
#       8
#     2   2   2   2   2   2   2   2
#     4  10  22  37  65  95 131 165 210 266 327 372
#     4  10  21  40  63  95 127 168 215 270 310 374
#     4  12  25  44  65  94 138 169 210 267 333 382
#     4  10  21  39  62  95 132 164 213 261 326 377
#     4  10  21  38  63  98 125 165 216 270 310 373
#     4  12  26  42  65  98 134 173 206 268 334 380
#     4  12  21  42  70  96 125 167 226 267 304 378
#     4  12  25  42  69  96 125 170 227 266 309 381
#
# _framework density 22.097729999999999
#
# number of rings (size 3 to 8) (size 9 to 14) (size 15 to 20)
#    0.000    1.000    5.000    2.250    3.500    1.000 
#    0.000    2.500    0.000    0.000    0.000    0.000 
#    0.000    0.000    0.000    0.000    0.000    0.000 
#
# Total GULP energy -198453.140754 kJ/mol
# GULP energy per Si atom -12403.321297 kJ/mol
# Density = 2.204743 g / cm^3
# Si number density = 22.097730 Si / 1000 Ang^3
#
#
#
# Elastic Constant Matrix: (Units=GPa)
#
#
# Indices 1 2 3 4 5 6 
#
# 1 21.6660 25.4962 3.2177 4.2200 -4.6138 -0.3285
# 2 25.4962 218.7182 82.2442 2.3327 -16.0605 16.4924
# 3 3.2177 82.2442 121.0631 4.8904 -5.8950 5.2633
# 4 4.2200 2.3327 4.8904 51.2038 4.3863 -7.4574
# 5 -4.6138 -16.0605 -5.8950 4.3863 27.7542 0.0109
# 6 -0.3285 16.4924 5.2633 -7.4574 0.0109 21.8002
#
#
#
# Elastic Compliance Matrix: (Units=1/GPa)
#
#
# Indices 1 2 3 4 5 6 
#
# 1 0.057430 -0.008113 0.004302 -0.004698 0.006507 0.004354
# 2 -0.008113 0.007858 -0.004794 -0.000143 0.002205 -0.004959
# 3 0.004302 -0.004794 0.011456 -0.001204 0.000565 0.000513
# 4 -0.004698 -0.000143 -0.001204 0.021548 -0.004528 0.007701
# 5 0.006507 0.002205 0.000565 -0.004528 0.039225 -0.003275
# 6 0.004354 -0.004959 0.000513 0.007701 -0.003275 0.052201
#
#
# Mechanical properties :
#
#
# Convention : Reuss Voigt Hill
#
# Bulk Modulus (GPa) = 16.79670 64.81816 40.80743
# Shear Modulus (GPa) = 22.04862 36.85093 29.44977
#
# Velocity S-wave (km/s) = 3.16219 4.08810 3.65458
# Velocity P-wave (km/s) = 4.57714 7.18885 6.02618
#
# Compressibility (1/GPa) = 0.05953550
#
# Stress axis : x y z
#
# Youngs Moduli (GPa) = 17.41248 127.26174 87.28824
#
# Poissons Ratio (x) = 1.03246 -0.37555
# Poissons Ratio (y) = 0.14127 0.41845
# Poissons Ratio (z) = -0.07492 0.61007
#
# Static dielectric constant tensor:
#      x y z
#    x 3.680720 0.228830 0.095350 
#    y 0.228830 4.397350 -0.070950 
#    z 0.095350 -0.070950 4.437320 
# 
# 
# High freq. dielectric constant tensor:
#      x y z
#    x 1.841490 0.011330 -0.003310 
#    y 0.011330 1.877300 -0.001130 
#    z -0.003310 -0.001130 1.884930 
# 
# From -- ./inp_files/188592.got.cif
#   From: 2010.06.25/outbox.cif.g09.slc.cpg/sg2_95_cif.got.tgz:188592.got - 2010.06.27 13:26:56.
