data_PCOD8010167
_publ_section_title
;
Structure prediction by ZEFSAII (Michael W. Deem and Ramdas Pophale) SiO2 
 PCOD8010167
Probable space group: P -1
;
_chemical_formula_sum "Si O2"
_cell_formula_units_Z 16
_cell_length_a 8.279058
_cell_length_b 13.907042
_cell_length_c 8.894433
_cell_angle_alpha 48.322320
_cell_angle_beta 81.466478
_cell_angle_gamma 84.139092
_cell_volume 756.406611
_symmetry_space_group_name_H-M "P -1"
_symmetry_group_IT_number 2
_symmetry_cell_setting 'triclinic'
loop_
_space_group_symop_operation_xyz
x,y,z
-x,-y,-z
loop_
_atom_site_type_symbol
_atom_site_label
_atom_site_fract_x
_atom_site_fract_y
_atom_site_fract_z
Si Si1 0.945961 0.061538 0.160356
Si Si2 0.054667 0.379599 0.526086
Si Si3 0.635372 0.604068 0.704021
Si Si4 0.758306 0.771989 0.090926
Si Si5 0.605754 0.061279 0.290115
Si Si6 0.546548 0.659003 0.995885
Si Si7 0.154629 0.842577 0.244386
Si Si8 0.521137 0.850917 0.280891
O O1 0.800688 0.059170 0.307777
O O2 0.851674 0.119669 0.968544
O O3 0.010283 0.918345 0.271608
O O4 0.105266 0.143059 0.102005
O O5 0.171700 0.413375 0.335527
O O6 0.158451 0.291043 0.713227
O O7 0.000000 0.500000 0.500000
O O8 0.891920 0.306880 0.569536
O O9 0.621780 0.641577 0.839970
O O10 0.550287 0.714965 0.501751
O O11 0.557948 0.465999 0.817772
O O12 0.612048 0.856246 0.099889
O O13 0.691221 0.669157 0.087782
O O14 0.556629 0.209309 0.115729
O O15 0.500000 0.000000 0.500000
O O16 0.583310 0.972301 0.239871
O O17 0.329201 0.867760 0.264972
#
# Coordination Sequence:
#
# PCOD8010167 Si02
#       8
#     2   2   2   2   2   2   2   2
#     4  10  21  40  61  98 127 157 208 269 321 363
#     4  10  23  39  63  94 129 165 208 260 316 367
#     4  10  24  44  63  91 135 171 208 261 317 381
#     4  10  23  40  68  96 124 163 212 268 312 377
#     4  12  24  41  67  90 130 172 212 257 320 382
#     4  11  24  43  66  91 127 173 214 258 318 377
#     4  10  21  37  67  94 128 160 205 271 315 368
#     4  11  22  42  68  99 125 166 216 260 319 377
#
# _framework density 21.152645
#
# number of rings (size 3 to 8) (size 9 to 14) (size 15 to 20)
#    0.000    1.500    1.250    4.500    7.000    2.500 
#    2.250    1.875    0.000    0.000    0.000    0.000 
#    0.000    0.000    0.000    0.000    0.000    0.000 
#
# Total GULP energy -198335.897661 kJ/mol
# GULP energy per Si atom -12395.993604 kJ/mol
# Density = 2.110450 g / cm^3
# Si number density = 21.152645 Si / 1000 Ang^3
#
#
#
# Elastic Constant Matrix: (Units=GPa)
#
#
# Indices 1 2 3 4 5 6 
#
# 1 125.0357 54.4035 38.2773 4.2775 -40.1841 -2.4880
# 2 54.4035 129.5014 40.3144 -20.2994 -26.0866 8.1793
# 3 38.2773 40.3144 77.6326 -13.7593 -26.4488 -1.5899
# 4 4.2775 -20.2994 -13.7593 36.4115 1.2820 -3.4097
# 5 -40.1841 -26.0866 -26.4488 1.2820 32.6484 1.4159
# 6 -2.4880 8.1793 -1.5899 -3.4097 1.4159 41.7343
#
#
#
# Elastic Compliance Matrix: (Units=1/GPa)
#
#
# Indices 1 2 3 4 5 6 
#
# 1 0.014798 -0.003705 -0.001310 -0.004740 0.014348 0.000684
# 2 -0.003705 0.011571 -0.002295 0.005718 0.002698 -0.002200
# 3 -0.001310 -0.002295 0.020109 0.006145 0.012550 0.001214
# 4 -0.004740 0.005718 0.006145 0.033589 0.002329 0.001496
# 5 0.014348 0.002698 0.012550 0.002329 0.060567 -0.001060
# 6 0.000684 -0.002200 0.001214 0.001496 -0.001060 0.024638
#
#
# Mechanical properties :
#
#
# Convention : Reuss Voigt Hill
#
# Bulk Modulus (GPa) = 31.38870 66.46223 48.92547
# Shear Modulus (GPa) = 26.24551 35.43715 30.84133
#
# Velocity S-wave (km/s) = 3.52627 4.09749 3.82257
# Velocity P-wave (km/s) = 5.60810 7.33992 6.53166
#
# Compressibility (1/GPa) = 0.03185860
#
# Stress axis : x y z
#
# Youngs Moduli (GPa) = 67.57822 86.42038 49.73014
#
# Poissons Ratio (x) = 0.32015 0.06515
# Poissons Ratio (y) = 0.25035 0.11413
# Poissons Ratio (z) = 0.08853 0.19833
#
# Static dielectric constant tensor:
#      x y z
#    x 4.008320 -0.004270 -0.369330 
#    y -0.004270 3.849760 -0.092110 
#    z -0.369330 -0.092110 3.808690 
# 
# 
# High freq. dielectric constant tensor:
#      x y z
#    x 1.839830 -0.005800 -0.020460 
#    y -0.005800 1.833460 -0.015900 
#    z -0.020460 -0.015900 1.819690 
# 
# From -- ./inp_files/184077.got.cif
#   From: 2010.06.25/outbox.cif.g09.slc.cpg/sg2_93_cif.got.tgz:184077.got - 2010.06.27 13:26:56.
