data_PCOD8010871
_publ_section_title
;
Structure prediction by ZEFSAII (Michael W. Deem and Ramdas Pophale) SiO2 
 PCOD8010871
Probable space group: P -1
;
_chemical_formula_sum "Si O2"
_cell_formula_units_Z 16
_cell_length_a 10.513951
_cell_length_b 16.867358
_cell_length_c 22.998414
_cell_angle_alpha 157.453518
_cell_angle_beta 32.433191
_cell_angle_gamma 149.023864
_cell_volume 776.262861
_symmetry_space_group_name_H-M "P -1"
_symmetry_group_IT_number 2
_symmetry_cell_setting 'triclinic'
loop_
_space_group_symop_operation_xyz
x,y,z
-x,-y,-z
loop_
_atom_site_type_symbol
_atom_site_label
_atom_site_fract_x
_atom_site_fract_y
_atom_site_fract_z
Si Si1 0.717609 0.976905 0.111806
Si Si2 0.710295 0.390534 0.334353
Si Si3 0.755450 0.207245 0.613314
Si Si4 0.511953 0.683328 0.889350
Si Si5 0.983024 0.620878 0.995203
Si Si6 0.429288 0.698562 0.134544
Si Si7 0.360386 0.244952 0.700871
Si Si8 0.733619 0.093037 0.015949
O O1 0.668642 0.887544 0.137011
O O2 0.691755 0.216998 0.276371
O O3 0.504503 0.791882 0.028693
O O4 0.000000 0.000000 0.000000
O O5 0.500000 0.500000 0.500000
O O6 0.680088 0.259875 0.196140
O O7 0.987696 0.587196 0.361977
O O8 0.680336 0.191208 0.698600
O O9 0.519961 0.218524 0.675617
O O10 0.780625 0.975490 0.431337
O O11 0.252260 0.617473 0.908225
O O12 0.547034 0.448859 0.726697
O O13 0.748778 0.873146 0.892852
O O14 0.016184 0.784551 0.036825
O O15 0.791181 0.384362 0.885517
O O16 0.872373 0.697036 0.145649
O O17 0.500000 0.500000 0.000000
O O18 0.500000 0.000000 0.000000
#
# Coordination Sequence:
#
# PCOD8010871 Si02
#       8
#     2   2   2   2   2   2   2   2
#     4  11  24  41  71  98 127 173 222 266 323 396
#     4  11  24  42  64  95 137 170 211 271 332 386
#     4  11  25  42  61  93 131 170 211 261 333 384
#     4  10  21  38  64  93 122 162 216 262 314 379
#     4  11  21  38  67  93 121 165 218 265 311 376
#     4  12  22  41  66  95 129 168 223 274 315 383
#     4  11  23  41  64  89 127 171 210 265 324 386
#     4   9  21  38  61  93 122 165 208 259 317 379
#
# _framework density 20.611574999999998
#
# number of rings (size 3 to 8) (size 9 to 14) (size 15 to 20)
#    0.000    1.250    3.750    1.875    7.000    0.000 
#    4.500    1.250    0.000    3.750    0.000    0.000 
#    0.000    0.000    0.000    0.000    0.000    0.000 
#
# Total GULP energy -198266.377382 kJ/mol
# GULP energy per Si atom -12391.648586 kJ/mol
# Density = 2.056466 g / cm^3
# Si number density = 20.611575 Si / 1000 Ang^3
#
#
#
# Elastic Constant Matrix: (Units=GPa)
#
#
# Indices 1 2 3 4 5 6 
#
# 1 71.5756 36.2632 38.5181 6.2373 13.2038 -6.3879
# 2 36.2632 129.2890 44.5879 15.2467 9.4204 -22.4253
# 3 38.5181 44.5879 99.1278 21.5573 12.8345 -5.4151
# 4 6.2373 15.2467 21.5573 35.5651 -0.2450 -4.2286
# 5 13.2038 9.4204 12.8345 -0.2450 33.1908 6.2678
# 6 -6.3879 -22.4253 -5.4151 -4.2286 6.2678 43.6826
#
#
#
# Elastic Compliance Matrix: (Units=1/GPa)
#
#
# Indices 1 2 3 4 5 6 
#
# 1 0.019564 -0.003046 -0.005858 0.001561 -0.004911 0.001427
# 2 -0.003046 0.010705 -0.002756 -0.001828 -0.001675 0.004772
# 3 -0.005858 -0.002756 0.015520 -0.007295 -0.002820 -0.000649
# 4 0.001561 -0.001828 -0.007295 0.033212 0.002736 0.001208
# 5 -0.004911 -0.001675 -0.002820 0.002736 0.034929 -0.006675
# 6 0.001427 0.004772 -0.000649 0.001208 -0.006675 0.026545
#
#
# Mechanical properties :
#
#
# Convention : Reuss Voigt Hill
#
# Bulk Modulus (GPa) = 44.50537 59.85899 52.18218
# Shear Modulus (GPa) = 29.19125 34.52923 31.86024
#
# Velocity S-wave (km/s) = 3.76740 4.09740 3.93586
# Velocity P-wave (km/s) = 6.36896 7.17561 6.78429
#
# Compressibility (1/GPa) = 0.02246920
#
# Stress axis : x y z
#
# Youngs Moduli (GPa) = 51.11435 93.41517 64.43332
#
# Poissons Ratio (x) = 0.28454 0.37742
# Poissons Ratio (y) = 0.15569 0.17760
# Poissons Ratio (z) = 0.29940 0.25748
#
# Static dielectric constant tensor:
#      x y z
#    x 3.657520 0.191610 -0.296170 
#    y 0.191610 3.502620 0.950470 
#    z -0.296170 0.950470 3.081060 
# 
# 
# High freq. dielectric constant tensor:
#      x y z
#    x 1.819510 -0.004340 0.012090 
#    y -0.004340 1.828780 0.018670 
#    z 0.012090 0.018670 1.771050 
# 
# From -- ./inp_files/415302.got.cif
#   From: 2010.06.25/outbox.cif.g09.slc.cpg/sg2_208_cif.got.tgz:415302.got - 2010.06.27 13:26:56.
