data_PCOD8010833
_publ_section_title
;
Structure prediction by ZEFSAII (Michael W. Deem and Ramdas Pophale) SiO2 
 PCOD8010833
Probable space group: P -1
;
_chemical_formula_sum "Si O2"
_cell_formula_units_Z 12
_cell_length_a 8.925434
_cell_length_b 12.264603
_cell_length_c 9.624578
_cell_angle_alpha 100.799120
_cell_angle_beta 132.041861
_cell_angle_gamma 109.116557
_cell_volume 602.472138
_symmetry_space_group_name_H-M "P -1"
_symmetry_group_IT_number 2
_symmetry_cell_setting 'triclinic'
loop_
_space_group_symop_operation_xyz
x,y,z
-x,-y,-z
loop_
_atom_site_type_symbol
_atom_site_label
_atom_site_fract_x
_atom_site_fract_y
_atom_site_fract_z
Si Si1 0.569478 0.266648 0.898048
Si Si2 0.214567 0.160817 0.204409
Si Si3 0.750456 0.770025 0.050790
Si Si4 0.871677 0.624550 0.717580
Si Si5 0.418427 0.509805 0.220916
Si Si6 0.341099 0.044361 0.477671
O O1 0.406846 0.224483 0.925990
O O2 0.542016 0.365409 0.810307
O O3 0.458048 0.120223 0.715987
O O4 0.862257 0.345153 0.142653
O O5 0.083448 0.230613 0.186611
O O6 0.384385 0.166765 0.434179
O O7 0.368601 0.232655 0.173208
O O8 0.000000 0.000000 0.000000
O O9 0.720846 0.626044 0.000544
O O10 0.047763 0.906141 0.282078
O O11 0.692806 0.553956 0.453164
O O12 0.744464 0.520436 0.747440
O O13 0.500000 0.000000 0.500000
#
# Coordination Sequence:
#
# PCOD8010833 Si02
#       6
#     2   2   2   2   2   2
#     4  12  22  39  65  93 122 158 199 255 305 348
#     4   9  18  39  59  82 120 157 200 244 285 362
#     4  10  23  40  59  92 127 154 199 255 305 350
#     4  10  21  38  64  90 118 163 206 241 298 359
#     4  10  21  41  61  87 127 160 203 245 290 371
#     4  11  22  41  64  89 118 164 207 245 297 366
#
# _framework density 19.917935
#
# number of rings (size 3 to 8) (size 9 to 14) (size 15 to 20)
#    0.000    1.667    1.667    4.500    0.000    0.667 
#    3.000    4.167    0.000    0.000    0.000    0.000 
#    0.000    0.000    0.000    0.000    0.000    0.000 
#
# Total GULP energy -148760.586481 kJ/mol
# GULP energy per Si atom -12396.715540 kJ/mol
# Density = 1.987260 g / cm^3
# Si number density = 19.917935 Si / 1000 Ang^3
#
#
#
# Elastic Constant Matrix: (Units=GPa)
#
#
# Indices 1 2 3 4 5 6 
#
# 1 156.3267 47.1300 58.0652 -9.5736 9.6581 8.8475
# 2 47.1300 75.8447 34.3632 2.7853 -4.1014 4.5271
# 3 58.0652 34.3632 95.6904 6.7520 15.2522 2.0842
# 4 -9.5736 2.7853 6.7520 30.9814 -5.4056 0.1320
# 5 9.6581 -4.1014 15.2522 -5.4056 33.1660 7.7320
# 6 8.8475 4.5271 2.0842 0.1320 7.7320 16.2646
#
#
#
# Elastic Compliance Matrix: (Units=1/GPa)
#
#
# Indices 1 2 3 4 5 6 
#
# 1 0.009842 -0.003765 -0.004957 0.004587 0.000630 -0.004007
# 2 -0.003765 0.018750 -0.005447 -0.000374 0.007237 -0.005910
# 3 -0.004957 -0.005447 0.017295 -0.006553 -0.009818 0.006717
# 4 0.004587 -0.000374 -0.006553 0.036763 0.009058 -0.006156
# 5 0.000630 0.007237 -0.009818 0.009058 0.041755 -0.021022
# 6 -0.004007 -0.005910 0.006717 -0.006156 -0.021022 0.074491
#
#
# Mechanical properties :
#
#
# Convention : Reuss Voigt Hill
#
# Bulk Modulus (GPa) = 56.98200 67.44205 62.21203
# Shear Modulus (GPa) = 21.45143 28.63595 25.04369
#
# Velocity S-wave (km/s) = 3.28531 3.79581 3.54975
# Velocity P-wave (km/s) = 6.56213 7.29002 6.93563
#
# Compressibility (1/GPa) = 0.01754940
#
# Stress axis : x y z
#
# Youngs Moduli (GPa) = 101.60632 53.33244 57.81996
#
# Poissons Ratio (x) = 0.20081 0.28660
# Poissons Ratio (y) = 0.38257 0.31495
# Poissons Ratio (z) = 0.50363 0.29050
#
# Static dielectric constant tensor:
#      x y z
#    x 3.407180 0.092790 -0.199680 
#    y 0.092790 4.278250 -0.113140 
#    z -0.199680 -0.113140 4.057290 
# 
# 
# High freq. dielectric constant tensor:
#      x y z
#    x 1.756360 -0.003450 -0.012960 
#    y -0.003450 1.788450 0.011360 
#    z -0.012960 0.011360 1.784950 
# 
# From -- ./inp_files/131689.got.cif
#   From: 2010.06.25/outbox.cif.g09.slc.cpg/sg2_66_cif.got.tgz:131689.got - 2010.06.27 13:26:56.
