data_PCOD8010587
_publ_section_title
;
Structure prediction by ZEFSAII (Michael W. Deem and Ramdas Pophale) SiO2 
 PCOD8010587
Probable space group: P -1
;
_chemical_formula_sum "Si O2"
_cell_formula_units_Z 14
_cell_length_a 13.031873
_cell_length_b 21.506969
_cell_length_c 18.089746
_cell_angle_alpha 18.417252
_cell_angle_beta 33.509792
_cell_angle_gamma 24.181310
_cell_volume 636.112603
_symmetry_space_group_name_H-M "P -1"
_symmetry_group_IT_number 2
_symmetry_cell_setting 'triclinic'
loop_
_space_group_symop_operation_xyz
x,y,z
-x,-y,-z
loop_
_atom_site_type_symbol
_atom_site_label
_atom_site_fract_x
_atom_site_fract_y
_atom_site_fract_z
Si Si1 0.215220 0.297382 0.659682
Si Si2 0.462548 0.479803 0.881540
Si Si3 0.382635 0.581876 0.301953
Si Si4 0.000741 0.071107 0.092115
Si Si5 0.747029 0.362930 0.457454
Si Si6 0.713173 0.949043 0.671138
Si Si7 0.065176 0.476656 0.101485
O O1 0.293528 0.424746 0.518555
O O2 0.000000 0.500000 0.500000
O O3 0.460375 0.036918 0.760356
O O4 0.116004 0.204897 0.879807
O O5 0.569919 0.345265 0.886915
O O6 0.321522 0.793191 0.609426
O O7 0.261944 0.459218 0.053291
O O8 0.697704 0.306604 0.992624
O O9 0.660217 0.380618 0.405491
O O10 0.153743 0.852452 0.180002
O O11 0.030480 0.942740 0.298563
O O12 0.500000 0.500000 0.500000
O O13 0.843399 0.519819 0.230748
O O14 0.769153 0.814747 0.709632
O O15 0.952131 0.722551 0.836274
#
# Coordination Sequence:
#
# PCOD8010587 Si02
#       7
#     2   2   2   2   2   2   2
#     4  11  21  37  66  97 124 153 205 265 302 355
#     4  11  22  36  65  95 121 158 208 261 304 357
#     4  10  21  38  65  93 123 167 204 250 312 357
#     4  11  22  39  61  94 133 158 207 252 304 369
#     4  10  23  43  61  88 124 169 208 248 305 380
#     4  10  21  38  61  96 123 154 212 259 302 358
#     4  11  22  39  63  85 128 166 203 253 310 365
#
# _framework density 22.008683000000001
#
# number of rings (size 3 to 8) (size 9 to 14) (size 15 to 20)
#    0.000    1.429    2.857    5.143    2.000    2.286 
#    0.000    5.000    0.000    0.000    0.000    0.000 
#    0.000    0.000    0.000    0.000    0.000    0.000 
#
# Total GULP energy -173549.396127 kJ/mol
# GULP energy per Si atom -12396.385438 kJ/mol
# Density = 2.195859 g / cm^3
# Si number density = 22.008683 Si / 1000 Ang^3
#
#
#
# Elastic Constant Matrix: (Units=GPa)
#
#
# Indices 1 2 3 4 5 6 
#
# 1 80.8298 30.0322 46.9257 12.0483 -2.9082 -37.0483
# 2 30.0322 85.3169 36.4488 13.0453 -16.7900 -31.3615
# 3 46.9257 36.4488 125.7851 15.4665 -5.8964 -29.1635
# 4 12.0483 13.0453 15.4665 39.8920 -1.4491 -15.5252
# 5 -2.9082 -16.7900 -5.8964 -1.4491 28.9703 7.5166
# 6 -37.0483 -31.3615 -29.1635 -15.5252 7.5166 34.6875
#
#
#
# Elastic Compliance Matrix: (Units=1/GPa)
#
#
# Indices 1 2 3 4 5 6 
#
# 1 0.027160 0.001696 -0.004485 0.004391 -0.004704 0.029756
# 2 0.001696 0.019239 -0.002222 0.000585 0.006708 0.016146
# 3 -0.004485 -0.002222 0.010830 -0.001476 -0.000036 0.001654
# 4 0.004391 0.000585 -0.001476 0.031246 -0.002774 0.018564
# 5 -0.004704 0.006708 -0.000036 -0.002774 0.040102 -0.008921
# 6 0.029756 0.016146 0.001654 0.018564 -0.008921 0.086840
#
#
# Mechanical properties :
#
#
# Convention : Reuss Voigt Hill
#
# Bulk Modulus (GPa) = 21.18280 57.63836 39.41058
# Shear Modulus (GPa) = 20.73174 32.61163 26.67169
#
# Velocity S-wave (km/s) = 3.07250 3.85354 3.48497
# Velocity P-wave (km/s) = 4.71515 6.78568 5.84286
#
# Compressibility (1/GPa) = 0.04720810
#
# Stress axis : x y z
#
# Youngs Moduli (GPa) = 36.81850 51.97805 92.33321
#
# Poissons Ratio (x) = -0.08818 0.41416
# Poissons Ratio (y) = -0.06246 0.20513
# Poissons Ratio (z) = 0.16515 0.11548
#
# Static dielectric constant tensor:
#      x y z
#    x 4.119270 -0.323960 0.156780 
#    y -0.323960 4.067850 0.063650 
#    z 0.156780 0.063650 4.258190 
# 
# 
# High freq. dielectric constant tensor:
#      x y z
#    x 1.847900 -0.029030 -0.005130 
#    y -0.029030 1.865300 0.001820 
#    z -0.005130 0.001820 1.871290 
# 
# From -- ./inp_files/431143.got.cif
#   From: 2010.06.25/outbox.cif.g09.slc.cpg/sg2_216_cif.got.tgz:431143.got - 2010.06.27 13:26:56.
