data_PCOD8010835
_publ_section_title
;
Structure prediction by ZEFSAII (Michael W. Deem and Ramdas Pophale) SiO2 
 PCOD8010835
Probable space group: P -1
;
_chemical_formula_sum "Si O2"
_cell_formula_units_Z 16
_cell_length_a 11.833367
_cell_length_b 13.100509
_cell_length_c 9.178639
_cell_angle_alpha 137.323184
_cell_angle_beta 102.223698
_cell_angle_gamma 56.891289
_cell_volume 761.424555
_symmetry_space_group_name_H-M "P -1"
_symmetry_group_IT_number 2
_symmetry_cell_setting 'triclinic'
loop_
_space_group_symop_operation_xyz
x,y,z
-x,-y,-z
loop_
_atom_site_type_symbol
_atom_site_label
_atom_site_fract_x
_atom_site_fract_y
_atom_site_fract_z
Si Si1 0.576836 0.593440 0.075566
Si Si2 0.059050 0.342539 0.040772
Si Si3 0.673747 0.000678 0.547250
Si Si4 0.246773 0.351011 0.616408
Si Si5 0.973439 0.866663 0.434705
Si Si6 0.654913 0.977363 0.176841
Si Si7 0.778077 0.471685 0.734792
Si Si8 0.606992 0.730437 0.725355
O O1 0.459344 0.807766 0.221618
O O2 0.671954 0.565689 0.212265
O O3 0.500000 0.500000 0.000000
O O4 0.679416 0.492465 0.861199
O O5 0.155399 0.413061 0.098299
O O6 0.925020 0.492838 0.260538
O O7 0.006879 0.295982 0.833743
O O8 0.175070 0.141917 0.943639
O O9 0.700352 0.828249 0.460674
O O10 0.815469 0.994741 0.593444
O O11 0.637501 0.993904 0.362815
O O12 0.288003 0.293898 0.400251
O O13 0.091812 0.749381 0.470241
O O14 0.000000 0.000000 0.500000
O O15 0.552492 0.185604 0.294635
O O16 0.587795 0.872924 0.992392
O O17 0.685677 0.532531 0.623304
#
# Coordination Sequence:
#
# PCOD8010835 Si02
#       8
#     2   2   2   2   2   2   2   2
#     4  12  25  40  62  91 126 162 207 258 305 362
#     4  10  21  38  64  90 120 160 204 255 302 355
#     4  11  23  38  64  95 117 160 216 258 302 350
#     4  12  22  39  65  93 124 159 211 257 303 364
#     4  11  21  38  64  91 123 159 205 255 309 360
#     4   9  20  36  57  90 123 154 203 249 307 351
#     4  11  22  42  64  90 126 158 206 254 310 366
#     4  10  22  36  61  93 125 162 196 257 314 362
#
# _framework density 21.013244
#
# number of rings (size 3 to 8) (size 9 to 14) (size 15 to 20)
#    0.000    1.250    3.750    3.750    5.250    2.000 
#    0.000    0.625    0.000    0.750    0.000    0.000 
#    0.000    0.000    0.000    0.000    0.000    0.000 
#
# Total GULP energy -198269.902084 kJ/mol
# GULP energy per Si atom -12391.868880 kJ/mol
# Density = 2.096542 g / cm^3
# Si number density = 21.013244 Si / 1000 Ang^3
#
#
#
# Elastic Constant Matrix: (Units=GPa)
#
#
# Indices 1 2 3 4 5 6 
#
# 1 120.9456 50.0536 20.1755 6.5291 -10.5267 -6.6108
# 2 50.0536 165.2879 22.5589 3.0131 -5.2211 -28.6226
# 3 20.1755 22.5589 31.3685 -1.0816 -12.7440 -3.4986
# 4 6.5291 3.0131 -1.0816 25.2363 -3.4241 -11.0901
# 5 -10.5267 -5.2211 -12.7440 -3.4241 27.6168 16.2587
# 6 -6.6108 -28.6226 -3.4986 -11.0901 16.2587 39.1591
#
#
#
# Elastic Compliance Matrix: (Units=1/GPa)
#
#
# Indices 1 2 3 4 5 6 
#
# 1 0.010421 -0.002999 -0.003780 -0.003402 0.002991 -0.002975
# 2 -0.002999 0.009257 -0.006766 0.002552 -0.007880 0.009650
# 3 -0.003780 -0.006766 0.048956 0.002381 0.027108 -0.011790
# 4 -0.003402 0.002552 0.002381 0.046971 -0.003453 0.016240
# 5 0.002991 -0.007880 0.027108 -0.003453 0.066420 -0.031388
# 6 -0.002975 0.009650 -0.011790 0.016240 -0.031388 0.048666
#
#
# Mechanical properties :
#
#
# Convention : Reuss Voigt Hill
#
# Bulk Modulus (GPa) = 24.07010 55.90868 39.98939
# Shear Modulus (GPa) = 18.40742 33.39004 25.89873
#
# Velocity S-wave (km/s) = 2.96293 3.99055 3.51450
# Velocity P-wave (km/s) = 4.81506 6.92075 5.96161
#
# Compressibility (1/GPa) = 0.04154532
#
# Stress axis : x y z
#
# Youngs Moduli (GPa) = 95.95928 108.02413 20.42639
#
# Poissons Ratio (x) = 0.32392 0.07722
# Poissons Ratio (y) = 0.28775 0.13820
# Poissons Ratio (z) = 0.36275 0.73087
#
# Static dielectric constant tensor:
#      x y z
#    x 4.060610 -0.798210 -0.244340 
#    y -0.798210 4.675770 0.214950 
#    z -0.244340 0.214950 3.631620 
# 
# 
# High freq. dielectric constant tensor:
#      x y z
#    x 1.816920 -0.034650 -0.021810 
#    y -0.034650 1.833910 0.014120 
#    z -0.021810 0.014120 1.793310 
# 
# From -- ./inp_files/263497.got.cif
#   From: 2010.06.25/outbox.cif.g09.slc.cpg/sg2_132_cif.got.tgz:263497.got - 2010.06.27 13:26:56.
