data_PCOD8010563
_publ_section_title
;
Structure prediction by ZEFSAII (Michael W. Deem and Ramdas Pophale) SiO2 
 PCOD8010563
Probable space group: P -1
;
_chemical_formula_sum "Si O2"
_cell_formula_units_Z 14
_cell_length_a 25.562919
_cell_length_b 9.428377
_cell_length_c 12.511835
_cell_angle_alpha 144.826569
_cell_angle_beta 28.834662
_cell_angle_gamma 152.054192
_cell_volume 668.793317
_symmetry_space_group_name_H-M "P -1"
_symmetry_group_IT_number 2
_symmetry_cell_setting 'triclinic'
loop_
_space_group_symop_operation_xyz
x,y,z
-x,-y,-z
loop_
_atom_site_type_symbol
_atom_site_label
_atom_site_fract_x
_atom_site_fract_y
_atom_site_fract_z
Si Si1 0.054343 0.715270 0.686964
Si Si2 0.117874 0.948066 0.342144
Si Si3 0.413342 0.727637 0.848301
Si Si4 0.591390 0.782092 0.930965
Si Si5 0.038646 0.819652 0.170878
Si Si6 0.870875 0.838067 0.990978
Si Si7 0.358867 0.088564 0.305795
O O1 0.011846 0.378594 0.581014
O O2 0.947842 0.681117 0.770517
O O3 0.205749 0.954007 0.519845
O O4 0.045201 0.850424 0.897950
O O5 0.129458 0.932226 0.184073
O O6 0.253569 0.021101 0.190873
O O7 0.096467 0.203619 0.572904
O O8 0.543179 0.738719 0.658917
O O9 0.286228 0.390089 0.828550
O O10 0.452335 0.986417 0.847094
O O11 0.360197 0.800308 0.094485
O O12 0.584625 0.678767 0.755284
O O13 0.500000 0.500000 0.000000
O O14 0.128358 0.079522 0.082097
O O15 0.000000 0.500000 0.000000
#
# Coordination Sequence:
#
# PCOD8010563 Si02
#       7
#     2   2   2   2   2   2   2
#     4  11  21  39  65  95 119 166 214 255 318 372
#     4  11  23  40  68  90 126 172 204 257 326 367
#     4   9  20  37  59  90 118 166 201 261 308 362
#     4  10  21  38  61  92 119 163 213 255 311 380
#     4  11  24  40  59  97 131 160 208 260 320 368
#     4  11  22  37  64  89 133 160 209 270 298 379
#     4   9  20  37  60  88 123 156 215 247 315 372
#
# _framework density 20.933225
#
# number of rings (size 3 to 8) (size 9 to 14) (size 15 to 20)
#    0.857    0.857    2.857    1.714    2.000    4.571 
#    0.000    0.000    0.000    1.714    0.000    0.000 
#    0.000    0.000    0.000    0.000    0.000    0.000 
#
# Total GULP energy -173498.051128 kJ/mol
# GULP energy per Si atom -12392.717938 kJ/mol
# Density = 2.088558 g / cm^3
# Si number density = 20.933225 Si / 1000 Ang^3
#
#
#
# Elastic Constant Matrix: (Units=GPa)
#
#
# Indices 1 2 3 4 5 6 
#
# 1 154.0625 64.3022 38.0906 -14.8550 -15.2891 -17.4110
# 2 64.3022 109.9500 33.1014 -13.9606 -2.8176 -14.6588
# 3 38.0906 33.1014 67.2269 -7.6951 -7.9936 -6.0240
# 4 -14.8550 -13.9606 -7.6951 36.3075 5.5746 2.1685
# 5 -15.2891 -2.8176 -7.9936 5.5746 31.6389 -10.2772
# 6 -17.4110 -14.6588 -6.0240 2.1685 -10.2772 34.8630
#
#
#
# Elastic Compliance Matrix: (Units=1/GPa)
#
#
# Indices 1 2 3 4 5 6 
#
# 1 0.009933 -0.004276 -0.002455 0.000885 0.004993 0.004155
# 2 -0.004276 0.013339 -0.003836 0.002685 -0.001617 0.002167
# 3 -0.002455 -0.003836 0.018799 0.000881 0.003518 0.001391
# 4 0.000885 0.002685 0.000881 0.029972 -0.004907 -0.001587
# 5 0.004993 -0.001617 0.003518 -0.004907 0.040381 0.014631
# 6 0.004155 0.002167 0.001391 -0.001587 0.014631 0.036322
#
#
# Mechanical properties :
#
#
# Convention : Reuss Voigt Hill
#
# Bulk Modulus (GPa) = 47.76316 66.91418 57.33867
# Shear Modulus (GPa) = 28.27114 33.61156 30.94135
#
# Velocity S-wave (km/s) = 3.67895 4.01141 3.84877
# Velocity P-wave (km/s) = 6.39631 7.31370 6.87033
#
# Compressibility (1/GPa) = 0.02093664
#
# Stress axis : x y z
#
# Youngs Moduli (GPa) = 100.67598 74.96935 53.19466
#
# Poissons Ratio (x) = 0.32053 0.13062
# Poissons Ratio (y) = 0.43044 0.20405
# Poissons Ratio (z) = 0.24721 0.28758
#
# Static dielectric constant tensor:
#      x y z
#    x 4.032900 -0.052350 -0.050840 
#    y -0.052350 3.576210 0.082650 
#    z -0.050840 0.082650 3.510160 
# 
# 
# High freq. dielectric constant tensor:
#      x y z
#    x 1.837560 -0.000900 -0.005610 
#    y -0.000900 1.797650 0.002020 
#    z -0.005610 0.002020 1.801340 
# 
# From -- ./inp_files/474435.got.cif
#   From: 2010.06.25/outbox.cif.g09.slc.cpg/sg2_238_cif.got.tgz:474435.got - 2010.06.27 13:26:56.
