data_PCOD8010394
_publ_section_title
;
Structure prediction by ZEFSAII (Michael W. Deem and Ramdas Pophale) SiO2 
 PCOD8010394
Probable space group: P -1
;
_chemical_formula_sum "Si O2"
_cell_formula_units_Z 14
_cell_length_a 14.681483
_cell_length_b 9.553331
_cell_length_c 7.709556
_cell_angle_alpha 43.823911
_cell_angle_beta 122.852705
_cell_angle_gamma 128.449807
_cell_volume 577.540836
_symmetry_space_group_name_H-M "P -1"
_symmetry_group_IT_number 2
_symmetry_cell_setting 'triclinic'
loop_
_space_group_symop_operation_xyz
x,y,z
-x,-y,-z
loop_
_atom_site_type_symbol
_atom_site_label
_atom_site_fract_x
_atom_site_fract_y
_atom_site_fract_z
Si Si1 0.903071 0.016205 0.257721
Si Si2 0.562906 0.679990 0.043785
Si Si3 0.096859 0.558616 0.288901
Si Si4 0.283833 0.392358 0.465741
Si Si5 0.792397 0.826862 0.976085
Si Si6 0.136691 0.772452 0.516280
Si Si7 0.321125 0.613387 0.941780
O O1 0.781927 0.875430 0.361853
O O2 0.895180 0.892720 0.171190
O O3 0.000000 0.000000 0.500000
O O4 0.922820 0.268570 0.018658
O O5 0.596786 0.554984 0.348931
O O6 0.460238 0.763637 0.917081
O O7 0.500000 0.500000 0.000000
O O8 0.681029 0.867760 0.913173
O O9 0.200479 0.495243 0.381658
O O10 0.125543 0.662739 0.415033
O O11 0.974275 0.342583 0.368695
O O12 0.316178 0.484379 0.227372
O O13 0.747459 0.570559 0.110975
O O14 0.840980 0.973165 0.723286
O O15 0.251525 0.771786 0.736081
#
# Coordination Sequence:
#
# PCOD8010394 Si02
#       7
#     2   2   2   2   2   2   2
#     4  10  21  38  60  85 117 157 197 242 290 344
#     4   9  19  40  65  85 113 156 200 246 293 342
#     4  10  22  39  59  86 120 158 197 241 294 351
#     4  11  23  39  60  89 124 155 193 244 296 355
#     4   9  21  40  61  87 118 155 200 244 294 351
#     4  10  21  38  61  87 117 157 201 241 290 352
#     4  11  22  38  62  89 119 156 196 244 298 351
#
# _framework density 24.24071
#
# number of rings (size 3 to 8) (size 9 to 14) (size 15 to 20)
#    0.000    2.000    0.000    3.857    0.000    6.286 
#    0.000   12.857    0.000   12.857    0.000    0.000 
#    0.000    0.000    0.000    0.000    0.000    0.000 
#
# Total GULP energy -173457.431884 kJ/mol
# GULP energy per Si atom -12389.816563 kJ/mol
# Density = 2.418554 g / cm^3
# Si number density = 24.240710 Si / 1000 Ang^3
#
#
#
# Elastic Constant Matrix: (Units=GPa)
#
#
# Indices 1 2 3 4 5 6 
#
# 1 64.2976 15.4061 9.8479 11.2643 3.4596 7.2775
# 2 15.4061 62.1399 44.2251 13.9731 0.5750 14.4621
# 3 9.8479 44.2251 146.4152 20.7322 -3.0852 17.0862
# 4 11.2643 13.9731 20.7322 44.7601 8.7432 1.3060
# 5 3.4596 0.5750 -3.0852 8.7432 44.5249 4.0063
# 6 7.2775 14.4621 17.0862 1.3060 4.0063 20.7303
#
#
#
# Elastic Compliance Matrix: (Units=1/GPa)
#
#
# Indices 1 2 3 4 5 6 
#
# 1 0.017288 -0.003003 0.000759 -0.003608 -0.000153 -0.004343
# 2 -0.003003 0.024121 -0.005081 -0.004370 0.001471 -0.011595
# 3 0.000759 -0.005081 0.009318 -0.003115 0.001672 -0.004529
# 4 -0.003608 -0.004370 -0.003115 0.026995 -0.005746 0.006293
# 5 -0.000153 0.001471 0.001672 -0.005746 0.024298 -0.006684
# 6 -0.004343 -0.011595 -0.004529 0.006293 -0.006684 0.062480
#
#
# Mechanical properties :
#
#
# Convention : Reuss Voigt Hill
#
# Bulk Modulus (GPa) = 27.71825 45.75677 36.73751
# Shear Modulus (GPa) = 26.15392 35.56128 30.85760
#
# Velocity S-wave (km/s) = 3.28826 3.83431 3.57174
# Velocity P-wave (km/s) = 5.08688 6.20641 5.67432
#
# Compressibility (1/GPa) = 0.03607731
#
# Stress axis : x y z
#
# Youngs Moduli (GPa) = 57.84431 41.45802 107.31421
#
# Poissons Ratio (x) = 0.12448 -0.08141
# Poissons Ratio (y) = 0.17368 0.54526
# Poissons Ratio (z) = -0.04388 0.21065
#
# Static dielectric constant tensor:
#      x y z
#    x 4.937830 0.683520 -0.047690 
#    y 0.683520 4.972990 0.259360 
#    z -0.047690 0.259360 4.745560 
# 
# 
# High freq. dielectric constant tensor:
#      x y z
#    x 1.956220 0.010020 -0.014670 
#    y 0.010020 1.948060 0.021710 
#    z -0.014670 0.021710 1.978990 
# 
# From -- ./inp_files/274206.got.cif
#   From: 2010.06.25/outbox.cif.g09.slc.cpg/sg2_138_cif.got.tgz:274206.got - 2010.06.27 13:26:56.
