data_PCOD8010052
_publ_section_title
;
Structure prediction by ZEFSAII (Michael W. Deem and Ramdas Pophale) SiO2 
 PCOD8010052
Probable space group: P -1
;
_chemical_formula_sum "Si O2"
_cell_formula_units_Z 16
_cell_length_a 20.941596
_cell_length_b 11.504004
_cell_length_c 11.360573
_cell_angle_alpha 30.195924
_cell_angle_beta 150.350838
_cell_angle_gamma 142.296470
_cell_volume 672.086142
_symmetry_space_group_name_H-M "P -1"
_symmetry_group_IT_number 2
_symmetry_cell_setting 'triclinic'
loop_
_space_group_symop_operation_xyz
x,y,z
-x,-y,-z
loop_
_atom_site_type_symbol
_atom_site_label
_atom_site_fract_x
_atom_site_fract_y
_atom_site_fract_z
Si Si1 0.001269 0.363121 0.771942
Si Si2 0.373464 0.060687 0.403842
Si Si3 0.996304 0.186771 0.165087
Si Si4 0.798942 0.377151 0.818100
Si Si5 0.782874 0.555926 0.126641
Si Si6 0.413255 0.668615 0.650993
Si Si7 0.164184 0.826544 0.719205
Si Si8 0.628154 0.094912 0.197542
O O1 0.108695 0.288151 0.919609
O O2 0.062838 0.623104 0.678579
O O3 0.858131 0.377846 0.476485
O O4 0.977801 0.177997 0.001616
O O5 0.509252 0.156492 0.473159
O O6 0.338512 0.804259 0.511083
O O7 0.386401 0.038334 0.584750
O O8 0.275874 0.250455 0.058520
O O9 0.085092 0.423782 0.137125
O O10 0.070361 0.977741 0.504529
O O11 0.856137 0.174150 0.013687
O O12 0.695449 0.479234 0.479007
O O13 0.742968 0.263072 0.952770
O O14 0.663774 0.380568 0.023089
O O15 0.500000 0.500000 0.000000
O O16 0.253110 0.971898 0.633805
O O17 0.500000 0.000000 0.000000
#
# Coordination Sequence:
#
# PCOD8010052 Si02
#       8
#     2   2   2   2   2   2   2   2
#     4   9  21  38  62  97 130 167 209 265 319 384
#     4  11  25  42  65  96 120 175 218 259 330 374
#     4  10  21  37  64  95 126 168 210 266 328 376
#     4  10  23  40  61  93 128 168 214 264 325 378
#     4  10  22  41  63  93 133 165 216 266 320 389
#     4  11  26  45  64  93 133 172 221 270 314 385
#     4  10  21  40  64  96 128 166 216 263 322 387
#     4  11  24  41  65  93 127 169 214 268 326 383
#
# _framework density 23.806470999999998
#
# number of rings (size 3 to 8) (size 9 to 14) (size 15 to 20)
#    0.000    1.750    0.000    2.625    5.250    4.500 
#    0.000    3.750    0.000    0.000    0.000    0.000 
#    0.000    0.000    0.000    0.000    0.000    0.000 
#
# Total GULP energy -198210.949300 kJ/mol
# GULP energy per Si atom -12388.184331 kJ/mol
# Density = 2.375229 g / cm^3
# Si number density = 23.806471 Si / 1000 Ang^3
#
#
#
# Elastic Constant Matrix: (Units=GPa)
#
#
# Indices 1 2 3 4 5 6 
#
# 1 110.3258 28.3716 33.5561 14.1098 -2.6632 -6.7925
# 2 28.3716 46.5256 28.8582 14.3735 -1.5558 -8.5677
# 3 33.5561 28.8582 102.2403 12.5280 0.4916 -20.6449
# 4 14.1098 14.3735 12.5280 29.0933 -13.9217 -2.7356
# 5 -2.6632 -1.5558 0.4916 -13.9217 50.5131 -3.6903
# 6 -6.7925 -8.5677 -20.6449 -2.7356 -3.6903 29.1616
#
#
#
# Elastic Compliance Matrix: (Units=1/GPa)
#
#
# Indices 1 2 3 4 5 6 
#
# 1 0.011230 -0.004950 -0.002132 -0.002232 -0.000197 -0.000582
# 2 -0.004950 0.031976 -0.005309 -0.011914 -0.002283 0.003077
# 3 -0.002132 -0.005309 0.013690 -0.001700 -0.000334 0.007434
# 4 -0.002232 -0.011914 -0.001700 0.048347 0.012926 0.000948
# 5 -0.000197 -0.002283 -0.000334 0.012926 0.023518 0.003235
# 6 -0.000582 0.003077 0.007434 0.000948 0.003235 0.040821
#
#
# Mechanical properties :
#
#
# Convention : Reuss Voigt Hill
#
# Bulk Modulus (GPa) = 31.13825 48.96261 40.05043
# Shear Modulus (GPa) = 24.38210 32.97399 28.67804
#
# Velocity S-wave (km/s) = 3.20375 3.72571 3.47455
# Velocity P-wave (km/s) = 5.17624 6.25456 5.74077
#
# Compressibility (1/GPa) = 0.03211485
#
# Stress axis : x y z
#
# Youngs Moduli (GPa) = 89.04463 31.27353 73.04676
#
# Poissons Ratio (x) = 0.15481 0.15571
# Poissons Ratio (y) = 0.44080 0.38778
# Poissons Ratio (z) = 0.18982 0.16602
#
# Static dielectric constant tensor:
#      x y z
#    x 5.047750 -0.158140 0.044570 
#    y -0.158140 4.104120 0.067690 
#    z 0.044570 0.067690 4.010560 
# 
# 
# High freq. dielectric constant tensor:
#      x y z
#    x 1.967150 -0.005760 -0.003520 
#    y -0.005760 1.928990 0.007310 
#    z -0.003520 0.007310 1.924610 
# 
# From -- ./inp_files/471129.got.cif
#   From: 2010.06.25/outbox.cif.g09.slc.cpg/sg2_236_cif.got.tgz:471129.got - 2010.06.27 13:26:56.
