data_PCOD8010684
_publ_section_title
;
Structure prediction by ZEFSAII (Michael W. Deem and Ramdas Pophale) SiO2 
 PCOD8010684
Probable space group: P -1
;
_chemical_formula_sum "Si O2"
_cell_formula_units_Z 14
_cell_length_a 16.437342
_cell_length_b 12.427331
_cell_length_c 11.916895
_cell_angle_alpha 48.007694
_cell_angle_beta 150.663432
_cell_angle_gamma 142.967410
_cell_volume 715.310821
_symmetry_space_group_name_H-M "P -1"
_symmetry_group_IT_number 2
_symmetry_cell_setting 'triclinic'
loop_
_space_group_symop_operation_xyz
x,y,z
-x,-y,-z
loop_
_atom_site_type_symbol
_atom_site_label
_atom_site_fract_x
_atom_site_fract_y
_atom_site_fract_z
Si Si1 0.348468 0.064827 0.070883
Si Si2 0.688490 0.185930 0.543214
Si Si3 0.872663 0.528683 0.668652
Si Si4 0.632537 0.711472 0.502531
Si Si5 0.211756 0.189923 0.627514
Si Si6 0.726903 0.288222 0.867043
Si Si7 0.965114 0.083366 0.006638
O O1 0.592976 0.179583 0.312474
O O2 0.259635 0.860530 0.074499
O O3 0.350704 0.178328 0.892724
O O4 0.211206 0.054398 0.018650
O O5 0.745188 0.362462 0.549201
O O6 0.500000 0.000000 0.500000
O O7 0.894812 0.196726 0.783551
O O8 0.815998 0.660300 0.470811
O O9 0.801027 0.457796 0.758470
O O10 0.121849 0.637383 0.894051
O O11 0.500000 0.500000 0.500000
O O12 0.693201 0.767986 0.409297
O O13 0.505264 0.791440 0.323292
O O14 0.823157 0.791292 0.759686
O O15 0.000000 0.000000 0.500000
O O16 0.000000 0.000000 0.000000
#
# Coordination Sequence:
#
# PCOD8010684 Si02
#       7
#     2   2   2   2   2   2   2
#     4  11  23  43  65  91 133 174 214 261 331 387
#     4  10  21  38  62  93 124 173 215 256 320 391
#     4  11  21  39  66  92 130 172 212 262 323 386
#     4  12  24  38  67 101 127 163 226 268 313 385
#     4  12  24  44  64  98 136 172 208 272 332 375
#     4  11  21  38  66  96 123 170 220 264 313 385
#     4  11  22  38  64  97 127 163 216 271 315 379
#
# _framework density 19.571909999999999
#
# number of rings (size 3 to 8) (size 9 to 14) (size 15 to 20)
#    0.000    0.857    7.143    1.714    2.000    1.143 
#    0.000    0.000    0.000    2.571    0.000    0.000 
#    0.000    0.000    0.000    0.000    0.000    0.000 
#
# Total GULP energy -173500.279122 kJ/mol
# GULP energy per Si atom -12392.877080 kJ/mol
# Density = 1.952736 g / cm^3
# Si number density = 19.571910 Si / 1000 Ang^3
#
#
#
# Elastic Constant Matrix: (Units=GPa)
#
#
# Indices 1 2 3 4 5 6 
#
# 1 105.6126 50.5878 61.1002 -4.2842 -2.4157 -1.6462
# 2 50.5878 111.7345 67.2025 -10.2731 -6.9763 -16.8324
# 3 61.1002 67.2025 202.7863 1.1918 -18.3437 -5.9105
# 4 -4.2842 -10.2731 1.1918 40.6174 -3.7964 -4.1625
# 5 -2.4157 -6.9763 -18.3437 -3.7964 39.2258 -0.5427
# 6 -1.6462 -16.8324 -5.9105 -4.1625 -0.5427 30.5290
#
#
#
# Elastic Compliance Matrix: (Units=1/GPa)
#
#
# Indices 1 2 3 4 5 6 
#
# 1 0.013229 -0.004942 -0.002539 -0.000163 -0.001303 -0.002549
# 2 -0.004942 0.014672 -0.003043 0.004212 0.001398 0.007833
# 3 -0.002539 -0.003043 0.006913 -0.001073 0.002424 -0.000580
# 4 -0.000163 0.004212 -0.001073 0.026562 0.002888 0.005779
# 5 -0.001303 0.001398 0.002424 0.002888 0.027103 0.002045
# 6 -0.002549 0.007833 -0.000580 0.005779 0.002045 0.037649
#
#
# Mechanical properties :
#
#
# Convention : Reuss Voigt Hill
#
# Bulk Modulus (GPa) = 72.64725 86.43492 79.54109
# Shear Modulus (GPa) = 32.94525 38.15730 35.55128
#
# Velocity S-wave (km/s) = 4.10725 4.42021 4.26660
# Velocity P-wave (km/s) = 7.72602 8.38509 8.06229
#
# Compressibility (1/GPa) = 0.01376515
#
# Stress axis : x y z
#
# Youngs Moduli (GPa) = 75.59254 68.15491 144.64462
#
# Poissons Ratio (x) = 0.33685 0.36727
# Poissons Ratio (y) = 0.37361 0.44018
# Poissons Ratio (z) = 0.19194 0.20741
#
# Static dielectric constant tensor:
#      x y z
#    x 3.932800 0.133420 -0.656450 
#    y 0.133420 3.559020 -0.249290 
#    z -0.656450 -0.249290 5.228390 
# 
# 
# High freq. dielectric constant tensor:
#      x y z
#    x 1.739940 -0.018720 -0.002540 
#    y -0.018720 1.751650 0.001140 
#    z -0.002540 0.001140 1.792830 
# 
# From -- ./inp_files/156746.got.cif
#   From: 2010.06.25/outbox.cif.g09.slc.cpg/sg2_79_cif.got.tgz:156746.got - 2010.06.27 13:26:56.
