data_PCOD8010028
_publ_section_title
;
Structure prediction by ZEFSAII (Michael W. Deem and Ramdas Pophale) SiO2 
 PCOD8010028
Probable space group: P -1
;
_chemical_formula_sum "Si O2"
_cell_formula_units_Z 16
_cell_length_a 20.220211
_cell_length_b 13.732514
_cell_length_c 22.662321
_cell_angle_alpha 160.624293
_cell_angle_beta 159.466275
_cell_angle_gamma 26.831651
_cell_volume 730.125646
_symmetry_space_group_name_H-M "P -1"
_symmetry_group_IT_number 2
_symmetry_cell_setting 'triclinic'
loop_
_space_group_symop_operation_xyz
x,y,z
-x,-y,-z
loop_
_atom_site_type_symbol
_atom_site_label
_atom_site_fract_x
_atom_site_fract_y
_atom_site_fract_z
Si Si1 0.641485 0.643894 0.617480
Si Si2 0.580104 0.243860 0.840092
Si Si3 0.211397 0.019576 0.242331
Si Si4 0.943062 0.544006 0.723203
Si Si5 0.391139 0.196858 0.189435
Si Si6 0.773751 0.803362 0.314529
Si Si7 0.189733 0.239993 0.471850
Si Si8 0.961536 0.129890 0.322736
O O1 0.803854 0.450227 0.605518
O O2 0.449208 0.471751 0.355320
O O3 0.700371 0.678113 0.754486
O O4 0.607883 0.968462 0.748861
O O5 0.359652 0.355930 0.719157
O O6 0.630468 0.162341 0.767824
O O7 0.703759 0.504324 0.114257
O O8 0.171579 0.350693 0.371739
O O9 0.274080 0.036425 0.372404
O O10 0.023091 0.844213 0.985314
O O11 0.098508 0.280269 0.684988
O O12 0.589001 0.004690 0.256606
O O13 0.235637 0.025680 0.926321
O O14 0.901820 0.961839 0.560069
O O15 0.069558 0.516871 0.501517
O O16 0.064332 0.045215 0.298062
#
# Coordination Sequence:
#
# PCOD8010028 Si02
#       8
#     2   2   2   2   2   2   2   2
#     4  10  23  41  63  84 123 163 199 245 296 359
#     4  10  21  37  64  92 117 155 200 249 301 349
#     4   9  17  32  57  88 126 148 192 253 299 348
#     4   9  18  35  59  88 117 160 197 244 299 350
#     4  11  24  44  61  86 123 165 199 242 301 358
#     4  11  22  40  66  91 121 154 200 253 298 351
#     4  11  20  34  56  96 119 152 196 250 299 353
#     4  11  24  35  60  91 124 152 197 252 298 350
#
# _framework density 21.914034999999998
#
# number of rings (size 3 to 8) (size 9 to 14) (size 15 to 20)
#    0.000    1.750    2.500    2.625    3.500    1.500 
#    0.000    7.500    0.000    0.000    0.000    0.000 
#    0.000    0.000    0.000    0.000    0.000    0.000 
#
# Total GULP energy -198306.407711 kJ/mol
# GULP energy per Si atom -12394.150482 kJ/mol
# Density = 2.186416 g / cm^3
# Si number density = 21.914035 Si / 1000 Ang^3
#
#
#
# Elastic Constant Matrix: (Units=GPa)
#
#
# Indices 1 2 3 4 5 6 
#
# 1 121.5550 15.0639 46.7161 -2.3080 11.4993 -11.5238
# 2 15.0639 54.9171 27.2674 -13.7378 2.2368 -3.6845
# 3 46.7161 27.2674 119.4647 -17.9775 4.0755 3.4077
# 4 -2.3080 -13.7378 -17.9775 32.7423 0.6993 2.6713
# 5 11.4993 2.2368 4.0755 0.6993 29.6507 -1.5027
# 6 -11.5238 -3.6845 3.4077 2.6713 -1.5027 17.2189
#
#
#
# Elastic Compliance Matrix: (Units=1/GPa)
#
#
# Indices 1 2 3 4 5 6 
#
# 1 0.011187 -0.000696 -0.004761 -0.002739 -0.003140 0.008431
# 2 -0.000696 0.022348 -0.003874 0.006897 -0.000846 0.003939
# 3 -0.004761 -0.003874 0.012119 0.005284 -0.000018 -0.007235
# 4 -0.002739 0.006897 0.005284 0.036763 -0.001418 -0.007230
# 5 -0.003140 -0.000846 -0.000018 -0.001418 0.035094 0.001004
# 6 0.008431 0.003939 -0.007235 -0.007230 0.001004 0.067202
#
#
# Mechanical properties :
#
#
# Convention : Reuss Voigt Hill
#
# Bulk Modulus (GPa) = 37.04959 52.67015 44.85987
# Shear Modulus (GPa) = 23.54335 29.71503 26.62919
#
# Velocity S-wave (km/s) = 3.28128 3.68636 3.48970
# Velocity P-wave (km/s) = 5.59457 6.49662 6.06240
#
# Compressibility (1/GPa) = 0.02699085
#
# Stress axis : x y z
#
# Youngs Moduli (GPa) = 89.38778 44.74686 82.51556
#
# Poissons Ratio (x) = 0.03115 0.39288
# Poissons Ratio (y) = 0.06222 0.31968
# Poissons Ratio (z) = 0.42560 0.17336
#
# Static dielectric constant tensor:
#      x y z
#    x 4.068190 -0.264880 0.212330 
#    y -0.264880 3.676270 -0.086110 
#    z 0.212330 -0.086110 3.962410 
# 
# 
# High freq. dielectric constant tensor:
#      x y z
#    x 1.865900 -0.021060 0.008720 
#    y -0.021060 1.838200 -0.011570 
#    z 0.008720 -0.011570 1.850370 
# 
# From -- ./inp_files/406680.got.cif
#   From: 2010.06.25/outbox.cif.g09.slc.cpg/sg2_204_cif.got.tgz:406680.got - 2010.06.27 13:26:56.
