data_PCOD8010544
_publ_section_title
;
Structure prediction by ZEFSAII (Michael W. Deem and Ramdas Pophale) SiO2 
 PCOD8010544
Probable space group: P -1
;
_chemical_formula_sum "Si O2"
_cell_formula_units_Z 16
_cell_length_a 8.694721
_cell_length_b 6.272202
_cell_length_c 18.958302
_cell_angle_alpha 80.165756
_cell_angle_beta 103.590663
_cell_angle_gamma 135.426926
_cell_volume 705.278088
_symmetry_space_group_name_H-M "P -1"
_symmetry_group_IT_number 2
_symmetry_cell_setting 'triclinic'
loop_
_space_group_symop_operation_xyz
x,y,z
-x,-y,-z
loop_
_atom_site_type_symbol
_atom_site_label
_atom_site_fract_x
_atom_site_fract_y
_atom_site_fract_z
Si Si1 0.774321 0.578246 0.790895
Si Si2 0.523639 0.767198 0.094732
Si Si3 0.411314 0.580730 0.542051
Si Si4 0.130868 0.257996 0.843313
Si Si5 0.070304 0.588526 0.725661
Si Si6 0.711321 0.229517 0.592891
Si Si7 0.822912 0.425919 0.039708
Si Si8 0.580211 0.764920 0.336802
O O1 0.633475 0.328571 0.851088
O O2 0.611903 0.520569 0.717169
O O3 0.912213 0.516536 0.775109
O O4 0.925468 0.911735 0.819615
O O5 0.638030 0.644975 0.125154
O O6 0.718552 0.130561 0.090271
O O7 0.371942 0.626412 0.016603
O O8 0.500000 0.500000 0.500000
O O9 0.242403 0.583324 0.484169
O O10 0.301830 0.327624 0.606468
O O11 0.620144 0.909464 0.578573
O O12 0.179642 0.472544 0.772552
O O13 0.060925 0.303316 0.907073
O O14 0.940103 0.417973 0.648535
O O15 0.247920 0.946290 0.710716
O O16 0.522900 0.166082 0.622580
O O17 0.000000 0.500000 0.000000
#
# Coordination Sequence:
#
# PCOD8010544 Si02
#       8
#     2   2   2   2   2   2   2   2
#     4  11  24  42  63  91 126 164 209 257 312 371
#     4  11  25  43  66  94 125 164 207 254 312 372
#     4   9  18  38  62  87 125 165 208 258 311 367
#     4  12  24  40  64  93 125 164 208 256 312 372
#     4  11  24  41  63  93 128 165 211 259 311 373
#     4   9  20  38  61  90 124 166 208 256 312 370
#     4  11  25  46  67  93 128 162 205 258 311 373
#     4  10  21  38  61  90 124 164 208 260 313 366
#
# _framework density 22.686087000000001
#
# number of rings (size 3 to 8) (size 9 to 14) (size 15 to 20)
#    0.000    1.500    0.000    4.875    0.000    9.500 
#    0.000    5.625    0.000    0.000    0.000    0.000 
#    0.000    0.000    0.000    0.000    0.000    0.000 
#
# Total GULP energy -198396.256238 kJ/mol
# GULP energy per Si atom -12399.766015 kJ/mol
# Density = 2.263445 g / cm^3
# Si number density = 22.686087 Si / 1000 Ang^3
#
#
#
# Elastic Constant Matrix: (Units=GPa)
#
#
# Indices 1 2 3 4 5 6 
#
# 1 79.6650 45.7831 55.2974 -7.2481 25.1066 -1.5308
# 2 45.7831 133.4011 72.1069 4.7622 10.4707 -7.6449
# 3 55.2974 72.1069 134.1008 -4.1068 26.2052 -10.7782
# 4 -7.2481 4.7622 -4.1068 63.2559 -6.0481 -3.1488
# 5 25.1066 10.4707 26.2052 -6.0481 36.4333 -6.3798
# 6 -1.5308 -7.6449 -10.7782 -3.1488 -6.3798 27.5572
#
#
#
# Elastic Compliance Matrix: (Units=1/GPa)
#
#
# Indices 1 2 3 4 5 6 
#
# 1 0.021872 -0.004301 -0.004889 0.001263 -0.010856 -0.004259
# 2 -0.004301 0.011550 -0.004992 -0.001289 0.003306 0.001631
# 3 -0.004889 -0.004992 0.013191 0.000402 -0.004165 0.002585
# 4 0.001263 -0.001289 0.000402 0.016414 0.002336 0.002286
# 5 -0.010856 0.003306 -0.004165 0.002336 0.038749 0.007923
# 6 -0.004259 0.001631 0.002585 0.002286 0.007923 0.039610
#
#
# Mechanical properties :
#
#
# Convention : Reuss Voigt Hill
#
# Bulk Modulus (GPa) = 54.79218 77.06020 65.92619
# Shear Modulus (GPa) = 28.43604 37.04792 32.74198
#
# Velocity S-wave (km/s) = 3.54426 4.04551 3.80315
# Velocity P-wave (km/s) = 6.39952 7.47418 6.95763
#
# Compressibility (1/GPa) = 0.01825078
#
# Stress axis : x y z
#
# Youngs Moduli (GPa) = 45.72037 86.57687 75.80981
#
# Poissons Ratio (x) = 0.37238 0.37060
# Poissons Ratio (y) = 0.19665 0.37841
# Poissons Ratio (z) = 0.22351 0.43216
#
# Static dielectric constant tensor:
#      x y z
#    x 3.905440 -0.137530 0.275550 
#    y -0.137530 3.991160 -0.015300 
#    z 0.275550 -0.015300 4.674120 
# 
# 
# High freq. dielectric constant tensor:
#      x y z
#    x 1.875380 -0.011960 0.012660 
#    y -0.011960 1.889790 0.006600 
#    z 0.012660 0.006600 1.927100 
# 
# From -- ./inp_files/53368.got.cif
#   From: 2010.06.25/outbox.cif.g09.slc.cpg/sg2_27_cif.got.tgz:53368.got - 2010.06.27 13:26:56.
