data_PCOD8010445
_publ_section_title
;
Structure prediction by ZEFSAII (Michael W. Deem and Ramdas Pophale) SiO2 
 PCOD8010445
Probable space group: P -1
;
_chemical_formula_sum "Si O2"
_cell_formula_units_Z 12
_cell_length_a 8.514863
_cell_length_b 14.558585
_cell_length_c 9.715906
_cell_angle_alpha 44.265946
_cell_angle_beta 80.382574
_cell_angle_gamma 53.972569
_cell_volume 607.092624
_symmetry_space_group_name_H-M "P -1"
_symmetry_group_IT_number 2
_symmetry_cell_setting 'triclinic'
loop_
_space_group_symop_operation_xyz
x,y,z
-x,-y,-z
loop_
_atom_site_type_symbol
_atom_site_label
_atom_site_fract_x
_atom_site_fract_y
_atom_site_fract_z
Si Si1 0.039638 0.355608 0.244290
Si Si2 0.703815 0.038310 0.156562
Si Si3 0.499544 0.308780 0.653019
Si Si4 0.174852 0.657369 0.481159
Si Si5 0.552370 0.849568 0.414526
Si Si6 0.815388 0.002083 0.483292
O O1 0.831737 0.428267 0.287605
O O2 0.220772 0.301970 0.381574
O O3 0.106832 0.192831 0.317465
O O4 0.000000 0.500000 0.000000
O O5 0.524230 0.022512 0.210529
O O6 0.731801 0.087037 0.251449
O O7 0.619109 0.196299 0.896176
O O8 0.934208 0.847267 0.275394
O O9 0.275271 0.512117 0.500054
O O10 0.664870 0.311260 0.546011
O O11 0.443874 0.217398 0.664093
O O12 0.370325 0.884696 0.497118
O O13 0.000000 0.000000 0.500000
#
# Coordination Sequence:
#
# PCOD8010445 Si02
#       6
#     2   2   2   2   2   2
#     4  10  22  40  61  88 120 161 195 255 298 349
#     4  10  21  38  62  85 119 162 196 245 303 351
#     4  11  21  39  61  88 122 160 192 251 301 357
#     4   9  22  38  58  86 126 152 203 242 293 361
#     4  10  21  38  60  90 118 150 206 244 295 363
#     4  10  21  40  61  89 119 155 206 248 291 367
#
# _framework density 19.766338999999999
#
# number of rings (size 3 to 8) (size 9 to 14) (size 15 to 20)
#    0.000    2.333    0.000    5.000    4.667    2.667 
#    9.000    1.667    0.000    0.000    0.000    0.000 
#    0.000    0.000    0.000    0.000    0.000    0.000 
#
# Total GULP energy -148751.307184 kJ/mol
# GULP energy per Si atom -12395.942265 kJ/mol
# Density = 1.972135 g / cm^3
# Si number density = 19.766339 Si / 1000 Ang^3
#
#
#
# Elastic Constant Matrix: (Units=GPa)
#
#
# Indices 1 2 3 4 5 6 
#
# 1 109.9590 33.5724 35.8940 16.2728 -5.4796 3.5751
# 2 33.5724 84.4162 19.2470 9.9129 8.1479 -3.1522
# 3 35.8940 19.2470 96.2482 9.7754 -16.5238 1.2593
# 4 16.2728 9.9129 9.7754 22.6394 -4.1658 1.6482
# 5 -5.4796 8.1479 -16.5238 -4.1658 23.9343 10.8147
# 6 3.5751 -3.1522 1.2593 1.6482 10.8147 45.3708
#
#
#
# Elastic Compliance Matrix: (Units=1/GPa)
#
#
# Indices 1 2 3 4 5 6 
#
# 1 0.012113 -0.003733 -0.002913 -0.005404 0.001698 -0.001341
# 2 -0.003733 0.015983 -0.003295 -0.005332 -0.011501 0.004431
# 3 -0.002913 -0.003295 0.014198 -0.000221 0.011647 -0.003162
# 4 -0.005404 -0.005332 -0.000221 0.052988 0.011756 -0.004665
# 5 0.001698 -0.011501 0.011647 0.011756 0.063805 -0.016892
# 6 -0.001341 0.004431 -0.003162 -0.004665 -0.016892 0.026738
#
#
# Mechanical properties :
#
#
# Convention : Reuss Voigt Hill
#
# Bulk Modulus (GPa) = 44.61594 52.00559 48.31076
# Shear Modulus (GPa) = 23.45465 31.84959 27.65212
#
# Velocity S-wave (km/s) = 3.44844 4.01846 3.74431
# Velocity P-wave (km/s) = 6.20293 6.92084 6.57169
#
# Compressibility (1/GPa) = 0.02241351
#
# Stress axis : x y z
#
# Youngs Moduli (GPa) = 82.55757 62.56475 70.43018
#
# Poissons Ratio (x) = 0.23353 0.20515
# Poissons Ratio (y) = 0.30815 0.23208
# Poissons Ratio (z) = 0.24048 0.20616
#
# Static dielectric constant tensor:
#      x y z
#    x 3.742400 -0.204530 -0.260380 
#    y -0.204530 3.672630 0.151960 
#    z -0.260380 0.151960 3.567370 
# 
# 
# High freq. dielectric constant tensor:
#      x y z
#    x 1.781750 -0.009220 -0.015920 
#    y -0.009220 1.774820 0.009970 
#    z -0.015920 0.009970 1.753160 
# 
# From -- ./inp_files/191535.got.cif
#   From: 2010.06.25/outbox.cif.g09.slc.cpg/sg2_96_cif.got.tgz:191535.got - 2010.06.27 13:26:56.
