data_PCOD8010448
_publ_section_title
;
Structure prediction by ZEFSAII (Michael W. Deem and Ramdas Pophale) SiO2 
 PCOD8010448
Probable space group: P -1
;
_chemical_formula_sum "Si O2"
_cell_formula_units_Z 16
_cell_length_a 14.743960
_cell_length_b 16.491540
_cell_length_c 10.181935
_cell_angle_alpha 123.881463
_cell_angle_beta 75.680558
_cell_angle_gamma 152.267194
_cell_volume 737.257255
_symmetry_space_group_name_H-M "P -1"
_symmetry_group_IT_number 2
_symmetry_cell_setting 'triclinic'
loop_
_space_group_symop_operation_xyz
x,y,z
-x,-y,-z
loop_
_atom_site_type_symbol
_atom_site_label
_atom_site_fract_x
_atom_site_fract_y
_atom_site_fract_z
Si Si1 0.737626 0.292681 0.946970
Si Si2 0.777720 0.957317 0.660695
Si Si3 0.449139 0.815985 0.619052
Si Si4 0.410007 0.431196 0.243899
Si Si5 0.855935 0.727508 0.412034
Si Si6 0.898713 0.573321 0.385064
Si Si7 0.517230 0.902399 0.383782
Si Si8 0.995848 0.971970 0.181190
O O1 0.530877 0.007195 0.781519
O O2 0.649373 0.282243 0.852965
O O3 0.760162 0.372636 0.145698
O O4 0.000000 0.500000 0.000000
O O5 0.666908 0.957018 0.728453
O O6 0.557349 0.674224 0.429448
O O7 0.898280 0.031604 0.818537
O O8 0.998344 0.181533 0.677313
O O9 0.188637 0.546488 0.547535
O O10 0.410307 0.750188 0.419051
O O11 0.587791 0.508866 0.261898
O O12 0.194002 0.217628 0.238047
O O13 0.279642 0.304903 0.033715
O O14 0.811550 0.600878 0.422504
O O15 0.023866 0.979721 0.637757
O O16 0.198905 0.857599 0.525172
O O17 0.500000 0.000000 0.500000
#
# Coordination Sequence:
#
# PCOD8010448 Si02
#       8
#     2   2   2   2   2   2   2   2
#     4  11  22  44  66  92 129 163 207 263 314 376
#     4  11  21  40  59  89 124 166 203 258 311 361
#     4  11  23  43  66  93 130 167 212 260 317 371
#     4  10  21  38  60  90 122 161 207 258 303 369
#     4  11  22  38  63  85 128 163 206 257 308 366
#     4  12  23  43  66  95 127 170 210 261 315 373
#     4  10  22  43  64  90 125 161 206 263 311 373
#     4  10  21  38  61  89 123 161 210 252 306 373
#
# _framework density 21.702058999999998
#
# number of rings (size 3 to 8) (size 9 to 14) (size 15 to 20)
#    0.000    1.250    3.750    4.875    0.000    5.000 
#    6.750    0.000    0.000    0.000    0.000    0.000 
#    0.000    0.000    0.000    0.000    0.000    0.000 
#
# Total GULP energy -198431.576595 kJ/mol
# GULP energy per Si atom -12401.973537 kJ/mol
# Density = 2.165266 g / cm^3
# Si number density = 21.702059 Si / 1000 Ang^3
#
#
#
# Elastic Constant Matrix: (Units=GPa)
#
#
# Indices 1 2 3 4 5 6 
#
# 1 106.0440 11.2245 41.8337 -6.4463 21.5285 -4.8620
# 2 11.2245 109.6493 35.9836 -14.9786 13.3182 -4.4915
# 3 41.8337 35.9836 113.2636 -7.7245 39.5450 1.1895
# 4 -6.4463 -14.9786 -7.7245 26.7188 -0.6280 1.0521
# 5 21.5285 13.3182 39.5450 -0.6280 31.6822 -3.7075
# 6 -4.8620 -4.4915 1.1895 1.0521 -3.7075 34.5306
#
#
#
# Elastic Compliance Matrix: (Units=1/GPa)
#
#
# Indices 1 2 3 4 5 6 
#
# 1 0.011553 0.000617 -0.002770 0.002178 -0.004463 0.001257
# 2 0.000617 0.010950 -0.003004 0.005342 -0.001010 0.001344
# 3 -0.002770 -0.003004 0.017800 0.002477 -0.019439 -0.003557
# 4 0.002178 0.005342 0.002477 0.041559 -0.006112 -0.001006
# 5 -0.004463 -0.001010 -0.019439 -0.006112 0.059927 0.006530
# 6 0.001257 0.001344 -0.003557 -0.001006 0.006530 0.030166
#
#
# Mechanical properties :
#
#
# Convention : Reuss Voigt Hill
#
# Bulk Modulus (GPa) = 33.34415 56.33782 44.84099
# Shear Modulus (GPa) = 26.00569 34.58068 30.29319
#
# Velocity S-wave (km/s) = 3.46541 3.99611 3.74018
# Velocity P-wave (km/s) = 5.60446 6.87807 6.27367
#
# Compressibility (1/GPa) = 0.02999027
#
# Stress axis : x y z
#
# Youngs Moduli (GPa) = 86.55424 91.32325 56.18056
#
# Poissons Ratio (x) = -0.05638 0.15562
# Poissons Ratio (y) = -0.05344 0.16877
# Poissons Ratio (z) = 0.23975 0.27433
#
# Static dielectric constant tensor:
#      x y z
#    x 4.115210 -0.220700 0.258360 
#    y -0.220700 3.978750 -0.238510 
#    z 0.258360 -0.238510 3.860550 
# 
# 
# High freq. dielectric constant tensor:
#      x y z
#    x 1.859590 -0.004330 0.014600 
#    y -0.004330 1.858380 -0.009390 
#    z 0.014600 -0.009390 1.835090 
# 
# From -- ./inp_files/315650.got.cif
#   From: 2010.06.25/outbox.cif.g09.slc.cpg/sg2_158_cif.got.tgz:315650.got - 2010.06.27 13:26:56.
