data_PCOD8010003
_publ_section_title
;
Structure prediction by ZEFSAII (Michael W. Deem and Ramdas Pophale) SiO2 
 PCOD8010003
Probable space group: P -1
;
_chemical_formula_sum "Si O2"
_cell_formula_units_Z 16
_cell_length_a 9.373652
_cell_length_b 15.812623
_cell_length_c 9.029643
_cell_angle_alpha 47.676651
_cell_angle_beta 87.665991
_cell_angle_gamma 116.111028
_cell_volume 765.526332
_symmetry_space_group_name_H-M "P -1"
_symmetry_group_IT_number 2
_symmetry_cell_setting 'triclinic'
loop_
_space_group_symop_operation_xyz
x,y,z
-x,-y,-z
loop_
_atom_site_type_symbol
_atom_site_label
_atom_site_fract_x
_atom_site_fract_y
_atom_site_fract_z
Si Si1 0.757381 0.142835 0.432208
Si Si2 0.814712 0.951916 0.484091
Si Si3 0.050998 0.361257 0.766047
Si Si4 0.288654 0.651162 0.238204
Si Si5 0.901058 0.564369 0.978674
Si Si6 0.410164 0.701961 0.844835
Si Si7 0.395327 0.038458 0.049424
Si Si8 0.919335 0.055954 0.038642
O O1 0.639237 0.193888 0.329064
O O2 0.768259 0.060412 0.392541
O O3 0.659834 0.032246 0.702676
O O4 0.973730 0.278615 0.298561
O O5 0.629929 0.788456 0.731398
O O6 0.000000 0.000000 0.500000
O O7 0.835608 0.950784 0.309109
O O8 0.214273 0.501380 0.500028
O O9 0.089867 0.405665 0.883421
O O10 0.855247 0.316937 0.781155
O O11 0.053237 0.226650 0.887961
O O12 0.326104 0.637316 0.084780
O O13 0.480935 0.785379 0.147432
O O14 0.687508 0.444601 0.081072
O O15 0.000000 0.500000 0.000000
O O16 0.223720 0.965051 0.041052
O O17 0.500000 0.000000 0.000000
O O18 0.000000 0.000000 0.000000
#
# Coordination Sequence:
#
# PCOD8010003 Si02
#       8
#     2   2   2   2   2   2   2   2
#     4  11  22  41  69  98 135 172 226 281 334 399
#     4  12  25  46  68  92 132 179 231 285 328 393
#     4  11  23  42  65 102 144 175 217 286 347 405
#     4  11  23  39  66 105 140 172 220 284 348 403
#     4  10  21  37  64 100 132 171 215 276 343 397
#     4  11  23  40  71 101 131 175 225 279 342 404
#     4  12  25  38  68 105 135 175 231 281 339 406
#     4  12  27  47  68  95 135 186 228 276 345 405
#
# _framework density 20.900652999999998
#
# number of rings (size 3 to 8) (size 9 to 14) (size 15 to 20)
#    0.000    0.750    6.250    1.875    7.000    0.000 
#    0.000    1.250    0.000    0.000    0.000    0.000 
#    0.000    0.000    0.000    0.000    0.000    0.000 
#
# Total GULP energy -198264.957329 kJ/mol
# GULP energy per Si atom -12391.559833 kJ/mol
# Density = 2.085308 g / cm^3
# Si number density = 20.900653 Si / 1000 Ang^3
#
#
#
# Elastic Constant Matrix: (Units=GPa)
#
#
# Indices 1 2 3 4 5 6 
#
# 1 72.5296 38.9844 33.5632 2.1080 -17.4186 -2.6722
# 2 38.9844 153.2448 56.6902 -2.4736 -14.3128 -10.1303
# 3 33.5632 56.6902 146.6410 -1.4490 -27.3184 -8.2276
# 4 2.1080 -2.4736 -1.4490 44.5152 6.1181 -10.6782
# 5 -17.4186 -14.3128 -27.3184 6.1181 24.8604 -4.6901
# 6 -2.6722 -10.1303 -8.2276 -10.6782 -4.6901 30.0620
#
#
#
# Elastic Compliance Matrix: (Units=1/GPa)
#
#
# Indices 1 2 3 4 5 6 
#
# 1 0.018775 -0.003375 -0.000896 -0.002339 0.011025 0.001176
# 2 -0.003375 0.008423 -0.002326 0.001092 0.000095 0.002304
# 3 -0.000896 -0.002326 0.009887 -0.000308 0.009582 0.003228
# 4 -0.002339 0.001092 -0.000308 0.025416 -0.006064 0.008158
# 5 0.011025 0.000095 0.009582 -0.006064 0.062134 0.011174
# 6 0.001176 0.002304 0.003228 0.008158 0.011174 0.039670
#
#
# Mechanical properties :
#
#
# Convention : Reuss Voigt Hill
#
# Bulk Modulus (GPa) = 41.85642 70.09899 55.97771
# Shear Modulus (GPa) = 26.95945 36.09935 31.52940
#
# Velocity S-wave (km/s) = 3.59539 4.16045 3.88820
# Velocity P-wave (km/s) = 6.10784 7.52935 6.85554
#
# Compressibility (1/GPa) = 0.02389119
#
# Stress axis : x y z
#
# Youngs Moduli (GPa) = 53.26184 118.71571 101.14391
#
# Poissons Ratio (x) = 0.40070 0.09059
# Poissons Ratio (y) = 0.17977 0.23528
# Poissons Ratio (z) = 0.04771 0.27616
#
# Static dielectric constant tensor:
#      x y z
#    x 3.519940 0.139390 -0.223570 
#    y 0.139390 4.373940 -0.258860 
#    z -0.223570 -0.258860 4.062850 
# 
# 
# High freq. dielectric constant tensor:
#      x y z
#    x 1.785840 0.006410 -0.018120 
#    y 0.006410 1.839820 -0.001190 
#    z -0.018120 -0.001190 1.830990 
# 
# From -- ./inp_files/205611.got.cif
#   From: 2010.06.25/outbox.cif.g09.slc.cpg/sg2_103_cif.got.tgz:205611.got - 2010.06.27 13:26:56.
