data_PCOD8010162
_publ_section_title
;
Structure prediction by ZEFSAII (Michael W. Deem and Ramdas Pophale) SiO2 
 PCOD8010162
Probable space group: P -1
;
_chemical_formula_sum "Si O2"
_cell_formula_units_Z 14
_cell_length_a 11.380762
_cell_length_b 17.667608
_cell_length_c 8.808767
_cell_angle_alpha 46.647348
_cell_angle_beta 131.562451
_cell_angle_gamma 147.343670
_cell_volume 678.264081
_symmetry_space_group_name_H-M "P -1"
_symmetry_group_IT_number 2
_symmetry_cell_setting 'triclinic'
loop_
_space_group_symop_operation_xyz
x,y,z
-x,-y,-z
loop_
_atom_site_type_symbol
_atom_site_label
_atom_site_fract_x
_atom_site_fract_y
_atom_site_fract_z
Si Si1 0.070941 0.102857 0.057142
Si Si2 0.685087 0.834788 0.525532
Si Si3 0.180402 0.554845 0.452505
Si Si4 0.802856 0.243501 0.000002
Si Si5 0.323221 0.000095 0.960249
Si Si6 0.706230 0.615867 0.314378
Si Si7 0.218666 0.317729 0.369661
O O1 0.185515 0.091570 0.306020
O O2 0.237872 0.273839 0.918102
O O3 0.835624 0.038184 0.992061
O O4 0.000000 0.000000 0.000000
O O5 0.429937 0.686517 0.549634
O O6 0.703621 0.950019 0.290114
O O7 0.808547 0.804743 0.570970
O O8 0.141738 0.611996 0.196838
O O9 0.158253 0.426411 0.548802
O O10 0.000000 0.500000 0.500000
O O11 0.575843 0.132519 0.059133
O O12 0.012829 0.296540 0.193264
O O13 0.740531 0.149230 0.924299
O O14 0.441175 0.475786 0.278017
O O15 0.773616 0.695376 0.425398
#
# Coordination Sequence:
#
# PCOD8010162 Si02
#       7
#     2   2   2   2   2   2   2
#     4  12  24  38  63  93 122 155 201 252 296 357
#     4  10  22  39  66  87 117 165 200 243 301 354
#     4  10  22  39  60  91 125 153 199 249 301 357
#     4  10  21  37  67  84 119 165 196 243 299 355
#     4  10  21  40  60  92 120 158 205 238 298 365
#     4  10  24  40  62  93 121 154 204 252 292 352
#     4  10  21  42  66  87 119 158 207 245 297 355
#
# _framework density 20.640927999999999
#
# number of rings (size 3 to 8) (size 9 to 14) (size 15 to 20)
#    0.000    1.714    1.429    2.143    4.000    2.857 
#    2.571    0.714    0.000    0.000    0.000    0.000 
#    0.000    0.000    0.000    0.000    0.000    0.000 
#
# Total GULP energy -173588.633336 kJ/mol
# GULP energy per Si atom -12399.188095 kJ/mol
# Density = 2.059395 g / cm^3
# Si number density = 20.640928 Si / 1000 Ang^3
#
#
#
# Elastic Constant Matrix: (Units=GPa)
#
#
# Indices 1 2 3 4 5 6 
#
# 1 104.4547 32.1385 28.6567 3.7312 -7.8895 19.0598
# 2 32.1385 56.2612 30.1904 6.4232 -0.3877 4.6429
# 3 28.6567 30.1904 78.8628 5.9943 11.8332 2.5624
# 4 3.7312 6.4232 5.9943 35.7534 2.2220 5.6295
# 5 -7.8895 -0.3877 11.8332 2.2220 30.6895 3.2009
# 6 19.0598 4.6429 2.5624 5.6295 3.2009 44.5839
#
#
#
# Elastic Compliance Matrix: (Units=1/GPa)
#
#
# Indices 1 2 3 4 5 6 
#
# 1 0.013604 -0.005470 -0.003520 0.000691 0.005310 -0.005513
# 2 -0.005470 0.025428 -0.007858 -0.002867 0.002116 0.000352
# 3 -0.003520 -0.007858 0.018208 -0.001082 -0.008155 0.001999
# 4 0.000691 -0.002867 -0.001082 0.029225 -0.001188 -0.003539
# 5 0.005310 0.002116 -0.008155 -0.001188 0.037684 -0.004577
# 6 -0.005513 0.000352 0.001999 -0.003539 -0.004577 0.025410
#
#
# Mechanical properties :
#
#
# Convention : Reuss Voigt Hill
#
# Bulk Modulus (GPa) = 42.47009 46.83887 44.65448
# Shear Modulus (GPa) = 26.16380 32.11159 29.13769
#
# Velocity S-wave (km/s) = 3.56416 3.94855 3.76126
# Velocity P-wave (km/s) = 6.12845 6.59769 6.36740
#
# Compressibility (1/GPa) = 0.02354598
#
# Stress axis : x y z
#
# Youngs Moduli (GPa) = 73.50553 39.32614 54.92025
#
# Poissons Ratio (x) = 0.21512 0.19330
# Poissons Ratio (y) = 0.40208 0.43155
# Poissons Ratio (z) = 0.25871 0.30902
#
# Static dielectric constant tensor:
#      x y z
#    x 4.008190 0.236250 0.258350 
#    y 0.236250 3.839700 -0.119370 
#    z 0.258350 -0.119370 3.650150 
# 
# 
# High freq. dielectric constant tensor:
#      x y z
#    x 1.814710 0.015670 0.016210 
#    y 0.015670 1.815280 -0.010870 
#    z 0.016210 -0.010870 1.794960 
# 
# From -- ./inp_files/156879.got.cif
#   From: 2010.06.25/outbox.cif.g09.slc.cpg/sg2_79_cif.got.tgz:156879.got - 2010.06.27 13:26:56.
