data_PCOD8010256
_publ_section_title
;
Structure prediction by ZEFSAII (Michael W. Deem and Ramdas Pophale) SiO2 
 PCOD8010256
Probable space group: P -1
;
_chemical_formula_sum "Si O2"
_cell_formula_units_Z 16
_cell_length_a 20.958682
_cell_length_b 12.125883
_cell_length_c 5.134067
_cell_angle_alpha 81.763301
_cell_angle_beta 78.554041
_cell_angle_gamma 138.555140
_cell_volume 755.857734
_symmetry_space_group_name_H-M "P -1"
_symmetry_group_IT_number 2
_symmetry_cell_setting 'triclinic'
loop_
_space_group_symop_operation_xyz
x,y,z
-x,-y,-z
loop_
_atom_site_type_symbol
_atom_site_label
_atom_site_fract_x
_atom_site_fract_y
_atom_site_fract_z
Si Si1 0.153011 0.006218 0.315859
Si Si2 0.118768 0.467278 0.779785
Si Si3 0.617824 0.603635 0.900171
Si Si4 0.983739 0.592652 0.624086
Si Si5 0.452570 0.560823 0.487917
Si Si6 0.365097 0.843320 0.397371
Si Si7 0.552683 0.930330 0.234248
Si Si8 0.955317 0.056691 0.091627
O O1 0.284166 0.176383 0.186789
O O2 0.110840 0.038571 0.550924
O O3 0.100991 0.814262 0.487462
O O4 0.122550 0.000911 0.050746
O O5 0.090943 0.442827 0.506578
O O6 0.247515 0.636704 0.639616
O O7 0.073972 0.499020 0.013575
O O8 0.063046 0.277436 0.984205
O O9 0.636685 0.562760 0.630334
O O10 0.500000 0.500000 0.000000
O O11 0.610985 0.502038 0.170506
O O12 0.000000 0.500000 0.500000
O O13 0.500000 0.500000 0.500000
O O14 0.540707 0.779249 0.289216
O O15 0.437828 0.833040 0.303427
O O16 0.406134 0.979736 0.546125
O O17 0.363178 0.914906 0.110762
O O18 0.000000 0.000000 0.000000
#
# Coordination Sequence:
#
# PCOD8010256 Si02
#       8
#     2   2   2   2   2   2   2   2
#     4  10  21  38  60  84 125 154 192 255 294 362
#     4  10  21  38  59  89 118 150 204 253 290 370
#     4  10  21  38  57  85 121 157 202 239 299 364
#     4  10  21  40  59  85 118 153 198 248 307 355
#     4  10  21  39  58  83 123 158 205 249 296 359
#     4  10  21  38  60  89 119 159 209 247 307 356
#     4  10  21  39  60  85 124 163 201 254 300 367
#     4  10  21  38  61  90 120 154 198 243 311 362
#
# _framework density 21.168005999999998
#
# number of rings (size 3 to 8) (size 9 to 14) (size 15 to 20)
#    0.000    2.000    0.000    3.000    0.000    2.000 
#   13.500    0.000    0.000    0.000    0.000    0.000 
#    0.000    0.000    0.000    0.000    0.000    0.000 
#
# Total GULP energy -198266.481401 kJ/mol
# GULP energy per Si atom -12391.655088 kJ/mol
# Density = 2.111983 g / cm^3
# Si number density = 21.168006 Si / 1000 Ang^3
#
#
#
# Elastic Constant Matrix: (Units=GPa)
#
#
# Indices 1 2 3 4 5 6 
#
# 1 53.5831 40.4561 18.9116 -13.6940 -6.0570 -10.4731
# 2 40.4561 120.6030 47.0084 -5.0699 -9.6193 2.5880
# 3 18.9116 47.0084 127.9985 11.8313 4.8943 8.4498
# 4 -13.6940 -5.0699 11.8313 47.9705 8.2908 -5.2802
# 5 -6.0570 -9.6193 4.8943 8.2908 26.1892 -2.1970
# 6 -10.4731 2.5880 8.4498 -5.2802 -2.1970 33.2634
#
#
#
# Elastic Compliance Matrix: (Units=1/GPa)
#
#
# Indices 1 2 3 4 5 6 
#
# 1 0.032294 -0.009193 -0.003321 0.010095 0.002650 0.013504
# 2 -0.009193 0.012888 -0.003171 -0.001405 0.003386 -0.003091
# 3 -0.003321 -0.003171 0.010205 -0.003741 -0.003007 -0.004184
# 4 0.010095 -0.001405 -0.003741 0.026276 -0.005123 0.008071
# 5 0.002650 0.003386 -0.003007 -0.005123 0.042503 0.003329
# 6 0.013504 -0.003091 -0.004184 0.008071 0.003329 0.037119
#
#
# Mechanical properties :
#
#
# Convention : Reuss Voigt Hill
#
# Bulk Modulus (GPa) = 41.63480 57.21518 49.42499
# Shear Modulus (GPa) = 24.91759 34.53855 29.72807
#
# Velocity S-wave (km/s) = 3.43466 4.04374 3.75158
# Velocity P-wave (km/s) = 5.95320 6.99215 6.49349
#
# Compressibility (1/GPa) = 0.02401837
#
# Stress axis : x y z
#
# Youngs Moduli (GPa) = 30.96513 77.58870 97.99373
#
# Poissons Ratio (x) = 0.71324 0.32547
# Poissons Ratio (y) = 0.28465 0.31071
# Poissons Ratio (z) = 0.10285 0.24601
#
# Static dielectric constant tensor:
#      x y z
#    x 2.954120 -2.075820 -3.078100 
#    y -2.075820 -7.221590 -16.351170 
#    z -3.078100 -16.351170 -20.433280 
# 
# 
# High freq. dielectric constant tensor:
#      x y z
#    x 1.785180 0.004790 0.009130 
#    y 0.004790 1.844960 0.017220 
#    z 0.009130 0.017220 1.853320 
# 
# From -- ./inp_files/118654.got.cif
#   From: 2010.06.25/outbox.cif.g09.slc.cpg/sg2_60_cif.got.tgz:118654.got - 2010.06.27 13:26:56.
