data_PCOD8010552
_publ_section_title
;
Structure prediction by ZEFSAII (Michael W. Deem and Ramdas Pophale) SiO2 
 PCOD8010552
Probable space group: P -1
;
_chemical_formula_sum "Si O2"
_cell_formula_units_Z 14
_cell_length_a 12.556641
_cell_length_b 10.794509
_cell_length_c 9.254119
_cell_angle_alpha 82.521825
_cell_angle_beta 142.029808
_cell_angle_gamma 79.003450
_cell_volume 670.882214
_symmetry_space_group_name_H-M "P -1"
_symmetry_group_IT_number 2
_symmetry_cell_setting 'triclinic'
loop_
_space_group_symop_operation_xyz
x,y,z
-x,-y,-z
loop_
_atom_site_type_symbol
_atom_site_label
_atom_site_fract_x
_atom_site_fract_y
_atom_site_fract_z
Si Si1 0.619306 0.481928 0.273996
Si Si2 0.008367 0.348663 0.559200
Si Si3 0.670443 0.813124 0.855701
Si Si4 0.082355 0.743021 0.827869
Si Si5 0.619037 0.562591 0.731602
Si Si6 0.690874 0.906265 0.563451
Si Si7 0.526732 0.270019 0.730162
O O1 0.540143 0.417001 0.320869
O O2 0.586783 0.638266 0.263744
O O3 0.846680 0.375053 0.504527
O O4 0.500000 0.500000 0.000000
O O5 0.000000 0.500000 0.500000
O O6 0.970518 0.282801 0.385202
O O7 0.209407 0.224157 0.860572
O O8 0.703777 0.666767 0.847183
O O9 0.743222 0.881099 0.794168
O O10 0.442110 0.924591 0.631798
O O11 0.887132 0.850386 0.688069
O O12 0.189178 0.592236 0.046973
O O13 0.235581 0.807810 0.976527
O O14 0.515387 0.609643 0.457106
O O15 0.551935 0.838235 0.376755
#
# Coordination Sequence:
#
# PCOD8010552 Si02
#       7
#     2   2   2   2   2   2   2
#     4  11  19  35  58  91 123 150 194 258 301 348
#     4  12  22  37  61  92 121 157 203 249 304 361
#     4  10  23  43  60  90 120 161 208 241 306 362
#     4  11  21  39  62  92 119 160 203 250 309 352
#     4  10  21  38  61  91 121 155 204 256 294 359
#     4  10  24  43  63  85 128 164 198 253 296 367
#     4  10  22  38  61  93 123 155 205 250 302 359
#
# _framework density 20.868043
#
# number of rings (size 3 to 8) (size 9 to 14) (size 15 to 20)
#    0.000    1.429    4.286    2.571    4.000    1.714 
#    2.571    2.857    0.000    0.000    0.000    0.000 
#    0.000    0.000    0.000    0.000    0.000    0.000 
#
# Total GULP energy -173541.240595 kJ/mol
# GULP energy per Si atom -12395.802900 kJ/mol
# Density = 2.082055 g / cm^3
# Si number density = 20.868043 Si / 1000 Ang^3
#
#
#
# Elastic Constant Matrix: (Units=GPa)
#
#
# Indices 1 2 3 4 5 6 
#
# 1 85.7146 1.1352 35.2727 -5.9758 13.4535 -28.2197
# 2 1.1352 37.5444 24.7201 -2.3592 -1.9327 -14.3954
# 3 35.2727 24.7201 133.8521 2.9191 -3.8237 -12.0508
# 4 -5.9758 -2.3592 2.9191 33.0557 -14.9168 0.4791
# 5 13.4535 -1.9327 -3.8237 -14.9168 37.3521 -4.7500
# 6 -28.2197 -14.3954 -12.0508 0.4791 -4.7500 32.4154
#
#
#
# Elastic Compliance Matrix: (Units=1/GPa)
#
#
# Indices 1 2 3 4 5 6 
#
# 1 0.021906 0.011570 -0.006175 0.003256 -0.003916 0.021291
# 2 0.011570 0.042600 -0.008620 0.006991 0.003274 0.026162
# 3 -0.006175 -0.008620 0.010310 -0.001932 0.001409 -0.005136
# 4 0.003256 0.006991 -0.001932 0.038241 0.015137 0.006874
# 5 -0.003916 0.003274 0.001409 0.015137 0.034983 0.003471
# 6 0.021291 0.026162 -0.005136 0.006874 0.003471 0.059501
#
#
# Mechanical properties :
#
#
# Convention : Reuss Voigt Hill
#
# Bulk Modulus (GPa) = 14.62729 42.15189 28.38959
# Shear Modulus (GPa) = 21.11666 33.63018 27.37342
#
# Velocity S-wave (km/s) = 3.18451 4.01878 3.62572
# Velocity P-wave (km/s) = 4.53278 6.46353 5.58227
#
# Compressibility (1/GPa) = 0.06836535
#
# Stress axis : x y z
#
# Youngs Moduli (GPa) = 45.65007 23.47418 96.99137
#
# Poissons Ratio (x) = -0.27160 0.59896
# Poissons Ratio (y) = -0.52817 0.83606
# Poissons Ratio (z) = 0.28191 0.20235
#
# Static dielectric constant tensor:
#      x y z
#    x 2.729150 0.067600 -0.062740 
#    y 0.067600 3.717350 0.133520 
#    z -0.062740 0.133520 4.017580 
# 
# 
# High freq. dielectric constant tensor:
#      x y z
#    x 1.811210 -0.016820 -0.003380 
#    y -0.016820 1.810770 0.015970 
#    z -0.003380 0.015970 1.824940 
# 
# From -- ./inp_files/150850.got.cif
#   From: 2010.06.25/outbox.cif.g09.slc.cpg/sg2_76_cif.got.tgz:150850.got - 2010.06.27 13:26:56.
