data_PCOD8010076
_publ_section_title
;
Structure prediction by ZEFSAII (Michael W. Deem and Ramdas Pophale) SiO2 
 PCOD8010076
Probable space group: P -1
;
_chemical_formula_sum "Si O2"
_cell_formula_units_Z 14
_cell_length_a 10.295338
_cell_length_b 23.292967
_cell_length_c 7.698080
_cell_angle_alpha 139.402356
_cell_angle_beta 42.343450
_cell_angle_gamma 149.060464
_cell_volume 595.957986
_symmetry_space_group_name_H-M "P -1"
_symmetry_group_IT_number 2
_symmetry_cell_setting 'triclinic'
loop_
_space_group_symop_operation_xyz
x,y,z
-x,-y,-z
loop_
_atom_site_type_symbol
_atom_site_label
_atom_site_fract_x
_atom_site_fract_y
_atom_site_fract_z
Si Si1 0.335788 0.626615 0.840802
Si Si2 0.866139 0.390833 0.618361
Si Si3 0.149567 0.967848 0.186166
Si Si4 0.563151 0.455264 0.995075
Si Si5 0.171913 0.261193 0.210603
Si Si6 0.045554 0.698461 0.210561
Si Si7 0.266019 0.826859 0.949604
O O1 0.638106 0.692551 0.702442
O O2 0.175407 0.500041 0.606976
O O3 0.272257 0.625227 0.102201
O O4 0.279944 0.700194 0.965550
O O5 0.728985 0.418863 0.683252
O O6 0.823372 0.278943 0.335287
O O7 0.203286 0.901648 0.104067
O O8 0.000000 0.000000 0.500000
O O9 0.956042 0.873314 0.010399
O O10 0.426139 0.088427 0.117360
O O11 0.500000 0.500000 0.000000
O O12 0.299657 0.345471 0.106655
O O13 0.760475 0.564907 0.183025
O O14 0.941761 0.251193 0.496879
O O15 0.093541 0.775987 0.177484
#
# Coordination Sequence:
#
# PCOD8010076 Si02
#       7
#     2   2   2   2   2   2   2
#     4   9  20  38  63  94 129 164 204 256 320 381
#     4   9  19  40  64  91 130 169 206 261 319 374
#     4  11  25  46  70  91 120 169 221 272 318 369
#     4  10  21  37  65 100 132 168 213 261 315 380
#     4  11  23  41  65  93 131 169 211 262 318 383
#     4  11  24  39  62  97 132 169 204 257 326 385
#     4  11  25  44  66  94 129 167 218 266 315 383
#
# _framework density 23.491589000000001
#
# number of rings (size 3 to 8) (size 9 to 14) (size 15 to 20)
#    0.000    1.714    0.000    4.714    0.000    8.571 
#    0.000    2.857    0.000    0.000    0.000    0.000 
#    0.000    0.000    0.000    0.000    0.000    0.000 
#
# Total GULP energy -173483.450325 kJ/mol
# GULP energy per Si atom -12391.675023 kJ/mol
# Density = 2.343812 g / cm^3
# Si number density = 23.491589 Si / 1000 Ang^3
#
#
#
# Elastic Constant Matrix: (Units=GPa)
#
#
# Indices 1 2 3 4 5 6 
#
# 1 89.6957 31.6795 30.3676 10.2840 -4.1733 4.3963
# 2 31.6795 106.7808 68.2130 9.5073 19.8131 20.0294
# 3 30.3676 68.2130 155.6920 14.8157 3.4288 3.0160
# 4 10.2840 9.5073 14.8157 30.2279 -0.7074 2.9238
# 5 -4.1733 19.8131 3.4288 -0.7074 27.9293 -4.9936
# 6 4.3963 20.0294 3.0160 2.9238 -4.9936 28.5495
#
#
#
# Elastic Compliance Matrix: (Units=1/GPa)
#
#
# Indices 1 2 3 4 5 6 
#
# 1 0.013618 -0.005429 -0.000196 -0.002985 0.006399 0.003157
# 2 -0.005429 0.023377 -0.008391 -0.000101 -0.019602 -0.018096
# 3 -0.000196 -0.008391 0.010153 -0.002729 0.005702 0.006121
# 4 -0.002985 -0.000101 -0.002729 0.035744 0.000370 -0.002777
# 5 0.006399 -0.019602 0.005702 0.000370 0.053828 0.021542
# 6 0.003157 -0.018096 0.006121 -0.002777 0.021542 0.050642
#
#
# Mechanical properties :
#
#
# Convention : Reuss Voigt Hill
#
# Bulk Modulus (GPa) = 52.31217 68.07652 60.19435
# Shear Modulus (GPa) = 22.54644 32.13525 27.34085
#
# Velocity S-wave (km/s) = 3.10137 3.70259 3.41524
# Velocity P-wave (km/s) = 5.92802 6.87902 6.42115
#
# Compressibility (1/GPa) = 0.01911601
#
# Stress axis : x y z
#
# Youngs Moduli (GPa) = 73.43384 42.77786 98.49276
#
# Poissons Ratio (x) = 0.23224 0.01926
# Poissons Ratio (y) = 0.39867 0.82647
# Poissons Ratio (z) = 0.01436 0.35896
#
# Static dielectric constant tensor:
#      x y z
#    x 4.755390 0.350460 -0.356070 
#    y 0.350460 4.244180 0.190360 
#    z -0.356070 0.190360 4.339230 
# 
# 
# High freq. dielectric constant tensor:
#      x y z
#    x 1.941230 0.010580 -0.013820 
#    y 0.010580 1.907330 -0.001610 
#    z -0.013820 -0.001610 1.937990 
# 
# From -- ./inp_files/285232.got.cif
#   From: 2010.06.25/outbox.cif.g09.slc.cpg/sg2_143_cif.got.tgz:285232.got - 2010.06.27 13:26:56.
