data_PCOD8010489
_publ_section_title
;
Structure prediction by ZEFSAII (Michael W. Deem and Ramdas Pophale) SiO2 
 PCOD8010489
Probable space group: P -1
;
_chemical_formula_sum "Si O2"
_cell_formula_units_Z 14
_cell_length_a 5.008271
_cell_length_b 11.875829
_cell_length_c 14.214206
_cell_angle_alpha 62.395365
_cell_angle_beta 77.540682
_cell_angle_gamma 58.107631
_cell_volume 635.615480
_symmetry_space_group_name_H-M "P -1"
_symmetry_group_IT_number 2
_symmetry_cell_setting 'triclinic'
loop_
_space_group_symop_operation_xyz
x,y,z
-x,-y,-z
loop_
_atom_site_type_symbol
_atom_site_label
_atom_site_fract_x
_atom_site_fract_y
_atom_site_fract_z
Si Si1 0.029773 0.318249 0.992664
Si Si2 0.538958 0.156654 0.525091
Si Si3 0.729810 0.166645 0.956246
Si Si4 0.385545 0.613043 0.263479
Si Si5 0.084365 0.177305 0.394806
Si Si6 0.805619 0.613732 0.389851
Si Si7 0.906277 0.414524 0.171887
O O1 0.897468 0.350432 0.096037
O O2 0.397517 0.191133 0.011789
O O3 0.972427 0.468600 0.890571
O O4 0.823240 0.263575 0.976015
O O5 0.236603 0.187241 0.476460
O O6 0.429006 0.231205 0.605847
O O7 0.724070 0.224698 0.428348
O O8 0.753502 0.985677 0.596084
O O9 0.677871 0.228304 0.829505
O O10 0.000000 0.000000 0.000000
O O11 0.598183 0.565653 0.360509
O O12 0.560728 0.494622 0.213766
O O13 0.049947 0.625970 0.298268
O O14 0.124397 0.279346 0.275823
O O15 0.000000 0.500000 0.500000
#
# Coordination Sequence:
#
# PCOD8010489 Si02
#       7
#     2   2   2   2   2   2   2
#     4  10  24  40  65  93 120 159 207 256 300 374
#     4  10  22  38  56  88 119 156 207 244 302 366
#     4  11  24  44  64  91 128 162 201 255 313 364
#     4  11  24  38  61  89 119 160 202 247 299 366
#     4  10  21  38  61  83 120 159 195 257 302 355
#     4  12  23  39  61  88 123 160 201 251 301 358
#     4  10  22  41  63  91 122 158 208 251 309 357
#
# _framework density 22.025897000000001
#
# number of rings (size 3 to 8) (size 9 to 14) (size 15 to 20)
#    0.000    1.429    0.000    5.143    0.000   12.000 
#    0.000    0.000    0.000    0.000    0.000    0.000 
#    0.000    0.000    0.000    0.000    0.000    0.000 
#
# Total GULP energy -173625.971175 kJ/mol
# GULP energy per Si atom -12401.855084 kJ/mol
# Density = 2.197576 g / cm^3
# Si number density = 22.025897 Si / 1000 Ang^3
#
#
#
# Elastic Constant Matrix: (Units=GPa)
#
#
# Indices 1 2 3 4 5 6 
#
# 1 80.8283 16.1636 1.1682 11.1570 3.8255 -4.3775
# 2 16.1636 99.4252 49.5562 14.4168 0.4045 -10.9748
# 3 1.1682 49.5562 99.3043 0.2376 -0.7763 -13.8828
# 4 11.1570 14.4168 0.2376 39.2441 -5.4236 1.6522
# 5 3.8255 0.4045 -0.7763 -5.4236 26.5833 3.0580
# 6 -4.3775 -10.9748 -13.8828 1.6522 3.0580 28.6953
#
#
#
# Elastic Compliance Matrix: (Units=1/GPa)
#
#
# Indices 1 2 3 4 5 6 
#
# 1 0.013515 -0.001965 0.001140 -0.003628 -0.002895 0.002379
# 2 -0.001965 0.014940 -0.007090 -0.005196 -0.001493 0.002442
# 3 0.001140 -0.007090 0.014175 0.002060 0.000298 0.004170
# 4 -0.003628 -0.005196 0.002060 0.029567 0.007155 -0.004009
# 5 -0.002895 -0.001493 0.000298 0.007155 0.040165 -0.005560
# 6 0.002379 0.002442 0.004170 -0.004009 -0.005560 0.038987
#
#
# Mechanical properties :
#
#
# Convention : Reuss Voigt Hill
#
# Bulk Modulus (GPa) = 37.31295 45.92598 41.61946
# Shear Modulus (GPa) = 28.39080 33.08251 30.73666
#
# Velocity S-wave (km/s) = 3.59412 3.87975 3.73966
# Velocity P-wave (km/s) = 5.84815 6.40047 6.13054
#
# Compressibility (1/GPa) = 0.02680034
#
# Stress axis : x y z
#
# Youngs Moduli (GPa) = 73.99174 66.93239 70.54480
#
# Poissons Ratio (x) = 0.13153 -0.08044
# Poissons Ratio (y) = 0.14540 0.50020
# Poissons Ratio (z) = -0.08438 0.47458
#
# Static dielectric constant tensor:
#      x y z
#    x 3.891080 -0.143190 -0.042460 
#    y -0.143190 4.202460 0.036040 
#    z -0.042460 0.036040 4.126910 
# 
# 
# High freq. dielectric constant tensor:
#      x y z
#    x 1.869430 -0.006580 0.000500 
#    y -0.006580 1.872960 0.004300 
#    z 0.000500 0.004300 1.865050 
# 
# From -- ./inp_files/482075.got.cif
#   From: 2010.06.25/outbox.cif.g09.slc.cpg/sg2_242_cif.got.tgz:482075.got - 2010.06.27 13:26:56.
