data_PCOD8010465
_publ_section_title
;
Structure prediction by ZEFSAII (Michael W. Deem and Ramdas Pophale) SiO2 
 PCOD8010465
Probable space group: P -1
;
_chemical_formula_sum "Si O2"
_cell_formula_units_Z 14
_cell_length_a 10.011587
_cell_length_b 21.376955
_cell_length_c 14.010926
_cell_angle_alpha 157.394976
_cell_angle_beta 45.371665
_cell_angle_gamma 141.747815
_cell_volume 710.406606
_symmetry_space_group_name_H-M "P -1"
_symmetry_group_IT_number 2
_symmetry_cell_setting 'triclinic'
loop_
_space_group_symop_operation_xyz
x,y,z
-x,-y,-z
loop_
_atom_site_type_symbol
_atom_site_label
_atom_site_fract_x
_atom_site_fract_y
_atom_site_fract_z
Si Si1 0.982447 0.920125 0.684437
Si Si2 0.488885 0.359161 0.388839
Si Si3 0.132968 0.976057 0.482297
Si Si4 0.660299 0.687545 0.896464
Si Si5 0.507552 0.366620 0.888583
Si Si6 0.936544 0.397274 0.785062
Si Si7 0.672811 0.281983 0.024243
O O1 0.741711 0.792992 0.666598
O O2 0.979529 0.940028 0.599911
O O3 0.128818 0.821106 0.486370
O O4 0.099605 0.127240 0.966170
O O5 0.500000 0.500000 0.500000
O O6 0.646827 0.504029 0.594439
O O7 0.577315 0.235693 0.115524
O O8 0.370205 0.154901 0.623571
O O9 0.181906 0.809980 0.203140
O O10 0.000000 0.000000 0.500000
O O11 0.504722 0.755075 0.020387
O O12 0.591180 0.616115 0.937904
O O13 0.752886 0.419943 0.856795
O O14 0.500000 0.500000 0.000000
O O15 0.154669 0.495104 0.749960
O O16 0.000000 0.500000 0.000000
#
# Coordination Sequence:
#
# PCOD8010465 Si02
#       7
#     2   2   2   2   2   2   2
#     4  11  21  38  64  89 124 159 208 257 305 364
#     4  10  21  38  60  93 123 165 197 256 309 364
#     4  11  24  39  62  89 123 164 209 259 309 364
#     4  10  21  38  61  91 124 159 207 252 305 368
#     4  11  23  37  61  93 122 161 210 258 312 363
#     4  12  19  35  64  90 125 162 198 264 311 352
#     4  11  21  37  60  94 122 158 208 250 309 369
#
# _framework density 19.707024000000001
#
# number of rings (size 3 to 8) (size 9 to 14) (size 15 to 20)
#    0.000    1.143    5.714    1.714    2.000    4.571 
#    2.571    0.714    0.000    2.571    0.000    0.000 
#    0.000    0.000    0.000    0.000    0.000    0.000 
#
# Total GULP energy -173449.935147 kJ/mol
# GULP energy per Si atom -12389.281082 kJ/mol
# Density = 1.966217 g / cm^3
# Si number density = 19.707024 Si / 1000 Ang^3
#
#
#
# Elastic Constant Matrix: (Units=GPa)
#
#
# Indices 1 2 3 4 5 6 
#
# 1 109.2320 50.4540 34.6834 -2.3166 15.3784 -9.2851
# 2 50.4540 153.8301 56.0448 6.3039 17.4567 2.6508
# 3 34.6834 56.0448 80.7492 2.0028 27.3406 0.1316
# 4 -2.3166 6.3039 2.0028 26.2700 1.6316 2.2127
# 5 15.3784 17.4567 27.3406 1.6316 25.9757 5.6646
# 6 -9.2851 2.6508 0.1316 2.2127 5.6646 28.4111
#
#
#
# Elastic Compliance Matrix: (Units=1/GPa)
#
#
# Indices 1 2 3 4 5 6 
#
# 1 0.012201 -0.003053 -0.001569 0.001794 -0.004742 0.005085
# 2 -0.003053 0.009570 -0.006083 -0.002067 0.002383 -0.002177
# 3 -0.001569 -0.006083 0.024686 0.000441 -0.021927 0.004278
# 4 0.001794 -0.002067 0.000441 0.038976 -0.002188 -0.001822
# 5 -0.004742 0.002383 -0.021927 -0.002188 0.066122 -0.014684
# 6 0.005085 -0.002177 0.004278 -0.001822 -0.014684 0.040112
#
#
# Mechanical properties :
#
#
# Convention : Reuss Voigt Hill
#
# Bulk Modulus (GPa) = 39.92390 69.57508 54.74949
# Shear Modulus (GPa) = 22.58082 29.63996 26.11039
#
# Velocity S-wave (km/s) = 3.38868 3.88239 3.64391
# Velocity P-wave (km/s) = 5.96771 7.44840 6.74878
#
# Compressibility (1/GPa) = 0.02504765
#
# Stress axis : x y z
#
# Youngs Moduli (GPa) = 81.95922 104.49286 40.50883
#
# Poissons Ratio (x) = 0.31905 0.06354
# Poissons Ratio (y) = 0.25025 0.24641
# Poissons Ratio (z) = 0.12856 0.63561
#
# Static dielectric constant tensor:
#      x y z
#    x 3.421100 -0.108470 0.279360 
#    y -0.108470 4.121310 -0.143920 
#    z 0.279360 -0.143920 4.030350 
# 
# 
# High freq. dielectric constant tensor:
#      x y z
#    x 1.743190 -0.002860 0.020600 
#    y -0.002860 1.784570 0.006790 
#    z 0.020600 0.006790 1.768390 
# 
# From -- ./inp_files/331047.got.cif
#   From: 2010.06.25/outbox.cif.g09.slc.cpg/sg2_166_cif.got.tgz:331047.got - 2010.06.27 13:26:56.
