data_PCOD8010878
_publ_section_title
;
Structure prediction by ZEFSAII (Michael W. Deem and Ramdas Pophale) SiO2 
 PCOD8010878
Probable space group: P -1
;
_chemical_formula_sum "Si O2"
_cell_formula_units_Z 14
_cell_length_a 14.812388
_cell_length_b 14.812887
_cell_length_c 25.793100
_cell_angle_alpha 21.888133
_cell_angle_beta 21.888755
_cell_angle_gamma 20.276533
_cell_volume 654.747966
_symmetry_space_group_name_H-M "P -1"
_symmetry_group_IT_number 2
_symmetry_cell_setting 'triclinic'
loop_
_space_group_symop_operation_xyz
x,y,z
-x,-y,-z
loop_
_atom_site_type_symbol
_atom_site_label
_atom_site_fract_x
_atom_site_fract_y
_atom_site_fract_z
Si Si1 0.573369 0.573949 0.329587
Si Si2 0.606823 0.606746 0.115522
Si Si3 0.136047 0.136483 0.323396
Si Si4 0.302885 0.302834 0.473261
Si Si5 0.648555 0.648413 0.816328
Si Si6 0.746073 0.745863 0.352586
Si Si7 0.216701 0.216597 0.977352
O O1 0.408517 0.409582 0.504662
O O2 0.634004 0.634647 0.207626
O O3 0.886312 0.392392 0.285837
O O4 0.392458 0.886714 0.285664
O O5 0.467639 0.467406 0.296765
O O6 0.746097 0.746079 0.001591
O O7 0.875697 0.365480 0.065455
O O8 0.365338 0.875626 0.065590
O O9 0.259406 0.260701 0.230596
O O10 0.000000 0.000000 0.500000
O O11 0.253853 0.253649 0.585278
O O12 0.000000 0.500000 0.500000
O O13 0.500000 0.000000 0.500000
O O14 0.924320 0.426752 0.751746
O O15 0.426866 0.924702 0.751581
O O16 0.500000 0.500000 0.000000
#
# Coordination Sequence:
#
# PCOD8010878 Si02
#       7
#     2   2   2   2   2   2   2
#     4  12  22  41  69 100 128 169 224 272 333 399
#     4  10  21  40  62  92 128 168 210 271 333 374
#     4  12  23  41  70 100 131 164 224 289 322 396
#     4  12  26  46  68  96 135 180 232 274 318 412
#     4  12  27  48  69  99 141 178 223 282 346 403
#     4  12  24  47  74  93 131 186 227 272 346 403
#     4  10  21  38  64  93 130 163 206 271 336 390
#
# _framework density 21.382273000000001
#
# number of rings (size 3 to 8) (size 9 to 14) (size 15 to 20)
#    0.000    0.571    4.286    4.286    0.000    0.000 
#   15.429    0.000    0.000    0.000    0.000    0.000 
#    0.000    0.000    0.000    0.000    0.000    0.000 
#
# Total GULP energy -173544.824960 kJ/mol
# GULP energy per Si atom -12396.058926 kJ/mol
# Density = 2.133361 g / cm^3
# Si number density = 21.382273 Si / 1000 Ang^3
#
#
#
# Elastic Constant Matrix: (Units=GPa)
#
#
# Indices 1 2 3 4 5 6 
#
# 1 113.4412 67.5070 47.7356 -1.7799 3.9352 -2.2418
# 2 67.5070 232.2077 69.0549 4.9315 12.8691 -19.1914
# 3 47.7356 69.0549 160.4704 3.1740 17.5171 -3.8013
# 4 -1.7799 4.9315 3.1740 38.1288 -0.4846 6.4661
# 5 3.9352 12.8691 17.5171 -0.4846 35.5965 -2.9683
# 6 -2.2418 -19.1914 -3.8013 6.4661 -2.9683 32.4087
#
#
#
# Elastic Compliance Matrix: (Units=1/GPa)
#
#
# Indices 1 2 3 4 5 6 
#
# 1 0.011440 -0.002814 -0.002339 0.001330 0.000810 -0.001341
# 2 -0.002814 0.005925 -0.001517 -0.001347 -0.000825 0.003329
# 3 -0.002339 -0.001517 0.007925 -0.000561 -0.003126 -0.000305
# 4 0.001330 -0.001347 -0.000561 0.027572 0.000472 -0.006229
# 5 0.000810 -0.000825 -0.003126 0.000472 0.030001 0.001854
# 6 -0.001341 0.003329 -0.000305 -0.006229 0.001854 0.034112
#
#
# Mechanical properties :
#
#
# Convention : Reuss Voigt Hill
#
# Bulk Modulus (GPa) = 83.67572 97.19050 90.43311
# Shear Modulus (GPa) = 37.23033 42.68157 39.95595
#
# Velocity S-wave (km/s) = 4.17727 4.47264 4.32748
# Velocity P-wave (km/s) = 7.90470 8.49854 8.20699
#
# Compressibility (1/GPa) = 0.01195090
#
# Stress axis : x y z
#
# Youngs Moduli (GPa) = 87.41043 168.76742 126.17853
#
# Poissons Ratio (x) = 0.47498 0.29507
# Poissons Ratio (y) = 0.24601 0.19142
# Poissons Ratio (z) = 0.20441 0.25603
#
# Static dielectric constant tensor:
#      x y z
#    x 3.737140 -0.138930 0.144540 
#    y -0.138930 4.504200 0.025900 
#    z 0.144540 0.025900 3.810060 
# 
# 
# High freq. dielectric constant tensor:
#      x y z
#    x 1.827390 -0.007400 0.010950 
#    y -0.007400 1.868230 0.001930 
#    z 0.010950 0.001930 1.845540 
# 
# From -- ./inp_files/454744.got.cif
#   From: 2010.06.25/outbox.cif.g09.slc.cpg/sg2_228_cif.got.tgz:454744.got - 2010.06.27 13:26:56.
