data_PCOD8010209
_publ_section_title
;
Structure prediction by ZEFSAII (Michael W. Deem and Ramdas Pophale) SiO2 
 PCOD8010209
Probable space group: P -1
;
_chemical_formula_sum "Si O2"
_cell_formula_units_Z 16
_cell_length_a 11.779418
_cell_length_b 8.999385
_cell_length_c 8.613276
_cell_angle_alpha 105.862113
_cell_angle_beta 102.365234
_cell_angle_gamma 53.197572
_cell_volume 701.755857
_symmetry_space_group_name_H-M "P -1"
_symmetry_group_IT_number 2
_symmetry_cell_setting 'triclinic'
loop_
_space_group_symop_operation_xyz
x,y,z
-x,-y,-z
loop_
_atom_site_type_symbol
_atom_site_label
_atom_site_fract_x
_atom_site_fract_y
_atom_site_fract_z
Si Si1 0.934288 0.369289 0.083645
Si Si2 0.389052 0.900829 0.746614
Si Si3 0.329012 0.276021 0.750754
Si Si4 0.929257 0.411855 0.753773
Si Si5 0.878414 0.966472 0.460586
Si Si6 0.563936 0.281584 0.964025
Si Si7 0.323144 0.257657 0.380881
Si Si8 0.810271 0.960209 0.784940
O O1 0.784571 0.510896 0.163744
O O2 0.027539 0.450906 0.146602
O O3 0.028407 0.168255 0.140218
O O4 0.910335 0.333251 0.887790
O O5 0.516690 0.816928 0.635919
O O6 0.323507 0.123998 0.810499
O O7 0.259493 0.891070 0.646070
O O8 0.450226 0.781880 0.887581
O O9 0.480851 0.239166 0.804853
O O10 0.306421 0.250568 0.557992
O O11 0.781460 0.526684 0.648493
O O12 0.051129 0.248563 0.632947
O O13 0.815613 0.007014 0.623812
O O14 0.000000 0.000000 0.500000
O O15 0.727519 0.152551 0.917985
O O16 0.500000 0.500000 0.000000
O O17 0.276282 0.134254 0.250437
#
# Coordination Sequence:
#
# PCOD8010209 Si02
#       8
#     2   2   2   2   2   2   2   2
#     4  10  21  37  70 100 134 171 230 285 331 398
#     4  12  24  45  72 102 135 184 236 284 338 407
#     4  12  22  42  73 105 136 179 234 286 340 405
#     4  10  21  39  62 103 134 175 222 280 341 397
#     4  12  26  44  68  99 142 184 226 282 351 417
#     4  12  29  46  67 102 145 184 227 284 354 419
#     4  11  22  40  75 105 134 173 236 296 333 400
#     4  11  23  44  70 101 137 180 232 286 346 404
#
# _framework density 22.799952000000001
#
# number of rings (size 3 to 8) (size 9 to 14) (size 15 to 20)
#    0.000    0.750    3.750    3.750    3.500    6.000 
#    0.000    3.750    0.000    0.000    0.000    0.000 
#    0.000    0.000    0.000    0.000    0.000    0.000 
#
# Total GULP energy -198410.358328 kJ/mol
# GULP energy per Si atom -12400.647396 kJ/mol
# Density = 2.274806 g / cm^3
# Si number density = 22.799952 Si / 1000 Ang^3
#
#
#
# Elastic Constant Matrix: (Units=GPa)
#
#
# Indices 1 2 3 4 5 6 
#
# 1 86.4784 27.8967 16.3246 -4.5687 -2.3733 -18.5207
# 2 27.8967 137.1226 54.2623 -10.1325 -9.4754 -20.3018
# 3 16.3246 54.2623 99.9151 -11.9762 -17.6275 2.9831
# 4 -4.5687 -10.1325 -11.9762 33.5646 -16.2878 -0.7611
# 5 -2.3733 -9.4754 -17.6275 -16.2878 37.2715 4.9426
# 6 -18.5207 -20.3018 2.9831 -0.7611 4.9426 34.8603
#
#
#
# Elastic Compliance Matrix: (Units=1/GPa)
#
#
# Indices 1 2 3 4 5 6 
#
# 1 0.013784 -0.000975 -0.002067 0.000482 -0.001078 0.007096
# 2 -0.000975 0.010789 -0.005878 0.000905 -0.000548 0.006366
# 3 -0.002067 -0.005878 0.016897 0.009353 0.011432 -0.007384
# 4 0.000482 0.000905 0.009353 0.045498 0.024906 -0.002555
# 5 -0.001078 -0.000548 0.011432 0.024906 0.043915 -0.007553
# 6 0.007096 0.006366 -0.007384 -0.002555 -0.007553 0.037810
#
#
# Mechanical properties :
#
#
# Convention : Reuss Voigt Hill
#
# Bulk Modulus (GPa) = 42.31885 57.83146 50.07515
# Shear Modulus (GPa) = 25.71913 36.14144 30.93029
#
# Velocity S-wave (km/s) = 3.36227 3.98572 3.68719
# Velocity P-wave (km/s) = 5.80296 6.82650 6.33543
#
# Compressibility (1/GPa) = 0.02363013
#
# Stress axis : x y z
#
# Youngs Moduli (GPa) = 72.54951 92.69022 59.18204
#
# Poissons Ratio (x) = 0.09033 0.12233
# Poissons Ratio (y) = 0.07070 0.34788
# Poissons Ratio (z) = 0.14996 0.54484
#
# Static dielectric constant tensor:
#      x y z
#    x 4.025400 -0.260730 0.068590 
#    y -0.260730 4.300390 -0.176980 
#    z 0.068590 -0.176980 4.224400 
# 
# 
# High freq. dielectric constant tensor:
#      x y z
#    x 1.889060 -0.029370 -0.000470 
#    y -0.029370 1.902690 -0.009620 
#    z -0.000470 -0.009620 1.903040 
# 
# From -- ./inp_files/244634.got.cif
#   From: 2010.06.25/outbox.cif.g09.slc.cpg/sg2_123_cif.got.tgz:244634.got - 2010.06.27 13:26:56.
