data_PCOD8010501
_publ_section_title
;
Structure prediction by ZEFSAII (Michael W. Deem and Ramdas Pophale) SiO2 
 PCOD8010501
Probable space group: P -1
;
_chemical_formula_sum "Si O2"
_cell_formula_units_Z 16
_cell_length_a 14.805772
_cell_length_b 11.572801
_cell_length_c 9.070208
_cell_angle_alpha 141.605379
_cell_angle_beta 107.836789
_cell_angle_gamma 56.402905
_cell_volume 779.232514
_symmetry_space_group_name_H-M "P -1"
_symmetry_group_IT_number 2
_symmetry_cell_setting 'triclinic'
loop_
_space_group_symop_operation_xyz
x,y,z
-x,-y,-z
loop_
_atom_site_type_symbol
_atom_site_label
_atom_site_fract_x
_atom_site_fract_y
_atom_site_fract_z
Si Si1 0.204378 0.066219 0.091112
Si Si2 0.749508 0.408523 0.366102
Si Si3 0.995710 0.199720 0.277886
Si Si4 0.629864 0.833704 0.228613
Si Si5 0.795622 0.933782 0.254297
Si Si6 0.250492 0.591477 0.299548
Si Si7 0.004290 0.800280 0.382737
Si Si8 0.629864 0.833704 0.568659
O O1 0.085485 0.241632 0.284738
O O2 0.303623 0.088730 0.222644
O O3 0.235605 0.821375 0.900615
O O4 0.189299 0.114626 0.959275
O O5 0.705009 0.469396 0.571900
O O6 0.660151 0.594013 0.397366
O O7 0.866871 0.402089 0.403977
O O8 0.030701 0.138359 0.403709
O O9 0.000000 0.000000 0.000000
O O10 0.662554 0.824181 0.405458
O O11 0.696376 0.911271 0.241562
O O12 0.500000 0.000000 0.302586
O O13 0.660151 0.594013 0.950811
O O14 0.764396 0.178625 0.522261
O O15 0.914515 0.758368 0.215989
O O16 0.133129 0.597911 0.232928
O O17 0.000000 0.000000 0.500000
#
# Coordination Sequence:
#
# PCOD8010501 Si02
#       8
#     2   2   2   2   2   2   2   2
#     4  10  21  38  61  87 115 149 188 231 282 337
#     4   9  20  38  60  86 114 148 187 228 279 336
#     4   9  17  32  56  87 119 148 183 226 277 338
#     4  11  25  41  57  81 112 149 194 239 283 334
#     4  10  21  38  61  87 115 149 188 231 282 337
#     4   9  20  38  60  86 114 148 187 228 279 336
#     4   9  17  32  56  87 119 148 183 226 277 338
#     4  11  25  41  57  81 112 149 194 239 283 334
#
# _framework density 20.533024000000001
#
# number of rings (size 3 to 8) (size 9 to 14) (size 15 to 20)
#    0.000    2.250    0.000    3.750    0.000   10.000 
#    0.000    5.000    0.000    0.000    0.000    0.000 
#    0.000    0.000    0.000    0.000    0.000    0.000 
#
# Total GULP energy -198382.672408 kJ/mol
# GULP energy per Si atom -12398.917026 kJ/mol
# Density = 2.048629 g / cm^3
# Si number density = 20.533024 Si / 1000 Ang^3
#
#
#
# Elastic Constant Matrix: (Units=GPa)
#
#
# Indices 1 2 3 4 5 6 
#
# 1 71.1312 21.0486 17.4601 -11.0537 -12.5574 6.0659
# 2 21.0486 106.8418 33.4226 -13.6089 -14.0660 -3.6266
# 3 17.4601 33.4226 74.1920 -12.9612 -18.8486 -4.3422
# 4 -11.0537 -13.6089 -12.9612 28.5540 -2.3042 0.4127
# 5 -12.5574 -14.0660 -18.8486 -2.3042 32.2768 -5.8514
# 6 6.0659 -3.6266 -4.3422 0.4127 -5.8514 25.7975
#
#
#
# Elastic Compliance Matrix: (Units=1/GPa)
#
#
# Indices 1 2 3 4 5 6 
#
# 1 0.016886 -0.001709 -0.001162 0.005642 0.004937 -0.003377
# 2 -0.001709 0.011678 -0.003300 0.003629 0.003144 0.002143
# 3 -0.001162 -0.003300 0.019773 0.007778 0.011220 0.005558
# 4 0.005642 0.003629 0.007778 0.043387 0.011867 0.002490
# 5 0.004937 0.003144 0.011220 0.011867 0.043644 0.010879
# 6 -0.003377 0.002143 0.005558 0.002490 0.010879 0.043222
#
#
# Mechanical properties :
#
#
# Convention : Reuss Voigt Hill
#
# Bulk Modulus (GPa) = 27.78216 44.00305 35.89260
# Shear Modulus (GPa) = 24.63902 29.34122 26.99012
#
# Velocity S-wave (km/s) = 3.46782 3.78428 3.62950
# Velocity P-wave (km/s) = 5.44005 6.36956 5.92307
#
# Compressibility (1/GPa) = 0.03599433
#
# Stress axis : x y z
#
# Youngs Moduli (GPa) = 59.22161 85.63355 50.57399
#
# Poissons Ratio (x) = 0.14637 0.05875
# Poissons Ratio (y) = 0.10122 0.16690
# Poissons Ratio (z) = 0.06879 0.28261
#
# Static dielectric constant tensor:
#      x y z
#    x 3.981890 -0.190700 -0.182810 
#    y -0.190700 3.921420 -0.080600 
#    z -0.182810 -0.080600 3.716070 
# 
# 
# High freq. dielectric constant tensor:
#      x y z
#    x 1.800820 0.001820 -0.004190 
#    y 0.001820 1.805720 -0.007480 
#    z -0.004190 -0.007480 1.802020 
# 
# From -- ./inp_files/285890.got.cif
#   From: 2010.06.25/outbox.cif.g09.slc.cpg/sg2_143_cif.got.tgz:285890.got - 2010.06.27 13:26:56.
