data_PCOD8010985
_publ_section_title
;
Structure prediction by ZEFSAII (Michael W. Deem and Ramdas Pophale) SiO2 
 PCOD8010985
Probable space group: P -1
;
_chemical_formula_sum "Si O2"
_cell_formula_units_Z 16
_cell_length_a 11.172658
_cell_length_b 12.074061
_cell_length_c 7.001960
_cell_angle_alpha 124.031462
_cell_angle_beta 87.663461
_cell_angle_gamma 104.145835
_cell_volume 753.612744
_symmetry_space_group_name_H-M "P -1"
_symmetry_group_IT_number 2
_symmetry_cell_setting 'triclinic'
loop_
_space_group_symop_operation_xyz
x,y,z
-x,-y,-z
loop_
_atom_site_type_symbol
_atom_site_label
_atom_site_fract_x
_atom_site_fract_y
_atom_site_fract_z
Si Si1 0.731447 0.835355 0.272665
Si Si2 0.298793 0.697503 0.992208
Si Si3 0.458679 0.792186 0.721292
Si Si4 0.829075 0.079278 0.774307
Si Si5 0.961306 0.500918 0.284311
Si Si6 0.476339 0.641823 0.205404
Si Si7 0.937461 0.693180 0.156794
Si Si8 0.304018 0.003493 0.933764
O O1 0.585206 0.770444 0.245884
O O2 0.800899 0.713177 0.149589
O O3 0.794542 0.930649 0.535599
O O4 0.749360 0.925843 0.167345
O O5 0.408723 0.720179 0.853604
O O6 0.177599 0.594678 0.813454
O O7 0.272986 0.840676 0.199233
O O8 0.343552 0.637536 0.120571
O O9 0.463797 0.667386 0.456460
O O10 0.597518 0.887506 0.836522
O O11 0.367937 0.884536 0.741288
O O12 0.965143 0.165457 0.781319
O O13 0.817086 0.061254 0.988228
O O14 0.963211 0.651369 0.335243
O O15 0.000000 0.500000 0.500000
O O16 0.056561 0.437111 0.099221
O O17 0.500000 0.500000 0.000000
#
# Coordination Sequence:
#
# PCOD8010985 Si02
#       8
#     2   2   2   2   2   2   2   2
#     4  12  23  39  63  95 133 169 203 266 324 377
#     4  10  22  41  65  95 118 166 219 258 314 383
#     4  10  21  40  62  90 131 165 212 260 306 383
#     4  10  22  40  65  91 128 165 217 266 312 373
#     4  10  23  45  69  89 122 170 215 262 313 376
#     4  12  25  39  60  92 133 171 205 260 325 379
#     4  10  24  42  63  96 127 163 219 259 313 384
#     4  10  21  38  65  94 123 170 214 257 320 370
#
# _framework density 21.231064
#
# number of rings (size 3 to 8) (size 9 to 14) (size 15 to 20)
#    0.000    1.500    2.500    1.875    0.000   10.000 
#    2.250    0.000    0.000    0.000    0.000    0.000 
#    0.000    0.000    0.000    0.000    0.000    0.000 
#
# Total GULP energy -198365.051473 kJ/mol
# GULP energy per Si atom -12397.815717 kJ/mol
# Density = 2.118274 g / cm^3
# Si number density = 21.231064 Si / 1000 Ang^3
#
#
#
# Elastic Constant Matrix: (Units=GPa)
#
#
# Indices 1 2 3 4 5 6 
#
# 1 71.3934 15.5909 21.0293 -8.3777 0.3692 -6.5602
# 2 15.5909 69.9242 13.7735 -9.2173 -4.7750 -0.6430
# 3 21.0293 13.7735 89.8640 2.9448 -4.0098 -12.1401
# 4 -8.3777 -9.2173 2.9448 37.1954 -2.2090 1.3603
# 5 0.3692 -4.7750 -4.0098 -2.2090 22.2737 3.8242
# 6 -6.5602 -0.6430 -12.1401 1.3603 3.8242 37.5474
#
#
#
# Elastic Compliance Matrix: (Units=1/GPa)
#
#
# Indices 1 2 3 4 5 6 
#
# 1 0.016075 -0.002609 -0.003292 0.003088 -0.001409 0.001731
# 2 -0.002609 0.016018 -0.001984 0.003809 0.003728 -0.001341
# 3 -0.003292 -0.001984 0.012800 -0.002309 0.001104 0.003501
# 4 0.003088 0.003809 -0.002309 0.028971 0.003489 -0.001547
# 5 -0.001409 0.003728 0.001104 0.003489 0.047078 -0.004747
# 6 0.001731 -0.001341 0.003501 -0.001547 -0.004747 0.028584
#
#
# Mechanical properties :
#
#
# Convention : Reuss Voigt Hill
#
# Bulk Modulus (GPa) = 34.33729 36.88544 35.61137
# Shear Modulus (GPa) = 28.57063 31.45584 30.01323
#
# Velocity S-wave (km/s) = 3.67236 3.85332 3.76393
# Velocity P-wave (km/s) = 5.84721 6.09988 5.97488
#
# Compressibility (1/GPa) = 0.02912286
#
# Stress axis : x y z
#
# Youngs Moduli (GPa) = 62.20816 62.42919 78.12336
#
# Poissons Ratio (x) = 0.16288 0.25719
# Poissons Ratio (y) = 0.16231 0.15501
# Poissons Ratio (z) = 0.20479 0.12387
#
# Static dielectric constant tensor:
#      x y z
#    x 3.834950 0.038240 -0.154170 
#    y 0.038240 3.953530 -0.040040 
#    z -0.154170 -0.040040 3.668200 
# 
# 
# High freq. dielectric constant tensor:
#      x y z
#    x 1.831370 0.006820 -0.008520 
#    y 0.006820 1.837510 -0.004120 
#    z -0.008520 -0.004120 1.822040 
# 
# From -- ./inp_files/72273.got.cif
#   From: 2010.06.25/outbox.cif.g09.slc.cpg/sg2_37_cif.got.tgz:72273.got - 2010.06.27 13:26:56.
