data_PCOD8010827
_publ_section_title
;
Structure prediction by ZEFSAII (Michael W. Deem and Ramdas Pophale) SiO2 
 PCOD8010827
Probable space group: P -1
;
_chemical_formula_sum "Si O2"
_cell_formula_units_Z 14
_cell_length_a 8.791037
_cell_length_b 11.980446
_cell_length_c 8.852736
_cell_angle_alpha 106.645352
_cell_angle_beta 131.441109
_cell_angle_gamma 73.918716
_cell_volume 664.675318
_symmetry_space_group_name_H-M "P -1"
_symmetry_group_IT_number 2
_symmetry_cell_setting 'triclinic'
loop_
_space_group_symop_operation_xyz
x,y,z
-x,-y,-z
loop_
_atom_site_type_symbol
_atom_site_label
_atom_site_fract_x
_atom_site_fract_y
_atom_site_fract_z
Si Si1 0.729053 0.628180 0.859111
Si Si2 0.624635 0.041297 0.237612
Si Si3 0.665337 0.810623 0.322319
Si Si4 0.039834 0.620568 0.502244
Si Si5 0.169760 0.631169 0.259559
Si Si6 0.524552 0.783178 0.547066
Si Si7 0.636643 0.246185 0.136124
O O1 0.738511 0.487292 0.812818
O O2 0.678757 0.676391 0.676076
O O3 0.553875 0.680650 0.877811
O O4 0.941743 0.671560 0.066569
O O5 0.486606 0.105903 0.304904
O O6 0.744098 0.140360 0.275187
O O7 0.752460 0.926645 0.353602
O O8 0.500000 0.000000 0.000000
O O9 0.619822 0.827690 0.474899
O O10 0.827058 0.698099 0.356536
O O11 0.447966 0.796379 0.094146
O O12 0.169428 0.602700 0.426703
O O13 0.178444 0.677331 0.740254
O O14 0.000000 0.500000 0.500000
O O15 0.305575 0.735935 0.356274
#
# Coordination Sequence:
#
# PCOD8010827 Si02
#       7
#     2   2   2   2   2   2   2
#     4  10  21  38  64  88 126 169 211 251 301 379
#     4   9  20  42  69  90 121 167 215 253 313 373
#     4  11  24  40  64  96 129 162 207 266 308 362
#     4  12  25  39  62  97 126 164 213 254 311 378
#     4  11  22  39  63  91 123 174 209 246 316 375
#     4  11  22  40  65  92 126 163 205 261 316 364
#     4  10  22  42  64  92 127 168 209 257 312 370
#
# _framework density 21.062913999999999
#
# number of rings (size 3 to 8) (size 9 to 14) (size 15 to 20)
#    0.000    1.429    4.286    1.714    2.000    4.571 
#    0.000    0.000    0.000    6.857    0.000    0.000 
#    0.000    0.000    0.000    0.000    0.000    0.000 
#
# Total GULP energy -173525.052751 kJ/mol
# GULP energy per Si atom -12394.646625 kJ/mol
# Density = 2.101497 g / cm^3
# Si number density = 21.062914 Si / 1000 Ang^3
#
#
#
# Elastic Constant Matrix: (Units=GPa)
#
#
# Indices 1 2 3 4 5 6 
#
# 1 52.0571 36.6707 23.9931 -0.3507 -6.7443 10.1317
# 2 36.6707 135.0213 31.4009 -4.7630 6.1996 11.3866
# 3 23.9931 31.4009 102.5645 0.7016 5.6881 1.8954
# 4 -0.3507 -4.7630 0.7016 35.3443 -1.3915 -2.8355
# 5 -6.7443 6.1996 5.6881 -1.3915 39.3577 3.3709
# 6 10.1317 11.3866 1.8954 -2.8355 3.3709 16.4546
#
#
#
# Elastic Compliance Matrix: (Units=1/GPa)
#
#
# Indices 1 2 3 4 5 6 
#
# 1 0.029977 -0.006009 -0.005327 -0.001336 0.008141 -0.015584
# 2 -0.006009 0.009687 -0.001408 0.001011 -0.002125 -0.002232
# 3 -0.005327 -0.001408 0.011513 -0.000301 -0.002659 0.003421
# 4 -0.001336 0.001011 -0.000301 0.028839 0.000240 0.005078
# 5 0.008141 -0.002125 -0.002659 0.000240 0.028301 -0.008992
# 6 -0.015584 -0.002232 0.003421 0.005078 -0.008992 0.074236
#
#
# Mechanical properties :
#
#
# Convention : Reuss Voigt Hill
#
# Bulk Modulus (GPa) = 38.92726 52.64138 45.78432
# Shear Modulus (GPa) = 23.08357 31.40320 27.24338
#
# Velocity S-wave (km/s) = 3.31408 3.86544 3.60033
# Velocity P-wave (km/s) = 5.75897 6.70588 6.25038
#
# Compressibility (1/GPa) = 0.02568894
#
# Stress axis : x y z
#
# Youngs Moduli (GPa) = 33.35920 103.22922 86.85501
#
# Poissons Ratio (x) = 0.62034 0.46268
# Poissons Ratio (y) = 0.20047 0.12228
# Poissons Ratio (z) = 0.17771 0.14533
#
# Static dielectric constant tensor:
#      x y z
#    x 3.551190 0.072660 -0.073510 
#    y 0.072660 4.210190 0.002780 
#    z -0.073510 0.002780 4.034480 
# 
# 
# High freq. dielectric constant tensor:
#      x y z
#    x 1.798050 0.001740 -0.011040 
#    y 0.001740 1.833900 0.005000 
#    z -0.011040 0.005000 1.836510 
# 
# From -- ./inp_files/176936.got.cif
#   From: 2010.06.25/outbox.cif.g09.slc.cpg/sg2_89_cif.got.tgz:176936.got - 2010.06.27 13:26:56.
