data_PCOD8010061
_publ_section_title
;
Structure prediction by ZEFSAII (Michael W. Deem and Ramdas Pophale) SiO2 
 PCOD8010061
Probable space group: P -1
;
_chemical_formula_sum "Si O2"
_cell_formula_units_Z 16
_cell_length_a 15.141018
_cell_length_b 11.838259
_cell_length_c 8.821542
_cell_angle_alpha 46.539022
_cell_angle_beta 70.596283
_cell_angle_gamma 43.587731
_cell_volume 746.495562
_symmetry_space_group_name_H-M "P -1"
_symmetry_group_IT_number 2
_symmetry_cell_setting 'triclinic'
loop_
_space_group_symop_operation_xyz
x,y,z
-x,-y,-z
loop_
_atom_site_type_symbol
_atom_site_label
_atom_site_fract_x
_atom_site_fract_y
_atom_site_fract_z
Si Si1 0.626848 0.322186 0.194578
Si Si2 0.756307 0.514783 0.366038
Si Si3 0.945473 0.233172 0.767432
Si Si4 0.657452 0.624416 0.013576
Si Si5 0.693901 0.704287 0.602914
Si Si6 0.216645 0.065975 0.766755
Si Si7 0.500205 0.229981 0.565865
Si Si8 0.627257 0.997283 0.013159
O O1 0.674859 0.429391 0.126451
O O2 0.584379 0.268938 0.410374
O O3 0.742758 0.111729 0.215739
O O4 0.500000 0.500000 0.000000
O O5 0.899376 0.289757 0.564460
O O6 0.775547 0.495792 0.191889
O O7 0.632077 0.552772 0.461907
O O8 0.711534 0.739891 0.245174
O O9 0.811007 0.437117 0.749567
O O10 0.056963 0.233557 0.730397
O O11 0.000000 0.000000 0.000000
O O12 0.672592 0.728347 0.773595
O O13 0.519188 0.835302 0.981643
O O14 0.741615 0.819286 0.431615
O O15 0.553243 0.821937 0.490187
O O16 0.291091 0.960701 0.987099
O O17 0.608163 0.029036 0.812733
#
# Coordination Sequence:
#
# PCOD8010061 Si02
#       8
#     2   2   2   2   2   2   2   2
#     4  12  24  38  60 100 137 162 207 257 318 390
#     4  10  24  41  67  92 129 167 217 265 312 376
#     4  11  25  46  67  89 125 171 218 261 317 381
#     4  11  23  42  65  97 133 167 207 263 328 371
#     4  11  23  41  69  92 127 172 216 261 310 383
#     4  12  25  40  67  94 127 168 218 259 315 377
#     4  10  21  37  64  96 132 164 208 250 332 360
#     4  11  22  38  67  98 133 161 211 270 311 383
#
# _framework density 21.433482000000001
#
# number of rings (size 3 to 8) (size 9 to 14) (size 15 to 20)
#    0.000    1.000    5.000    2.625    5.250    4.000 
#    0.000    4.375    0.000    0.000    0.000    0.000 
#    0.000    0.000    0.000    0.000    0.000    0.000 
#
# Total GULP energy -198275.772806 kJ/mol
# GULP energy per Si atom -12392.235800 kJ/mol
# Density = 2.138470 g / cm^3
# Si number density = 21.433482 Si / 1000 Ang^3
#
#
#
# Elastic Constant Matrix: (Units=GPa)
#
#
# Indices 1 2 3 4 5 6 
#
# 1 101.4127 18.1830 57.3736 8.9303 14.0011 3.8102
# 2 18.1830 62.2683 43.1174 6.1572 7.4974 15.2299
# 3 57.3736 43.1174 143.3354 3.6744 33.9263 7.9274
# 4 8.9303 6.1572 3.6744 41.5681 14.0440 2.5848
# 5 14.0011 7.4974 33.9263 14.0440 37.9025 -2.9892
# 6 3.8102 15.2299 7.9274 2.5848 -2.9892 33.0380
#
#
#
# Elastic Compliance Matrix: (Units=1/GPa)
#
#
# Indices 1 2 3 4 5 6 
#
# 1 0.012995 0.000069 -0.005397 -0.002671 0.001011 0.000065
# 2 0.000069 0.022914 -0.006844 -0.002946 0.001988 -0.008518
# 3 -0.005397 -0.006844 0.013640 0.004611 -0.010635 -0.000818
# 4 -0.002671 -0.002946 0.004611 0.029480 -0.013717 -0.002988
# 5 0.001011 0.001988 -0.010635 -0.013717 0.040713 0.006275
# 6 0.000065 -0.008518 -0.000818 -0.002988 0.006275 0.035185
#
#
# Mechanical properties :
#
#
# Convention : Reuss Voigt Hill
#
# Bulk Modulus (GPa) = 39.67606 60.48492 50.08049
# Shear Modulus (GPa) = 26.64212 35.05787 30.85000
#
# Velocity S-wave (km/s) = 3.52947 4.04872 3.79797
# Velocity P-wave (km/s) = 5.92967 7.08076 6.53063
#
# Compressibility (1/GPa) = 0.02520412
#
# Stress axis : x y z
#
# Youngs Moduli (GPa) = 76.95530 43.64110 73.31458
#
# Poissons Ratio (x) = -0.00300 0.39565
# Poissons Ratio (y) = -0.00529 0.50179
# Poissons Ratio (z) = 0.41530 0.29869
#
# Static dielectric constant tensor:
#      x y z
#    x 3.822850 0.121340 0.297170 
#    y 0.121340 3.592650 0.136470 
#    z 0.297170 0.136470 4.178800 
# 
# 
# High freq. dielectric constant tensor:
#      x y z
#    x 1.826870 0.017800 0.007370 
#    y 0.017800 1.828060 0.011800 
#    z 0.007370 0.011800 1.856300 
# 
# From -- ./inp_files/306507.got.cif
#   From: 2010.06.25/outbox.cif.g09.slc.cpg/sg2_154_cif.got.tgz:306507.got - 2010.06.27 13:26:56.
