data_PCOD8010472
_publ_section_title
;
Structure prediction by ZEFSAII (Michael W. Deem and Ramdas Pophale) SiO2 
 PCOD8010472
Probable space group: P -1
;
_chemical_formula_sum "Si O2"
_cell_formula_units_Z 14
_cell_length_a 8.836731
_cell_length_b 16.639760
_cell_length_c 12.359638
_cell_angle_alpha 27.752193
_cell_angle_beta 128.529815
_cell_angle_gamma 117.585764
_cell_volume 642.319078
_symmetry_space_group_name_H-M "P -1"
_symmetry_group_IT_number 2
_symmetry_cell_setting 'triclinic'
loop_
_space_group_symop_operation_xyz
x,y,z
-x,-y,-z
loop_
_atom_site_type_symbol
_atom_site_label
_atom_site_fract_x
_atom_site_fract_y
_atom_site_fract_z
Si Si1 0.934481 0.884623 0.893947
Si Si2 0.797802 0.645898 0.732866
Si Si3 0.193622 0.045286 0.483673
Si Si4 0.024697 0.240967 0.519798
Si Si5 0.407351 0.224965 0.014416
Si Si6 0.112881 0.487753 0.452201
Si Si7 0.596337 0.414871 0.035557
O O1 0.813122 0.955151 0.647634
O O2 0.773305 0.870762 0.931200
O O3 0.051544 0.032002 0.812304
O O4 0.090230 0.694184 0.162012
O O5 0.794586 0.764876 0.695002
O O6 0.792861 0.747530 0.494503
O O7 0.613511 0.555751 0.779637
O O8 0.000000 0.500000 0.000000
O O9 0.391155 0.906522 0.780976
O O10 0.000000 0.000000 0.500000
O O11 0.020180 0.374132 0.459354
O O12 0.815134 0.294031 0.300505
O O13 0.448085 0.304295 0.053955
O O14 0.339521 0.377109 0.710023
O O15 0.000000 0.500000 0.500000
O O16 0.500000 0.500000 0.000000
#
# Coordination Sequence:
#
# PCOD8010472 Si02
#       7
#     2   2   2   2   2   2   2
#     4  11  22  42  70  95 134 174 221 270 336 392
#     4  10  21  38  60  94 128 170 215 267 332 392
#     4  12  21  40  66  97 131 167 219 278 331 389
#     4  11  22  42  67  92 130 177 221 268 332 403
#     4  11  24  41  63 102 128 169 223 277 331 390
#     4  10  24  45  64  95 139 176 218 272 341 396
#     4  11  21  38  65  97 130 166 222 279 324 387
#
# _framework density 21.796019999999999
#
# number of rings (size 3 to 8) (size 9 to 14) (size 15 to 20)
#    0.000    1.143    2.857    5.571    2.000    2.286 
#    2.571    3.571    0.000    0.000    0.000    0.000 
#    0.000    0.000    0.000    0.000    0.000    0.000 
#
# Total GULP energy -173493.761603 kJ/mol
# GULP energy per Si atom -12392.411543 kJ/mol
# Density = 2.174641 g / cm^3
# Si number density = 21.796020 Si / 1000 Ang^3
#
#
#
# Elastic Constant Matrix: (Units=GPa)
#
#
# Indices 1 2 3 4 5 6 
#
# 1 108.0455 18.1938 39.0739 -13.9316 -9.1405 4.3384
# 2 18.1938 112.5152 42.8521 -26.9453 -7.8860 -11.7348
# 3 39.0739 42.8521 141.1963 -16.5557 12.0136 11.9252
# 4 -13.9316 -26.9453 -16.5557 43.6422 1.6663 1.6291
# 5 -9.1405 -7.8860 12.0136 1.6663 33.6438 -2.7785
# 6 4.3384 -11.7348 11.9252 1.6291 -2.7785 21.4568
#
#
#
# Elastic Compliance Matrix: (Units=1/GPa)
#
#
# Indices 1 2 3 4 5 6 
#
# 1 0.011013 0.000298 -0.003223 0.002317 0.004105 0.000083
# 2 0.000298 0.013602 -0.004845 0.006058 0.005553 0.010331
# 3 -0.003223 -0.004845 0.010846 0.000682 -0.006656 -0.008940
# 4 0.002317 0.006058 0.000682 0.027618 0.000474 0.000430
# 5 0.004105 0.005553 -0.006656 0.000474 0.035356 0.010449
# 6 0.000083 0.010331 -0.008940 0.000430 0.010449 0.058528
#
#
# Mechanical properties :
#
#
# Convention : Reuss Voigt Hill
#
# Bulk Modulus (GPa) = 50.19764 62.44408 56.32086
# Shear Modulus (GPa) = 27.91046 37.19103 32.55075
#
# Velocity S-wave (km/s) = 3.58233 4.13525 3.86868
# Velocity P-wave (km/s) = 6.33967 7.17718 6.77138
#
# Compressibility (1/GPa) = 0.01992125
#
# Stress axis : x y z
#
# Youngs Moduli (GPa) = 90.79834 73.51749 92.19936
#
# Poissons Ratio (x) = -0.02189 0.29713
# Poissons Ratio (y) = -0.02704 0.44673
# Poissons Ratio (z) = 0.29262 0.35621
#
# Static dielectric constant tensor:
#      x y z
#    x 4.127860 0.112430 -0.217960 
#    y 0.112430 3.838820 -0.353790 
#    z -0.217960 -0.353790 4.551970 
# 
# 
# High freq. dielectric constant tensor:
#      x y z
#    x 1.845510 -0.007010 -0.006230 
#    y -0.007010 1.852430 -0.024660 
#    z -0.006230 -0.024660 1.857380 
# 
# From -- ./inp_files/181752.got.cif
#   From: 2010.06.25/outbox.cif.g09.slc.cpg/sg2_91_cif.got.tgz:181752.got - 2010.06.27 13:26:56.
