data_PCOD8010469
_publ_section_title
;
Structure prediction by ZEFSAII (Michael W. Deem and Ramdas Pophale) SiO2 
 PCOD8010469
Probable space group: P -1
;
_chemical_formula_sum "Si O2"
_cell_formula_units_Z 14
_cell_length_a 15.514515
_cell_length_b 21.256255
_cell_length_c 12.573693
_cell_angle_alpha 148.845565
_cell_angle_beta 150.132606
_cell_angle_gamma 18.487581
_cell_volume 640.029752
_symmetry_space_group_name_H-M "P -1"
_symmetry_group_IT_number 2
_symmetry_cell_setting 'triclinic'
loop_
_space_group_symop_operation_xyz
x,y,z
-x,-y,-z
loop_
_atom_site_type_symbol
_atom_site_label
_atom_site_fract_x
_atom_site_fract_y
_atom_site_fract_z
Si Si1 0.357238 0.452892 0.760905
Si Si2 0.582625 0.058084 0.092607
Si Si3 0.301416 0.208677 0.791985
Si Si4 0.071644 0.630941 0.926613
Si Si5 0.240981 0.415852 0.368875
Si Si6 0.763705 0.027130 0.669328
Si Si7 0.371548 0.779760 0.976344
O O1 0.098434 0.591894 0.771599
O O2 0.262975 0.507483 0.615079
O O3 0.582619 0.216879 0.673717
O O4 0.500000 0.500000 0.000000
O O5 0.542507 0.208178 0.332032
O O6 0.339632 0.193504 0.936971
O O7 0.500000 0.000000 0.000000
O O8 0.905694 0.852478 0.093728
O O9 0.519785 0.184935 0.942786
O O10 0.973603 0.421515 0.717866
O O11 0.363659 0.035929 0.571887
O O12 0.382576 0.454675 0.062707
O O13 0.878912 0.631474 0.764245
O O14 0.726038 0.082697 0.831440
O O15 0.103420 0.851538 0.747972
#
# Coordination Sequence:
#
# PCOD8010469 Si02
#       7
#     2   2   2   2   2   2   2
#     4  11  24  39  63  93 129 164 208 261 318 372
#     4  10  21  40  67  90 126 166 213 260 317 377
#     4  11  22  37  68  90 124 171 214 255 321 375
#     4   9  20  39  63  92 124 163 211 258 311 380
#     4  10  22  40  64  93 124 166 213 258 316 375
#     4  10  21  38  60  93 136 161 210 260 320 366
#     4   9  21  37  60  97 130 167 207 264 310 381
#
# _framework density 21.873982999999999
#
# number of rings (size 3 to 8) (size 9 to 14) (size 15 to 20)
#    0.000    2.000    0.000    3.000    8.000    2.286 
#    0.000    0.714    6.286    6.000    0.000    0.000 
#    0.000    0.000    0.000    0.000    0.000    0.000 
#
# Total GULP energy -173509.331734 kJ/mol
# GULP energy per Si atom -12393.523695 kJ/mol
# Density = 2.182420 g / cm^3
# Si number density = 21.873983 Si / 1000 Ang^3
#
#
#
# Elastic Constant Matrix: (Units=GPa)
#
#
# Indices 1 2 3 4 5 6 
#
# 1 91.9701 54.5193 46.2383 1.3751 -23.0260 15.4065
# 2 54.5193 143.6230 45.7148 15.3191 -18.1129 -9.8429
# 3 46.2383 45.7148 54.4361 7.1850 -17.0757 -1.5212
# 4 1.3751 15.3191 7.1850 32.2309 0.5213 -4.8626
# 5 -23.0260 -18.1129 -17.0757 0.5213 33.0545 2.2054
# 6 15.4065 -9.8429 -1.5212 -4.8626 2.2054 29.9678
#
#
#
# Elastic Compliance Matrix: (Units=1/GPa)
#
#
# Indices 1 2 3 4 5 6 
#
# 1 0.027605 -0.005416 -0.017015 0.002476 0.008572 -0.017063
# 2 -0.005416 0.011052 -0.004156 -0.003234 -0.000192 0.005693
# 3 -0.017015 -0.004156 0.038903 -0.004828 0.005498 0.008169
# 4 0.002476 -0.003234 -0.004828 0.034068 -0.003291 0.003190
# 5 0.008572 -0.000192 0.005498 -0.003291 0.039521 -0.007633
# 6 -0.017063 0.005693 0.008169 0.003190 -0.007633 0.045505
#
#
# Mechanical properties :
#
#
# Convention : Reuss Voigt Hill
#
# Bulk Modulus (GPa) = 41.00423 64.77490 52.88957
# Shear Modulus (GPa) = 19.38323 28.62111 24.00217
#
# Velocity S-wave (km/s) = 2.98003 3.62118 3.31613
# Velocity P-wave (km/s) = 5.53418 6.86738 6.23651
#
# Compressibility (1/GPa) = 0.02438773
#
# Stress axis : x y z
#
# Youngs Moduli (GPa) = 36.22502 90.48137 25.70524
#
# Poissons Ratio (x) = 0.49002 0.43737
# Poissons Ratio (y) = 0.19618 0.10682
# Poissons Ratio (z) = 0.61636 0.37600
#
# Static dielectric constant tensor:
#      x y z
#    x -1.737740 4.719320 4.600850 
#    y 4.719320 0.591300 -3.677410 
#    z 4.600850 -3.677410 -0.062250 
# 
# 
# High freq. dielectric constant tensor:
#      x y z
#    x 1.860310 0.010420 -0.008350 
#    y 0.010420 1.868680 0.009390 
#    z -0.008350 0.009390 1.837300 
# 
# From -- ./inp_files/244194.got.cif
#   From: 2010.06.25/outbox.cif.g09.slc.cpg/sg2_123_cif.got.tgz:244194.got - 2010.06.27 13:26:56.
