data_PCOD8010505
_publ_section_title
;
Structure prediction by ZEFSAII (Michael W. Deem and Ramdas Pophale) SiO2 
 PCOD8010505
Probable space group: P -1
;
_chemical_formula_sum "Si O2"
_cell_formula_units_Z 16
_cell_length_a 9.564104
_cell_length_b 11.534296
_cell_length_c 11.445790
_cell_angle_alpha 36.689184
_cell_angle_beta 92.139996
_cell_angle_gamma 94.888563
_cell_volume 750.633394
_symmetry_space_group_name_H-M "P -1"
_symmetry_group_IT_number 2
_symmetry_cell_setting 'triclinic'
loop_
_space_group_symop_operation_xyz
x,y,z
-x,-y,-z
loop_
_atom_site_type_symbol
_atom_site_label
_atom_site_fract_x
_atom_site_fract_y
_atom_site_fract_z
Si Si1 0.555485 0.402837 0.896270
Si Si2 0.815968 0.508746 0.961015
Si Si3 0.379476 0.969874 0.925352
Si Si4 0.485201 0.348263 0.517020
Si Si5 0.202185 0.681591 0.517504
Si Si6 0.768316 0.682128 0.054189
Si Si7 0.952623 0.215240 0.343293
Si Si8 0.136970 0.938141 0.115225
O O1 0.651897 0.484414 0.941081
O O2 0.589310 0.550226 0.672144
O O3 0.391329 0.386356 0.931166
O O4 0.596989 0.190499 0.039237
O O5 0.910090 0.624964 0.769197
O O6 0.848254 0.645028 0.966881
O O7 0.864799 0.294078 0.166724
O O8 0.373488 0.171623 0.693984
O O9 0.500000 0.000000 0.000000
O O10 0.235670 0.902642 0.039114
O O11 0.500000 0.500000 0.500000
O O12 0.632162 0.265799 0.549171
O O13 0.180501 0.450193 0.730602
O O14 0.147899 0.792936 0.539184
O O15 0.113937 0.741839 0.352154
O O16 0.792292 0.902107 0.920673
O O17 0.000000 0.000000 0.500000
O O18 0.000000 0.000000 0.000000
#
# Coordination Sequence:
#
# PCOD8010505 Si02
#       8
#     2   2   2   2   2   2   2   2
#     4  11  22  37  65  92 123 160 210 257 311 374
#     4  10  23  40  63  93 120 163 212 254 311 375
#     4  12  21  39  62  88 124 165 206 253 310 371
#     4  11  20  38  63  90 121 162 207 256 315 368
#     4  10  21  38  61  87 118 162 203 250 310 370
#     4  10  21  42  63  86 125 160 203 263 313 362
#     4  10  22  41  62  84 128 167 203 255 313 367
#     4  12  25  39  62  93 123 163 208 257 315 375
#
# _framework density 21.315331
#
# number of rings (size 3 to 8) (size 9 to 14) (size 15 to 20)
#    0.000    1.250    3.750    1.875    0.000    6.500 
#    0.000    0.000    0.000    9.000    0.000    0.000 
#    0.000    0.000    0.000    0.000    0.000    0.000 
#
# Total GULP energy -198300.283557 kJ/mol
# GULP energy per Si atom -12393.767722 kJ/mol
# Density = 2.126682 g / cm^3
# Si number density = 21.315331 Si / 1000 Ang^3
#
#
#
# Elastic Constant Matrix: (Units=GPa)
#
#
# Indices 1 2 3 4 5 6 
#
# 1 90.1861 15.3152 33.9858 11.9546 7.6352 -4.7041
# 2 15.3152 71.3954 33.9542 -0.9144 -0.2624 -16.0525
# 3 33.9858 33.9542 135.0104 0.4374 6.3688 -5.5127
# 4 11.9546 -0.9144 0.4374 27.7978 -5.6752 4.9294
# 5 7.6352 -0.2624 6.3688 -5.6752 32.9490 6.9745
# 6 -4.7041 -16.0525 -5.5127 4.9294 6.9745 40.2367
#
#
#
# Elastic Compliance Matrix: (Units=1/GPa)
#
#
# Indices 1 2 3 4 5 6 
#
# 1 0.013828 -0.001175 -0.002854 -0.007272 -0.004426 0.002415
# 2 -0.001175 0.017514 -0.003840 -0.000026 -0.000197 0.006361
# 3 -0.002854 -0.003840 0.009105 0.000886 -0.000854 -0.000579
# 4 -0.007272 -0.000026 0.000886 0.042610 0.010500 -0.007779
# 5 -0.004426 -0.000197 -0.000854 0.010500 0.035057 -0.008076
# 6 0.002415 0.006361 -0.000579 -0.007779 -0.008076 0.029947
#
#
# Mechanical properties :
#
#
# Convention : Reuss Voigt Hill
#
# Bulk Modulus (GPa) = 40.47262 51.45581 45.96422
# Shear Modulus (GPa) = 29.06387 34.41914 31.74150
#
# Velocity S-wave (km/s) = 3.69659 4.02277 3.86312
# Velocity P-wave (km/s) = 6.10316 6.76532 6.44275
#
# Compressibility (1/GPa) = 0.02470806
#
# Stress axis : x y z
#
# Youngs Moduli (GPa) = 72.31681 57.09774 109.83229
#
# Poissons Ratio (x) = 0.06710 0.31350
# Poissons Ratio (y) = 0.08499 0.42172
# Poissons Ratio (z) = 0.20642 0.21924
#
# Static dielectric constant tensor:
#      x y z
#    x 3.433730 0.007970 0.301100 
#    y 0.007970 3.576440 -0.152040 
#    z 0.301100 -0.152040 3.929200 
# 
# 
# High freq. dielectric constant tensor:
#      x y z
#    x 1.831850 -0.029210 0.002600 
#    y -0.029210 1.814940 0.002600 
#    z 0.002600 0.002600 1.855580 
# 
# From -- ./inp_files/306344.got.cif
#   From: 2010.06.25/outbox.cif.g09.slc.cpg/sg2_154_cif.got.tgz:306344.got - 2010.06.27 13:26:56.
