data_PCOD8010622
_publ_section_title
;
Structure prediction by ZEFSAII (Michael W. Deem and Ramdas Pophale) SiO2 
 PCOD8010622
Probable space group: P -1
;
_chemical_formula_sum "Si O2"
_cell_formula_units_Z 16
_cell_length_a 21.608541
_cell_length_b 8.262141
_cell_length_c 7.104012
_cell_angle_alpha 72.166949
_cell_angle_beta 128.806326
_cell_angle_gamma 129.114339
_cell_volume 758.471279
_symmetry_space_group_name_H-M "P -1"
_symmetry_group_IT_number 2
_symmetry_cell_setting 'triclinic'
loop_
_space_group_symop_operation_xyz
x,y,z
-x,-y,-z
loop_
_atom_site_type_symbol
_atom_site_label
_atom_site_fract_x
_atom_site_fract_y
_atom_site_fract_z
Si Si1 0.819990 0.541714 0.122682
Si Si2 0.523335 0.247359 0.128567
Si Si3 0.546528 0.561538 0.360373
Si Si4 0.656271 0.191378 0.166340
Si Si5 0.140598 0.643658 0.066200
Si Si6 0.248707 0.003369 0.397156
Si Si7 0.040094 0.368096 0.314526
Si Si8 0.916798 0.975324 0.978043
O O1 0.716583 0.405567 0.084062
O O2 0.808165 0.392610 0.987514
O O3 0.912771 0.615777 0.402861
O O4 0.836795 0.745361 0.991079
O O5 0.538766 0.367177 0.312157
O O6 0.615886 0.243184 0.253398
O O7 0.509232 0.365652 0.892153
O O8 0.431073 0.001988 0.055551
O O9 0.500000 0.500000 0.500000
O O10 0.660761 0.753376 0.530945
O O11 0.728533 0.127616 0.379696
O O12 0.031145 0.559838 0.822277
O O13 0.216998 0.893215 0.169387
O O14 0.125936 0.511792 0.273912
O O15 0.149544 0.976066 0.289169
O O16 0.972006 0.127025 0.205302
O O17 0.000000 0.000000 0.000000
#
# Coordination Sequence:
#
# PCOD8010622 Si02
#       8
#     2   2   2   2   2   2   2   2
#     4  12  23  36  66  92 116 170 217 253 320 385
#     4   9  22  45  63  95 136 163 209 270 319 383
#     4  10  22  41  70  97 131 168 207 263 334 385
#     4  10  22  43  67  94 129 172 215 265 320 384
#     4  10  21  38  62  87 126 158 213 268 305 382
#     4  10  23  42  61  95 128 168 212 266 324 373
#     4  10  21  41  58  86 126 164 207 262 321 373
#     4  11  24  41  61  93 133 166 211 271 318 376
#
# _framework density 21.095064000000001
#
# number of rings (size 3 to 8) (size 9 to 14) (size 15 to 20)
#    0.000    1.750    2.500    0.750    3.500    3.000 
#    0.000    1.875    0.000    0.000    0.000    0.000 
#    0.000    0.000    0.000    0.000    0.000    0.000 
#
# Total GULP energy -198335.413112 kJ/mol
# GULP energy per Si atom -12395.963319 kJ/mol
# Density = 2.104705 g / cm^3
# Si number density = 21.095064 Si / 1000 Ang^3
#
#
#
# Elastic Constant Matrix: (Units=GPa)
#
#
# Indices 1 2 3 4 5 6 
#
# 1 97.0153 58.2303 31.1920 13.3785 -6.5582 -7.1661
# 2 58.2303 123.8771 31.9057 19.2204 -5.1895 4.1064
# 3 31.1920 31.9057 70.7784 14.6880 -4.4936 -4.1063
# 4 13.3785 19.2204 14.6880 34.4902 -4.8337 -1.9889
# 5 -6.5582 -5.1895 -4.4936 -4.8337 32.4065 1.9404
# 6 -7.1661 4.1064 -4.1063 -1.9889 1.9404 31.6419
#
#
#
# Elastic Compliance Matrix: (Units=1/GPa)
#
#
# Indices 1 2 3 4 5 6 
#
# 1 0.015817 -0.006485 -0.003621 -0.000570 0.001346 0.003835
# 2 -0.006485 0.012366 -0.002163 -0.003656 0.000037 -0.003586
# 3 -0.003621 -0.002163 0.017819 -0.004813 0.000588 0.001435
# 4 -0.000570 -0.003656 -0.004813 0.033899 0.003591 0.001631
# 5 0.001346 0.000037 0.000588 0.003591 0.031834 -0.001350
# 6 0.003835 -0.003586 0.001435 0.001631 -0.001350 0.033309
#
#
# Mechanical properties :
#
#
# Convention : Reuss Voigt Hill
#
# Bulk Modulus (GPa) = 46.59170 59.36966 52.98068
# Shear Modulus (GPa) = 28.29059 31.06391 29.67725
#
# Velocity S-wave (km/s) = 3.66608 3.84157 3.75485
# Velocity P-wave (km/s) = 6.32887 6.91967 6.63085
#
# Compressibility (1/GPa) = 0.02146305
#
# Stress axis : x y z
#
# Youngs Moduli (GPa) = 63.22304 80.86908 56.11976
#
# Poissons Ratio (x) = 0.52442 0.20322
# Poissons Ratio (y) = 0.40999 0.12141
# Poissons Ratio (z) = 0.22894 0.17495
#
# Static dielectric constant tensor:
#      x y z
#    x 3.775880 -0.136420 0.147180 
#    y -0.136420 4.019550 0.216500 
#    z 0.147180 0.216500 3.750400 
# 
# 
# High freq. dielectric constant tensor:
#      x y z
#    x 1.821380 -0.008070 0.011580 
#    y -0.008070 1.836910 0.019900 
#    z 0.011580 0.019900 1.816220 
# 
# From -- ./inp_files/116978.got.cif
#   From: 2010.06.25/outbox.cif.g09.slc.cpg/sg2_59_cif.got.tgz:116978.got - 2010.06.27 13:26:56.
