data_PCOD8010357
_publ_section_title
;
Structure prediction by ZEFSAII (Michael W. Deem and Ramdas Pophale) SiO2 
 PCOD8010357
Probable space group: P -1
;
_chemical_formula_sum "Si O2"
_cell_formula_units_Z 16
_cell_length_a 9.790705
_cell_length_b 20.437782
_cell_length_c 9.032230
_cell_angle_alpha 119.781747
_cell_angle_beta 149.727190
_cell_angle_gamma 60.150305
_cell_volume 780.954871
_symmetry_space_group_name_H-M "P -1"
_symmetry_group_IT_number 2
_symmetry_cell_setting 'triclinic'
loop_
_space_group_symop_operation_xyz
x,y,z
-x,-y,-z
loop_
_atom_site_type_symbol
_atom_site_label
_atom_site_fract_x
_atom_site_fract_y
_atom_site_fract_z
Si Si1 0.537586 0.525276 0.731532
Si Si2 0.371016 0.311258 0.065362
Si Si3 0.163014 0.087567 0.360931
Si Si4 0.310220 0.305195 0.343334
Si Si5 0.042866 0.468912 0.341855
Si Si6 0.141946 0.792410 0.226067
Si Si7 0.695819 0.083332 0.692737
Si Si8 0.077002 0.785872 0.499246
O O1 0.500000 0.500000 0.500000
O O2 0.599232 0.610982 0.901913
O O3 0.246202 0.521266 0.524288
O O4 0.776601 0.472582 0.989534
O O5 0.355541 0.328911 0.244356
O O6 0.624383 0.244728 0.187091
O O7 0.089534 0.284822 0.723003
O O8 0.383707 0.115801 0.486851
O O9 0.093855 0.143293 0.496836
O O10 0.287228 0.003823 0.446011
O O11 0.878726 0.085442 0.011122
O O12 0.607579 0.274320 0.654291
O O13 0.174598 0.380594 0.385537
O O14 0.132209 0.236947 0.118313
O O15 0.000000 0.500000 0.500000
O O16 0.191603 0.869232 0.278718
O O17 0.116320 0.811852 0.397352
#
# Coordination Sequence:
#
# PCOD8010357 Si02
#       8
#     2   2   2   2   2   2   2   2
#     4  12  24  42  70  88 117 171 216 249 304 383
#     4  10  21  38  62  89 115 154 207 252 294 357
#     4  10  21  39  60  87 122 156 188 251 293 348
#     4  10  21  39  62  83 122 158 193 251 307 355
#     4  12  26  44  61  92 130 159 204 267 316 359
#     4  10  21  38  61  87 113 159 201 236 296 368
#     4  10  21  39  61  86 121 158 197 229 300 372
#     4  10  21  38  59  88 122 149 196 256 295 338
#
# _framework density 20.487739999999999
#
# number of rings (size 3 to 8) (size 9 to 14) (size 15 to 20)
#    0.000    1.500    1.250    3.750    3.500    0.500 
#   13.500    0.000    0.000    9.000    0.000    0.000 
#    0.000    0.000    0.000    0.000    0.000    0.000 
#
# Total GULP energy -198406.996378 kJ/mol
# GULP energy per Si atom -12400.437274 kJ/mol
# Density = 2.044111 g / cm^3
# Si number density = 20.487740 Si / 1000 Ang^3
#
#
#
# Elastic Constant Matrix: (Units=GPa)
#
#
# Indices 1 2 3 4 5 6 
#
# 1 111.3960 53.9182 25.6432 6.4804 8.1799 -6.0635
# 2 53.9182 94.3996 2.2826 6.7575 -3.4813 -7.2986
# 3 25.6432 2.2826 72.8986 -8.5429 5.9110 -1.7211
# 4 6.4804 6.7575 -8.5429 25.4841 1.8744 11.8127
# 5 8.1799 -3.4813 5.9110 1.8744 30.7913 5.4130
# 6 -6.0635 -7.2986 -1.7211 11.8127 5.4130 39.1312
#
#
#
# Elastic Compliance Matrix: (Units=1/GPa)
#
#
# Indices 1 2 3 4 5 6 
#
# 1 0.014605 -0.007893 -0.004992 -0.004095 -0.003979 0.002358
# 2 -0.007893 0.015543 0.001748 -0.002758 0.003312 0.002127
# 3 -0.004992 0.001748 0.016365 0.007188 -0.001765 -0.001654
# 4 -0.004095 -0.002758 0.007188 0.050946 -0.000877 -0.016091
# 5 -0.003979 0.003312 -0.001765 -0.000877 0.035121 -0.004670
# 6 0.002358 0.002127 -0.001654 -0.016091 -0.004670 0.031748
#
#
# Mechanical properties :
#
#
# Convention : Reuss Voigt Hill
#
# Bulk Modulus (GPa) = 41.25318 49.15357 45.20338
# Shear Modulus (GPa) = 25.68296 32.20468 28.94382
#
# Velocity S-wave (km/s) = 3.54443 3.96902 3.76272
# Velocity P-wave (km/s) = 6.07700 6.71178 6.40226
#
# Compressibility (1/GPa) = 0.02424055
#
# Stress axis : x y z
#
# Youngs Moduli (GPa) = 68.46934 64.33738 61.10454
#
# Poissons Ratio (x) = 0.50779 0.30503
# Poissons Ratio (y) = 0.54040 -0.10681
# Poissons Ratio (z) = 0.34180 -0.11246
#
# Static dielectric constant tensor:
#      x y z
#    x 3.557890 -0.026220 0.300210 
#    y -0.026220 3.714240 -0.031340 
#    z 0.300210 -0.031340 3.864540 
# 
# 
# High freq. dielectric constant tensor:
#      x y z
#    x 1.794150 -0.000140 0.024850 
#    y -0.000140 1.799930 0.000480 
#    z 0.024850 0.000480 1.811190 
# 
# From -- ./inp_files/217573.got.cif
#   From: 2010.06.25/outbox.cif.g09.slc.cpg/sg2_109_cif.got.tgz:217573.got - 2010.06.27 13:26:56.
