data_PCOD8010254
_publ_section_title
;
Structure prediction by ZEFSAII (Michael W. Deem and Ramdas Pophale) SiO2 
 PCOD8010254
Probable space group: P -1
;
_chemical_formula_sum "Si O2"
_cell_formula_units_Z 14
_cell_length_a 13.581170
_cell_length_b 5.098574
_cell_length_c 18.546093
_cell_angle_alpha 67.156563
_cell_angle_beta 30.753329
_cell_angle_gamma 64.267378
_cell_volume 591.234984
_symmetry_space_group_name_H-M "P -1"
_symmetry_group_IT_number 2
_symmetry_cell_setting 'triclinic'
loop_
_space_group_symop_operation_xyz
x,y,z
-x,-y,-z
loop_
_atom_site_type_symbol
_atom_site_label
_atom_site_fract_x
_atom_site_fract_y
_atom_site_fract_z
Si Si1 0.070841 0.878287 0.673776
Si Si2 0.558013 0.927865 0.772182
Si Si3 0.090148 0.400607 0.821562
Si Si4 0.053391 0.229239 0.387366
Si Si5 0.360314 0.444811 0.375514
Si Si6 0.513847 0.357351 0.583604
Si Si7 0.120965 0.004083 0.076342
O O1 0.294362 0.920594 0.507096
O O2 0.114464 0.545273 0.712433
O O3 0.933766 0.904214 0.686998
O O4 0.959326 0.086617 0.785219
O O5 0.593486 0.253411 0.716270
O O6 0.733736 0.713583 0.728937
O O7 0.549048 0.817423 0.707293
O O8 0.355816 0.914596 0.940512
O O9 0.969333 0.150127 0.915087
O O10 0.303123 0.267300 0.738590
O O11 0.957051 0.652683 0.927696
O O12 0.879495 0.522706 0.470291
O O13 0.000000 0.000000 0.500000
O O14 0.458090 0.407408 0.397701
O O15 0.500000 0.500000 0.500000
#
# Coordination Sequence:
#
# PCOD8010254 Si02
#       7
#     2   2   2   2   2   2   2
#     4   8  19  38  59  89 113 147 194 237 282 342
#     4  11  22  40  59  82 123 151 188 233 285 342
#     4   9  20  38  57  86 115 146 194 232 285 328
#     4   9  19  40  60  88 113 151 189 242 285 334
#     4  10  22  40  60  89 111 150 193 237 285 337
#     4   9  18  41  62  88 111 151 189 247 282 330
#     4  10  21  38  57  84 120 153 188 231 279 345
#
# _framework density 23.679247
#
# number of rings (size 3 to 8) (size 9 to 14) (size 15 to 20)
#    0.857    1.714    0.000    1.286    0.000    2.286 
#   28.286    5.000    0.000    0.000    0.000    0.000 
#    0.000    0.000    0.000    0.000    0.000    0.000 
#
# Total GULP energy -173454.385575 kJ/mol
# GULP energy per Si atom -12389.598970 kJ/mol
# Density = 2.362535 g / cm^3
# Si number density = 23.679247 Si / 1000 Ang^3
#
#
#
# Elastic Constant Matrix: (Units=GPa)
#
#
# Indices 1 2 3 4 5 6 
#
# 1 115.7002 17.1095 54.8115 0.3390 -31.0324 16.5073
# 2 17.1095 61.4155 45.9600 9.3961 -9.8365 29.5155
# 3 54.8115 45.9600 193.5397 5.5941 -39.1056 28.8740
# 4 0.3390 9.3961 5.5941 22.5473 4.8672 -5.7758
# 5 -31.0324 -9.8365 -39.1056 4.8672 33.9743 -6.8899
# 6 16.5073 29.5155 28.8740 -5.7758 -6.8899 28.9077
#
#
#
# Elastic Compliance Matrix: (Units=1/GPa)
#
#
# Indices 1 2 3 4 5 6 
#
# 1 0.012732 0.004665 -0.000799 -0.006873 0.011021 -0.009982
# 2 0.004665 0.053242 -0.001421 -0.039963 0.011422 -0.060869
# 3 -0.000799 -0.001421 0.008265 -0.004533 0.007934 -0.005363
# 4 -0.006873 -0.039963 -0.004533 0.082585 -0.022657 0.060356
# 5 0.011021 0.011422 0.007934 -0.022657 0.051509 -0.018130
# 6 -0.009982 -0.060869 -0.005363 0.060356 -0.018130 0.115536
#
#
# Mechanical properties :
#
#
# Convention : Reuss Voigt Hill
#
# Bulk Modulus (GPa) = 12.63761 67.37972 40.00866
# Shear Modulus (GPa) = 14.47788 33.93748 24.20768
#
# Velocity S-wave (km/s) = 2.47537 3.78989 3.20084
# Velocity P-wave (km/s) = 3.67675 6.90420 5.53112
#
# Compressibility (1/GPa) = 0.07912889
#
# Stress axis : x y z
#
# Youngs Moduli (GPa) = 78.54315 18.78209 120.99693
#
# Poissons Ratio (x) = -0.08761 0.09665
# Poissons Ratio (y) = -0.36637 0.17189
# Poissons Ratio (z) = 0.06274 0.02668
#
# Static dielectric constant tensor:
#      x y z
#    x 2.959480 1.743840 0.165880 
#    y 1.743840 1.949890 -0.659140 
#    z 0.165880 -0.659140 4.302610 
# 
# 
# High freq. dielectric constant tensor:
#      x y z
#    x 1.940140 0.010610 -0.010200 
#    y 0.010610 1.911050 0.004380 
#    z -0.010200 0.004380 1.937820 
# 
# From -- ./inp_files/592548.got.cif
#   From: 2010.06.25/outbox.cif.g09.slc.cpg/sg2_297_cif.got.tgz:592548.got - 2010.06.27 13:26:56.
