data_PCOD8010128
_publ_section_title
;
Structure prediction by ZEFSAII (Michael W. Deem and Ramdas Pophale) SiO2 
 PCOD8010128
Probable space group: P -1
;
_chemical_formula_sum "Si O2"
_cell_formula_units_Z 16
_cell_length_a 13.065167
_cell_length_b 9.871611
_cell_length_c 15.215285
_cell_angle_alpha 76.178544
_cell_angle_beta 54.812844
_cell_angle_gamma 33.521464
_cell_volume 748.230617
_symmetry_space_group_name_H-M "P -1"
_symmetry_group_IT_number 2
_symmetry_cell_setting 'triclinic'
loop_
_space_group_symop_operation_xyz
x,y,z
-x,-y,-z
loop_
_atom_site_type_symbol
_atom_site_label
_atom_site_fract_x
_atom_site_fract_y
_atom_site_fract_z
Si Si1 0.107592 0.799949 0.664398
Si Si2 0.679232 0.145789 0.528862
Si Si3 0.073776 0.308020 0.297052
Si Si4 0.798288 0.184877 0.931445
Si Si5 0.792540 0.718428 0.211561
Si Si6 0.312916 0.164953 0.485468
Si Si7 0.990962 0.204756 0.964721
Si Si8 0.438046 0.270442 0.793577
O O1 0.399544 0.461154 0.581378
O O2 0.108615 0.942233 0.584905
O O3 0.963572 0.820451 0.679032
O O4 0.968314 0.959708 0.802113
O O5 0.640799 0.159579 0.649761
O O6 0.772589 0.912322 0.471507
O O7 0.972668 0.503726 0.238445
O O8 0.939347 0.490749 0.427128
O O9 0.386656 0.016069 0.196957
O O10 0.944720 0.181369 0.895194
O O11 0.500000 0.500000 0.000000
O O12 0.804771 0.075442 0.029950
O O13 0.908336 0.737660 0.103621
O O14 0.789732 0.586747 0.169784
O O15 0.488260 0.044493 0.335208
O O16 0.500000 0.000000 0.500000
O O17 0.705915 0.483518 0.107919
#
# Coordination Sequence:
#
# PCOD8010128 Si02
#       8
#     2   2   2   2   2   2   2   2
#     4  11  21  40  65  90 123 169 208 254 317 365
#     4  10  21  37  66  88 125 168 201 259 313 368
#     4  11  22  38  66  93 127 165 207 259 310 373
#     4  11  25  44  63  90 128 165 210 262 305 376
#     4  10  22  39  62  92 124 166 205 256 311 370
#     4   9  18  38  58  90 125 159 201 255 310 359
#     4  11  24  42  65  89 125 169 208 256 316 369
#     4  11  22  42  62  92 129 160 209 262 310 367
#
# _framework density 21.383782
#
# number of rings (size 3 to 8) (size 9 to 14) (size 15 to 20)
#    0.000    1.500    5.000    1.125    3.500    4.000 
#    2.250    0.000    0.000    0.000    0.000    0.000 
#    0.000    0.000    0.000    0.000    0.000    0.000 
#
# Total GULP energy -198308.166427 kJ/mol
# GULP energy per Si atom -12394.260402 kJ/mol
# Density = 2.133511 g / cm^3
# Si number density = 21.383782 Si / 1000 Ang^3
#
#
#
# Elastic Constant Matrix: (Units=GPa)
#
#
# Indices 1 2 3 4 5 6 
#
# 1 80.7094 34.5914 41.2209 -3.7442 19.9541 21.8102
# 2 34.5914 90.7890 35.2209 1.8998 0.3509 -5.0390
# 3 41.2209 35.2209 66.0387 -5.9148 9.2230 12.9797
# 4 -3.7442 1.8998 -5.9148 39.0650 11.2458 -7.4057
# 5 19.9541 0.3509 9.2230 11.2458 26.4787 9.6770
# 6 21.8102 -5.0390 12.9797 -7.4057 9.6770 34.4525
#
#
#
# Elastic Compliance Matrix: (Units=1/GPa)
#
#
# Indices 1 2 3 4 5 6 
#
# 1 0.026165 -0.007411 -0.008025 0.004225 -0.015163 -0.009457
# 2 -0.007411 0.017036 -0.007084 -0.003060 0.006426 0.007389
# 3 -0.008025 -0.007084 0.025406 0.003432 -0.002692 -0.004034
# 4 0.004225 -0.003060 0.003432 0.034991 -0.022661 0.009471
# 5 -0.015163 0.006426 -0.002692 -0.022661 0.063774 -0.011231
# 6 -0.009457 0.007389 -0.004034 0.009471 -0.011231 0.042803
#
#
# Mechanical properties :
#
#
# Convention : Reuss Voigt Hill
#
# Bulk Modulus (GPa) = 42.43058 51.06706 46.74882
# Shear Modulus (GPa) = 19.00637 28.43286 23.71961
#
# Velocity S-wave (km/s) = 2.98455 3.65039 3.33413
# Velocity P-wave (km/s) = 5.63579 6.45757 6.06062
#
# Compressibility (1/GPa) = 0.02356791
#
# Stress axis : x y z
#
# Youngs Moduli (GPa) = 38.21850 58.70089 39.36110
#
# Poissons Ratio (x) = 0.43502 0.31587
# Poissons Ratio (y) = 0.28323 0.27882
# Poissons Ratio (z) = 0.30670 0.41582
#
# Static dielectric constant tensor:
#      x y z
#    x 4.063320 0.149460 0.275080 
#    y 0.149460 3.991310 0.145250 
#    z 0.275080 0.145250 4.073120 
# 
# 
# High freq. dielectric constant tensor:
#      x y z
#    x 1.847940 0.002800 0.015580 
#    y 0.002800 1.836610 0.008950 
#    z 0.015580 0.008950 1.825170 
# 
# From -- ./inp_files/566721.got.cif
#   From: 2010.06.25/outbox.cif.g09.slc.cpg/sg2_284_cif.got.tgz:566721.got - 2010.06.27 13:26:56.
