data_PCOD8010545
_publ_section_title
;
Structure prediction by ZEFSAII (Michael W. Deem and Ramdas Pophale) SiO2 
 PCOD8010545
Probable space group: P -1
;
_chemical_formula_sum "Si O2"
_cell_formula_units_Z 14
_cell_length_a 12.201241
_cell_length_b 9.463720
_cell_length_c 11.906807
_cell_angle_alpha 78.084906
_cell_angle_beta 31.849988
_cell_angle_gamma 97.703570
_cell_volume 568.290563
_symmetry_space_group_name_H-M "P -1"
_symmetry_group_IT_number 2
_symmetry_cell_setting 'triclinic'
loop_
_space_group_symop_operation_xyz
x,y,z
-x,-y,-z
loop_
_atom_site_type_symbol
_atom_site_label
_atom_site_fract_x
_atom_site_fract_y
_atom_site_fract_z
Si Si1 0.204948 0.407573 0.245513
Si Si2 0.391873 0.647210 0.419298
Si Si3 0.307284 0.076304 0.605242
Si Si4 0.727451 0.459054 0.223629
Si Si5 0.193947 0.962269 0.961623
Si Si6 0.983065 0.356983 0.676007
Si Si7 0.010641 0.748652 0.764291
O O1 0.179490 0.564228 0.206700
O O2 0.021978 0.299122 0.530055
O O3 0.108342 0.262170 0.252114
O O4 0.500000 0.500000 0.000000
O O5 0.412833 0.564397 0.530994
O O6 0.158937 0.661575 0.640308
O O7 0.280518 0.503217 0.438696
O O8 0.657215 0.847200 0.130196
O O9 0.567360 0.273769 0.321732
O O10 0.094033 0.110916 0.807364
O O11 0.219549 0.951700 0.592304
O O12 0.337471 0.993598 0.709651
O O13 0.000000 0.500000 0.000000
O O14 0.770071 0.623994 0.084528
O O15 0.187473 0.816686 0.066532
#
# Coordination Sequence:
#
# PCOD8010545 Si02
#       7
#     2   2   2   2   2   2   2
#     4  10  24  43  67  94 119 172 228 263 314 372
#     4   9  20  37  62  93 124 161 205 256 324 382
#     4  10  22  37  61  99 132 158 210 254 308 404
#     4   9  19  35  60  95 126 164 203 250 326 380
#     4  10  22  39  62  95 129 167 200 254 330 377
#     4  10  22  45  67  87 132 167 211 273 315 370
#     4  10  21  38  61  90 125 164 210 264 314 369
#
# _framework density 24.635285
#
# number of rings (size 3 to 8) (size 9 to 14) (size 15 to 20)
#    0.000    2.286    0.000    0.857    4.000    9.714 
#    0.000   12.857    0.000    0.000    0.000    0.000 
#    0.000    0.000    0.000    0.000    0.000    0.000 
#
# Total GULP energy -173567.005887 kJ/mol
# GULP energy per Si atom -12397.643278 kJ/mol
# Density = 2.457921 g / cm^3
# Si number density = 24.635285 Si / 1000 Ang^3
#
#
#
# Elastic Constant Matrix: (Units=GPa)
#
#
# Indices 1 2 3 4 5 6 
#
# 1 149.7853 64.7680 55.7169 -21.9679 -0.9543 27.8840
# 2 64.7680 79.5281 36.0556 -29.4511 7.4446 28.4328
# 3 55.7169 36.0556 113.9330 -33.0528 -4.4459 14.3039
# 4 -21.9679 -29.4511 -33.0528 37.1926 10.1736 -2.5702
# 5 -0.9543 7.4446 -4.4459 10.1736 39.0020 -8.1459
# 6 27.8840 28.4328 14.3039 -2.5702 -8.1459 48.7552
#
#
#
# Elastic Compliance Matrix: (Units=1/GPa)
#
#
# Indices 1 2 3 4 5 6 
#
# 1 0.011769 -0.010663 -0.004130 -0.006092 0.003648 0.000987
# 2 -0.010663 0.041948 0.003836 0.034691 -0.021312 -0.021222
# 3 -0.004130 0.003836 0.013887 0.013663 -0.003615 -0.003833
# 4 -0.006092 0.034691 0.013663 0.068990 -0.027753 -0.021756
# 5 0.003648 -0.021312 -0.003615 -0.027753 0.040100 0.016640
# 6 0.000987 -0.021222 -0.003833 -0.021756 0.016640 0.035080
#
#
# Mechanical properties :
#
#
# Convention : Reuss Voigt Hill
#
# Bulk Modulus (GPa) = 21.88614 72.92526 47.40570
# Shear Modulus (GPa) = 20.08708 37.43702 28.76205
#
# Velocity S-wave (km/s) = 2.85858 3.90250 3.42060
# Velocity P-wave (km/s) = 4.44957 7.06910 5.90639
#
# Compressibility (1/GPa) = 0.04569102
#
# Stress axis : x y z
#
# Youngs Moduli (GPa) = 84.96813 23.83912 72.01112
#
# Poissons Ratio (x) = 0.25419 0.29740
# Poissons Ratio (y) = 0.90599 -0.27625
# Poissons Ratio (z) = 0.35091 -0.09145
#
# Static dielectric constant tensor:
#      x y z
#    x 5.084480 0.244220 0.173890 
#    y 0.244220 4.305360 0.145050 
#    z 0.173890 0.145050 4.546040 
# 
# 
# High freq. dielectric constant tensor:
#      x y z
#    x 1.982590 0.000050 -0.021680 
#    y 0.000050 1.974060 0.012670 
#    z -0.021680 0.012670 1.981620 
# 
# From -- ./inp_files/306204.got.cif
#   From: 2010.06.25/outbox.cif.g09.slc.cpg/sg2_154_cif.got.tgz:306204.got - 2010.06.27 13:26:56.
