data_PCOD8010365
_publ_section_title
;
Structure prediction by ZEFSAII (Michael W. Deem and Ramdas Pophale) SiO2 
 PCOD8010365
Probable space group: P -1
;
_chemical_formula_sum "Si O2"
_cell_formula_units_Z 16
_cell_length_a 9.282060
_cell_length_b 13.740143
_cell_length_c 12.030169
_cell_angle_alpha 31.017414
_cell_angle_beta 103.381775
_cell_angle_gamma 91.640445
_cell_volume 723.731912
_symmetry_space_group_name_H-M "P -1"
_symmetry_group_IT_number 2
_symmetry_cell_setting 'triclinic'
loop_
_space_group_symop_operation_xyz
x,y,z
-x,-y,-z
loop_
_atom_site_type_symbol
_atom_site_label
_atom_site_fract_x
_atom_site_fract_y
_atom_site_fract_z
Si Si1 0.275476 0.514794 0.135194
Si Si2 0.233740 0.784160 0.227619
Si Si3 0.140477 0.257632 0.512398
Si Si4 0.595133 0.371705 0.241448
Si Si5 0.898030 0.769052 0.211563
Si Si6 0.365011 0.822502 0.985940
Si Si7 0.897191 0.196063 0.358897
Si Si8 0.306315 0.434621 0.738265
O O1 0.185724 0.437029 0.289926
O O2 0.448834 0.340641 0.314825
O O3 0.306639 0.716327 0.979592
O O4 0.159748 0.598214 0.926643
O O5 0.322938 0.731423 0.179807
O O6 0.327929 0.623620 0.492065
O O7 0.061984 0.770382 0.192207
O O8 0.225043 0.006720 0.045535
O O9 0.087936 0.302511 0.587124
O O10 0.000685 0.223500 0.452582
O O11 0.292702 0.059484 0.729171
O O12 0.736329 0.177497 0.406708
O O13 0.686218 0.503797 0.192773
O O14 0.500000 0.500000 0.000000
O O15 0.850509 0.609720 0.282965
O O16 0.552284 0.767084 0.069799
O O17 0.000000 0.000000 0.500000
#
# Coordination Sequence:
#
# PCOD8010365 Si02
#       8
#     2   2   2   2   2   2   2   2
#     4  10  21  41  65  90 126 165 206 257 318 366
#     4  10  21  38  59  90 129 162 206 260 310 363
#     4  11  22  39  63  92 127 161 213 258 308 371
#     4   9  22  41  66  91 126 161 205 260 310 369
#     4  10  23  39  61  93 126 162 210 259 310 371
#     4  10  22  37  59  91 124 167 205 259 304 374
#     4  11  21  41  70  91 122 166 210 258 314 369
#     4  11  21  38  65  88 123 166 207 250 320 373
#
# _framework density 22.107634000000001
#
# number of rings (size 3 to 8) (size 9 to 14) (size 15 to 20)
#    0.000    1.750    1.250    2.625    0.000    6.000 
#    0.000    0.625    8.250    0.000    0.000    0.000 
#    0.000    0.000    0.000    0.000    0.000    0.000 
#
# Total GULP energy -198226.040246 kJ/mol
# GULP energy per Si atom -12389.127515 kJ/mol
# Density = 2.205732 g / cm^3
# Si number density = 22.107634 Si / 1000 Ang^3
#
#
#
# Elastic Constant Matrix: (Units=GPa)
#
#
# Indices 1 2 3 4 5 6 
#
# 1 76.9971 36.0130 6.7497 -9.8933 10.2720 -12.2954
# 2 36.0130 93.8632 26.4060 12.1323 12.9688 8.4391
# 3 6.7497 26.4060 77.5531 -8.0541 5.5222 11.3719
# 4 -9.8933 12.1323 -8.0541 27.8481 -6.1673 14.4431
# 5 10.2720 12.9688 5.5222 -6.1673 35.7007 -5.3056
# 6 -12.2954 8.4391 11.3719 14.4431 -5.3056 36.7319
#
#
#
# Elastic Compliance Matrix: (Units=1/GPa)
#
#
# Indices 1 2 3 4 5 6 
#
# 1 0.019117 -0.009410 0.001856 0.009126 -0.000142 0.004377
# 2 -0.009410 0.018819 -0.006593 -0.014401 -0.005685 -0.000591
# 3 0.001856 -0.006593 0.017545 0.012984 0.000145 -0.008380
# 4 0.009126 -0.014401 0.012984 0.061758 0.008181 -0.020758
# 5 -0.000142 -0.005685 0.000145 0.008181 0.031894 0.002604
# 6 0.004377 -0.000591 -0.008380 -0.020758 0.002604 0.039958
#
#
# Mechanical properties :
#
#
# Convention : Reuss Voigt Hill
#
# Bulk Modulus (GPa) = 36.78270 42.97231 39.87751
# Shear Modulus (GPa) = 22.08028 32.00579 27.04303
#
# Velocity S-wave (km/s) = 3.16375 3.80903 3.50129
# Velocity P-wave (km/s) = 5.47904 6.23096 5.86706
#
# Compressibility (1/GPa) = 0.02718670
#
# Stress axis : x y z
#
# Youngs Moduli (GPa) = 52.31004 53.13773 56.99786
#
# Poissons Ratio (x) = 0.50005 -0.10581
# Poissons Ratio (y) = 0.49226 0.37577
# Poissons Ratio (z) = -0.09711 0.35032
#
# Static dielectric constant tensor:
#      x y z
#    x 4.596730 -0.396290 0.300880 
#    y -0.396290 4.121210 0.059660 
#    z 0.300880 0.059660 4.005750 
# 
# 
# High freq. dielectric constant tensor:
#      x y z
#    x 1.875650 -0.016100 0.025940 
#    y -0.016100 1.870870 0.013480 
#    z 0.025940 0.013480 1.861600 
# 
# From -- ./inp_files/398208.got.cif
#   From: 2010.06.25/outbox.cif.g09.slc.cpg/sg2_200_cif.got.tgz:398208.got - 2010.06.27 13:26:56.
