data_PCOD8010716
_publ_section_title
;
Structure prediction by ZEFSAII (Michael W. Deem and Ramdas Pophale) SiO2 
 PCOD8010716
Probable space group: P -1
;
_chemical_formula_sum "Si O2"
_cell_formula_units_Z 16
_cell_length_a 11.705419
_cell_length_b 14.098848
_cell_length_c 14.430075
_cell_angle_alpha 133.984209
_cell_angle_beta 148.704348
_cell_angle_gamma 65.723253
_cell_volume 777.081215
_symmetry_space_group_name_H-M "P -1"
_symmetry_group_IT_number 2
_symmetry_cell_setting 'triclinic'
loop_
_space_group_symop_operation_xyz
x,y,z
-x,-y,-z
loop_
_atom_site_type_symbol
_atom_site_label
_atom_site_fract_x
_atom_site_fract_y
_atom_site_fract_z
Si Si1 0.647860 0.574139 0.446479
Si Si2 0.446596 0.266623 0.178605
Si Si3 0.641873 0.694486 0.054818
Si Si4 0.790688 0.192487 0.471348
Si Si5 0.599204 0.928382 0.293943
Si Si6 0.919983 0.132963 0.804411
Si Si7 0.104350 0.885330 0.010762
Si Si8 0.760498 0.341166 0.728536
O O1 0.608355 0.451420 0.416209
O O2 0.480178 0.652768 0.399292
O O3 0.929113 0.713074 0.737621
O O4 0.563356 0.482763 0.226894
O O5 0.624243 0.190286 0.266231
O O6 0.319551 0.214375 0.953460
O O7 0.222703 0.210697 0.060753
O O8 0.538348 0.759970 0.108357
O O9 0.913728 0.716269 0.287687
O O10 0.713786 0.281151 0.551606
O O11 0.718326 0.029769 0.353159
O O12 0.793911 0.980703 0.551078
O O13 0.355804 0.940236 0.163018
O O14 0.812241 0.236563 0.761174
O O15 0.834399 0.103822 0.831046
O O16 0.000000 0.000000 0.000000
O O17 0.000000 0.500000 0.000000
#
# Coordination Sequence:
#
# PCOD8010716 Si02
#       8
#     2   2   2   2   2   2   2   2
#     4  10  22  39  62  95 128 161 208 269 312 373
#     4  10  21  38  63 101 119 164 205 268 325 359
#     4  10  22  42  62  97 127 164 210 267 320 372
#     4  11  21  37  65  95 130 163 211 265 320 373
#     4  11  23  43  62  88 135 173 206 259 311 389
#     4  11  22  40  66  93 124 166 216 263 319 370
#     4  12  26  43  62  92 127 173 219 256 311 384
#     4  11  17  34  63  93 127 155 201 269 318 358
#
# _framework density 20.589869
#
# number of rings (size 3 to 8) (size 9 to 14) (size 15 to 20)
#    0.750    0.500    5.000    3.750    1.750    2.000 
#    2.250    0.000    0.000    3.750    0.000    0.000 
#    0.000    0.000    0.000    0.000    0.000    0.000 
#
# Total GULP energy -198300.264669 kJ/mol
# GULP energy per Si atom -12393.766542 kJ/mol
# Density = 2.054301 g / cm^3
# Si number density = 20.589869 Si / 1000 Ang^3
#
#
#
# Elastic Constant Matrix: (Units=GPa)
#
#
# Indices 1 2 3 4 5 6 
#
# 1 66.7353 36.2297 19.1458 4.3184 -9.0703 -18.4010
# 2 36.2297 55.2213 34.9199 -12.4437 -5.1921 -13.0207
# 3 19.1458 34.9199 90.4337 3.6964 2.3156 -10.1341
# 4 4.3184 -12.4437 3.6964 41.6885 -8.2928 -3.7727
# 5 -9.0703 -5.1921 2.3156 -8.2928 23.6294 7.8559
# 6 -18.4010 -13.0207 -10.1341 -3.7727 7.8559 28.3839
#
#
#
# Elastic Compliance Matrix: (Units=1/GPa)
#
#
# Indices 1 2 3 4 5 6 
#
# 1 0.028053 -0.020213 0.003205 -0.008396 0.000103 0.008914
# 2 -0.020213 0.046441 -0.014362 0.019425 0.009681 0.002975
# 3 0.003205 -0.014362 0.016665 -0.007253 -0.006897 0.002384
# 4 -0.008396 0.019425 -0.007253 0.034069 0.013123 0.001774
# 5 0.000103 0.009681 -0.006897 0.013123 0.053424 -0.010997
# 6 0.008914 0.002975 0.002384 0.001774 -0.010997 0.046506
#
#
# Mechanical properties :
#
#
# Convention : Reuss Voigt Hill
#
# Bulk Modulus (GPa) = 35.18537 43.66457 39.42497
# Shear Modulus (GPa) = 16.81401 26.88003 21.84702
#
# Velocity S-wave (km/s) = 2.86075 3.61709 3.26092
# Velocity P-wave (km/s) = 5.29506 6.22071 5.77646
#
# Compressibility (1/GPa) = 0.02842090
#
# Stress axis : x y z
#
# Youngs Moduli (GPa) = 35.64626 21.53276 60.00548
#
# Poissons Ratio (x) = 0.43523 -0.19233
# Poissons Ratio (y) = 0.72050 0.86179
# Poissons Ratio (z) = -0.11425 0.30925
#
# Static dielectric constant tensor:
#      x y z
#    x 3.533040 0.020400 -0.181560 
#    y 0.020400 3.627970 0.045100 
#    z -0.181560 0.045100 3.845550 
# 
# 
# High freq. dielectric constant tensor:
#      x y z
#    x 1.782640 -0.016110 -0.006150 
#    y -0.016110 1.795180 -0.004790 
#    z -0.006150 -0.004790 1.814820 
# 
# From -- ./inp_files/522458.got.cif
#   From: 2010.06.25/outbox.cif.g09.slc.cpg/sg2_262_cif.got.tgz:522458.got - 2010.06.27 13:26:56.
