data_PCOD8010832
_publ_section_title
;
Structure prediction by ZEFSAII (Michael W. Deem and Ramdas Pophale) SiO2 
 PCOD8010832
Probable space group: P -1
;
_chemical_formula_sum "Si O2"
_cell_formula_units_Z 16
_cell_length_a 14.973540
_cell_length_b 8.518873
_cell_length_c 10.981672
_cell_angle_alpha 41.295364
_cell_angle_beta 124.777413
_cell_angle_gamma 122.503272
_cell_volume 743.859936
_symmetry_space_group_name_H-M "P -1"
_symmetry_group_IT_number 2
_symmetry_cell_setting 'triclinic'
loop_
_space_group_symop_operation_xyz
x,y,z
-x,-y,-z
loop_
_atom_site_type_symbol
_atom_site_label
_atom_site_fract_x
_atom_site_fract_y
_atom_site_fract_z
Si Si1 0.860625 0.914054 0.088683
Si Si2 0.545386 0.768323 0.714999
Si Si3 0.528503 0.751539 0.983054
Si Si4 0.131435 0.585602 0.566711
Si Si5 0.715545 0.157296 0.257374
Si Si6 0.296790 0.836986 0.031343
Si Si7 0.704144 0.695806 0.666109
Si Si8 0.118990 0.063783 0.179944
O O1 0.824183 0.661303 0.284102
O O2 0.792390 0.104545 0.976100
O O3 0.838964 0.833587 0.978387
O O4 0.989685 0.034765 0.123585
O O5 0.588221 0.809937 0.863706
O O6 0.639906 0.738312 0.713373
O O7 0.500000 0.000000 0.500000
O O8 0.455150 0.511044 0.799744
O O9 0.396717 0.738992 0.875455
O O10 0.588849 0.963025 0.995988
O O11 0.180786 0.689695 0.675800
O O12 0.000000 0.500000 0.500000
O O13 0.164407 0.808724 0.369306
O O14 0.753572 0.174493 0.136614
O O15 0.685409 0.874733 0.439148
O O16 0.326774 0.580475 0.243498
O O17 0.830708 0.755812 0.777118
#
# Coordination Sequence:
#
# PCOD8010832 Si02
#       8
#     2   2   2   2   2   2   2   2
#     4  10  21  38  64  90 118 161 204 260 313 359
#     4  11  23  41  66  92 116 165 217 260 297 355
#     4  11  25  40  63  93 124 165 211 251 302 374
#     4   9  20  40  65  88 114 156 211 263 303 351
#     4  11  23  41  62  89 127 167 203 253 313 371
#     4  12  26  39  58  93 133 167 199 249 317 379
#     4  11  23  40  61  88 125 164 204 256 309 362
#     4   9  20  40  64  89 115 154 217 261 297 365
#
# _framework density 21.509426000000001
#
# number of rings (size 3 to 8) (size 9 to 14) (size 15 to 20)
#    0.000    1.500    2.500    1.875    3.500    3.000 
#    0.000    5.625    0.000    0.000    0.000    0.000 
#    0.000    0.000    0.000    0.000    0.000    0.000 
#
# Total GULP energy -198232.087426 kJ/mol
# GULP energy per Si atom -12389.505464 kJ/mol
# Density = 2.146047 g / cm^3
# Si number density = 21.509426 Si / 1000 Ang^3
#
#
#
# Elastic Constant Matrix: (Units=GPa)
#
#
# Indices 1 2 3 4 5 6 
#
# 1 79.3148 23.5156 23.1078 -4.0470 7.6584 -1.8790
# 2 23.5156 109.9642 46.8239 -13.3534 12.4038 -0.7956
# 3 23.1078 46.8239 117.7303 -30.7944 3.3083 5.1480
# 4 -4.0470 -13.3534 -30.7944 41.7263 -1.3690 3.2740
# 5 7.6584 12.4038 3.3083 -1.3690 26.2167 -7.0870
# 6 -1.8790 -0.7956 5.1480 3.2740 -7.0870 16.9552
#
#
#
# Elastic Compliance Matrix: (Units=1/GPa)
#
#
# Indices 1 2 3 4 5 6 
#
# 1 0.014056 -0.001856 -0.002292 -0.001109 -0.002653 0.001272
# 2 -0.001856 0.011792 -0.004048 0.000490 -0.004622 -0.000450
# 3 -0.002292 -0.004048 0.013088 0.008618 -0.000294 -0.006205
# 4 -0.001109 0.000490 0.008618 0.031059 -0.001949 -0.009529
# 5 -0.002653 -0.004622 -0.000294 -0.001949 0.046255 0.019289
# 6 0.001272 -0.000450 -0.006205 -0.009529 0.019289 0.070885
#
#
# Mechanical properties :
#
#
# Convention : Reuss Voigt Hill
#
# Bulk Modulus (GPa) = 44.35818 54.87818 49.61818
# Shear Modulus (GPa) = 23.69217 31.21712 27.45464
#
# Velocity S-wave (km/s) = 3.32245 3.81376 3.57655
# Velocity P-wave (km/s) = 5.94859 6.70536 6.33828
#
# Compressibility (1/GPa) = 0.02254375
#
# Stress axis : x y z
#
# Youngs Moduli (GPa) = 71.14569 84.80282 76.40843
#
# Poissons Ratio (x) = 0.15741 0.17510
# Poissons Ratio (y) = 0.13206 0.30929
# Poissons Ratio (z) = 0.16304 0.34327
#
# Static dielectric constant tensor:
#      x y z
#    x 3.618880 0.126530 -0.018440 
#    y 0.126530 4.109590 -0.171810 
#    z -0.018440 -0.171810 4.415730 
# 
# 
# High freq. dielectric constant tensor:
#      x y z
#    x 1.817620 0.010790 -0.003070 
#    y 0.010790 1.852130 -0.011890 
#    z -0.003070 -0.011890 1.860540 
# 
# From -- ./inp_files/446716.got.cif
#   From: 2010.06.25/outbox.cif.g09.slc.cpg/sg2_224_cif.got.tgz:446716.got - 2010.06.27 13:26:56.
