data_PCOD8010149
_publ_section_title
;
Structure prediction by ZEFSAII (Michael W. Deem and Ramdas Pophale) SiO2 
 PCOD8010149
Probable space group: P -1
;
_chemical_formula_sum "Si O2"
_cell_formula_units_Z 16
_cell_length_a 18.962003
_cell_length_b 5.295203
_cell_length_c 23.295547
_cell_angle_alpha 106.498493
_cell_angle_beta 157.741284
_cell_angle_gamma 62.787128
_cell_volume 717.486991
_symmetry_space_group_name_H-M "P -1"
_symmetry_group_IT_number 2
_symmetry_cell_setting 'triclinic'
loop_
_space_group_symop_operation_xyz
x,y,z
-x,-y,-z
loop_
_atom_site_type_symbol
_atom_site_label
_atom_site_fract_x
_atom_site_fract_y
_atom_site_fract_z
Si Si1 0.246760 0.863583 0.658288
Si Si2 0.344180 0.648600 0.221350
Si Si3 0.519349 0.230858 0.782119
Si Si4 0.012011 0.178938 0.863713
Si Si5 0.574782 0.890838 0.984964
Si Si6 0.253012 0.968941 0.534715
Si Si7 0.143151 0.837028 0.828921
Si Si8 0.087252 0.182520 0.138626
O O1 0.394327 0.489246 0.754369
O O2 0.250267 0.915829 0.596833
O O3 0.359167 0.008400 0.789941
O O4 0.000000 0.000000 0.500000
O O5 0.364490 0.674487 0.170599
O O6 0.571606 0.334469 0.390249
O O7 0.305417 0.935395 0.250375
O O8 0.116832 0.648615 0.050380
O O9 0.340574 0.198617 0.610213
O O10 0.728475 0.923241 0.947627
O O11 0.872290 0.555508 0.788459
O O12 0.980198 0.068407 0.770620
O O13 0.939423 0.021370 0.846074
O O14 0.733128 0.516493 0.077707
O O15 0.691399 0.064225 0.061350
O O16 0.500000 0.000000 0.000000
O O17 0.008909 0.129336 0.337016
#
# Coordination Sequence:
#
# PCOD8010149 Si02
#       8
#     2   2   2   2   2   2   2   2
#     4  11  25  44  69 100 132 173 226 281 327 396
#     4   9  21  36  62  98 127 167 221 282 323 387
#     4  10  21  39  66  91 130 174 222 273 329 391
#     4  11  21  41  64  96 126 182 215 270 334 396
#     4  12  27  48  70 100 135 177 224 274 337 400
#     4  11  24  42  67  96 133 179 225 273 336 389
#     4  12  27  45  69  95 140 181 220 271 338 406
#     4  10  21  37  66  96 131 167 225 275 330 391
#
# _framework density 22.300056999999999
#
# number of rings (size 3 to 8) (size 9 to 14) (size 15 to 20)
#    0.000    1.250    2.500    2.625    8.750    2.000 
#    0.000    1.250    0.000    0.000    0.000    0.000 
#    0.000    0.000    0.000    0.000    0.000    0.000 
#
# Total GULP energy -198251.507006 kJ/mol
# GULP energy per Si atom -12390.719188 kJ/mol
# Density = 2.224930 g / cm^3
# Si number density = 22.300057 Si / 1000 Ang^3
#
#
#
# Elastic Constant Matrix: (Units=GPa)
#
#
# Indices 1 2 3 4 5 6 
#
# 1 66.4935 25.4272 23.7422 -6.5315 1.0813 -14.7410
# 2 25.4272 113.1203 13.3535 0.2441 4.1042 -11.3448
# 3 23.7422 13.3535 111.3268 19.6968 -1.2054 -2.7255
# 4 -6.5315 0.2441 19.6968 28.4764 -10.1091 3.5992
# 5 1.0813 4.1042 -1.2054 -10.1091 28.9826 1.6988
# 6 -14.7410 -11.3448 -2.7255 3.5992 1.6988 46.3894
#
#
#
# Elastic Compliance Matrix: (Units=1/GPa)
#
#
# Indices 1 2 3 4 5 6 
#
# 1 0.020037 -0.003541 -0.005212 0.008458 0.002226 0.004457
# 2 -0.003541 0.009873 -0.000113 -0.001698 -0.001950 0.001486
# 3 -0.005212 -0.000113 0.011929 -0.010484 -0.002947 -0.000062
# 4 0.008458 -0.001698 -0.010484 0.050871 0.017405 -0.002928
# 5 0.002226 -0.001950 -0.002947 0.017405 0.040808 -0.002787
# 6 0.004457 0.001486 -0.000062 -0.002928 -0.002787 0.023662
#
#
# Mechanical properties :
#
#
# Convention : Reuss Voigt Hill
#
# Bulk Modulus (GPa) = 41.48121 46.22070 43.85095
# Shear Modulus (GPa) = 27.33032 35.99753 31.66392
#
# Velocity S-wave (km/s) = 3.50461 4.02211 3.77225
# Velocity P-wave (km/s) = 5.91762 6.50704 6.21932
#
# Compressibility (1/GPa) = 0.02410730
#
# Stress axis : x y z
#
# Youngs Moduli (GPa) = 49.90874 101.28809 83.82875
#
# Poissons Ratio (x) = 0.35862 0.43688
# Poissons Ratio (y) = 0.17671 0.00950
# Poissons Ratio (z) = 0.26010 0.01148
#
# Static dielectric constant tensor:
#      x y z
#    x 4.188490 -0.141140 0.212440 
#    y -0.141140 4.265400 -0.034400 
#    z 0.212440 -0.034400 4.089710 
# 
# 
# High freq. dielectric constant tensor:
#      x y z
#    x 1.878530 -0.013520 0.006480 
#    y -0.013520 1.887910 -0.002060 
#    z 0.006480 -0.002060 1.856340 
# 
# From -- ./inp_files/49026.got.cif
#   From: 2010.06.25/outbox.cif.g09.slc.cpg/sg2_25_cif.got.tgz:49026.got - 2010.06.27 13:26:56.
