data_PCOD8010299
_publ_section_title
;
Structure prediction by ZEFSAII (Michael W. Deem and Ramdas Pophale) SiO2 
 PCOD8010299
Probable space group: P -1
;
_chemical_formula_sum "Si O2"
_cell_formula_units_Z 16
_cell_length_a 17.696555
_cell_length_b 8.930265
_cell_length_c 15.455953
_cell_angle_alpha 77.283228
_cell_angle_beta 156.518219
_cell_angle_gamma 117.485152
_cell_volume 706.551425
_symmetry_space_group_name_H-M "P -1"
_symmetry_group_IT_number 2
_symmetry_cell_setting 'triclinic'
loop_
_space_group_symop_operation_xyz
x,y,z
-x,-y,-z
loop_
_atom_site_type_symbol
_atom_site_label
_atom_site_fract_x
_atom_site_fract_y
_atom_site_fract_z
Si Si1 0.084701 0.895976 0.156020
Si Si2 0.765295 0.880360 0.120355
Si Si3 0.751627 0.552738 0.730283
Si Si4 0.060696 0.948331 0.899604
Si Si5 0.397683 0.799473 0.494001
Si Si6 0.778271 0.387597 0.478712
Si Si7 0.758686 0.184794 0.163039
Si Si8 0.194953 0.862344 0.593959
O O1 0.363952 0.968948 0.427540
O O2 0.050982 0.938236 0.213784
O O3 0.919503 0.657927 0.981303
O O4 0.000000 0.000000 0.000000
O O5 0.955132 0.846946 0.347845
O O6 0.873313 0.033512 0.132709
O O7 0.752488 0.996119 0.169369
O O8 0.477930 0.668201 0.821726
O O9 0.500000 0.500000 0.500000
O O10 0.708729 0.354960 0.680454
O O11 0.865889 0.708848 0.749430
O O12 0.302840 0.064934 0.202618
O O13 0.255624 0.667052 0.448983
O O14 0.835285 0.260517 0.505293
O O15 0.025433 0.627446 0.695321
O O16 0.818428 0.247432 0.318668
O O17 0.474577 0.096657 0.852924
#
# Coordination Sequence:
#
# PCOD8010299 Si02
#       8
#     2   2   2   2   2   2   2   2
#     4  10  22  40  60  85 113 152 196 242 295 351
#     4  10  21  38  60  87 118 159 199 242 292 355
#     4  11  22  40  59  86 116 149 195 246 294 353
#     4  10  22  41  59  83 119 153 193 246 297 348
#     4  11  22  41  62  83 119 155 193 246 299 347
#     4  10  22  38  60  89 120 154 200 242 296 351
#     4  10  21  38  58  89 123 157 196 246 289 349
#     4  10  21  38  60  86 124 158 197 241 293 348
#
# _framework density 22.645202999999999
#
# number of rings (size 3 to 8) (size 9 to 14) (size 15 to 20)
#    0.000    1.750    1.250    2.625    0.000    3.500 
#    6.750    0.000    0.000    0.000    0.000    0.000 
#    0.000    0.000    0.000    0.000    0.000    0.000 
#
# Total GULP energy -198241.393627 kJ/mol
# GULP energy per Si atom -12390.087102 kJ/mol
# Density = 2.259366 g / cm^3
# Si number density = 22.645203 Si / 1000 Ang^3
#
#
#
# Elastic Constant Matrix: (Units=GPa)
#
#
# Indices 1 2 3 4 5 6 
#
# 1 65.9477 23.0613 7.1191 2.6200 11.4087 -14.1684
# 2 23.0613 87.5290 40.1890 -4.6881 6.8498 -14.1582
# 3 7.1191 40.1890 90.3051 -13.1539 19.8398 -8.9975
# 4 2.6200 -4.6881 -13.1539 39.0123 -4.1844 10.5438
# 5 11.4087 6.8498 19.8398 -4.1844 38.2392 1.7962
# 6 -14.1684 -14.1582 -8.9975 10.5438 1.7962 35.5322
#
#
#
# Elastic Compliance Matrix: (Units=1/GPa)
#
#
# Indices 1 2 3 4 5 6 
#
# 1 0.019644 -0.004555 0.002244 -0.004067 -0.007037 0.008149
# 2 -0.004555 0.016157 -0.007063 -0.000727 0.001911 0.002952
# 3 0.002244 -0.007063 0.016349 0.003254 -0.007607 0.001639
# 4 -0.004067 -0.000727 0.003254 0.030032 0.003420 -0.010172
# 5 -0.007037 0.001911 -0.007607 0.003420 0.032541 -0.006631
# 6 0.008149 0.002952 0.001639 -0.010172 -0.006631 0.036338
#
#
# Mechanical properties :
#
#
# Convention : Reuss Voigt Hill
#
# Bulk Modulus (GPa) = 29.93877 42.72449 36.33163
# Shear Modulus (GPa) = 27.63330 34.11756 30.87543
#
# Velocity S-wave (km/s) = 3.49703 3.88572 3.69649
# Velocity P-wave (km/s) = 5.43646 6.24817 5.85640
#
# Compressibility (1/GPa) = 0.03340150
#
# Stress axis : x y z
#
# Youngs Moduli (GPa) = 50.90678 61.89332 61.16764
#
# Poissons Ratio (x) = 0.28192 -0.13726
# Poissons Ratio (y) = 0.23188 0.43202
# Poissons Ratio (z) = -0.11423 0.43714
#
# Static dielectric constant tensor:
#      x y z
#    x 3.853270 -1.104670 0.625710 
#    y -1.104670 3.077260 0.577160 
#    z 0.625710 0.577160 4.126400 
# 
# 
# High freq. dielectric constant tensor:
#      x y z
#    x 1.911250 -0.021680 0.020090 
#    y -0.021680 1.863780 -0.001150 
#    z 0.020090 -0.001150 1.908010 
# 
# From -- ./inp_files/575546.got.cif
#   From: 2010.06.25/outbox.cif.g09.slc.cpg/sg2_288_cif.got.tgz:575546.got - 2010.06.27 13:26:56.
