data_PCOD8010934
_publ_section_title
;
Structure prediction by ZEFSAII (Michael W. Deem and Ramdas Pophale) SiO2 
 PCOD8010934
Probable space group: P -1
;
_chemical_formula_sum "Si O2"
_cell_formula_units_Z 16
_cell_length_a 15.331364
_cell_length_b 15.029713
_cell_length_c 16.188504
_cell_angle_alpha 148.730219
_cell_angle_beta 152.624120
_cell_angle_gamma 31.067264
_cell_volume 812.581767
_symmetry_space_group_name_H-M "P -1"
_symmetry_group_IT_number 2
_symmetry_cell_setting 'triclinic'
loop_
_space_group_symop_operation_xyz
x,y,z
-x,-y,-z
loop_
_atom_site_type_symbol
_atom_site_label
_atom_site_fract_x
_atom_site_fract_y
_atom_site_fract_z
Si Si1 0.504117 0.254856 0.749666
Si Si2 0.100678 0.463227 0.879556
Si Si3 0.993892 0.811093 0.310670
Si Si4 0.264352 0.162132 0.332338
Si Si5 0.368142 0.165585 0.077190
Si Si6 0.652514 0.459254 0.709672
Si Si7 0.797712 0.463016 0.155284
Si Si8 0.645249 0.734973 0.684336
O O1 0.397638 0.234695 0.560268
O O2 0.310100 0.364937 0.735112
O O3 0.676077 0.055996 0.769789
O O4 0.633884 0.374001 0.931082
O O5 0.173676 0.440715 0.828211
O O6 0.104062 0.267835 0.760972
O O7 0.868891 0.612694 0.811757
O O8 0.232496 0.542994 0.109845
O O9 0.223259 0.679297 0.369515
O O10 0.000000 0.000000 0.500000
O O11 0.865259 0.815117 0.121882
O O12 0.346644 0.156641 0.304842
O O13 0.018559 0.300962 0.243915
O O14 0.423302 0.338360 0.234634
O O15 0.443628 0.116377 0.196998
O O16 0.500000 0.000000 0.000000
O O17 0.467373 0.402960 0.536277
#
# Coordination Sequence:
#
# PCOD8010934 Si02
#       8
#     2   2   2   2   2   2   2   2
#     4  10  21  40  62  89 119 153 195 243 311 363
#     4  10  21  39  57  87 117 152 199 241 290 348
#     4  11  22  37  58  82 119 159 197 238 291 341
#     4  10  22  38  62  90 120 152 199 245 300 360
#     4  11  22  36  56  84 116 156 201 242 284 345
#     4  11  21  38  58  79 119 157 192 238 290 340
#     4  10  21  38  65  86 119 155 194 247 302 356
#     4  11  21  37  61  85 117 156 198 240 293 344
#
# _framework density 19.690325000000001
#
# number of rings (size 3 to 8) (size 9 to 14) (size 15 to 20)
#    0.000    1.500    2.500    3.375    1.750    3.000 
#    0.000    0.000    2.750    0.000    0.000    0.000 
#    0.000    0.000    0.000    0.000    0.000    0.000 
#
# Total GULP energy -198272.726021 kJ/mol
# GULP energy per Si atom -12392.045376 kJ/mol
# Density = 1.964551 g / cm^3
# Si number density = 19.690325 Si / 1000 Ang^3
#
#
#
# Elastic Constant Matrix: (Units=GPa)
#
#
# Indices 1 2 3 4 5 6 
#
# 1 76.1950 39.0124 40.4121 -8.5255 -5.1685 -1.0544
# 2 39.0124 92.7428 27.1020 4.5547 -17.6052 -7.0096
# 3 40.4121 27.1020 93.7156 0.8443 -15.1351 15.3457
# 4 -8.5255 4.5547 0.8443 33.2906 -1.5865 -4.5753
# 5 -5.1685 -17.6052 -15.1351 -1.5865 20.5551 2.6134
# 6 -1.0544 -7.0096 15.3457 -4.5753 2.6134 24.2533
#
#
#
# Elastic Compliance Matrix: (Units=1/GPa)
#
#
# Indices 1 2 3 4 5 6 
#
# 1 0.023331 -0.008327 -0.010513 0.008003 -0.009378 0.007780
# 2 -0.008327 0.016818 0.000307 -0.003549 0.011965 0.002346
# 3 -0.010513 0.000307 0.019910 -0.004687 0.013869 -0.015344
# 4 0.008003 -0.003549 -0.004687 0.033784 -0.003013 0.008986
# 5 -0.009378 0.011965 0.013869 -0.003013 0.068254 -0.013648
# 6 0.007780 0.002346 -0.015344 0.008986 -0.013648 0.055122
#
#
# Mechanical properties :
#
#
# Convention : Reuss Voigt Hill
#
# Bulk Modulus (GPa) = 43.49140 52.85629 48.17384
# Shear Modulus (GPa) = 19.08768 26.02827 22.55797
#
# Velocity S-wave (km/s) = 3.11689 3.63971 3.38840
# Velocity P-wave (km/s) = 5.92359 6.67573 6.31088
#
# Compressibility (1/GPa) = 0.02299305
#
# Stress axis : x y z
#
# Youngs Moduli (GPa) = 42.86214 59.45865 50.22653
#
# Poissons Ratio (x) = 0.49512 0.52803
# Poissons Ratio (y) = 0.35692 -0.01543
# Poissons Ratio (z) = 0.45061 -0.01827
#
# Static dielectric constant tensor:
#      x y z
#    x 3.688420 -0.091620 -0.105230 
#    y -0.091620 3.390010 0.025090 
#    z -0.105230 0.025090 3.534680 
# 
# 
# High freq. dielectric constant tensor:
#      x y z
#    x 1.767880 -0.006770 -0.005670 
#    y -0.006770 1.764960 -0.008070 
#    z -0.005670 -0.008070 1.784190 
# 
# From -- ./inp_files/214892.got.cif
#   From: 2010.06.25/outbox.cif.g09.slc.cpg/sg2_108_cif.got.tgz:214892.got - 2010.06.27 13:26:56.
