data_PCOD8010215
_publ_section_title
;
Structure prediction by ZEFSAII (Michael W. Deem and Ramdas Pophale) SiO2 
 PCOD8010215
Probable space group: P -1
;
_chemical_formula_sum "Si O2"
_cell_formula_units_Z 14
_cell_length_a 5.110493
_cell_length_b 14.339425
_cell_length_c 18.947678
_cell_angle_alpha 28.641891
_cell_angle_beta 112.968691
_cell_angle_gamma 111.915498
_cell_volume 611.304556
_symmetry_space_group_name_H-M "P -1"
_symmetry_group_IT_number 2
_symmetry_cell_setting 'triclinic'
loop_
_space_group_symop_operation_xyz
x,y,z
-x,-y,-z
loop_
_atom_site_type_symbol
_atom_site_label
_atom_site_fract_x
_atom_site_fract_y
_atom_site_fract_z
Si Si1 0.954510 0.440551 0.886094
Si Si2 0.877728 0.373720 0.669998
Si Si3 0.745034 0.756344 0.323405
Si Si4 0.680973 0.533499 0.224584
Si Si5 0.715161 0.080180 0.535129
Si Si6 0.825224 0.132416 0.334139
Si Si7 0.110619 0.902670 0.791190
O O1 0.638828 0.399947 0.846012
O O2 0.192744 0.393850 0.885286
O O3 0.010322 0.662315 0.768797
O O4 0.988862 0.304344 0.047557
O O5 0.823888 0.593353 0.496051
O O6 0.565326 0.283068 0.719525
O O7 0.007427 0.241812 0.710349
O O8 0.104329 0.372958 0.757093
O O9 0.719634 0.962452 0.222900
O O10 0.649691 0.301767 0.382176
O O11 0.947635 0.038124 0.526448
O O12 0.434438 0.927531 0.599241
O O13 0.836781 0.021100 0.663377
O O14 0.716832 0.135173 0.238459
#
# Coordination Sequence:
#
# PCOD8010215 Si02
#       7
#     2   2   2   2   2   2   2
#     4  12  27  40  66  90 139 168 206 248 342 362
#     4  10  21  40  63  96 119 159 208 269 302 371
#     4  10  21  37  70  90 118 160 218 252 313 358
#     4  12  25  44  61  99 131 167 200 274 313 381
#     4  10  23  40  69  85 132 157 223 257 308 352
#     4  10  23  41  67  93 122 172 217 263 293 381
#     4  10  25  43  65  97 124 170 214 265 294 392
#
# _framework density 22.901841999999998
#
# number of rings (size 3 to 8) (size 9 to 14) (size 15 to 20)
#    0.857    0.571    1.429    3.000    4.000    5.143 
#    0.000    4.286    0.000    0.000    0.000    0.000 
#    0.000    0.000    0.000    0.000    0.000    0.000 
#
# Total GULP energy -173540.734236 kJ/mol
# GULP energy per Si atom -12395.766731 kJ/mol
# Density = 2.284972 g / cm^3
# Si number density = 22.901842 Si / 1000 Ang^3
#
#
#
# Elastic Constant Matrix: (Units=GPa)
#
#
# Indices 1 2 3 4 5 6 
#
# 1 117.0232 19.5988 29.1546 -1.0478 -23.0686 11.3277
# 2 19.5988 92.2591 4.7581 0.5525 -0.3105 5.1712
# 3 29.1546 4.7581 78.0375 6.3368 -13.9292 6.3451
# 4 -1.0478 0.5525 6.3368 23.9968 0.6008 1.4857
# 5 -23.0686 -0.3105 -13.9292 0.6008 20.7330 4.0262
# 6 11.3277 5.1712 6.3451 1.4857 4.0262 32.0863
#
#
#
# Elastic Compliance Matrix: (Units=1/GPa)
#
#
# Indices 1 2 3 4 5 6 
#
# 1 0.012644 -0.002245 -0.001738 0.001058 0.013916 -0.005554
# 2 -0.002245 0.011359 -0.000194 -0.000207 -0.002316 -0.000700
# 3 -0.001738 -0.000194 0.015795 -0.004265 0.009473 -0.003470
# 4 0.001058 -0.000207 -0.004265 0.042988 -0.002714 -0.001147
# 5 0.013916 -0.002316 0.009473 -0.002714 0.073127 -0.015463
# 6 -0.005554 -0.000700 -0.003470 -0.001147 -0.015463 0.035919
#
#
# Mechanical properties :
#
#
# Convention : Reuss Voigt Hill
#
# Bulk Modulus (GPa) = 31.80062 43.81588 37.80825
# Shear Modulus (GPa) = 23.73439 30.95043 27.34241
#
# Velocity S-wave (km/s) = 3.22274 3.68018 3.45903
# Velocity P-wave (km/s) = 5.26914 6.10179 5.70069
#
# Compressibility (1/GPa) = 0.03144593
#
# Stress axis : x y z
#
# Youngs Moduli (GPa) = 79.08662 88.03952 63.31302
#
# Poissons Ratio (x) = 0.19762 0.11001
# Poissons Ratio (y) = 0.17752 0.01225
# Poissons Ratio (z) = 0.13741 0.01704
#
# Static dielectric constant tensor:
#      x y z
#    x 4.111840 0.059170 -0.072860 
#    y 0.059170 4.029290 0.217210 
#    z -0.072860 0.217210 3.991210 
# 
# 
# High freq. dielectric constant tensor:
#      x y z
#    x 1.909390 0.005960 -0.004170 
#    y 0.005960 1.910150 0.018620 
#    z -0.004170 0.018620 1.896930 
# 
# From -- ./inp_files/549933.got.cif
#   From: 2010.06.25/outbox.cif.g09.slc.cpg/sg2_275_cif.got.tgz:549933.got - 2010.06.27 13:26:56.
