data_PCOD8010525
_publ_section_title
;
Structure prediction by ZEFSAII (Michael W. Deem and Ramdas Pophale) SiO2 
 PCOD8010525
Probable space group: P -1
;
_chemical_formula_sum "Si O2"
_cell_formula_units_Z 16
_cell_length_a 8.391434
_cell_length_b 20.533698
_cell_length_c 22.906676
_cell_angle_alpha 168.227134
_cell_angle_beta 78.371653
_cell_angle_gamma 102.512669
_cell_volume 785.084791
_symmetry_space_group_name_H-M "P -1"
_symmetry_group_IT_number 2
_symmetry_cell_setting 'triclinic'
loop_
_space_group_symop_operation_xyz
x,y,z
-x,-y,-z
loop_
_atom_site_type_symbol
_atom_site_label
_atom_site_fract_x
_atom_site_fract_y
_atom_site_fract_z
Si Si1 0.864532 0.623834 0.040724
Si Si2 0.966641 0.540773 0.323602
Si Si3 0.670406 0.634902 0.580331
Si Si4 0.218613 0.792109 0.209037
Si Si5 0.394082 0.474873 0.821033
Si Si6 0.249410 0.955186 0.172359
Si Si7 0.240275 0.705152 0.359003
Si Si8 0.115825 0.862180 0.916752
O O1 0.809585 0.334364 0.834325
O O2 0.850083 0.483555 0.853625
O O3 0.051997 0.759509 0.155692
O O4 0.751288 0.911021 0.313212
O O5 0.143988 0.625570 0.356596
O O6 0.990773 0.373561 0.237565
O O7 0.871264 0.856327 0.613702
O O8 0.860801 0.303209 0.081832
O O9 0.500000 0.500000 0.500000
O O10 0.765675 0.328477 0.297038
O O11 0.645259 0.806257 0.670260
O O12 0.772970 0.864529 0.818675
O O13 0.279470 0.166621 0.536877
O O14 0.346896 0.579253 0.981336
O O15 0.579540 0.397985 0.738756
O O16 0.374968 0.780838 0.049793
O O17 0.000000 0.000000 0.000000
#
# Coordination Sequence:
#
# PCOD8010525 Si02
#       8
#     2   2   2   2   2   2   2   2
#     4  11  24  42  63  85 114 156 198 235 287 357
#     4  10  21  39  61  83 116 160 198 232 282 351
#     4  10  21  38  61  89 119 155 195 239 290 342
#     4  11  24  42  63  85 114 156 198 235 287 357
#     4  12  24  38  60  90 119 150 192 247 298 335
#     4  10  21  39  61  83 116 160 198 232 282 351
#     4  12  24  38  60  90 119 150 192 247 298 335
#     4  10  21  38  61  89 119 155 195 239 290 342
#
# _framework density 20.379964000000001
#
# number of rings (size 3 to 8) (size 9 to 14) (size 15 to 20)
#    0.000    1.250    0.000    6.750    0.000    6.000 
#    0.000    2.500    0.000    0.000    0.000    0.000 
#    0.000    0.000    0.000    0.000    0.000    0.000 
#
# Total GULP energy -198456.887449 kJ/mol
# GULP energy per Si atom -12403.555466 kJ/mol
# Density = 2.033358 g / cm^3
# Si number density = 20.379964 Si / 1000 Ang^3
#
#
#
# Elastic Constant Matrix: (Units=GPa)
#
#
# Indices 1 2 3 4 5 6 
#
# 1 111.9902 74.7436 55.7131 11.4350 -21.6499 9.2233
# 2 74.7436 132.0357 59.2798 0.1213 -12.8170 9.0749
# 3 55.7131 59.2798 147.7158 -11.3512 -16.1451 5.2959
# 4 11.4350 0.1213 -11.3512 42.9287 -0.0715 -1.6910
# 5 -21.6499 -12.8170 -16.1451 -0.0715 32.5408 0.9005
# 6 9.2233 9.0749 5.2959 -1.6910 0.9005 34.3143
#
#
#
# Elastic Compliance Matrix: (Units=1/GPa)
#
#
# Indices 1 2 3 4 5 6 
#
# 1 0.017968 -0.007843 -0.003165 -0.005697 0.007359 -0.002741
# 2 -0.007843 0.012958 -0.002232 0.001426 -0.001194 -0.000873
# 3 -0.003165 -0.002232 0.009287 0.003313 0.001627 0.000128
# 4 -0.005697 0.001426 0.003313 0.025758 -0.001582 0.001954
# 5 0.007359 -0.001194 0.001627 -0.001582 0.036041 -0.002937
# 6 -0.002741 -0.000873 0.000128 0.001954 -0.002937 0.030264
#
#
# Mechanical properties :
#
#
# Convention : Reuss Voigt Hill
#
# Bulk Modulus (GPa) = 72.81005 85.69052 79.25029
# Shear Modulus (GPa) = 30.61245 35.42378 33.01811
#
# Velocity S-wave (km/s) = 3.87988 4.17366 4.02945
# Velocity P-wave (km/s) = 7.47497 8.08478 7.78584
#
# Compressibility (1/GPa) = 0.01373437
#
# Stress axis : x y z
#
# Youngs Moduli (GPa) = 55.65457 77.17156 107.67925
#
# Poissons Ratio (x) = 0.60523 0.34078
# Poissons Ratio (y) = 0.43648 0.24033
# Poissons Ratio (z) = 0.17613 0.17224
#
# Static dielectric constant tensor:
#      x y z
#    x 3.437910 -0.002390 -0.033340 
#    y -0.002390 4.040730 0.006750 
#    z -0.033340 0.006750 4.028810 
# 
# 
# High freq. dielectric constant tensor:
#      x y z
#    x 1.778730 0.000860 -0.003680 
#    y 0.000860 1.812000 -0.006210 
#    z -0.003680 -0.006210 1.821580 
# 
# From -- ./inp_files/351983.got.cif
#   From: 2010.06.25/outbox.cif.g09.slc.cpg/sg2_176_cif.got.tgz:351983.got - 2010.06.27 13:26:56.
