data_PCOD8010610
_publ_section_title
;
Structure prediction by ZEFSAII (Michael W. Deem and Ramdas Pophale) SiO2 
 PCOD8010610
Probable space group: P -1
;
_chemical_formula_sum "Si O2"
_cell_formula_units_Z 12
_cell_length_a 11.813809
_cell_length_b 11.265645
_cell_length_c 11.361520
_cell_angle_alpha 61.671201
_cell_angle_beta 25.384178
_cell_angle_gamma 61.177440
_cell_volume 564.848701
_symmetry_space_group_name_H-M "P -1"
_symmetry_group_IT_number 2
_symmetry_cell_setting 'triclinic'
loop_
_space_group_symop_operation_xyz
x,y,z
-x,-y,-z
loop_
_atom_site_type_symbol
_atom_site_label
_atom_site_fract_x
_atom_site_fract_y
_atom_site_fract_z
Si Si1 0.748175 0.941279 0.716382
Si Si2 0.626125 0.474759 0.520825
Si Si3 0.402024 0.232674 0.486838
Si Si4 0.800734 0.697102 0.926439
Si Si5 0.384986 0.074372 0.816826
Si Si6 0.086089 0.884390 0.065861
O O1 0.798033 0.777419 0.766254
O O2 0.669326 0.994149 0.633933
O O3 0.000000 0.000000 0.500000
O O4 0.500000 0.000000 0.000000
O O5 0.500000 0.500000 0.500000
O O6 0.673372 0.614137 0.470887
O O7 0.910310 0.383978 0.282498
O O8 0.426016 0.400335 0.822627
O O9 0.443516 0.128824 0.607070
O O10 0.162951 0.198285 0.641997
O O11 0.669864 0.220971 0.165382
O O12 0.740933 0.802156 0.041229
O O13 0.182308 0.960177 0.055487
O O14 0.000000 0.000000 0.000000
#
# Coordination Sequence:
#
# PCOD8010610 Si02
#       6
#     2   2   2   2   2   2
#     4  10  22  37  58  87 118 153 189 243 290 342
#     4  12  24  37  60  83 122 158 186 239 289 350
#     4  11  23  37  57  87 119 150 195 231 293 346
#     4  11  23  38  59  89 118 151 195 234 296 345
#     4  10  21  38  62  86 120 147 193 244 296 342
#     4  10  22  36  57  85 117 153 188 241 288 342
#
# _framework density 21.244627999999999
#
# number of rings (size 3 to 8) (size 9 to 14) (size 15 to 20)
#    0.000    1.333    1.667    5.500    4.667    6.667 
#    0.000    0.000    0.000    6.000    0.000    0.000 
#    0.000    0.000    0.000    0.000    0.000    0.000 
#
# Total GULP energy -148750.236378 kJ/mol
# GULP energy per Si atom -12395.853032 kJ/mol
# Density = 2.119627 g / cm^3
# Si number density = 21.244628 Si / 1000 Ang^3
#
#
#
# Elastic Constant Matrix: (Units=GPa)
#
#
# Indices 1 2 3 4 5 6 
#
# 1 78.8982 44.1626 27.5699 -6.6900 -33.7681 -1.8020
# 2 44.1626 114.0948 35.9959 -7.0468 -20.7687 -2.3298
# 3 27.5699 35.9959 118.7094 -3.4218 -34.3576 -7.8268
# 4 -6.6900 -7.0468 -3.4218 46.5693 2.6816 -5.2712
# 5 -33.7681 -20.7687 -34.3576 2.6816 34.2192 -6.7387
# 6 -1.8020 -2.3298 -7.8268 -5.2712 -6.7387 25.3829
#
#
#
# Elastic Compliance Matrix: (Units=1/GPa)
#
#
# Indices 1 2 3 4 5 6 
#
# 1 0.028656 -0.006562 0.005485 0.003072 0.031974 0.012250
# 2 -0.006562 0.011784 -0.002724 0.000693 -0.002246 -0.000677
# 3 0.005485 -0.002724 0.014580 0.001446 0.020319 0.010330
# 4 0.003072 0.000693 0.001446 0.022618 0.004432 0.006601
# 5 0.031974 -0.002246 0.020319 0.004432 0.085772 0.032021
# 6 0.012250 -0.000677 0.010330 0.006601 0.032021 0.053261
#
#
# Mechanical properties :
#
#
# Convention : Reuss Voigt Hill
#
# Bulk Modulus (GPa) = 21.08920 58.57324 39.83122
# Shear Modulus (GPa) = 20.82644 34.83256 27.82950
#
# Velocity S-wave (km/s) = 3.13440 4.05358 3.62326
# Velocity P-wave (km/s) = 4.80080 7.03842 6.02441
#
# Compressibility (1/GPa) = 0.04741764
#
# Stress axis : x y z
#
# Youngs Moduli (GPa) = 34.89645 84.85942 68.58915
#
# Poissons Ratio (x) = 0.55687 -0.37621
# Poissons Ratio (y) = 0.22900 0.18683
# Poissons Ratio (z) = -0.19141 0.23115
#
# Static dielectric constant tensor:
#      x y z
#    x 4.679730 -0.065730 -0.465120 
#    y -0.065730 3.274680 -0.068730 
#    z -0.465120 -0.068730 4.158050 
# 
# 
# High freq. dielectric constant tensor:
#      x y z
#    x 1.813570 0.001910 -0.024700 
#    y 0.001910 1.833710 0.003390 
#    z -0.024700 0.003390 1.846960 
# 
# From -- ./inp_files/61809.got.cif
#   From: 2010.06.25/outbox.cif.g09.slc.cpg/sg2_31_cif.got.tgz:61809.got - 2010.06.27 13:26:56.
