data_PCOD8010589
_publ_section_title
;
Structure prediction by ZEFSAII (Michael W. Deem and Ramdas Pophale) SiO2 
 PCOD8010589
Probable space group: P -1
;
_chemical_formula_sum "Si O2"
_cell_formula_units_Z 14
_cell_length_a 11.131552
_cell_length_b 5.283113
_cell_length_c 12.173737
_cell_angle_alpha 67.196523
_cell_angle_beta 102.735946
_cell_angle_gamma 78.734219
_cell_volume 611.537017
_symmetry_space_group_name_H-M "P -1"
_symmetry_group_IT_number 2
_symmetry_cell_setting 'triclinic'
loop_
_space_group_symop_operation_xyz
x,y,z
-x,-y,-z
loop_
_atom_site_type_symbol
_atom_site_label
_atom_site_fract_x
_atom_site_fract_y
_atom_site_fract_z
Si Si1 0.869257 0.891069 0.227700
Si Si2 0.736252 0.721088 0.849422
Si Si3 0.288719 0.588178 0.481293
Si Si4 0.649481 0.420407 0.071449
Si Si5 0.801419 0.327431 0.320004
Si Si6 0.862074 0.231196 0.785788
Si Si7 0.519972 0.095802 0.607772
O O1 0.891105 0.042820 0.322166
O O2 0.875167 0.564346 0.308523
O O3 0.730870 0.085252 0.115061
O O4 0.982115 0.893858 0.164441
O O5 0.716094 0.621779 0.984036
O O6 0.821948 0.452926 0.840532
O O7 0.805859 0.965031 0.832080
O O8 0.592156 0.832838 0.746622
O O9 0.230869 0.766991 0.549341
O O10 0.178958 0.596574 0.367809
O O11 0.374834 0.266689 0.594345
O O12 0.386911 0.707354 0.412497
O O13 0.500000 0.500000 0.000000
O O14 0.669814 0.467604 0.197647
O O15 0.500000 0.000000 0.500000
#
# Coordination Sequence:
#
# PCOD8010589 Si02
#       7
#     2   2   2   2   2   2   2
#     4  10  25  46  65 100 131 172 226 261 334 385
#     4  11  25  41  71  95 132 174 221 270 329 379
#     4  10  23  39  65  95 139 163 221 268 327 393
#     4  10  27  45  66  98 135 175 219 269 326 394
#     4  10  25  43  65  99 127 182 208 272 325 390
#     4  11  24  45  69 100 127 176 219 275 326 386
#     4  10  21  38  61  97 126 172 217 266 325 377
#
# _framework density 22.893136999999999
#
# number of rings (size 3 to 8) (size 9 to 14) (size 15 to 20)
#    0.857    0.857    1.429    0.857    8.000    2.857 
#    0.000    0.000    0.000    0.000    0.000    0.000 
#    0.000    0.000    0.000    0.000    0.000    0.000 
#
# Total GULP energy -173494.696248 kJ/mol
# GULP energy per Si atom -12392.478303 kJ/mol
# Density = 2.284103 g / cm^3
# Si number density = 22.893137 Si / 1000 Ang^3
#
#
#
# Elastic Constant Matrix: (Units=GPa)
#
#
# Indices 1 2 3 4 5 6 
#
# 1 90.5416 28.2890 12.7288 -7.6090 4.2746 -9.9779
# 2 28.2890 119.8145 -7.2163 -2.0326 0.8536 1.2025
# 3 12.7288 -7.2163 59.7572 -0.2843 -7.4894 -1.5790
# 4 -7.6090 -2.0326 -0.2843 20.5500 -4.5420 2.2433
# 5 4.2746 0.8536 -7.4894 -4.5420 30.7612 -1.6294
# 6 -9.9779 1.2025 -1.5790 2.2433 -1.6294 33.4455
#
#
#
# Elastic Compliance Matrix: (Units=1/GPa)
#
#
# Indices 1 2 3 4 5 6 
#
# 1 0.013353 -0.003314 -0.003361 0.003771 -0.001834 0.003602
# 2 -0.003314 0.009249 0.001865 -0.000025 0.000591 -0.001203
# 3 -0.003361 0.001865 0.018293 0.000277 0.004911 0.000014
# 4 0.003771 -0.000025 0.000277 0.051845 0.007093 -0.001993
# 5 -0.001834 0.000591 0.004911 0.007093 0.035037 0.000895
# 6 0.003602 -0.001203 0.000014 -0.001993 0.000895 0.031195
#
#
# Mechanical properties :
#
#
# Convention : Reuss Voigt Hill
#
# Bulk Modulus (GPa) = 31.97645 37.52402 34.75024
# Shear Modulus (GPa) = 27.93019 32.70545 30.31782
#
# Velocity S-wave (km/s) = 3.49667 3.78380 3.64307
# Velocity P-wave (km/s) = 5.50457 5.95954 5.73657
#
# Compressibility (1/GPa) = 0.03127302
#
# Stress axis : x y z
#
# Youngs Moduli (GPa) = 74.88830 108.12516 54.66642
#
# Poissons Ratio (x) = 0.35836 0.18375
# Poissons Ratio (y) = 0.24821 -0.10195
# Poissons Ratio (z) = 0.25173 -0.20165
#
# Static dielectric constant tensor:
#      x y z
#    x 4.183000 -0.225980 0.152940 
#    y -0.225980 4.049620 -0.182180 
#    z 0.152940 -0.182180 4.200700 
# 
# 
# High freq. dielectric constant tensor:
#      x y z
#    x 1.892840 -0.006730 0.001520 
#    y -0.006730 1.901400 -0.000790 
#    z 0.001520 -0.000790 1.900820 
# 
# From -- ./inp_files/75782.got.cif
#   From: 2010.06.25/outbox.cif.g09.slc.cpg/sg2_38_cif.got.tgz:75782.got - 2010.06.27 13:26:56.
