data_PCOD8010493
_publ_section_title
;
Structure prediction by ZEFSAII (Michael W. Deem and Ramdas Pophale) SiO2 
 PCOD8010493
Probable space group: P -1
;
_chemical_formula_sum "Si O2"
_cell_formula_units_Z 16
_cell_length_a 8.790268
_cell_length_b 11.363347
_cell_length_c 14.604825
_cell_angle_alpha 53.716057
_cell_angle_beta 63.658776
_cell_angle_gamma 40.062609
_cell_volume 756.753808
_symmetry_space_group_name_H-M "P -1"
_symmetry_group_IT_number 2
_symmetry_cell_setting 'triclinic'
loop_
_space_group_symop_operation_xyz
x,y,z
-x,-y,-z
loop_
_atom_site_type_symbol
_atom_site_label
_atom_site_fract_x
_atom_site_fract_y
_atom_site_fract_z
Si Si1 0.618158 0.204162 0.807834
Si Si2 0.654055 0.218363 0.204564
Si Si3 0.099813 0.607589 0.766964
Si Si4 0.968914 0.753156 0.924751
Si Si5 0.001479 0.881298 0.137124
Si Si6 0.798237 0.116316 0.410411
Si Si7 0.115200 0.531677 0.167490
Si Si8 0.320135 0.742971 0.436499
O O1 0.350205 0.381662 0.828035
O O2 0.768747 0.239268 0.803473
O O3 0.636492 0.196270 0.696208
O O4 0.729709 0.982850 0.909993
O O5 0.806301 0.273164 0.129355
O O6 0.649295 0.170512 0.334305
O O7 0.390423 0.400316 0.158548
O O8 0.768949 0.030951 0.193007
O O9 0.940026 0.696532 0.859989
O O10 0.133964 0.751810 0.657665
O O11 0.963488 0.589206 0.734659
O O12 0.021723 0.603556 0.055997
O O13 0.987415 0.725094 0.176746
O O14 0.000000 0.000000 0.000000
O O15 0.641674 0.182337 0.514537
O O16 0.037356 0.875588 0.453838
O O17 0.500000 0.500000 0.500000
#
# Coordination Sequence:
#
# PCOD8010493 Si02
#       8
#     2   2   2   2   2   2   2   2
#     4  11  21  39  62  87 120 150 199 250 287 335
#     4  10  21  38  61  84 120 153 198 246 278 339
#     4  11  23  37  56  88 126 155 190 241 293 356
#     4  10  21  39  56  85 117 161 205 236 273 344
#     4  11  21  38  58  87 117 156 202 238 279 343
#     4  10  21  40  63  91 112 143 202 252 290 341
#     4  12  24  35  58  88 123 167 190 226 301 350
#     4  11  20  36  68  93 103 146 201 257 293 328
#
# _framework density 21.142938999999998
#
# number of rings (size 3 to 8) (size 9 to 14) (size 15 to 20)
#    0.000    1.250    7.500    2.250    1.750    1.500 
#    0.000    0.000    0.000    6.000    0.000    0.000 
#    0.000    0.000    0.000    0.000    0.000    0.000 
#
# Total GULP energy -198235.239363 kJ/mol
# GULP energy per Si atom -12389.702460 kJ/mol
# Density = 2.109482 g / cm^3
# Si number density = 21.142939 Si / 1000 Ang^3
#
#
#
# Elastic Constant Matrix: (Units=GPa)
#
#
# Indices 1 2 3 4 5 6 
#
# 1 64.5461 34.1595 15.7268 -4.5232 5.5016 25.0726
# 2 34.1595 115.3171 11.0503 -9.3689 9.1477 9.7818
# 3 15.7268 11.0503 76.4840 5.7589 22.2450 5.2075
# 4 -4.5232 -9.3689 5.7589 35.6989 4.0852 14.2841
# 5 5.5016 9.1477 22.2450 4.0852 15.6457 3.8546
# 6 25.0726 9.7818 5.2075 14.2841 3.8546 28.1882
#
#
#
# Elastic Compliance Matrix: (Units=1/GPa)
#
#
# Indices 1 2 3 4 5 6 
#
# 1 0.036684 -0.005584 -0.006930 0.019786 0.004935 -0.040113
# 2 -0.005584 0.010914 0.001467 0.002501 -0.007314 0.000641
# 3 -0.006930 0.001467 0.023621 -0.003579 -0.032945 0.007610
# 4 0.019786 0.002501 -0.003579 0.049203 -0.005846 -0.041940
# 5 0.004935 -0.007314 -0.032945 -0.005846 0.116992 -0.008801
# 6 -0.040113 0.000641 0.007610 -0.041940 -0.008801 0.091982
#
#
# Mechanical properties :
#
#
# Convention : Reuss Voigt Hill
#
# Bulk Modulus (GPa) = 20.35663 42.02449 31.19056
# Shear Modulus (GPa) = 13.59188 28.93393 21.26291
#
# Velocity S-wave (km/s) = 2.53821 3.70333 3.17468
# Velocity P-wave (km/s) = 4.27072 6.18108 5.31247
#
# Compressibility (1/GPa) = 0.04912405
#
# Stress axis : x y z
#
# Youngs Moduli (GPa) = 27.25980 91.62343 42.33514
#
# Poissons Ratio (x) = 0.51162 0.29339
# Poissons Ratio (y) = 0.15222 -0.06209
# Poissons Ratio (z) = 0.18892 -0.13437
#
# Static dielectric constant tensor:
#      x y z
#    x 3.492780 0.218000 0.352880 
#    y 0.218000 4.258550 0.105240 
#    z 0.352880 0.105240 4.041620 
# 
# 
# High freq. dielectric constant tensor:
#      x y z
#    x 1.784810 0.012010 0.031480 
#    y 0.012010 1.853290 0.002500 
#    z 0.031480 0.002500 1.824290 
# 
# From -- ./inp_files/497873.got.cif
#   From: 2010.06.25/outbox.cif.g09.slc.cpg/sg2_249_cif.got.tgz:497873.got - 2010.06.27 13:26:56.
