data_PCOD8010132
_publ_section_title
;
Structure prediction by ZEFSAII (Michael W. Deem and Ramdas Pophale) SiO2 
 PCOD8010132
Probable space group: P -1
;
_chemical_formula_sum "Si O2"
_cell_formula_units_Z 14
_cell_length_a 14.333258
_cell_length_b 19.703196
_cell_length_c 12.356924
_cell_angle_alpha 30.317889
_cell_angle_beta 29.702837
_cell_angle_gamma 22.436161
_cell_volume 625.401277
_symmetry_space_group_name_H-M "P -1"
_symmetry_group_IT_number 2
_symmetry_cell_setting 'triclinic'
loop_
_space_group_symop_operation_xyz
x,y,z
-x,-y,-z
loop_
_atom_site_type_symbol
_atom_site_label
_atom_site_fract_x
_atom_site_fract_y
_atom_site_fract_z
Si Si1 0.209887 0.191239 0.667112
Si Si2 0.376155 0.423180 0.772012
Si Si3 0.770204 0.744467 0.993882
Si Si4 0.416438 0.157325 0.717985
Si Si5 0.270833 0.964006 0.730554
Si Si6 0.374962 0.467878 0.263197
Si Si7 0.272388 0.714775 0.198057
O O1 0.234636 0.160576 0.814186
O O2 0.449271 0.169832 0.423768
O O3 0.934041 0.398421 0.633270
O O4 0.264694 0.029285 0.768089
O O5 0.500000 0.500000 0.500000
O O6 0.540677 0.306649 0.874129
O O7 0.072887 0.593373 0.867518
O O8 0.397629 0.289772 0.849310
O O9 0.668803 0.942468 0.789954
O O10 0.750077 0.729612 0.162487
O O11 0.503496 0.255409 0.437823
O O12 0.229442 0.826458 0.979636
O O13 0.034647 0.149055 0.640142
O O14 0.401977 0.516096 0.291489
O O15 0.500000 0.500000 0.000000
#
# Coordination Sequence:
#
# PCOD8010132 Si02
#       7
#     2   2   2   2   2   2   2
#     4  10  21  37  66  91 129 173 211 274 338 393
#     4  11  24  45  72  97 129 176 231 286 329 389
#     4  10  26  46  68 100 130 182 234 269 338 399
#     4  11  23  45  65  93 139 176 220 279 330 405
#     4   9  20  38  62  99 122 165 223 267 339 398
#     4  11  24  39  63 101 133 176 221 268 346 411
#     4  10  21  38  63  91 129 164 218 282 324 396
#
# _framework density 22.385626999999999
#
# number of rings (size 3 to 8) (size 9 to 14) (size 15 to 20)
#    0.000    1.714    0.000    3.000    6.000    0.000 
#    2.571    2.143    0.000    0.000    0.000    0.000 
#    0.000    0.000    0.000    0.000    0.000    0.000 
#
# Total GULP energy -173457.844599 kJ/mol
# GULP energy per Si atom -12389.846043 kJ/mol
# Density = 2.233468 g / cm^3
# Si number density = 22.385627 Si / 1000 Ang^3
#
#
#
# Elastic Constant Matrix: (Units=GPa)
#
#
# Indices 1 2 3 4 5 6 
#
# 1 160.9905 42.3503 26.3337 9.9936 8.3024 -1.0052
# 2 42.3503 99.5457 49.6963 4.5905 -2.7841 -1.6300
# 3 26.3337 49.6963 109.9344 -3.5479 -6.0107 1.7852
# 4 9.9936 4.5905 -3.5479 34.8442 -4.7793 -4.5040
# 5 8.3024 -2.7841 -6.0107 -4.7793 29.3925 1.1079
# 6 -1.0052 -1.6300 1.7852 -4.5040 1.1079 32.6520
#
#
#
# Elastic Compliance Matrix: (Units=1/GPa)
#
#
# Indices 1 2 3 4 5 6 
#
# 1 0.007335 -0.002724 -0.000752 -0.002221 -0.002842 -0.000079
# 2 -0.002724 0.014193 -0.005787 -0.001495 0.000660 0.000712
# 3 -0.000752 -0.005787 0.012125 0.002472 0.002573 -0.000721
# 4 -0.002221 -0.001495 0.002472 0.031087 0.005903 0.003810
# 5 -0.002842 0.000660 0.002573 0.005903 0.036397 -0.000616
# 6 -0.000079 0.000712 -0.000721 0.003810 -0.000616 0.031245
#
#
# Mechanical properties :
#
#
# Convention : Reuss Voigt Hill
#
# Bulk Modulus (GPa) = 66.10497 67.47013 66.78755
# Shear Modulus (GPa) = 32.06197 36.18375 34.12286
#
# Velocity S-wave (km/s) = 3.78862 4.02479 3.90849
# Velocity P-wave (km/s) = 6.98086 7.19749 7.09001
#
# Compressibility (1/GPa) = 0.01512746
#
# Stress axis : x y z
#
# Youngs Moduli (GPa) = 136.33395 70.45942 82.47691
#
# Poissons Ratio (x) = 0.19191 0.06199
# Poissons Ratio (y) = 0.37133 0.47730
# Poissons Ratio (z) = 0.10246 0.40776
#
# Static dielectric constant tensor:
#      x y z
#    x 4.450650 0.039070 -0.052720 
#    y 0.039070 4.114630 0.061580 
#    z -0.052720 0.061580 3.874040 
# 
# 
# High freq. dielectric constant tensor:
#      x y z
#    x 1.899730 0.010270 -0.006020 
#    y 0.010270 1.886110 -0.002320 
#    z -0.006020 -0.002320 1.864790 
# 
# From -- ./inp_files/457596.got.cif
#   From: 2010.06.25/outbox.cif.g09.slc.cpg/sg2_229_cif.got.tgz:457596.got - 2010.06.27 13:26:56.
