data_PCOD8010097
_publ_section_title
;
Structure prediction by ZEFSAII (Michael W. Deem and Ramdas Pophale) SiO2 
 PCOD8010097
Probable space group: P -1
;
_chemical_formula_sum "Si O2"
_cell_formula_units_Z 16
_cell_length_a 9.324745
_cell_length_b 12.267593
_cell_length_c 8.852372
_cell_angle_alpha 110.399469
_cell_angle_beta 123.308909
_cell_angle_gamma 54.347646
_cell_volume 687.061306
_symmetry_space_group_name_H-M "P -1"
_symmetry_group_IT_number 2
_symmetry_cell_setting 'triclinic'
loop_
_space_group_symop_operation_xyz
x,y,z
-x,-y,-z
loop_
_atom_site_type_symbol
_atom_site_label
_atom_site_fract_x
_atom_site_fract_y
_atom_site_fract_z
Si Si1 0.279356 0.191901 0.532485
Si Si2 0.281505 0.438523 0.569316
Si Si3 0.015146 0.116007 0.982185
Si Si4 0.414008 0.775007 0.745107
Si Si5 0.726675 0.284923 0.663903
Si Si6 0.441609 0.053794 0.246083
Si Si7 0.185084 0.480933 0.191402
Si Si8 0.134359 0.731477 0.747277
O O1 0.216248 0.349195 0.589706
O O2 0.396155 0.140190 0.415302
O O3 0.079947 0.182572 0.416382
O O4 0.417222 0.103253 0.707692
O O5 0.517297 0.350992 0.656674
O O6 0.177380 0.458390 0.355497
O O7 0.231229 0.575266 0.688820
O O8 0.242599 0.074335 0.062148
O O9 0.907336 0.250180 0.088635
O O10 0.890856 0.148037 0.771947
O O11 0.000000 0.000000 0.000000
O O12 0.293194 0.748628 0.534198
O O13 0.443823 0.901011 0.784122
O O14 0.625640 0.645285 0.832919
O O15 0.273961 0.795645 0.818305
O O16 0.810051 0.384857 0.763346
O O17 0.000000 0.500000 0.000000
#
# Coordination Sequence:
#
# PCOD8010097 Si02
#       8
#     2   2   2   2   2   2   2   2
#     4  10  21  37  65  94 127 173 218 267 320 391
#     4  11  20  42  65  98 132 173 223 271 325 397
#     4  11  26  45  66  97 134 175 222 274 335 398
#     4  11  21  43  68  98 131 171 226 270 320 403
#     4  11  21  39  70  92 132 180 219 261 334 399
#     4  10  21  41  68  91 127 183 223 255 328 403
#     4  11  21  37  65  98 134 178 217 267 330 393
#     4  11  24  41  66 100 133 167 223 282 332 378
#
# _framework density 23.287588
#
# number of rings (size 3 to 8) (size 9 to 14) (size 15 to 20)
#    0.000    1.250    5.000    2.625    5.250    1.000 
#    0.000    1.875    0.000    0.000    0.000    0.000 
#    0.000    0.000    0.000    0.000    0.000    0.000 
#
# Total GULP energy -198405.020574 kJ/mol
# GULP energy per Si atom -12400.313786 kJ/mol
# Density = 2.323458 g / cm^3
# Si number density = 23.287588 Si / 1000 Ang^3
#
#
#
# Elastic Constant Matrix: (Units=GPa)
#
#
# Indices 1 2 3 4 5 6 
#
# 1 114.7445 25.5861 24.4498 -8.4805 21.3270 23.5083
# 2 25.5861 77.5535 23.8465 -25.0714 2.5638 31.8001
# 3 24.4498 23.8465 99.1420 -29.6440 38.1558 4.5303
# 4 -8.4805 -25.0714 -29.6440 38.2806 -2.0318 4.0194
# 5 21.3270 2.5638 38.1558 -2.0318 27.7931 5.5626
# 6 23.5083 31.8001 4.5303 4.0194 5.5626 38.0497
#
#
#
# Elastic Compliance Matrix: (Units=1/GPa)
#
#
# Indices 1 2 3 4 5 6 
#
# 1 0.012099 -0.000534 0.004272 0.005571 -0.013460 -0.006158
# 2 -0.000534 0.034828 -0.003678 0.023799 0.010468 -0.032384
# 3 0.004272 -0.003678 0.037768 0.024847 -0.053191 0.001089
# 4 0.005571 0.023799 0.024847 0.063584 -0.030211 -0.028591
# 5 -0.013460 0.010468 -0.053191 -0.030211 0.117784 -0.008128
# 6 -0.006158 -0.032384 0.001089 -0.028591 -0.008128 0.061230
#
#
# Mechanical properties :
#
#
# Convention : Reuss Voigt Hill
#
# Bulk Modulus (GPa) = 11.79050 48.80055 30.29552
# Shear Modulus (GPa) = 14.06684 35.32851 24.69768
#
# Velocity S-wave (km/s) = 2.46041 3.89916 3.26014
# Velocity P-wave (km/s) = 3.62567 6.42436 5.21622
#
# Compressibility (1/GPa) = 0.08481405
#
# Stress axis : x y z
#
# Youngs Moduli (GPa) = 82.65194 28.71236 26.47719
#
# Poissons Ratio (x) = 0.01534 -0.11311
# Poissons Ratio (y) = 0.04417 0.09739
# Poissons Ratio (z) = -0.35309 0.10561
#
# Static dielectric constant tensor:
#      x y z
#    x 4.288780 -0.028220 0.076310 
#    y -0.028220 4.307730 0.084260 
#    z 0.076310 0.084260 4.285530 
# 
# 
# High freq. dielectric constant tensor:
#      x y z
#    x 1.924620 0.007470 0.021240 
#    y 0.007470 1.924610 -0.007290 
#    z 0.021240 -0.007290 1.906500 
# 
# From -- ./inp_files/188782.got.cif
#   From: 2010.06.25/outbox.cif.g09.slc.cpg/sg2_95_cif.got.tgz:188782.got - 2010.06.27 13:26:56.
