data_PCOD8010864
_publ_section_title
;
Structure prediction by ZEFSAII (Michael W. Deem and Ramdas Pophale) SiO2 
 PCOD8010864
Probable space group: P -1
;
_chemical_formula_sum "Si O2"
_cell_formula_units_Z 16
_cell_length_a 14.642609
_cell_length_b 12.696666
_cell_length_c 8.580943
_cell_angle_alpha 112.721097
_cell_angle_beta 149.392941
_cell_angle_gamma 64.178074
_cell_volume 730.919168
_symmetry_space_group_name_H-M "P -1"
_symmetry_group_IT_number 2
_symmetry_cell_setting 'triclinic'
loop_
_space_group_symop_operation_xyz
x,y,z
-x,-y,-z
loop_
_atom_site_type_symbol
_atom_site_label
_atom_site_fract_x
_atom_site_fract_y
_atom_site_fract_z
Si Si1 0.398661 0.412340 0.715420
Si Si2 0.833946 0.447107 0.781133
Si Si3 0.971374 0.592576 0.647574
Si Si4 0.713967 0.913750 0.904981
Si Si5 0.293186 0.998789 0.736552
Si Si6 0.892988 0.199724 0.564979
Si Si7 0.974341 0.181431 0.304149
Si Si8 0.591822 0.170369 0.747494
O O1 0.349931 0.460651 0.493967
O O2 0.214847 0.406584 0.534336
O O3 0.532619 0.284097 0.835704
O O4 0.500000 0.500000 0.000000
O O5 0.832349 0.327767 0.619536
O O6 0.000000 0.500000 0.000000
O O7 0.854103 0.430912 0.988987
O O8 0.000000 0.500000 0.500000
O O9 0.951214 0.714840 0.602270
O O10 0.577337 0.829211 0.616974
O O11 0.623078 0.049288 0.818466
O O12 0.750586 0.905853 0.136455
O O13 0.917020 0.864351 0.103549
O O14 0.129196 0.064576 0.418935
O O15 0.265262 0.870202 0.664727
O O16 0.500000 0.000000 0.000000
O O17 0.916239 0.201249 0.413214
O O18 0.780026 0.173002 0.932620
#
# Coordination Sequence:
#
# PCOD8010864 Si02
#       8
#     2   2   2   2   2   2   2   2
#     4  11  24  42  69  98 129 178 223 280 333 397
#     4  10  22  41  66  95 129 172 220 271 332 396
#     4  11  24  42  64  98 130 174 224 276 333 394
#     4  10  21  38  64  92 128 170 214 267 326 396
#     4  11  24  40  62  97 130 174 219 272 332 398
#     4  11  20  44  67  92 131 178 221 270 335 401
#     4  11  22  41  66  92 131 172 218 272 333 394
#     4  11  21  39  64  95 125 169 221 264 330 394
#
# _framework density 21.890245
#
# number of rings (size 3 to 8) (size 9 to 14) (size 15 to 20)
#    0.000    1.250    2.500    5.250    1.750    2.000 
#    0.000    5.000    0.000    0.000    0.000    0.000 
#    0.000    0.000    0.000    0.000    0.000    0.000 
#
# Total GULP energy -198213.267987 kJ/mol
# GULP energy per Si atom -12388.329249 kJ/mol
# Density = 2.184042 g / cm^3
# Si number density = 21.890245 Si / 1000 Ang^3
#
#
#
# Elastic Constant Matrix: (Units=GPa)
#
#
# Indices 1 2 3 4 5 6 
#
# 1 65.4645 45.3136 34.3569 0.6385 17.4689 11.3854
# 2 45.3136 124.2369 40.7930 7.8577 9.5037 9.4294
# 3 34.3569 40.7930 124.0902 11.0210 27.0450 8.8484
# 4 0.6385 7.8577 11.0210 44.6909 0.4401 4.0361
# 5 17.4689 9.5037 27.0450 0.4401 38.4005 -1.9530
# 6 11.3854 9.4294 8.8484 4.0361 -1.9530 33.3730
#
#
#
# Elastic Compliance Matrix: (Units=1/GPa)
#
#
# Indices 1 2 3 4 5 6 
#
# 1 0.024902 -0.007299 -0.002448 0.002201 -0.008155 -0.006528
# 2 -0.007299 0.011300 -0.002002 -0.001418 0.001956 0.000114
# 3 -0.002448 -0.002002 0.011061 -0.002131 -0.006240 -0.001639
# 4 0.002201 -0.001418 -0.002131 0.023348 0.000452 -0.002582
# 5 -0.008155 0.001956 -0.006240 0.000452 0.033952 0.005816
# 6 -0.006528 0.000114 -0.001639 -0.002582 0.005816 0.033246
#
#
# Mechanical properties :
#
#
# Convention : Reuss Voigt Hill
#
# Bulk Modulus (GPa) = 42.07910 61.63540 51.85725
# Shear Modulus (GPa) = 29.54553 36.18143 32.86348
#
# Velocity S-wave (km/s) = 3.67783 4.06994 3.87884
# Velocity P-wave (km/s) = 6.10735 7.09250 6.61828
#
# Compressibility (1/GPa) = 0.02376477
#
# Stress axis : x y z
#
# Youngs Moduli (GPa) = 40.15675 88.49378 90.40968
#
# Poissons Ratio (x) = 0.64591 0.22132
# Poissons Ratio (y) = 0.29310 0.18104
# Poissons Ratio (z) = 0.09830 0.17720
#
# Static dielectric constant tensor:
#      x y z
#    x 3.707710 0.081550 -0.219540 
#    y 0.081550 4.184550 -0.093870 
#    z -0.219540 -0.093870 4.249340 
# 
# 
# High freq. dielectric constant tensor:
#      x y z
#    x 1.819820 0.003040 0.005600 
#    y 0.003040 1.874720 -0.001760 
#    z 0.005600 -0.001760 1.888490 
# 
# From -- ./inp_files/222983.got.cif
#   From: 2010.06.25/outbox.cif.g09.slc.cpg/sg2_112_cif.got.tgz:222983.got - 2010.06.27 13:26:56.
