data_PCOD8010326
_publ_section_title
;
Structure prediction by ZEFSAII (Michael W. Deem and Ramdas Pophale) SiO2 
 PCOD8010326
Probable space group: P -1
;
_chemical_formula_sum "Si O2"
_cell_formula_units_Z 16
_cell_length_a 7.927268
_cell_length_b 20.103828
_cell_length_c 7.188307
_cell_angle_alpha 93.254925
_cell_angle_beta 123.480818
_cell_angle_gamma 117.387730
_cell_volume 770.210766
_symmetry_space_group_name_H-M "P -1"
_symmetry_group_IT_number 2
_symmetry_cell_setting 'triclinic'
loop_
_space_group_symop_operation_xyz
x,y,z
-x,-y,-z
loop_
_atom_site_type_symbol
_atom_site_label
_atom_site_fract_x
_atom_site_fract_y
_atom_site_fract_z
Si Si1 0.466361 0.859442 0.792915
Si Si2 0.914115 0.675860 0.826292
Si Si3 0.522792 0.929050 0.439790
Si Si4 0.034053 0.981941 0.811087
Si Si5 0.233973 0.433300 0.602475
Si Si6 0.577343 0.611119 0.949701
Si Si7 0.883844 0.154811 0.139759
Si Si8 0.306432 0.693698 0.822837
O O1 0.472095 0.871490 0.576883
O O2 0.459665 0.779463 0.816855
O O3 0.217055 0.845517 0.717905
O O4 0.691819 0.937636 0.062507
O O5 0.720593 0.593704 0.573925
O O6 0.830747 0.656477 0.986975
O O7 0.197572 0.702559 0.956138
O O8 0.898751 0.750509 0.766076
O O9 0.330799 0.878261 0.151285
O O10 0.808130 0.969340 0.547656
O O11 0.500000 0.000000 0.500000
O O12 0.007896 0.897463 0.783904
O O13 0.000000 0.000000 0.000000
O O14 0.350634 0.529899 0.691008
O O15 0.935300 0.378229 0.454470
O O16 0.373486 0.414878 0.832282
O O17 0.498857 0.670858 0.962490
#
# Coordination Sequence:
#
# PCOD8010326 Si02
#       8
#     2   2   2   2   2   2   2   2
#     4  10  22  42  57  86 124 146 199 255 279 352
#     4   9  23  39  60  93 124 153 204 247 289 366
#     4  11  23  38  61  84 113 160 201 238 293 353
#     4  10  21  38  59  84 114 153 203 234 290 357
#     4   9  22  43  58  99 117 153 210 236 296 376
#     4  11  20  41  70  81 128 162 185 254 307 342
#     4  11  22  42  57  85 122 155 192 249 297 338
#     4   9  22  41  58  94 122 152 203 246 292 362
#
# _framework density 20.773536
#
# number of rings (size 3 to 8) (size 9 to 14) (size 15 to 20)
#    0.750    1.250    2.500    1.125    5.250    0.500 
#    6.750    1.250    0.000    0.000    0.000    0.000 
#    0.000    0.000    0.000    0.000    0.000    0.000 
#
# Total GULP energy -198250.084386 kJ/mol
# GULP energy per Si atom -12390.630274 kJ/mol
# Density = 2.072625 g / cm^3
# Si number density = 20.773536 Si / 1000 Ang^3
#
#
#
# Elastic Constant Matrix: (Units=GPa)
#
#
# Indices 1 2 3 4 5 6 
#
# 1 76.2166 31.1855 0.2572 -13.4072 2.2020 -12.2974
# 2 31.1855 101.9506 -12.0646 -5.0671 9.8765 -16.1810
# 3 0.2572 -12.0646 37.3855 -8.2111 10.0836 -8.1754
# 4 -13.4072 -5.0671 -8.2111 23.2346 -7.2774 2.1907
# 5 2.2020 9.8765 10.0836 -7.2774 16.0267 -5.7573
# 6 -12.2974 -16.1810 -8.1754 2.1907 -5.7573 31.8203
#
#
#
# Elastic Compliance Matrix: (Units=1/GPa)
#
#
# Indices 1 2 3 4 5 6 
#
# 1 0.017570 -0.004795 -0.000197 0.010866 0.007353 0.004884
# 2 -0.004795 0.014380 0.009024 -0.000801 -0.012225 0.005621
# 3 -0.000197 0.009024 0.039876 0.007620 -0.023582 0.009966
# 4 0.010866 -0.000801 0.007620 0.058430 0.022843 0.005860
# 5 0.007353 -0.012225 -0.023582 0.022843 0.096444 0.006443
# 6 0.004884 0.005621 0.009966 0.005860 0.006443 0.039495
#
#
# Mechanical properties :
#
#
# Convention : Reuss Voigt Hill
#
# Bulk Modulus (GPa) = 12.51728 28.25656 20.38692
# Shear Modulus (GPa) = 17.55867 27.29463 22.42665
#
# Velocity S-wave (km/s) = 2.91046 3.62873 3.28926
# Velocity P-wave (km/s) = 4.16330 5.58468 4.92553
#
# Compressibility (1/GPa) = 0.07988954
#
# Stress axis : x y z
#
# Youngs Moduli (GPa) = 56.91517 69.54145 25.07804
#
# Poissons Ratio (x) = 0.33345 0.00494
# Poissons Ratio (y) = 0.27291 -0.22631
# Poissons Ratio (z) = 0.01122 -0.62755
#
# Static dielectric constant tensor:
#      x y z
#    x 3.823940 0.064390 0.196880 
#    y 0.064390 3.881020 0.466810 
#    z 0.196880 0.466810 3.907420 
# 
# 
# High freq. dielectric constant tensor:
#      x y z
#    x 1.810530 -0.002950 -0.002320 
#    y -0.002950 1.823170 0.013040 
#    z -0.002320 0.013040 1.788250 
# 
# From -- ./inp_files/215219.got.cif
#   From: 2010.06.25/outbox.cif.g09.slc.cpg/sg2_108_cif.got.tgz:215219.got - 2010.06.27 13:26:56.
