data_PCOD8010936
_publ_section_title
;
Structure prediction by ZEFSAII (Michael W. Deem and Ramdas Pophale) SiO2 
 PCOD8010936
Probable space group: P -1
;
_chemical_formula_sum "Si O2"
_cell_formula_units_Z 14
_cell_length_a 9.518967
_cell_length_b 24.917999
_cell_length_c 6.896797
_cell_angle_alpha 41.847182
_cell_angle_beta 130.046055
_cell_angle_gamma 147.554653
_cell_volume 585.015737
_symmetry_space_group_name_H-M "P -1"
_symmetry_group_IT_number 2
_symmetry_cell_setting 'triclinic'
loop_
_space_group_symop_operation_xyz
x,y,z
-x,-y,-z
loop_
_atom_site_type_symbol
_atom_site_label
_atom_site_fract_x
_atom_site_fract_y
_atom_site_fract_z
Si Si1 0.664063 0.939607 0.807756
Si Si2 0.922332 0.747457 0.307648
Si Si3 0.007122 0.948384 0.833348
Si Si4 0.931466 0.367539 0.132613
Si Si5 0.662537 0.438104 0.757334
Si Si6 0.215556 0.413158 0.883275
Si Si7 0.094844 0.820111 0.676405
O O1 0.751050 0.888320 0.900912
O O2 0.353071 0.849794 0.762587
O O3 0.809842 0.060914 0.502393
O O4 0.742953 0.958356 0.055202
O O5 0.110534 0.727319 0.519123
O O6 0.637523 0.630421 0.294671
O O7 0.900153 0.764769 0.468628
O O8 0.020229 0.861085 0.992608
O O9 0.000000 0.000000 0.500000
O O10 0.188300 0.495460 0.091730
O O11 0.996444 0.369052 0.964272
O O12 0.680962 0.347685 0.977951
O O13 0.796023 0.528400 0.458027
O O14 0.500000 0.500000 0.000000
O O15 0.089246 0.285684 0.043708
#
# Coordination Sequence:
#
# PCOD8010936 Si02
#       7
#     2   2   2   2   2   2   2
#     4   9  20  42  63  90 127 159 205 256 310 364
#     4  10  21  38  65  86 125 165 194 261 313 356
#     4  10  22  41  63  94 120 158 209 257 312 369
#     4  10  23  40  59  89 123 166 206 251 303 369
#     4  11  22  41  61  89 127 163 208 252 308 368
#     4  11  21  38  64  94 127 165 207 248 307 368
#     4   9  19  39  65  90 123 167 202 253 310 361
#
# _framework density 23.930979000000001
#
# number of rings (size 3 to 8) (size 9 to 14) (size 15 to 20)
#    0.000    2.000    2.857    0.857    4.000    1.143 
#    5.143    6.429    0.000    0.000    0.000    0.000 
#    0.000    0.000    0.000    0.000    0.000    0.000 
#
# Total GULP energy -173439.699058 kJ/mol
# GULP energy per Si atom -12388.549933 kJ/mol
# Density = 2.387651 g / cm^3
# Si number density = 23.930979 Si / 1000 Ang^3
#
#
#
# Elastic Constant Matrix: (Units=GPa)
#
#
# Indices 1 2 3 4 5 6 
#
# 1 33.4946 -0.6985 27.7931 -3.3654 10.9312 1.4425
# 2 -0.6985 91.3223 27.1311 -10.6702 -6.3867 6.2709
# 3 27.7931 27.1311 181.5643 -15.0112 8.5122 3.7622
# 4 -3.3654 -10.6702 -15.0112 38.6208 -2.3566 4.0464
# 5 10.9312 -6.3867 8.5122 -2.3566 34.9212 -0.0527
# 6 1.4425 6.2709 3.7622 4.0464 -0.0527 21.7591
#
#
#
# Elastic Compliance Matrix: (Units=1/GPa)
#
#
# Indices 1 2 3 4 5 6 
#
# 1 0.037916 0.001479 -0.005398 0.001229 -0.010203 -0.002260
# 2 0.001479 0.012345 -0.001824 0.003397 0.002462 -0.003966
# 3 -0.005398 -0.001824 0.006769 0.001709 -0.000179 -0.000605
# 4 0.001229 0.003397 0.001709 0.028403 0.001727 -0.006634
# 5 -0.010203 0.002462 -0.000179 0.001727 0.032440 -0.000245
# 6 -0.002260 -0.003966 -0.000605 -0.006634 -0.000245 0.048588
#
#
# Mechanical properties :
#
#
# Convention : Reuss Voigt Hill
#
# Bulk Modulus (GPa) = 21.95674 46.09251 34.02462
# Shear Modulus (GPa) = 25.88956 35.87059 30.88008
#
# Velocity S-wave (km/s) = 3.29271 3.87579 3.59608
# Velocity P-wave (km/s) = 4.86321 6.27147 5.61169
#
# Compressibility (1/GPa) = 0.04554411
#
# Stress axis : x y z
#
# Youngs Moduli (GPa) = 26.37384 81.00632 147.73708
#
# Poissons Ratio (x) = -0.11981 0.79754
# Poissons Ratio (y) = -0.03901 0.26940
# Poissons Ratio (z) = 0.14237 0.14772
#
# Static dielectric constant tensor:
#      x y z
#    x 3.998180 -0.279770 0.403840 
#    y -0.279770 4.417020 -0.170170 
#    z 0.403840 -0.170170 4.812570 
# 
# 
# High freq. dielectric constant tensor:
#      x y z
#    x 1.913530 -0.019050 0.022940 
#    y -0.019050 1.956890 0.001170 
#    z 0.022940 0.001170 1.961240 
# 
# From -- ./inp_files/253835.got.cif
#   From: 2010.06.25/outbox.cif.g09.slc.cpg/sg2_127_cif.got.tgz:253835.got - 2010.06.27 13:26:56.
