data_PCOD8010168
_publ_section_title
;
Structure prediction by ZEFSAII (Michael W. Deem and Ramdas Pophale) SiO2 
 PCOD8010168
Probable space group: P -1
;
_chemical_formula_sum "Si O2"
_cell_formula_units_Z 16
_cell_length_a 9.502431
_cell_length_b 10.949994
_cell_length_c 15.248155
_cell_angle_alpha 132.118761
_cell_angle_beta 142.650742
_cell_angle_gamma 63.183980
_cell_volume 702.011489
_symmetry_space_group_name_H-M "P -1"
_symmetry_group_IT_number 2
_symmetry_cell_setting 'triclinic'
loop_
_space_group_symop_operation_xyz
x,y,z
-x,-y,-z
loop_
_atom_site_type_symbol
_atom_site_label
_atom_site_fract_x
_atom_site_fract_y
_atom_site_fract_z
Si Si1 0.742397 0.882131 0.713716
Si Si2 0.277151 0.002276 0.530382
Si Si3 0.184174 0.202675 0.745516
Si Si4 0.001241 0.435337 0.629184
Si Si5 0.558355 0.364673 0.268323
Si Si6 0.276950 0.296749 0.550731
Si Si7 0.810185 0.885931 0.944413
Si Si8 0.668768 0.236881 0.085602
O O1 0.833806 0.765133 0.628928
O O2 0.772050 0.813268 0.792250
O O3 0.468983 0.883555 0.561584
O O4 0.909265 0.065921 0.875535
O O5 0.275872 0.076855 0.662784
O O6 0.363913 0.144358 0.569163
O O7 0.013495 0.896382 0.333162
O O8 0.064398 0.339381 0.700684
O O9 0.414631 0.281390 0.952443
O O10 0.082772 0.357439 0.543014
O O11 0.127012 0.628293 0.794774
O O12 0.720195 0.406109 0.456728
O O13 0.520594 0.540032 0.289265
O O14 0.303768 0.261915 0.119001
O O15 0.677087 0.254886 0.203954
O O16 0.692818 0.051296 0.978107
#
# Coordination Sequence:
#
# PCOD8010168 Si02
#       8
#     2   2   2   2   2   2   2   2
#     4  11  22  41  59  86 122 163 205 243 301 365
#     4  10  21  39  63  90 122 159 202 248 307 361
#     4  10  21  37  67  95 119 154 205 256 303 360
#     4  10  21  39  63  93 127 157 198 253 312 356
#     4  11  23  40  62  92 124 160 206 252 303 358
#     4  10  22  38  62  85 121 165 196 245 301 363
#     4  11  24  37  63  90 120 160 205 252 298 361
#     4  11  21  39  64  97 123 153 201 261 308 349
#
# _framework density 22.791649
#
# number of rings (size 3 to 8) (size 9 to 14) (size 15 to 20)
#    0.000    1.500    1.250    4.875    5.250    0.500 
#    0.000    3.125    0.000    0.000    0.000    0.000 
#    0.000    0.000    0.000    0.000    0.000    0.000 
#
# Total GULP energy -198301.649528 kJ/mol
# GULP energy per Si atom -12393.853096 kJ/mol
# Density = 2.273977 g / cm^3
# Si number density = 22.791649 Si / 1000 Ang^3
#
#
#
# Elastic Constant Matrix: (Units=GPa)
#
#
# Indices 1 2 3 4 5 6 
#
# 1 76.7320 32.0968 25.0640 15.4364 5.9668 21.3940
# 2 32.0968 72.9042 25.4638 6.6046 9.5332 20.9164
# 3 25.0640 25.4638 96.1574 0.3608 8.4486 9.8087
# 4 15.4364 6.6046 0.3608 33.9351 1.3441 11.1288
# 5 5.9668 9.5332 8.4486 1.3441 39.5519 5.5747
# 6 21.3940 20.9164 9.8087 11.1288 5.5747 24.0862
#
#
#
# Elastic Compliance Matrix: (Units=1/GPa)
#
#
# Indices 1 2 3 4 5 6 
#
# 1 0.019579 -0.004215 -0.002930 -0.004634 0.000321 -0.010471
# 2 -0.004215 0.020469 -0.002777 0.002505 -0.001869 -0.013626
# 3 -0.002930 -0.002777 0.012068 0.001955 -0.001467 -0.000464
# 4 -0.004634 0.002505 0.001955 0.036202 0.000665 -0.015737
# 5 0.000321 -0.001869 -0.001467 0.000665 0.026615 -0.004532
# 6 -0.010471 -0.013626 -0.000464 -0.015737 -0.004532 0.071160
#
#
# Mechanical properties :
#
#
# Convention : Reuss Voigt Hill
#
# Bulk Modulus (GPa) = 30.98660 45.67142 38.32901
# Shear Modulus (GPa) = 23.07416 30.39257 26.73337
#
# Velocity S-wave (km/s) = 3.18527 3.65567 3.42854
# Velocity P-wave (km/s) = 5.21086 6.15636 5.70323
#
# Compressibility (1/GPa) = 0.03227202
#
# Stress axis : x y z
#
# Youngs Moduli (GPa) = 51.07508 48.85480 82.86588
#
# Poissons Ratio (x) = 0.20590 0.24280
# Poissons Ratio (y) = 0.21526 0.23013
# Poissons Ratio (z) = 0.14965 0.13568
#
# Static dielectric constant tensor:
#      x y z
#    x 4.088950 0.203290 -0.001420 
#    y 0.203290 3.928990 0.126510 
#    z -0.001420 0.126510 4.180290 
# 
# 
# High freq. dielectric constant tensor:
#      x y z
#    x 1.892790 0.011240 0.000570 
#    y 0.011240 1.877450 0.006500 
#    z 0.000570 0.006500 1.901910 
# 
# From -- ./inp_files/279435.got.cif
#   From: 2010.06.25/outbox.cif.g09.slc.cpg/sg2_140_cif.got.tgz:279435.got - 2010.06.27 13:26:56.
