data_PCOD8010112
_publ_section_title
;
Structure prediction by ZEFSAII (Michael W. Deem and Ramdas Pophale) SiO2 
 PCOD8010112
Probable space group: P -1
;
_chemical_formula_sum "Si O2"
_cell_formula_units_Z 16
_cell_length_a 11.701766
_cell_length_b 13.378859
_cell_length_c 8.068833
_cell_angle_alpha 137.583197
_cell_angle_beta 126.974390
_cell_angle_gamma 52.832599
_cell_volume 649.979698
_symmetry_space_group_name_H-M "P -1"
_symmetry_group_IT_number 2
_symmetry_cell_setting 'triclinic'
loop_
_space_group_symop_operation_xyz
x,y,z
-x,-y,-z
loop_
_atom_site_type_symbol
_atom_site_label
_atom_site_fract_x
_atom_site_fract_y
_atom_site_fract_z
Si Si1 0.034302 0.820474 0.265841
Si Si2 0.086445 0.121298 0.432067
Si Si3 0.342081 0.532182 0.626561
Si Si4 0.238138 0.243648 0.180918
Si Si5 0.336961 0.232780 0.891587
Si Si6 0.384522 0.987833 0.245337
Si Si7 0.675025 0.423753 0.711627
Si Si8 0.161433 0.827340 0.981555
O O1 0.987423 0.769928 0.345460
O O2 0.205667 0.715498 0.258391
O O3 0.930345 0.772923 0.977240
O O4 0.000000 0.000000 0.500000
O O5 0.248650 0.151485 0.584041
O O6 0.108192 0.926012 0.231300
O O7 0.981225 0.183310 0.258484
O O8 0.238426 0.420169 0.422718
O O9 0.516716 0.435277 0.676469
O O10 0.324143 0.614134 0.530504
O O11 0.287897 0.661107 0.884762
O O12 0.345912 0.139321 0.283403
O O13 0.301749 0.184097 0.983753
O O14 0.516987 0.166567 0.954953
O O15 0.285209 0.415775 0.035328
O O16 0.229084 0.958052 0.123397
O O17 0.500000 0.000000 0.500000
#
# Coordination Sequence:
#
# PCOD8010112 Si02
#       8
#     2   2   2   2   2   2   2   2
#     4  11  23  41  64  96 132 165 217 267 320 374
#     4  10  22  36  63  93 125 169 211 257 309 387
#     4  10  21  39  64  98 133 168 211 266 320 378
#     4  10  25  38  65  98 129 165 214 275 317 376
#     4  10  21  40  65  99 125 166 217 269 317 375
#     4  12  23  43  65  91 131 172 217 258 328 390
#     4  10  21  37  65  97 131 169 210 267 325 375
#     4  11  21  39  64  92 131 171 211 251 321 386
#
# _framework density 24.616154999999999
#
# number of rings (size 3 to 8) (size 9 to 14) (size 15 to 20)
#    0.000    1.500    3.750    1.125    1.750    3.500 
#    0.000    1.875    0.000    3.000    0.000    0.000 
#    0.000    0.000    0.000    0.000    0.000    0.000 
#
# Total GULP energy -198277.299470 kJ/mol
# GULP energy per Si atom -12392.331217 kJ/mol
# Density = 2.456013 g / cm^3
# Si number density = 24.616155 Si / 1000 Ang^3
#
#
#
# Elastic Constant Matrix: (Units=GPa)
#
#
# Indices 1 2 3 4 5 6 
#
# 1 55.1352 35.9733 39.7810 -0.8336 12.1821 -21.6300
# 2 35.9733 146.2713 45.5842 -1.3176 3.3434 -23.6592
# 3 39.7810 45.5842 135.8882 6.4555 8.5166 -7.5531
# 4 -0.8336 -1.3176 6.4555 43.1434 -5.9486 1.7245
# 5 12.1821 3.3434 8.5166 -5.9486 41.7621 5.5825
# 6 -21.6300 -23.6592 -7.5531 1.7245 5.5825 40.6285
#
#
#
# Elastic Compliance Matrix: (Units=1/GPa)
#
#
# Indices 1 2 3 4 5 6 
#
# 1 0.034372 -0.003249 -0.007374 -0.000443 -0.010531 0.016502
# 2 -0.003249 0.008677 -0.001834 0.000400 0.000293 0.002925
# 3 -0.007374 -0.001834 0.010001 -0.001506 0.000463 -0.003134
# 4 -0.000443 0.000400 -0.001506 0.024044 0.004078 -0.001864
# 5 -0.010531 0.000293 0.000463 0.004078 0.028747 -0.009473
# 6 0.016502 0.002925 -0.003134 -0.001864 -0.009473 0.035900
#
#
# Mechanical properties :
#
#
# Convention : Reuss Voigt Hill
#
# Bulk Modulus (GPa) = 35.54273 64.44130 49.99201
# Shear Modulus (GPa) = 28.40341 39.50387 33.95364
#
# Velocity S-wave (km/s) = 3.40053 4.01033 3.71795
# Velocity P-wave (km/s) = 5.46701 6.90500 6.22765
#
# Compressibility (1/GPa) = 0.02813515
#
# Stress axis : x y z
#
# Youngs Moduli (GPa) = 29.09368 115.24142 99.98612
#
# Poissons Ratio (x) = 0.37446 0.73729
# Poissons Ratio (y) = 0.09453 0.18342
# Poissons Ratio (z) = 0.21453 0.21141
#
# Static dielectric constant tensor:
#      x y z
#    x 5.676400 -0.380630 -0.377630 
#    y -0.380630 4.243240 0.001180 
#    z -0.377630 0.001180 4.743520 
# 
# 
# High freq. dielectric constant tensor:
#      x y z
#    x 1.997010 -0.018890 0.000040 
#    y -0.018890 1.963320 0.009040 
#    z 0.000040 0.009040 1.989450 
# 
# From -- ./inp_files/316142.got.cif
#   From: 2010.06.25/outbox.cif.g09.slc.cpg/sg2_159_cif.got.tgz:316142.got - 2010.06.27 13:26:56.
