data_PCOD8010391
_publ_section_title
;
Structure prediction by ZEFSAII (Michael W. Deem and Ramdas Pophale) SiO2 
 PCOD8010391
Probable space group: P -1
;
_chemical_formula_sum "Si O2"
_cell_formula_units_Z 16
_cell_length_a 9.169899
_cell_length_b 17.013873
_cell_length_c 5.151525
_cell_angle_alpha 114.244270
_cell_angle_beta 93.951068
_cell_angle_gamma 74.442058
_cell_volume 705.202975
_symmetry_space_group_name_H-M "P -1"
_symmetry_group_IT_number 2
_symmetry_cell_setting 'triclinic'
loop_
_space_group_symop_operation_xyz
x,y,z
-x,-y,-z
loop_
_atom_site_type_symbol
_atom_site_label
_atom_site_fract_x
_atom_site_fract_y
_atom_site_fract_z
Si Si1 0.866044 0.784534 0.480373
Si Si2 0.597928 0.399664 0.872596
Si Si3 0.664881 0.791797 0.975641
Si Si4 0.072973 0.032972 0.299393
Si Si5 0.028146 0.416064 0.696671
Si Si6 0.567199 0.034783 0.803740
Si Si7 0.733281 0.434274 0.436479
Si Si8 0.359221 0.377441 0.481083
O O1 0.742014 0.806343 0.270562
O O2 0.962560 0.858299 0.564810
O O3 0.971361 0.682719 0.321946
O O4 0.775444 0.799768 0.762000
O O5 0.723820 0.389281 0.650636
O O6 0.482269 0.342817 0.682688
O O7 0.500000 0.500000 0.000000
O O8 0.689558 0.373184 0.118384
O O9 0.498830 0.858949 0.037707
O O10 0.628255 0.696161 0.836773
O O11 0.252604 0.990267 0.237095
O O12 0.000000 0.000000 0.500000
O O13 0.000000 0.000000 0.000000
O O14 0.195871 0.407924 0.620896
O O15 0.910442 0.436916 0.465102
O O16 0.000000 0.500000 0.000000
O O17 0.500000 0.000000 0.500000
O O18 0.500000 0.000000 0.000000
O O19 0.617686 0.534178 0.540211
#
# Coordination Sequence:
#
# PCOD8010391 Si02
#       8
#     2   2   2   2   2   2   2   2
#     4  11  24  43  69 102 139 179 226 286 345 402
#     4  10  21  38  60  84 123 172 213 263 332 387
#     4  11  22  41  70 102 129 170 233 287 328 404
#     4  12  25  45  74 103 143 179 222 286 362 416
#     4  11  23  41  69  99 134 180 233 280 329 400
#     4  12  22  44  76 102 132 176 231 279 346 423
#     4  11  22  39  61  89 129 176 216 267 331 391
#     4  10  22  39  66  95 129 174 230 280 329 395
#
# _framework density 22.688503999999998
#
# number of rings (size 3 to 8) (size 9 to 14) (size 15 to 20)
#    0.000    1.000    2.500    5.625    0.000    7.000 
#    2.250    0.000    5.500    0.000    0.000    0.000 
#    0.000    0.000    0.000    0.000    0.000    0.000 
#
# Total GULP energy -198213.896364 kJ/mol
# GULP energy per Si atom -12388.368523 kJ/mol
# Density = 2.263686 g / cm^3
# Si number density = 22.688504 Si / 1000 Ang^3
#
#
#
# Elastic Constant Matrix: (Units=GPa)
#
#
# Indices 1 2 3 4 5 6 
#
# 1 125.6554 36.8472 50.9988 -0.9132 21.5345 -1.6385
# 2 36.8472 118.6865 53.1170 16.9926 2.0367 -1.7741
# 3 50.9988 53.1170 114.6205 -6.5588 29.8247 -3.8915
# 4 -0.9132 16.9926 -6.5588 51.4331 -3.2534 -1.1812
# 5 21.5345 2.0367 29.8247 -3.2534 44.7909 -3.7397
# 6 -1.6385 -1.7741 -3.8915 -1.1812 -3.7397 29.9039
#
#
#
# Elastic Compliance Matrix: (Units=1/GPa)
#
#
# Indices 1 2 3 4 5 6 
#
# 1 0.010174 -0.001836 -0.002927 0.000226 -0.002866 -0.000282
# 2 -0.001836 0.012404 -0.006279 -0.004664 0.004174 0.000156
# 3 -0.002927 -0.006279 0.015284 0.003467 -0.008185 0.000569
# 4 0.000226 -0.004664 0.003467 0.021416 -0.000569 0.000962
# 5 -0.002866 0.004174 -0.008185 -0.000569 0.029144 0.002648
# 6 -0.000282 0.000156 0.000569 0.000962 0.002648 0.033877
#
#
# Mechanical properties :
#
#
# Convention : Reuss Voigt Hill
#
# Bulk Modulus (GPa) = 63.37823 71.20981 67.29402
# Shear Modulus (GPa) = 33.41317 39.75886 36.58602
#
# Velocity S-wave (km/s) = 3.84173 4.19068 4.02000
# Velocity P-wave (km/s) = 6.90458 7.40741 7.16041
#
# Compressibility (1/GPa) = 0.01577829
#
# Stress axis : x y z
#
# Youngs Moduli (GPa) = 98.29315 80.61832 65.42863
#
# Poissons Ratio (x) = 0.14803 0.19148
# Poissons Ratio (y) = 0.18048 0.41082
# Poissons Ratio (z) = 0.28766 0.50620
#
# Static dielectric constant tensor:
#      x y z
#    x 4.479310 -0.021260 0.534610 
#    y -0.021260 4.619140 0.167350 
#    z 0.534610 0.167350 4.291790 
# 
# 
# High freq. dielectric constant tensor:
#      x y z
#    x 1.902690 0.000800 0.009590 
#    y 0.000800 1.878760 -0.007290 
#    z 0.009590 -0.007290 1.912300 
# 
# From -- ./inp_files/45819.got.cif
#   From: 2010.06.25/outbox.cif.g09.slc.cpg/sg2_23_cif.got.tgz:45819.got - 2010.06.27 13:26:56.
