data_PCOD8010625
_publ_section_title
;
Structure prediction by ZEFSAII (Michael W. Deem and Ramdas Pophale) SiO2 
 PCOD8010625
Probable space group: P -1
;
_chemical_formula_sum "Si O2"
_cell_formula_units_Z 14
_cell_length_a 11.718414
_cell_length_b 10.748757
_cell_length_c 10.919045
_cell_angle_alpha 126.267012
_cell_angle_beta 61.519787
_cell_angle_gamma 77.026463
_cell_volume 681.624963
_symmetry_space_group_name_H-M "P -1"
_symmetry_group_IT_number 2
_symmetry_cell_setting 'triclinic'
loop_
_space_group_symop_operation_xyz
x,y,z
-x,-y,-z
loop_
_atom_site_type_symbol
_atom_site_label
_atom_site_fract_x
_atom_site_fract_y
_atom_site_fract_z
Si Si1 0.408732 0.763348 0.417951
Si Si2 0.531980 0.134831 0.296118
Si Si3 0.823212 0.634880 0.497401
Si Si4 0.080503 0.857527 0.564643
Si Si5 0.270056 0.723780 0.135943
Si Si6 0.873417 0.787961 0.783092
Si Si7 0.637972 0.027067 0.673015
O O1 0.471408 0.777082 0.522353
O O2 0.221785 0.822466 0.564429
O O3 0.354408 0.948104 0.461099
O O4 0.579490 0.521601 0.135065
O O5 0.344491 0.340551 0.438164
O O6 0.534499 0.943747 0.196933
O O7 0.711662 0.031363 0.065052
O O8 0.782541 0.734191 0.712741
O O9 0.017460 0.378991 0.253754
O O10 0.823182 0.776585 0.480277
O O11 0.191870 0.725432 0.305628
O O12 0.017025 0.758100 0.607627
O O13 0.901124 0.115849 0.777363
O O14 0.371033 0.803957 0.150403
#
# Coordination Sequence:
#
# PCOD8010625 Si02
#       7
#     2   2   2   2   2   2   2
#     4  11  23  39  63  92 126 159 193 250 315 351
#     4  10  23  40  60  93 126 159 195 247 306 366
#     4   9  22  37  64  88 117 160 210 245 294 346
#     4  10  21  38  62  88 122 157 208 245 295 358
#     4  10  21  40  65  90 118 158 206 256 292 346
#     4  11  21  40  62  91 122 159 202 252 295 358
#     4   9  19  42  62  88 118 154 214 248 284 357
#
# _framework density 20.539155000000001
#
# number of rings (size 3 to 8) (size 9 to 14) (size 15 to 20)
#    0.857    1.143    1.429    2.571    0.000    7.429 
#    0.000    2.143    0.000    0.000    0.000    0.000 
#    0.000    0.000    0.000    0.000    0.000    0.000 
#
# Total GULP energy -173446.042272 kJ/mol
# GULP energy per Si atom -12389.003019 kJ/mol
# Density = 2.049241 g / cm^3
# Si number density = 20.539155 Si / 1000 Ang^3
#
#
#
# Elastic Constant Matrix: (Units=GPa)
#
#
# Indices 1 2 3 4 5 6 
#
# 1 143.3921 53.3717 66.7429 -0.4702 -6.7904 -25.4099
# 2 53.3717 83.0789 32.1226 6.6084 -2.4402 -16.5295
# 3 66.7429 32.1226 73.7232 -0.3391 -8.9860 -8.8324
# 4 -0.4702 6.6084 -0.3391 21.2862 -3.9354 -11.9778
# 5 -6.7904 -2.4402 -8.9860 -3.9354 17.6760 4.3236
# 6 -25.4099 -16.5295 -8.8324 -11.9778 4.3236 39.6795
#
#
#
# Elastic Compliance Matrix: (Units=1/GPa)
#
#
# Indices 1 2 3 4 5 6 
#
# 1 0.014836 -0.004438 -0.010751 0.005278 -0.000904 0.006951
# 2 -0.004438 0.016978 -0.003448 -0.004590 -0.002716 0.002374
# 3 -0.010751 -0.003448 0.025558 0.001116 0.009449 -0.003325
# 4 0.005278 -0.004590 0.001116 0.061263 0.010950 0.019016
# 5 -0.000904 -0.002716 0.009449 0.010950 0.063891 -0.003264
# 6 0.006951 0.002374 -0.003325 0.019016 -0.003264 0.035998
#
#
# Mechanical properties :
#
#
# Convention : Reuss Voigt Hill
#
# Bulk Modulus (GPa) = 49.75313 67.18538 58.46926
# Shear Modulus (GPa) = 19.04782 25.59214 22.31998
#
# Velocity S-wave (km/s) = 3.04861 3.53373 3.30010
# Velocity P-wave (km/s) = 6.05543 7.03076 6.56124
#
# Compressibility (1/GPa) = 0.02009924
#
# Stress axis : x y z
#
# Youngs Moduli (GPa) = 67.40472 58.89813 39.12660
#
# Poissons Ratio (x) = 0.26136 0.42064
# Poissons Ratio (y) = 0.29911 0.13492
# Poissons Ratio (z) = 0.72465 0.20310
#
# Static dielectric constant tensor:
#      x y z
#    x 3.854560 -0.187920 -0.253840 
#    y -0.187920 3.743610 0.093270 
#    z -0.253840 0.093270 3.300100 
# 
# 
# High freq. dielectric constant tensor:
#      x y z
#    x 1.807900 -0.015020 -0.020350 
#    y -0.015020 1.802530 0.005880 
#    z -0.020350 0.005880 1.767270 
# 
# From -- ./inp_files/428870.got.cif
#   From: 2010.06.25/outbox.cif.g09.slc.cpg/sg2_215_cif.got.tgz:428870.got - 2010.06.27 13:26:56.
