data_PCOD8010537
_publ_section_title
;
Structure prediction by ZEFSAII (Michael W. Deem and Ramdas Pophale) SiO2 
 PCOD8010537
Probable space group: P -1
;
_chemical_formula_sum "Si O2"
_cell_formula_units_Z 14
_cell_length_a 8.717922
_cell_length_b 22.213259
_cell_length_c 5.288559
_cell_angle_alpha 88.045331
_cell_angle_beta 92.562493
_cell_angle_gamma 147.282377
_cell_volume 552.985775
_symmetry_space_group_name_H-M "P -1"
_symmetry_group_IT_number 2
_symmetry_cell_setting 'triclinic'
loop_
_space_group_symop_operation_xyz
x,y,z
-x,-y,-z
loop_
_atom_site_type_symbol
_atom_site_label
_atom_site_fract_x
_atom_site_fract_y
_atom_site_fract_z
Si Si1 0.192370 0.122449 0.985066
Si Si2 0.985903 0.626766 0.709214
Si Si3 0.395643 0.588012 0.059593
Si Si4 0.204223 0.818084 0.572347
Si Si5 0.857086 0.377748 0.788778
Si Si6 0.975449 0.180854 0.957293
Si Si7 0.329919 0.124523 0.489193
O O1 0.408084 0.185812 0.749190
O O2 0.993712 0.114967 0.947646
O O3 0.375610 0.185150 0.247651
O O4 0.000000 0.000000 0.000000
O O5 0.684639 0.492815 0.736982
O O6 0.953414 0.686776 0.634478
O O7 0.173717 0.662328 0.484272
O O8 0.163064 0.678002 0.976657
O O9 0.374693 0.645917 0.187305
O O10 0.719024 0.687494 0.982750
O O11 0.174778 0.513239 0.817363
O O12 0.143590 0.835951 0.315609
O O13 0.499195 0.880555 0.542175
O O14 0.227430 0.869227 0.812986
O O15 0.000000 0.000000 0.500000
#
# Coordination Sequence:
#
# PCOD8010537 Si02
#       7
#     2   2   2   2   2   2   2
#     4  10  23  47  74 101 124 174 229 278 337 407
#     4  10  21  38  61  89 137 181 224 268 322 386
#     4   9  23  36  64  92 140 176 237 264 336 364
#     4  12  27  43  65 105 144 176 219 280 351 401
#     4   9  20  37  60  96 122 187 236 282 300 380
#     4  12  27  42  66 105 144 174 221 285 343 406
#     4  10  23  47  75  99 126 175 232 273 339 413
#
# _framework density 25.31711
#
# number of rings (size 3 to 8) (size 9 to 14) (size 15 to 20)
#    0.857    0.857    0.000    3.000    6.000    1.143 
#    0.000   17.143    0.000    0.000    0.000    0.000 
#    0.000    0.000    0.000    0.000    0.000    0.000 
#
# Total GULP energy -173529.247938 kJ/mol
# GULP energy per Si atom -12394.946281 kJ/mol
# Density = 2.525949 g / cm^3
# Si number density = 25.317110 Si / 1000 Ang^3
#
#
#
# Elastic Constant Matrix: (Units=GPa)
#
#
# Indices 1 2 3 4 5 6 
#
# 1 178.0652 41.6013 90.6209 -10.6196 -2.4342 -15.7298
# 2 41.6013 56.6425 27.3999 -9.3732 1.2678 -4.8483
# 3 90.6209 27.3999 231.1145 6.7886 -2.8197 -10.9789
# 4 -10.6196 -9.3732 6.7886 26.3647 -0.4272 -4.1872
# 5 -2.4342 1.2678 -2.8197 -0.4272 52.2545 -3.6696
# 6 -15.7298 -4.8483 -10.9789 -4.1872 -3.6696 41.0985
#
#
#
# Elastic Compliance Matrix: (Units=1/GPa)
#
#
# Indices 1 2 3 4 5 6 
#
# 1 0.008382 -0.004134 -0.002767 0.002999 0.000530 0.002334
# 2 -0.004134 0.022539 -0.001195 0.006867 -0.000649 0.001399
# 3 -0.002767 -0.001195 0.005644 -0.002987 0.000182 0.000020
# 4 0.002999 0.006867 -0.002987 0.043249 0.000560 0.005616
# 5 0.000530 -0.000649 0.000182 0.000560 0.019329 0.001958
# 6 0.002334 0.001399 0.000020 0.005616 0.001958 0.026142
#
#
# Mechanical properties :
#
#
# Convention : Reuss Voigt Hill
#
# Bulk Modulus (GPa) = 49.08013 87.22960 68.15487
# Shear Modulus (GPa) = 33.72243 44.35687 39.03965
#
# Velocity S-wave (km/s) = 3.65362 4.19029 3.93112
# Velocity P-wave (km/s) = 6.10138 7.61190 6.89811
#
# Compressibility (1/GPa) = 0.02037484
#
# Stress axis : x y z
#
# Youngs Moduli (GPa) = 119.29895 44.36745 177.16460
#
# Poissons Ratio (x) = 0.18340 0.49029
# Poissons Ratio (y) = 0.49313 0.21162
# Poissons Ratio (z) = 0.33015 0.05300
#
# Static dielectric constant tensor:
#      x y z
#    x 4.334800 -0.111880 -0.527930 
#    y -0.111880 4.607480 0.180940 
#    z -0.527930 0.180940 9.354410 
# 
# 
# High freq. dielectric constant tensor:
#      x y z
#    x 1.995270 -0.001810 -0.007540 
#    y -0.001810 2.028620 -0.007040 
#    z -0.007540 -0.007040 2.026640 
# 
# From -- ./inp_files/54470.got.cif
#   From: 2010.06.25/outbox.cif.g09.slc.cpg/sg2_28_cif.got.tgz:54470.got - 2010.06.27 13:26:56.
