data_PCOD8010908
_publ_section_title
;
Structure prediction by ZEFSAII (Michael W. Deem and Ramdas Pophale) SiO2 
 PCOD8010908
Probable space group: P -1
;
_chemical_formula_sum "Si O2"
_cell_formula_units_Z 14
_cell_length_a 7.863397
_cell_length_b 9.128342
_cell_length_c 9.354613
_cell_angle_alpha 103.715882
_cell_angle_beta 90.533489
_cell_angle_gamma 93.955132
_cell_volume 650.542133
_symmetry_space_group_name_H-M "P -1"
_symmetry_group_IT_number 2
_symmetry_cell_setting 'triclinic'
loop_
_space_group_symop_operation_xyz
x,y,z
-x,-y,-z
loop_
_atom_site_type_symbol
_atom_site_label
_atom_site_fract_x
_atom_site_fract_y
_atom_site_fract_z
Si Si1 0.381443 0.926260 0.233642
Si Si2 0.913966 0.296656 0.082930
Si Si3 0.215336 0.107544 0.040419
Si Si4 0.043539 0.366871 0.802706
Si Si5 0.717371 0.110971 0.239067
Si Si6 0.588445 0.664841 0.068031
Si Si7 0.880976 0.134166 0.540323
O O1 0.456439 0.764099 0.172808
O O2 0.283275 0.919532 0.380058
O O3 0.259111 0.971426 0.113376
O O4 0.523590 0.067146 0.273374
O O5 0.036670 0.166263 0.101450
O O6 0.985451 0.457914 0.182338
O O7 0.734387 0.243469 0.146691
O O8 0.910359 0.304923 0.911951
O O9 0.356471 0.251060 0.062208
O O10 0.208838 0.040428 0.862538
O O11 0.239572 0.350620 0.842199
O O12 0.990188 0.279241 0.638065
O O13 0.822063 0.174912 0.391140
O O14 0.500000 0.500000 0.000000
O O15 0.000000 0.000000 0.500000
#
# Coordination Sequence:
#
# PCOD8010908 Si02
#       7
#     2   2   2   2   2   2   2
#     4  11  24  40  66  96 127 166 221 261 319 368
#     4  10  21  40  65  93 129 162 219 264 311 371
#     4  10  21  38  64  98 122 165 218 263 314 370
#     4  10  24  39  65  95 127 171 212 260 321 376
#     4  11  22  38  61  94 128 167 210 263 312 377
#     4  10  22  38  64  97 129 159 208 272 319 367
#     4  12  24  41  64  89 131 173 212 258 317 390
#
# _framework density 21.520515
#
# number of rings (size 3 to 8) (size 9 to 14) (size 15 to 20)
#    0.000    1.429    0.000    6.857   10.000    0.571 
#    0.000    0.000    0.000    2.571    0.000    0.000 
#    0.000    0.000    0.000    0.000    0.000    0.000 
#
# Total GULP energy -173533.357357 kJ/mol
# GULP energy per Si atom -12395.239811 kJ/mol
# Density = 2.147153 g / cm^3
# Si number density = 21.520515 Si / 1000 Ang^3
#
#
#
# Elastic Constant Matrix: (Units=GPa)
#
#
# Indices 1 2 3 4 5 6 
#
# 1 91.5748 19.6310 33.6324 -1.2459 -11.4019 5.3829
# 2 19.6310 96.4891 43.2257 2.3167 -9.9656 15.2011
# 3 33.6324 43.2257 104.6117 11.2291 7.2255 0.6850
# 4 -1.2459 2.3167 11.2291 31.8093 6.0512 -3.8574
# 5 -11.4019 -9.9656 7.2255 6.0512 36.7264 0.4101
# 6 5.3829 15.2011 0.6850 -3.8574 0.4101 39.2179
#
#
#
# Elastic Compliance Matrix: (Units=1/GPa)
#
#
# Indices 1 2 3 4 5 6 
#
# 1 0.013397 0.000220 -0.004845 0.001047 0.005020 -0.001789
# 2 0.000220 0.014670 -0.006416 -0.000527 0.005462 -0.005713
# 3 -0.004845 -0.006416 0.014507 -0.003469 -0.005557 0.002615
# 4 0.001047 -0.000527 -0.003469 0.034080 -0.004790 0.003523
# 5 0.005020 0.005462 -0.005557 -0.004790 0.032190 -0.003517
# 6 -0.001789 -0.005713 0.002615 0.003523 -0.003517 0.028296
#
#
# Mechanical properties :
#
#
# Convention : Reuss Voigt Hill
#
# Bulk Modulus (GPa) = 48.79978 53.96153 51.38065
# Shear Modulus (GPa) = 30.11085 34.62985 32.37035
#
# Velocity S-wave (km/s) = 3.74461 4.01578 3.88256
# Velocity P-wave (km/s) = 6.43593 6.82868 6.63521
#
# Compressibility (1/GPa) = 0.02049190
#
# Stress axis : x y z
#
# Youngs Moduli (GPa) = 74.64487 68.16588 68.93198
#
# Poissons Ratio (x) = -0.01501 0.33400
# Poissons Ratio (y) = -0.01644 0.44225
# Poissons Ratio (z) = 0.36169 0.43734
#
# Static dielectric constant tensor:
#      x y z
#    x 4.120890 0.162600 -0.031870 
#    y 0.162600 4.132830 -0.041940 
#    z -0.031870 -0.041940 3.922770 
# 
# 
# High freq. dielectric constant tensor:
#      x y z
#    x 1.855010 0.016070 -0.008080 
#    y 0.016070 1.860580 0.003840 
#    z -0.008080 0.003840 1.814460 
# 
# From -- ./inp_files/155475.got.cif
#   From: 2010.06.25/outbox.cif.g09.slc.cpg/sg2_78_cif.got.tgz:155475.got - 2010.06.27 13:26:56.
