data_PCOD8010291
_publ_section_title
;
Structure prediction by ZEFSAII (Michael W. Deem and Ramdas Pophale) SiO2 
 PCOD8010291
Probable space group: P -1
;
_chemical_formula_sum "Si O2"
_cell_formula_units_Z 16
_cell_length_a 8.982846
_cell_length_b 15.058375
_cell_length_c 14.438365
_cell_angle_alpha 43.247127
_cell_angle_beta 93.051682
_cell_angle_gamma 126.486385
_cell_volume 779.067115
_symmetry_space_group_name_H-M "P -1"
_symmetry_group_IT_number 2
_symmetry_cell_setting 'triclinic'
loop_
_space_group_symop_operation_xyz
x,y,z
-x,-y,-z
loop_
_atom_site_type_symbol
_atom_site_label
_atom_site_fract_x
_atom_site_fract_y
_atom_site_fract_z
Si Si1 0.120941 0.960757 0.133739
Si Si2 0.929741 0.071810 0.502704
Si Si3 0.463496 0.876551 0.672771
Si Si4 0.925155 0.587613 0.876875
Si Si5 0.456121 0.877570 0.863880
Si Si6 0.034394 0.779274 0.928967
Si Si7 0.776770 0.800089 0.407998
Si Si8 0.236195 0.328074 0.820210
O O1 0.877864 0.811249 0.306616
O O2 0.009998 0.825737 0.137170
O O3 0.323638 0.998747 0.149645
O O4 0.275208 0.202594 0.935990
O O5 0.008814 0.260134 0.313607
O O6 0.061199 0.156186 0.541603
O O7 0.000000 0.000000 0.500000
O O8 0.621900 0.857574 0.670547
O O9 0.566927 0.017496 0.665160
O O10 0.154082 0.637910 0.850895
O O11 0.500000 0.000000 0.500000
O O12 0.896075 0.638433 0.936599
O O13 0.663170 0.339607 0.019669
O O14 0.243216 0.822570 0.941041
O O15 0.182845 0.017505 0.732006
O O16 0.820490 0.641855 0.106456
O O17 0.480240 0.561062 0.599690
#
# Coordination Sequence:
#
# PCOD8010291 Si02
#       8
#     2   2   2   2   2   2   2   2
#     4  10  22  43  66  88 120 157 208 259 293 362
#     4  11  20  34  56  87 119 153 199 244 294 359
#     4   9  19  34  53  79 118 156 190 232 291 357
#     4  10  21  38  58  86 123 164 193 240 309 364
#     4  11  21  40  61  85 123 161 202 243 305 360
#     4  10  22  40  59  90 127 158 198 257 293 360
#     4  11  21  40  61  90 124 160 200 248 313 354
#     4  10  23  42  65  90 117 161 207 252 311 347
#
# _framework density 20.537382000000001
#
# number of rings (size 3 to 8) (size 9 to 14) (size 15 to 20)
#    0.000    1.750    2.500    2.625    0.000    2.500 
#    4.500    3.125    0.000    0.000    0.000    0.000 
#    0.000    0.000    0.000    0.000    0.000    0.000 
#
# Total GULP energy -198275.074379 kJ/mol
# GULP energy per Si atom -12392.192149 kJ/mol
# Density = 2.049064 g / cm^3
# Si number density = 20.537382 Si / 1000 Ang^3
#
#
#
# Elastic Constant Matrix: (Units=GPa)
#
#
# Indices 1 2 3 4 5 6 
#
# 1 90.7197 31.4800 24.0089 -6.8318 -6.9409 9.3941
# 2 31.4800 90.8272 27.2205 8.2201 1.8840 11.9537
# 3 24.0089 27.2205 101.4854 -1.4957 -3.9005 -2.9515
# 4 -6.8318 8.2201 -1.4957 23.4941 2.7423 -0.6759
# 5 -6.9409 1.8840 -3.9005 2.7423 25.6519 5.0808
# 6 9.3941 11.9537 -2.9515 -0.6759 5.0808 38.4298
#
#
#
# Elastic Compliance Matrix: (Units=1/GPa)
#
#
# Indices 1 2 3 4 5 6 
#
# 1 0.014031 -0.004457 -0.001980 0.004994 0.003806 -0.002611
# 2 -0.004457 0.014584 -0.003110 -0.006545 -0.001332 -0.003625
# 3 -0.001980 -0.003110 0.011271 0.001196 0.000837 0.002227
# 4 0.004994 -0.006545 0.001196 0.046845 -0.003426 0.002184
# 5 0.003806 -0.001332 0.000837 -0.003426 0.041801 -0.006038
# 6 -0.002611 -0.003625 0.002227 0.002184 -0.006038 0.028795
#
#
# Mechanical properties :
#
#
# Convention : Reuss Voigt Hill
#
# Bulk Modulus (GPa) = 48.09720 49.82791 48.96256
# Shear Modulus (GPa) = 27.26992 30.87002 29.06997
#
# Velocity S-wave (km/s) = 3.64788 3.88121 3.76635
# Velocity P-wave (km/s) = 6.41972 6.66331 6.54265
#
# Compressibility (1/GPa) = 0.02079123
#
# Stress axis : x y z
#
# Youngs Moduli (GPa) = 71.26964 68.56878 88.72376
#
# Poissons Ratio (x) = 0.30561 0.17568
# Poissons Ratio (y) = 0.31765 0.27597
# Poissons Ratio (z) = 0.14112 0.21328
#
# Static dielectric constant tensor:
#      x y z
#    x 3.903090 0.020380 -0.828710 
#    y 0.020380 3.671530 0.052460 
#    z -0.828710 0.052460 4.614210 
# 
# 
# High freq. dielectric constant tensor:
#      x y z
#    x 1.803810 0.013520 -0.002350 
#    y 0.013520 1.796210 0.025650 
#    z -0.002350 0.025650 1.813830 
# 
# From -- ./inp_files/353716.got.cif
#   From: 2010.06.25/outbox.cif.g09.slc.cpg/sg2_177_cif.got.tgz:353716.got - 2010.06.27 13:26:56.
