data_PCOD8010079
_publ_section_title
;
Structure prediction by ZEFSAII (Michael W. Deem and Ramdas Pophale) SiO2 
 PCOD8010079
Probable space group: P -1
;
_chemical_formula_sum "Si O2"
_cell_formula_units_Z 14
_cell_length_a 15.253386
_cell_length_b 8.427608
_cell_length_c 8.694325
_cell_angle_alpha 92.875977
_cell_angle_beta 133.777276
_cell_angle_gamma 66.469825
_cell_volume 695.416301
_symmetry_space_group_name_H-M "P -1"
_symmetry_group_IT_number 2
_symmetry_cell_setting 'triclinic'
loop_
_space_group_symop_operation_xyz
x,y,z
-x,-y,-z
loop_
_atom_site_type_symbol
_atom_site_label
_atom_site_fract_x
_atom_site_fract_y
_atom_site_fract_z
Si Si1 0.843979 0.773676 0.665166
Si Si2 0.916207 0.527331 0.245831
Si Si3 0.364442 0.270226 0.420840
Si Si4 0.410281 0.917509 0.815635
Si Si5 0.376297 0.420555 0.136646
Si Si6 0.209654 0.113769 0.079016
Si Si7 0.617193 0.221095 0.910471
O O1 0.777811 0.649075 0.642291
O O2 0.866109 0.872943 0.847929
O O3 0.993836 0.646243 0.764016
O O4 0.736172 0.924132 0.422381
O O5 0.000000 0.500000 0.500000
O O6 0.771221 0.535940 0.114453
O O7 0.888848 0.712807 0.139442
O O8 0.366577 0.415827 0.310865
O O9 0.356352 0.113518 0.298189
O O10 0.490964 0.198362 0.689503
O O11 0.497936 0.772203 0.782060
O O12 0.369990 0.819037 0.895015
O O13 0.500000 0.000000 0.000000
O O14 0.409640 0.577231 0.138396
O O15 0.243605 0.929930 0.019250
#
# Coordination Sequence:
#
# PCOD8010079 Si02
#       7
#     2   2   2   2   2   2   2
#     4  10  21  37  65  88 113 152 214 242 278 349
#     4  11  22  40  62  87 117 157 207 243 294 355
#     4   9  20  36  63  84 119 151 205 233 296 345
#     4  12  21  38  62  88 117 158 204 240 292 355
#     4  11  25  37  60  92 124 155 191 252 306 347
#     4   9  20  36  63  86 113 159 202 239 287 352
#     4  12  21  38  59  94 126 150 193 254 303 346
#
# _framework density 20.131827000000001
#
# number of rings (size 3 to 8) (size 9 to 14) (size 15 to 20)
#    0.857    0.571    1.429    6.000    0.000    0.000 
#    0.000    3.571    0.000    0.000    0.000    0.000 
#    0.000    0.000    0.000    0.000    0.000    0.000 
#
# Total GULP energy -173472.472139 kJ/mol
# GULP energy per Si atom -12390.890867 kJ/mol
# Density = 2.008601 g / cm^3
# Si number density = 20.131827 Si / 1000 Ang^3
#
#
#
# Elastic Constant Matrix: (Units=GPa)
#
#
# Indices 1 2 3 4 5 6 
#
# 1 68.4134 15.9191 2.6751 -3.0067 -17.6971 -13.1168
# 2 15.9191 69.7909 5.8146 -14.9786 1.0088 -8.4831
# 3 2.6751 5.8146 78.7339 2.4675 -19.2670 -11.0904
# 4 -3.0067 -14.9786 2.4675 19.7878 -3.1778 -0.0690
# 5 -17.6971 1.0088 -19.2670 -3.1778 37.7476 -9.6021
# 6 -13.1168 -8.4831 -11.0904 -0.0690 -9.6021 29.3105
#
#
#
# Elastic Compliance Matrix: (Units=1/GPa)
#
#
# Indices 1 2 3 4 5 6 
#
# 1 0.024102 -0.003275 0.006896 0.003610 0.020051 0.019025
# 2 -0.003275 0.018495 -0.001449 0.013559 -0.000840 0.003096
# 3 0.006896 -0.001449 0.018829 0.000355 0.016804 0.015297
# 4 0.003610 0.013559 0.000355 0.062785 0.009030 0.008780
# 5 0.020051 -0.000840 0.016804 0.009030 0.053558 0.032655
# 6 0.019025 0.003096 0.015297 0.008780 0.032655 0.060033
#
#
# Mechanical properties :
#
#
# Convention : Reuss Voigt Hill
#
# Bulk Modulus (GPa) = 15.20435 29.52843 22.36639
# Shear Modulus (GPa) = 19.57856 30.20447 24.89152
#
# Velocity S-wave (km/s) = 3.12191 3.87762 3.52010
# Velocity P-wave (km/s) = 4.53474 5.89468 5.25885
#
# Compressibility (1/GPa) = 0.06577064
#
# Stress axis : x y z
#
# Youngs Moduli (GPa) = 41.48989 54.06979 53.10853
#
# Poissons Ratio (x) = 0.17707 -0.36625
# Poissons Ratio (y) = 0.13587 0.07696
# Poissons Ratio (z) = -0.28612 0.07835
#
# Static dielectric constant tensor:
#      x y z
#    x 3.717800 -0.209490 -0.246790 
#    y -0.209490 3.353630 -0.023070 
#    z -0.246790 -0.023070 3.675870 
# 
# 
# High freq. dielectric constant tensor:
#      x y z
#    x 1.782250 -0.019310 -0.023490 
#    y -0.019310 1.757130 -0.010200 
#    z -0.023490 -0.010200 1.792000 
# 
# From -- ./inp_files/199633.got.cif
#   From: 2010.06.25/outbox.cif.g09.slc.cpg/sg2_100_cif.got.tgz:199633.got - 2010.06.27 13:26:56.
