data_PCOD8010766
_publ_section_title
;
Structure prediction by ZEFSAII (Michael W. Deem and Ramdas Pophale) SiO2 
 PCOD8010766
Probable space group: P -1
;
_chemical_formula_sum "Si O2"
_cell_formula_units_Z 16
_cell_length_a 21.363442
_cell_length_b 5.345632
_cell_length_c 9.183482
_cell_angle_alpha 94.713530
_cell_angle_beta 52.035625
_cell_angle_gamma 111.774849
_cell_volume 752.413946
_symmetry_space_group_name_H-M "P -1"
_symmetry_group_IT_number 2
_symmetry_cell_setting 'triclinic'
loop_
_space_group_symop_operation_xyz
x,y,z
-x,-y,-z
loop_
_atom_site_type_symbol
_atom_site_label
_atom_site_fract_x
_atom_site_fract_y
_atom_site_fract_z
Si Si1 0.070736 0.341313 0.526219
Si Si2 0.413522 0.953475 0.931478
Si Si3 0.459982 0.589742 0.424838
Si Si4 0.027113 0.795039 0.042289
Si Si5 0.552784 0.745462 0.830534
Si Si6 0.795214 0.011913 0.063180
Si Si7 0.892148 0.123677 0.629458
Si Si8 0.311420 0.639377 0.805221
O O1 0.126381 0.671304 0.447240
O O2 0.023332 0.247271 0.739405
O O3 0.997075 0.247810 0.501705
O O4 0.135517 0.185855 0.406747
O O5 0.488440 0.854928 0.852483
O O6 0.333929 0.727585 0.946555
O O7 0.455502 0.207064 0.772618
O O8 0.381138 0.030312 0.138197
O O9 0.500000 0.500000 0.500000
O O10 0.405314 0.349719 0.372007
O O11 0.396423 0.723025 0.584319
O O12 0.000000 0.500000 0.000000
O O13 0.130848 0.927282 0.918709
O O14 0.000000 0.000000 0.000000
O O15 0.500000 0.500000 0.000000
O O16 0.736976 0.688967 0.139213
O O17 0.742341 0.199721 0.179767
O O18 0.838845 0.109627 0.849609
#
# Coordination Sequence:
#
# PCOD8010766 Si02
#       8
#     2   2   2   2   2   2   2   2
#     4   9  17  31  61  87 105 146 193 257 291 347
#     4  10  21  38  63  92 123 171 225 271 320 377
#     4  11  21  37  64  97 123 172 231 272 307 383
#     4  11  22  40  67  91 125 164 213 255 314 390
#     4   9  20  37  62  89 122 157 224 270 316 366
#     4  11  25  40  61  96 126 168 202 267 335 384
#     4   9  17  34  56  85 115 139 200 245 302 360
#     4  12  24  38  65  92 137 166 215 271 334 381
#
# _framework density 21.264892
#
# number of rings (size 3 to 8) (size 9 to 14) (size 15 to 20)
#    0.000    1.750    1.250    3.375    3.500    4.000 
#    0.000    0.000   11.000    1.500    0.000    0.000 
#    0.000    0.000    0.000    0.000    0.000    0.000 
#
# Total GULP energy -198231.595763 kJ/mol
# GULP energy per Si atom -12389.474735 kJ/mol
# Density = 2.121649 g / cm^3
# Si number density = 21.264892 Si / 1000 Ang^3
#
#
#
# Elastic Constant Matrix: (Units=GPa)
#
#
# Indices 1 2 3 4 5 6 
#
# 1 120.4931 61.9473 44.6846 10.8322 10.6834 -14.9245
# 2 61.9473 138.9059 35.6415 13.7919 5.6536 -22.5480
# 3 44.6846 35.6415 67.3835 18.7280 1.1760 -4.5737
# 4 10.8322 13.7919 18.7280 44.3759 -4.2930 5.5661
# 5 10.6834 5.6536 1.1760 -4.2930 31.3494 2.6341
# 6 -14.9245 -22.5480 -4.5737 5.5661 2.6341 47.6866
#
#
#
# Elastic Compliance Matrix: (Units=1/GPa)
#
#
# Indices 1 2 3 4 5 6 
#
# 1 0.013250 -0.003753 -0.006642 0.000133 -0.003733 0.001926
# 2 -0.003753 0.010267 -0.002124 -0.001955 -0.001077 0.003764
# 3 -0.006642 -0.002124 0.022293 -0.007022 0.000863 -0.000173
# 4 0.000133 -0.001955 -0.007022 0.027154 0.004708 -0.004986
# 5 -0.003733 -0.001077 0.000863 0.004708 0.034317 -0.004040
# 6 0.001926 0.003764 -0.000173 -0.004986 -0.004040 0.024141
#
#
# Mechanical properties :
#
#
# Convention : Reuss Voigt Hill
#
# Bulk Modulus (GPa) = 48.14444 67.92548 58.03496
# Shear Modulus (GPa) = 30.60277 36.98298 33.79287
#
# Velocity S-wave (km/s) = 3.79769 4.17484 3.99073
# Velocity P-wave (km/s) = 6.47452 7.43310 6.97031
#
# Compressibility (1/GPa) = 0.02077083
#
# Stress axis : x y z
#
# Youngs Moduli (GPa) = 75.47392 97.40143 44.85651
#
# Poissons Ratio (x) = 0.36557 0.29794
# Poissons Ratio (y) = 0.28327 0.09528
# Poissons Ratio (z) = 0.50131 0.20689
#
# Static dielectric constant tensor:
#      x y z
#    x 3.982970 -0.034270 0.171580 
#    y -0.034270 4.370050 0.385710 
#    z 0.171580 0.385710 3.813000 
# 
# 
# High freq. dielectric constant tensor:
#      x y z
#    x 1.818100 -0.024740 0.019160 
#    y -0.024740 1.851090 0.016560 
#    z 0.019160 0.016560 1.821140 
# 
# From -- ./inp_files/137945.got.cif
#   From: 2010.06.25/outbox.cif.g09.slc.cpg/sg2_69_cif.got.tgz:137945.got - 2010.06.27 13:26:56.
