data_PCOD8010194
_publ_section_title
;
Structure prediction by ZEFSAII (Michael W. Deem and Ramdas Pophale) SiO2 
 PCOD8010194
Probable space group: P -1
;
_chemical_formula_sum "Si O2"
_cell_formula_units_Z 14
_cell_length_a 11.697208
_cell_length_b 9.330534
_cell_length_c 9.030838
_cell_angle_alpha 112.296991
_cell_angle_beta 118.148208
_cell_angle_gamma 112.261550
_cell_volume 586.738452
_symmetry_space_group_name_H-M "P -1"
_symmetry_group_IT_number 2
_symmetry_cell_setting 'triclinic'
loop_
_space_group_symop_operation_xyz
x,y,z
-x,-y,-z
loop_
_atom_site_type_symbol
_atom_site_label
_atom_site_fract_x
_atom_site_fract_y
_atom_site_fract_z
Si Si1 0.610205 0.130138 0.264598
Si Si2 0.090260 0.374572 0.324956
Si Si3 0.329886 0.067911 0.555994
Si Si4 0.878557 0.803040 0.454016
Si Si5 0.375839 0.491749 0.034579
Si Si6 0.265331 0.946215 0.150089
Si Si7 0.692975 0.676814 0.756388
O O1 0.769125 0.382465 0.435551
O O2 0.709073 0.060749 0.368522
O O3 0.462446 0.068052 0.264138
O O4 0.500000 0.000000 0.000000
O O5 0.034718 0.221112 0.369274
O O6 0.179092 0.353186 0.236846
O O7 0.900109 0.285591 0.113706
O O8 0.251997 0.177353 0.544848
O O9 0.542471 0.278792 0.767835
O O10 0.267300 0.919521 0.317638
O O11 0.791530 0.607364 0.211202
O O12 0.000000 0.000000 0.500000
O O13 0.319013 0.339587 0.079417
O O14 0.500000 0.500000 0.000000
O O15 0.224037 0.091475 0.146444
O O16 0.500000 0.500000 0.500000
#
# Coordination Sequence:
#
# PCOD8010194 Si02
#       7
#     2   2   2   2   2   2   2
#     4  12  29  48  71 100 145 191 234 289 358 428
#     4  12  26  47  74 107 139 185 239 293 357 420
#     4  11  24  46  66 103 138 185 237 281 352 426
#     4  11  24  42  69 107 142 177 232 299 351 410
#     4  10  21  37  68  97 140 180 227 284 348 404
#     4  12  26  45  75 102 143 184 241 292 353 420
#     4  12  20  41  74 107 137 181 235 296 349 413
#
# _framework density 23.860719
#
# number of rings (size 3 to 8) (size 9 to 14) (size 15 to 20)
#    0.000    0.571    4.286    3.429    8.000    1.143 
#    2.571    0.000    0.000    0.000    0.000    0.000 
#    0.000    0.000    0.000    0.000    0.000    0.000 
#
# Total GULP energy -173486.872083 kJ/mol
# GULP energy per Si atom -12391.919434 kJ/mol
# Density = 2.380641 g / cm^3
# Si number density = 23.860719 Si / 1000 Ang^3
#
#
#
# Elastic Constant Matrix: (Units=GPa)
#
#
# Indices 1 2 3 4 5 6 
#
# 1 24.1681 9.2197 20.0758 -1.3147 -6.7949 14.9814
# 2 9.2197 114.2298 46.3725 -11.3337 -10.8209 15.9206
# 3 20.0758 46.3725 185.9743 -5.9935 -6.2755 15.2672
# 4 -1.3147 -11.3337 -5.9935 51.7710 12.6980 -4.5327
# 5 -6.7949 -10.8209 -6.2755 12.6980 34.5315 -2.3122
# 6 14.9814 15.9206 15.2672 -4.5327 -2.3122 35.9996
#
#
#
# Elastic Compliance Matrix: (Units=1/GPa)
#
#
# Indices 1 2 3 4 5 6 
#
# 1 0.063174 0.000977 -0.004787 -0.003719 0.011600 -0.024415
# 2 0.000977 0.010469 -0.002289 0.001136 0.002387 -0.003769
# 3 -0.004787 -0.002289 0.006432 0.000288 -0.000578 0.000276
# 4 -0.003719 0.001136 0.000288 0.021770 -0.008118 0.003143
# 5 0.011600 0.002387 -0.000578 -0.008118 0.034573 -0.004439
# 6 -0.024415 -0.003769 0.000276 0.003143 -0.004439 0.039599
#
#
# Mechanical properties :
#
#
# Convention : Reuss Voigt Hill
#
# Bulk Modulus (GPa) = 14.73273 52.85648 33.79460
# Shear Modulus (GPa) = 23.71461 41.04071 32.37766
#
# Velocity S-wave (km/s) = 3.15600 4.15180 3.68767
# Velocity P-wave (km/s) = 4.41229 6.72186 5.68559
#
# Compressibility (1/GPa) = 0.06787608
#
# Stress axis : x y z
#
# Youngs Moduli (GPa) = 15.82923 95.52076 155.47674
#
# Poissons Ratio (x) = -0.09335 0.74433
# Poissons Ratio (y) = -0.01547 0.35594
# Poissons Ratio (z) = 0.07578 0.21868
#
# Static dielectric constant tensor:
#      x y z
#    x 3.558320 0.190640 -0.250760 
#    y 0.190640 4.018770 -0.181000 
#    z -0.250760 -0.181000 4.465880 
# 
# 
# High freq. dielectric constant tensor:
#      x y z
#    x 1.921530 0.017210 -0.003730 
#    y 0.017210 1.940590 -0.003210 
#    z -0.003730 -0.003210 1.973630 
# 
# From -- ./inp_files/159952.got.cif
#   From: 2010.06.25/outbox.cif.g09.slc.cpg/sg2_80_cif.got.tgz:159952.got - 2010.06.27 13:26:56.
