data_PCOD8010911
_publ_section_title
;
Structure prediction by ZEFSAII (Michael W. Deem and Ramdas Pophale) SiO2 
 PCOD8010911
Probable space group: P -1
;
_chemical_formula_sum "Si O2"
_cell_formula_units_Z 16
_cell_length_a 9.424691
_cell_length_b 14.335290
_cell_length_c 6.520197
_cell_angle_alpha 110.347112
_cell_angle_beta 105.522714
_cell_angle_gamma 99.965195
_cell_volume 760.515107
_symmetry_space_group_name_H-M "P -1"
_symmetry_group_IT_number 2
_symmetry_cell_setting 'triclinic'
loop_
_space_group_symop_operation_xyz
x,y,z
-x,-y,-z
loop_
_atom_site_type_symbol
_atom_site_label
_atom_site_fract_x
_atom_site_fract_y
_atom_site_fract_z
Si Si1 0.192540 0.202072 0.457057
Si Si2 0.795311 0.655271 0.036036
Si Si3 0.634506 0.261149 0.040180
Si Si4 0.052870 0.778161 0.943265
Si Si5 0.760838 0.009456 0.629220
Si Si6 0.486616 0.025342 0.782890
Si Si7 0.452258 0.320235 0.359753
Si Si8 0.608922 0.445894 0.884638
O O1 0.217340 0.274084 0.721442
O O2 0.159090 0.082224 0.418922
O O3 0.343905 0.232146 0.396369
O O4 0.046509 0.212736 0.284703
O O5 0.651331 0.647551 0.826164
O O6 0.774902 0.535546 0.004223
O O7 0.955872 0.698439 0.013469
O O8 0.811940 0.263828 0.122149
O O9 0.581030 0.280649 0.262434
O O10 0.529587 0.148209 0.841270
O O11 0.620975 0.345316 0.932860
O O12 0.113147 0.888786 0.164048
O O13 0.692451 0.026697 0.392379
O O14 0.605488 0.975403 0.679118
O O15 0.500000 0.000000 0.000000
O O16 0.543147 0.416784 0.608636
O O17 0.500000 0.500000 0.000000
#
# Coordination Sequence:
#
# PCOD8010911 Si02
#       8
#     2   2   2   2   2   2   2   2
#     4  11  22  41  65  93 128 171 216 260 312 374
#     4  11  24  41  63  94 128 166 214 261 314 381
#     4  11  24  41  65  99 127 167 212 261 321 376
#     4  10  26  42  59  92 136 172 209 258 318 381
#     4  10  21  39  63  93 128 167 215 258 313 375
#     4  10  21  38  64  98 130 160 209 266 316 369
#     4  11  21  39  69  94 124 156 215 267 317 367
#     4  12  23  41  69  98 123 162 214 271 317 371
#
# _framework density 21.038371000000001
#
# number of rings (size 3 to 8) (size 9 to 14) (size 15 to 20)
#    0.000    1.250    2.500    3.000    0.000    7.000 
#    0.000    1.250    0.000    0.000    0.000    0.000 
#    0.000    0.000    0.000    0.000    0.000    0.000 
#
# Total GULP energy -198380.318769 kJ/mol
# GULP energy per Si atom -12398.769923 kJ/mol
# Density = 2.099049 g / cm^3
# Si number density = 21.038371 Si / 1000 Ang^3
#
#
#
# Elastic Constant Matrix: (Units=GPa)
#
#
# Indices 1 2 3 4 5 6 
#
# 1 114.7557 41.4327 57.7562 3.0690 -4.1405 4.9210
# 2 41.4327 104.2398 49.2197 4.9052 9.8632 -4.3565
# 3 57.7562 49.2197 158.0341 3.6245 -1.5807 -5.6678
# 4 3.0690 4.9052 3.6245 35.9633 2.0950 -0.1336
# 5 -4.1405 9.8632 -1.5807 2.0950 26.0540 2.3892
# 6 4.9210 -4.3565 -5.6678 -0.1336 2.3892 28.8673
#
#
#
# Elastic Compliance Matrix: (Units=1/GPa)
#
#
# Indices 1 2 3 4 5 6 
#
# 1 0.011995 -0.003650 -0.003330 -0.000404 0.003442 -0.003536
# 2 -0.003650 0.012998 -0.002662 -0.000844 -0.005827 0.002539
# 3 -0.003330 -0.002662 0.008451 -0.000247 0.000850 0.001754
# 4 -0.000404 -0.000844 -0.000247 0.028100 -0.002037 0.000192
# 5 0.003442 -0.005827 0.000850 -0.002037 0.041787 -0.004767
# 6 -0.003536 0.002539 0.001754 0.000192 -0.004767 0.036367
#
#
# Mechanical properties :
#
#
# Convention : Reuss Voigt Hill
#
# Bulk Modulus (GPa) = 70.62274 74.87185 72.74729
# Shear Modulus (GPa) = 30.54328 33.41833 31.98081
#
# Velocity S-wave (km/s) = 3.81437 3.98986 3.90310
# Velocity P-wave (km/s) = 7.28290 7.54260 7.41389
#
# Compressibility (1/GPa) = 0.01415975
#
# Stress axis : x y z
#
# Youngs Moduli (GPa) = 83.37140 76.93356 118.32892
#
# Poissons Ratio (x) = 0.28078 0.39404
# Poissons Ratio (y) = 0.30428 0.31503
# Poissons Ratio (z) = 0.27763 0.20482
#
# Static dielectric constant tensor:
#      x y z
#    x 3.800900 0.199120 0.009880 
#    y 0.199120 4.187690 0.081840 
#    z 0.009880 0.081840 4.121140 
# 
# 
# High freq. dielectric constant tensor:
#      x y z
#    x 1.814970 0.004850 -0.001930 
#    y 0.004850 1.828290 0.002580 
#    z -0.001930 0.002580 1.840770 
# 
# From -- ./inp_files/40012.got.cif
#   From: 2010.06.25/outbox.cif.g09.slc.cpg/sg2_21_cif.got.tgz:40012.got - 2010.06.27 13:26:56.
