data_PCOD8010830
_publ_section_title
;
Structure prediction by ZEFSAII (Michael W. Deem and Ramdas Pophale) SiO2 
 PCOD8010830
Probable space group: P -1
;
_chemical_formula_sum "Si O2"
_cell_formula_units_Z 14
_cell_length_a 11.531706
_cell_length_b 18.006552
_cell_length_c 8.200112
_cell_angle_alpha 45.270833
_cell_angle_beta 57.477375
_cell_angle_gamma 30.468486
_cell_volume 602.050648
_symmetry_space_group_name_H-M "P -1"
_symmetry_group_IT_number 2
_symmetry_cell_setting 'triclinic'
loop_
_space_group_symop_operation_xyz
x,y,z
-x,-y,-z
loop_
_atom_site_type_symbol
_atom_site_label
_atom_site_fract_x
_atom_site_fract_y
_atom_site_fract_z
Si Si1 0.312737 0.782953 0.765849
Si Si2 0.378354 0.220258 0.542360
Si Si3 0.144331 0.803495 0.178503
Si Si4 0.656510 0.879409 0.723353
Si Si5 0.992093 0.334593 0.463120
Si Si6 0.587461 0.729071 0.218764
Si Si7 0.799679 0.178317 0.552401
O O1 0.535143 0.723314 0.689174
O O2 0.305678 0.717248 0.704222
O O3 0.323040 0.706521 0.040786
O O4 0.076828 0.996331 0.611708
O O5 0.157072 0.312426 0.471395
O O6 0.298636 0.284967 0.688630
O O7 0.594681 0.004948 0.710275
O O8 0.263572 0.711918 0.409511
O O9 0.993589 0.791419 0.277173
O O10 0.000000 0.000000 0.000000
O O11 0.924500 0.719761 0.706153
O O12 0.500000 0.000000 0.500000
O O13 0.592099 0.803869 0.948381
O O14 0.730231 0.537623 0.357635
O O15 0.322428 0.859563 0.260802
#
# Coordination Sequence:
#
# PCOD8010830 Si02
#       7
#     2   2   2   2   2   2   2
#     4   9  19  38  64  91 124 164 218 274 307 381
#     4  10  22  41  67  95 126 171 222 263 323 394
#     4  10  21  38  64  89 126 174 214 266 312 384
#     4  10  22  37  64  93 124 168 220 262 316 386
#     4  11  24  41  64  97 134 170 214 263 341 384
#     4  11  23  41  64  98 135 166 208 283 327 386
#     4   9  20  36  63  89 127 163 219 256 329 376
#
# _framework density 23.253858999999999
#
# number of rings (size 3 to 8) (size 9 to 14) (size 15 to 20)
#    0.000    2.000    0.000    3.000   12.000    0.571 
#    5.143    2.857    0.000    0.000    0.000    0.000 
#    0.000    0.000    0.000    0.000    0.000    0.000 
#
# Total GULP energy -173447.640254 kJ/mol
# GULP energy per Si atom -12389.117161 kJ/mol
# Density = 2.320093 g / cm^3
# Si number density = 23.253859 Si / 1000 Ang^3
#
#
#
# Elastic Constant Matrix: (Units=GPa)
#
#
# Indices 1 2 3 4 5 6 
#
# 1 96.4700 23.0002 40.9786 24.6096 0.4980 3.5716
# 2 23.0002 88.5209 46.1946 13.4270 -2.2997 17.6598
# 3 40.9786 46.1946 114.5761 39.2291 -5.4614 7.3203
# 4 24.6096 13.4270 39.2291 39.4906 5.5041 0.0530
# 5 0.4980 -2.2997 -5.4614 5.5041 30.8741 14.7383
# 6 3.5716 17.6598 7.3203 0.0530 14.7383 36.5246
#
#
#
# Elastic Compliance Matrix: (Units=1/GPa)
#
#
# Indices 1 2 3 4 5 6 
#
# 1 0.013040 -0.001316 -0.002170 -0.005591 0.000493 -0.000395
# 2 -0.001316 0.016194 -0.005329 0.000024 0.004269 -0.008356
# 3 -0.002170 -0.005329 0.017381 -0.015085 0.007088 -0.003533
# 4 -0.005591 0.000024 -0.015085 0.045916 -0.015394 0.009703
# 5 0.000493 0.004269 0.007088 -0.015394 0.047529 -0.022690
# 6 -0.000395 -0.008356 -0.003533 0.009703 -0.022690 0.041307
#
#
# Mechanical properties :
#
#
# Convention : Reuss Voigt Hill
#
# Bulk Modulus (GPa) = 34.50202 57.76820 46.13511
# Shear Modulus (GPa) = 23.96244 34.00408 28.98326
#
# Velocity S-wave (km/s) = 3.21358 3.82815 3.53425
# Velocity P-wave (km/s) = 5.35152 6.66603 6.04462
#
# Compressibility (1/GPa) = 0.02898381
#
# Stress axis : x y z
#
# Youngs Moduli (GPa) = 76.68784 61.75119 57.53369
#
# Poissons Ratio (x) = 0.08127 0.12486
# Poissons Ratio (y) = 0.10092 0.30662
# Poissons Ratio (z) = 0.16643 0.32910
#
# Static dielectric constant tensor:
#      x y z
#    x 4.332270 0.515100 0.161200 
#    y 0.515100 4.830290 0.571330 
#    z 0.161200 0.571330 4.026370 
# 
# 
# High freq. dielectric constant tensor:
#      x y z
#    x 1.917970 0.013920 -0.005800 
#    y 0.013920 1.918350 0.039450 
#    z -0.005800 0.039450 1.893460 
# 
# From -- ./inp_files/154755.got.cif
#   From: 2010.06.25/outbox.cif.g09.slc.cpg/sg2_78_cif.got.tgz:154755.got - 2010.06.27 13:26:56.
