data_PCOD8010517
_publ_section_title
;
Structure prediction by ZEFSAII (Michael W. Deem and Ramdas Pophale) SiO2 
 PCOD8010517
Probable space group: P -1
;
_chemical_formula_sum "Si O2"
_cell_formula_units_Z 16
_cell_length_a 12.538822
_cell_length_b 14.183225
_cell_length_c 11.800732
_cell_angle_alpha 159.620956
_cell_angle_beta 83.658155
_cell_angle_gamma 98.326503
_cell_volume 721.158399
_symmetry_space_group_name_H-M "P -1"
_symmetry_group_IT_number 2
_symmetry_cell_setting 'triclinic'
loop_
_space_group_symop_operation_xyz
x,y,z
-x,-y,-z
loop_
_atom_site_type_symbol
_atom_site_label
_atom_site_fract_x
_atom_site_fract_y
_atom_site_fract_z
Si Si1 0.752028 0.579273 0.539453
Si Si2 0.530545 0.804592 0.375329
Si Si3 0.142563 0.584372 0.866054
Si Si4 0.060025 0.246577 0.842148
Si Si5 0.226236 0.201793 0.594034
Si Si6 0.627816 0.052562 0.044078
Si Si7 0.785485 0.781571 0.018489
Si Si8 0.337373 0.755750 0.497891
O O1 0.853940 0.523222 0.385505
O O2 0.683452 0.782415 0.706871
O O3 0.794681 0.684384 0.776828
O O4 0.670683 0.298530 0.233230
O O5 0.654844 0.857681 0.453370
O O6 0.458670 0.838175 0.532551
O O7 0.500000 0.000000 0.500000
O O8 0.500000 0.500000 0.000000
O O9 0.227324 0.427999 0.750376
O O10 0.022134 0.523845 0.868779
O O11 0.167138 0.911926 0.233504
O O12 0.167824 0.339079 0.860757
O O13 0.097850 0.180807 0.891621
O O14 0.000000 0.000000 0.500000
O O15 0.500000 0.000000 0.000000
O O16 0.670104 0.132415 0.251468
O O17 0.702565 0.566104 0.856979
O O18 0.744054 0.075447 0.371807
#
# Coordination Sequence:
#
# PCOD8010517 Si02
#       8
#     2   2   2   2   2   2   2   2
#     4  10  22  39  61  93 124 161 205 253 314 356
#     4  12  24  39  60  90 124 162 205 248 305 368
#     4  11  24  40  63  93 125 158 210 260 310 368
#     4  10  23  43  67  90 121 167 213 257 321 363
#     4  11  24  41  62  91 127 164 203 265 304 367
#     4  10  21  38  61  88 123 164 201 246 296 376
#     4  10  22  42  64  88 126 161 207 259 300 381
#     4  10  22  38  61  90 121 164 200 244 312 362
#
# _framework density 22.186527000000002
#
# number of rings (size 3 to 8) (size 9 to 14) (size 15 to 20)
#    0.000    1.500    0.000    4.500    3.500    5.500 
#    0.000    0.000    0.000    8.250    0.000    0.000 
#    0.000    0.000    0.000    0.000    0.000    0.000 
#
# Total GULP energy -198263.543444 kJ/mol
# GULP energy per Si atom -12391.471465 kJ/mol
# Density = 2.213603 g / cm^3
# Si number density = 22.186527 Si / 1000 Ang^3
#
#
#
# Elastic Constant Matrix: (Units=GPa)
#
#
# Indices 1 2 3 4 5 6 
#
# 1 116.2419 35.6682 31.5640 -20.1416 -23.2606 -9.5168
# 2 35.6682 76.6976 49.8018 -0.9488 -16.0761 2.4046
# 3 31.5640 49.8018 92.3858 9.5434 -18.6911 1.4320
# 4 -20.1416 -0.9488 9.5434 39.2808 -0.4150 -11.8416
# 5 -23.2606 -16.0761 -18.6911 -0.4150 33.7482 -8.0715
# 6 -9.5168 2.4046 1.4320 -11.8416 -8.0715 38.8988
#
#
#
# Elastic Compliance Matrix: (Units=1/GPa)
#
#
# Indices 1 2 3 4 5 6 
#
# 1 0.014994 -0.003392 -0.002645 0.011178 0.009634 0.009377
# 2 -0.003392 0.021737 -0.010214 0.000969 0.002117 -0.001063
# 3 -0.002645 -0.010214 0.018569 -0.006723 0.003005 -0.002122
# 4 0.011178 0.000969 -0.006723 0.037843 0.008799 0.016268
# 5 0.009634 0.002117 0.003005 0.008799 0.042298 0.013571
# 6 0.009377 -0.001063 -0.002122 0.016268 0.013571 0.035914
#
#
# Mechanical properties :
#
#
# Convention : Reuss Voigt Hill
#
# Bulk Modulus (GPa) = 43.86312 57.71038 50.78675
# Shear Modulus (GPa) = 23.64537 33.60499 28.62518
#
# Velocity S-wave (km/s) = 3.26813 3.89608 3.59584
# Velocity P-wave (km/s) = 5.83558 6.80494 6.33882
#
# Compressibility (1/GPa) = 0.02279820
#
# Stress axis : x y z
#
# Youngs Moduli (GPa) = 66.69277 46.00462 53.85199
#
# Poissons Ratio (x) = 0.15603 0.14246
# Poissons Ratio (y) = 0.22620 0.55005
# Poissons Ratio (z) = 0.17643 0.46989
#
# Static dielectric constant tensor:
#      x y z
#    x 3.717450 0.034020 -0.488520 
#    y 0.034020 4.453310 -0.288720 
#    z -0.488520 -0.288720 4.540010 
# 
# 
# High freq. dielectric constant tensor:
#      x y z
#    x 1.865960 -0.001370 -0.017210 
#    y -0.001370 1.881680 -0.001290 
#    z -0.017210 -0.001290 1.878320 
# 
# From -- ./inp_files/67141.got.cif
#   From: 2010.06.25/outbox.cif.g09.slc.cpg/sg2_34_cif.got.tgz:67141.got - 2010.06.27 13:26:56.
