data_PCOD8010567
_publ_section_title
;
Structure prediction by ZEFSAII (Michael W. Deem and Ramdas Pophale) SiO2 
 PCOD8010567
Probable space group: P -1
;
_chemical_formula_sum "Si O2"
_cell_formula_units_Z 16
_cell_length_a 15.809792
_cell_length_b 5.361258
_cell_length_c 11.557295
_cell_angle_alpha 118.163507
_cell_angle_beta 56.432870
_cell_angle_gamma 99.989877
_cell_volume 714.478953
_symmetry_space_group_name_H-M "P -1"
_symmetry_group_IT_number 2
_symmetry_cell_setting 'triclinic'
loop_
_space_group_symop_operation_xyz
x,y,z
-x,-y,-z
loop_
_atom_site_type_symbol
_atom_site_label
_atom_site_fract_x
_atom_site_fract_y
_atom_site_fract_z
Si Si1 0.927562 0.684581 0.829826
Si Si2 0.244815 0.672312 0.712705
Si Si3 0.138302 0.523154 0.547309
Si Si4 0.400713 0.170946 0.482464
Si Si5 0.385102 0.104452 0.748624
Si Si6 0.871542 0.315937 0.981042
Si Si7 0.751553 0.100588 0.613284
Si Si8 0.730580 0.440794 0.920142
O O1 0.941495 0.536394 0.915700
O O2 0.817349 0.631872 0.849365
O O3 0.015426 0.537590 0.645376
O O4 0.937035 0.021240 0.905030
O O5 0.168292 0.719962 0.674106
O O6 0.348017 0.479019 0.548517
O O7 0.278820 0.965676 0.799626
O O8 0.186068 0.530380 0.830301
O O9 0.186795 0.196810 0.456939
O O10 0.173463 0.676238 0.439413
O O11 0.405463 0.192032 0.621663
O O12 0.331461 0.938505 0.432667
O O13 0.515233 0.105200 0.330297
O O14 0.368119 0.367583 0.908476
O O15 0.784551 0.244033 0.939063
O O16 0.694460 0.246704 0.801657
#
# Coordination Sequence:
#
# PCOD8010567 Si02
#       8
#     2   2   2   2   2   2   2   2
#     4  10  22  40  60  97 122 170 211 258 306 376
#     4  11  20  39  64  91 133 161 212 259 321 369
#     4  11  25  40  65  93 128 169 212 260 314 367
#     4  10  22  39  65  94 124 162 213 259 318 374
#     4  11  20  41  66  92 123 166 211 260 316 376
#     4  10  21  38  61  92 128 165 206 255 313 364
#     4  11  25  43  63  93 132 167 207 264 312 373
#     4  10  24  40  64  91 132 167 211 255 314 374
#
# _framework density 22.393941000000002
#
# number of rings (size 3 to 8) (size 9 to 14) (size 15 to 20)
#    0.750    0.750    3.750    1.125    1.750    2.500 
#    0.000    0.000    0.000    3.000    0.000    0.000 
#    0.000    0.000    0.000    0.000    0.000    0.000 
#
# Total GULP energy -198258.902830 kJ/mol
# GULP energy per Si atom -12391.181427 kJ/mol
# Density = 2.234297 g / cm^3
# Si number density = 22.393941 Si / 1000 Ang^3
#
#
#
# Elastic Constant Matrix: (Units=GPa)
#
#
# Indices 1 2 3 4 5 6 
#
# 1 38.5515 4.0142 35.0425 8.8939 -3.0316 1.1578
# 2 4.0142 109.8427 27.8373 3.6777 -0.5991 -12.0917
# 3 35.0425 27.8373 140.4444 15.2120 6.2388 0.6850
# 4 8.8939 3.6777 15.2120 28.2386 -1.5637 -3.6251
# 5 -3.0316 -0.5991 6.2388 -1.5637 27.9026 -0.2127
# 6 1.1578 -12.0917 0.6850 -3.6251 -0.2127 21.6302
#
#
#
# Elastic Compliance Matrix: (Units=1/GPa)
#
#
# Indices 1 2 3 4 5 6 
#
# 1 0.035692 0.000881 -0.008583 -0.006717 0.005422 -0.002219
# 2 0.000881 0.010313 -0.002384 0.000470 0.000921 0.005881
# 3 -0.008583 -0.002384 0.010209 -0.002897 -0.003442 -0.001716
# 4 -0.006717 0.000470 -0.002897 0.040108 0.002233 0.007458
# 5 0.005422 0.000921 -0.003442 0.002233 0.037351 0.001075
# 6 -0.002219 0.005881 -0.001716 0.007458 0.001075 0.050953
#
#
# Mechanical properties :
#
#
# Convention : Reuss Voigt Hill
#
# Bulk Modulus (GPa) = 27.74563 46.95852 37.35207
# Shear Modulus (GPa) = 23.06148 30.35060 26.70604
#
# Velocity S-wave (km/s) = 3.21254 3.68544 3.45709
# Velocity P-wave (km/s) = 5.11637 6.25498 5.71411
#
# Compressibility (1/GPa) = 0.03604171
#
# Stress axis : x y z
#
# Youngs Moduli (GPa) = 28.01774 96.96777 97.94925
#
# Poissons Ratio (x) = -0.08543 0.84066
# Poissons Ratio (y) = -0.02468 0.23355
# Poissons Ratio (z) = 0.24047 0.23121
#
# Static dielectric constant tensor:
#      x y z
#    x 3.849260 -0.051270 -0.097540 
#    y -0.051270 3.737980 -0.005030 
#    z -0.097540 -0.005030 3.999390 
# 
# 
# High freq. dielectric constant tensor:
#      x y z
#    x 1.857420 -0.009580 -0.004700 
#    y -0.009580 1.869220 0.002920 
#    z -0.004700 0.002920 1.884830 
# 
# From -- ./inp_files/459603.got.cif
#   From: 2010.06.25/outbox.cif.g09.slc.cpg/sg2_230_cif.got.tgz:459603.got - 2010.06.27 13:26:56.
