data_PCOD8010641
_publ_section_title
;
Structure prediction by ZEFSAII (Michael W. Deem and Ramdas Pophale) SiO2 
 PCOD8010641
Probable space group: P -1
;
_chemical_formula_sum "Si O2"
_cell_formula_units_Z 16
_cell_length_a 15.392937
_cell_length_b 9.641017
_cell_length_c 14.284265
_cell_angle_alpha 87.207935
_cell_angle_beta 30.125322
_cell_angle_gamma 66.481332
_cell_volume 746.200262
_symmetry_space_group_name_H-M "P -1"
_symmetry_group_IT_number 2
_symmetry_cell_setting 'triclinic'
loop_
_space_group_symop_operation_xyz
x,y,z
-x,-y,-z
loop_
_atom_site_type_symbol
_atom_site_label
_atom_site_fract_x
_atom_site_fract_y
_atom_site_fract_z
Si Si1 0.999916 0.296244 0.772952
Si Si2 0.870192 0.904709 0.032714
Si Si3 0.317490 0.873351 0.988698
Si Si4 0.539960 0.489527 0.075108
Si Si5 0.754875 0.079667 0.330268
Si Si6 0.865019 0.064987 0.528023
Si Si7 0.582519 0.974033 0.737590
Si Si8 0.740107 0.683795 0.107267
O O1 0.046629 0.121620 0.786645
O O2 0.260382 0.189225 0.487281
O O3 0.806866 0.390838 0.863656
O O4 0.920636 0.453750 0.920121
O O5 0.728197 0.023916 0.256030
O O6 0.892886 0.723375 0.011710
O O7 0.139477 0.823610 0.781139
O O8 0.701612 0.060158 0.101094
O O9 0.500306 0.638540 0.836964
O O10 0.449091 0.925979 0.921272
O O11 0.050637 0.984592 0.272874
O O12 0.344787 0.701956 0.296846
O O13 0.500000 0.500000 0.000000
O O14 0.483040 0.243052 0.622136
O O15 0.763024 0.966540 0.630222
O O16 0.000000 0.000000 0.500000
O O17 0.373016 0.196360 0.887466
#
# Coordination Sequence:
#
# PCOD8010641 Si02
#       8
#     2   2   2   2   2   2   2   2
#     4  11  21  41  64  91 130 166 207 260 310 368
#     4  10  21  39  63  92 126 166 211 252 312 367
#     4  11  23  42  65  92 124 165 206 258 311 367
#     4  12  23  42  66  91 123 164 206 258 317 371
#     4  10  21  41  62  89 131 167 206 258 306 372
#     4  12  23  43  66  88 125 163 207 260 317 373
#     4  10  22  40  62  93 125 163 209 256 310 369
#     4  10  21  38  62  90 126 170 207 254 312 363
#
# _framework density 21.441965
#
# number of rings (size 3 to 8) (size 9 to 14) (size 15 to 20)
#    0.000    1.250    5.000    1.125    0.000    3.000 
#    0.000    5.000    0.000    0.000    0.000    0.000 
#    0.000    0.000    0.000    0.000    0.000    0.000 
#
# Total GULP energy -198287.850256 kJ/mol
# GULP energy per Si atom -12392.990641 kJ/mol
# Density = 2.139316 g / cm^3
# Si number density = 21.441965 Si / 1000 Ang^3
#
#
#
# Elastic Constant Matrix: (Units=GPa)
#
#
# Indices 1 2 3 4 5 6 
#
# 1 94.2314 20.4518 19.2283 -2.9749 2.2739 14.2035
# 2 20.4518 99.0749 51.4707 -1.3829 -1.1394 31.5168
# 3 19.2283 51.4707 68.6084 16.4938 -4.2247 15.2464
# 4 -2.9749 -1.3829 16.4938 36.4223 9.6402 -6.8447
# 5 2.2739 -1.1394 -4.2247 9.6402 25.0334 -3.8102
# 6 14.2035 31.5168 15.2464 -6.8447 -3.8102 45.0943
#
#
#
# Elastic Compliance Matrix: (Units=1/GPa)
#
#
# Indices 1 2 3 4 5 6 
#
# 1 0.011916 0.000507 -0.004179 0.003325 -0.003422 -0.002479
# 2 0.000507 0.021580 -0.016837 0.008563 -0.006543 -0.008803
# 3 -0.004179 -0.016837 0.034035 -0.019890 0.012964 -0.000347
# 4 0.003325 0.008563 -0.019890 0.042985 -0.019122 0.004602
# 5 -0.003422 -0.006543 0.012964 -0.019122 0.049904 0.002582
# 6 -0.002479 -0.008803 -0.000347 0.004602 0.002582 0.030143
#
#
# Mechanical properties :
#
#
# Convention : Reuss Voigt Hill
#
# Bulk Modulus (GPa) = 37.71731 49.35738 43.53735
# Shear Modulus (GPa) = 20.79687 32.69424 26.74555
#
# Velocity S-wave (km/s) = 3.11772 3.90908 3.53561
# Velocity P-wave (km/s) = 5.53072 6.59117 6.08409
#
# Compressibility (1/GPa) = 0.02651302
#
# Stress axis : x y z
#
# Youngs Moduli (GPa) = 83.91976 46.33829 29.38141
#
# Poissons Ratio (x) = -0.02349 0.12279
# Poissons Ratio (y) = -0.04255 0.49470
# Poissons Ratio (z) = 0.35071 0.78021
#
# Static dielectric constant tensor:
#      x y z
#    x 3.940970 0.204620 -0.070300 
#    y 0.204620 4.228290 -0.017150 
#    z -0.070300 -0.017150 3.570890 
# 
# 
# High freq. dielectric constant tensor:
#      x y z
#    x 1.846630 0.018120 -0.006690 
#    y 0.018120 1.844310 -0.004450 
#    z -0.006690 -0.004450 1.830450 
# 
# From -- ./inp_files/348529.got.cif
#   From: 2010.06.25/outbox.cif.g09.slc.cpg/sg2_175_cif.got.tgz:348529.got - 2010.06.27 13:26:56.
