data_PCOD8010580
_publ_section_title
;
Structure prediction by ZEFSAII (Michael W. Deem and Ramdas Pophale) SiO2 
 PCOD8010580
Probable space group: P -1
;
_chemical_formula_sum "Si O2"
_cell_formula_units_Z 14
_cell_length_a 21.176233
_cell_length_b 12.707287
_cell_length_c 18.508511
_cell_angle_alpha 155.386565
_cell_angle_beta 18.495824
_cell_angle_gamma 153.157249
_cell_volume 640.787880
_symmetry_space_group_name_H-M "P -1"
_symmetry_group_IT_number 2
_symmetry_cell_setting 'triclinic'
loop_
_space_group_symop_operation_xyz
x,y,z
-x,-y,-z
loop_
_atom_site_type_symbol
_atom_site_label
_atom_site_fract_x
_atom_site_fract_y
_atom_site_fract_z
Si Si1 0.140507 0.658452 0.122307
Si Si2 0.462395 0.424703 0.703952
Si Si3 0.813819 0.187916 0.165307
Si Si4 0.763432 0.105623 0.336894
Si Si5 0.903005 0.667940 0.764996
Si Si6 0.530578 0.491647 0.877163
Si Si7 0.791968 0.800874 0.677485
O O1 0.007039 0.412681 0.070885
O O2 0.010973 0.743677 0.382755
O O3 0.200522 0.896104 0.149736
O O4 0.350295 0.588379 0.875599
O O5 0.609231 0.263293 0.402193
O O6 0.606562 0.630343 0.726739
O O7 0.291180 0.207511 0.795913
O O8 0.813788 0.202824 0.262269
O O9 0.848769 0.909234 0.929018
O O10 0.567311 0.208393 0.639873
O O11 0.956610 0.224507 0.252202
O O12 0.000000 0.500000 0.500000
O O13 0.683872 0.489352 0.916600
O O14 0.726226 0.714357 0.777326
O O15 0.500000 0.500000 0.000000
#
# Coordination Sequence:
#
# PCOD8010580 Si02
#       7
#     2   2   2   2   2   2   2
#     4  10  21  38  61  94 129 160 210 255 317 368
#     4  11  20  35  64  92 127 160 205 264 316 365
#     4  11  22  36  62  97 125 160 210 263 314 366
#     4  12  22  38  61  94 124 164 204 269 312 371
#     4  12  25  38  61  91 128 167 205 257 324 375
#     4  12  24  41  61  92 129 163 209 261 316 371
#     4  10  23  39  60  95 128 164 206 265 305 375
#
# _framework density 21.848102999999998
#
# number of rings (size 3 to 8) (size 9 to 14) (size 15 to 20)
#    0.000    0.857    7.143    2.143    2.000    0.000 
#    0.000    0.000    0.000    4.286    0.000    0.000 
#    0.000    0.000    0.000    0.000    0.000    0.000 
#
# Total GULP energy -173493.227201 kJ/mol
# GULP energy per Si atom -12392.373371 kJ/mol
# Density = 2.179838 g / cm^3
# Si number density = 21.848103 Si / 1000 Ang^3
#
#
#
# Elastic Constant Matrix: (Units=GPa)
#
#
# Indices 1 2 3 4 5 6 
#
# 1 54.5864 20.6918 38.8383 -6.1392 -12.7913 2.3722
# 2 20.6918 126.0980 41.3503 10.3225 3.7177 -11.5829
# 3 38.8383 41.3503 152.3059 11.0936 -23.1807 -5.5810
# 4 -6.1392 10.3225 11.0936 38.5752 -0.8403 -8.3930
# 5 -12.7913 3.7177 -23.1807 -0.8403 40.6886 -2.9669
# 6 2.3722 -11.5829 -5.5810 -8.3930 -2.9669 31.1011
#
#
#
# Elastic Compliance Matrix: (Units=1/GPa)
#
#
# Indices 1 2 3 4 5 6 
#
# 1 0.025315 -0.003251 -0.005294 0.006112 0.005224 -0.001944
# 2 -0.003251 0.009603 -0.001972 -0.002005 -0.002870 0.002656
# 3 -0.005294 -0.001972 0.009262 -0.002684 0.003808 0.000970
# 4 0.006112 -0.002005 -0.002684 0.029647 0.001659 0.006464
# 5 0.005224 -0.002870 0.003808 0.001659 0.028861 0.002417
# 6 -0.001944 0.002656 0.000970 0.006464 0.002417 0.035440
#
#
# Mechanical properties :
#
#
# Convention : Reuss Voigt Hill
#
# Bulk Modulus (GPa) = 43.20412 59.41681 51.31047
# Shear Modulus (GPa) = 29.96243 37.54697 33.75470
#
# Velocity S-wave (km/s) = 3.70726 4.15003 3.93488
# Velocity P-wave (km/s) = 6.17598 7.08648 6.64683
#
# Compressibility (1/GPa) = 0.02314594
#
# Stress axis : x y z
#
# Youngs Moduli (GPa) = 39.50305 104.13374 107.97215
#
# Poissons Ratio (x) = 0.33852 0.57161
# Poissons Ratio (y) = 0.12842 0.21290
# Poissons Ratio (z) = 0.20913 0.20533
#
# Static dielectric constant tensor:
#      x y z
#    x 3.600570 0.042940 -0.374920 
#    y 0.042940 4.418740 0.049590 
#    z -0.374920 0.049590 4.474340 
# 
# 
# High freq. dielectric constant tensor:
#      x y z
#    x 1.809180 0.017290 -0.030910 
#    y 0.017290 1.869300 0.000810 
#    z -0.030910 0.000810 1.875200 
# 
# From -- ./inp_files/517531.got.cif
#   From: 2010.06.25/outbox.cif.g09.slc.cpg/sg2_259_cif.got.tgz:517531.got - 2010.06.27 13:26:56.
