data_PCOD8010460
_publ_section_title
;
Structure prediction by ZEFSAII (Michael W. Deem and Ramdas Pophale) SiO2 
 PCOD8010460
Probable space group: P -1
;
_chemical_formula_sum "Si O2"
_cell_formula_units_Z 16
_cell_length_a 13.952395
_cell_length_b 14.680284
_cell_length_c 15.071912
_cell_angle_alpha 28.773993
_cell_angle_beta 140.179147
_cell_angle_gamma 151.131235
_cell_volume 717.445331
_symmetry_space_group_name_H-M "P -1"
_symmetry_group_IT_number 2
_symmetry_cell_setting 'triclinic'
loop_
_space_group_symop_operation_xyz
x,y,z
-x,-y,-z
loop_
_atom_site_type_symbol
_atom_site_label
_atom_site_fract_x
_atom_site_fract_y
_atom_site_fract_z
Si Si1 0.916765 0.187367 0.630313
Si Si2 0.633384 0.148272 0.221684
Si Si3 0.721385 0.837722 0.634691
Si Si4 0.050178 0.222204 0.283585
Si Si5 0.706175 0.216465 0.011758
Si Si6 0.672188 0.562223 0.210187
Si Si7 0.838242 0.504966 0.216943
Si Si8 0.757323 0.044595 0.826437
O O1 0.934492 0.386017 0.413469
O O2 0.128955 0.292362 0.718041
O O3 0.818925 0.941254 0.712464
O O4 0.789555 0.136887 0.669548
O O5 0.661447 0.223367 0.076038
O O6 0.734724 0.400111 0.137253
O O7 0.397643 0.938423 0.253757
O O8 0.737968 0.036165 0.414180
O O9 0.823136 0.747438 0.735068
O O10 0.492493 0.613626 0.683559
O O11 0.849040 0.151220 0.162772
O O12 0.181578 0.499618 0.188111
O O13 0.000000 0.000000 0.500000
O O14 0.500000 0.000000 0.000000
O O15 0.673053 0.430023 0.236049
O O16 0.650271 0.754998 0.994622
O O17 0.032616 0.801930 0.101945
#
# Coordination Sequence:
#
# PCOD8010460 Si02
#       8
#     2   2   2   2   2   2   2   2
#     4  10  21  38  60  92 128 173 218 265 325 394
#     4  11  23  42  65  94 127 173 224 272 337 402
#     4  11  23  41  67  92 128 176 221 272 333 406
#     4  11  25  50  74 102 139 177 229 290 353 414
#     4  11  27  49  75 106 137 176 230 293 352 415
#     4  11  22  36  57  95 132 172 218 267 327 394
#     4  10  21  38  62  87 131 176 215 270 321 396
#     4  11  22  35  59  93 134 169 215 271 324 394
#
# _framework density 22.301348999999998
#
# number of rings (size 3 to 8) (size 9 to 14) (size 15 to 20)
#    0.000    1.250    1.250    6.000    0.000   11.500 
#    2.250    0.000    0.000    0.000    0.000    0.000 
#    0.000    0.000    0.000    0.000    0.000    0.000 
#
# Total GULP energy -198355.874198 kJ/mol
# GULP energy per Si atom -12397.242137 kJ/mol
# Density = 2.225059 g / cm^3
# Si number density = 22.301349 Si / 1000 Ang^3
#
#
#
# Elastic Constant Matrix: (Units=GPa)
#
#
# Indices 1 2 3 4 5 6 
#
# 1 107.5342 29.5792 36.3663 12.2201 18.2600 -0.8493
# 2 29.5792 106.1097 54.9575 3.7382 3.1697 -5.8338
# 3 36.3663 54.9575 85.3621 -5.1208 0.9281 0.9208
# 4 12.2201 3.7382 -5.1208 31.8030 -1.0584 2.5509
# 5 18.2600 3.1697 0.9281 -1.0584 32.1462 10.2034
# 6 -0.8493 -5.8338 0.9208 2.5509 10.2034 20.3620
#
#
#
# Elastic Compliance Matrix: (Units=1/GPa)
#
#
# Indices 1 2 3 4 5 6 
#
# 1 0.014122 0.000550 -0.006785 -0.007509 -0.010417 0.007214
# 2 0.000550 0.015358 -0.010424 -0.004429 -0.004045 0.007476
# 3 -0.006785 -0.010424 0.021833 0.008315 0.007382 -0.008998
# 4 -0.007509 -0.004429 0.008315 0.037403 0.009278 -0.011293
# 5 -0.010417 -0.004045 0.007382 0.009278 0.045778 -0.026029
# 6 0.007214 0.007476 -0.008998 -0.011293 -0.026029 0.066419
#
#
# Mechanical properties :
#
#
# Convention : Reuss Voigt Hill
#
# Bulk Modulus (GPa) = 55.57746 60.09024 57.83385
# Shear Modulus (GPa) = 20.81345 28.73577 24.77461
#
# Velocity S-wave (km/s) = 3.05828 3.59349 3.33664
# Velocity P-wave (km/s) = 6.11931 6.64987 6.39010
#
# Compressibility (1/GPa) = 0.01799291
#
# Stress axis : x y z
#
# Youngs Moduli (GPa) = 70.81180 65.11327 45.80312
#
# Poissons Ratio (x) = -0.03582 0.31079
# Poissons Ratio (y) = -0.03895 0.47747
# Poissons Ratio (z) = 0.48049 0.67876
#
# Static dielectric constant tensor:
#      x y z
#    x 4.013000 0.050220 0.098580 
#    y 0.050220 4.176610 -0.128940 
#    z 0.098580 -0.128940 4.086430 
# 
# 
# High freq. dielectric constant tensor:
#      x y z
#    x 1.876450 0.011550 0.011570 
#    y 0.011550 1.876480 -0.004490 
#    z 0.011570 -0.004490 1.884450 
# 
# From -- ./inp_files/534147.got.cif
#   From: 2010.06.25/outbox.cif.g09.slc.cpg/sg2_268_cif.got.tgz:534147.got - 2010.06.27 13:26:56.
