data_PCOD8010764
_publ_section_title
;
Structure prediction by ZEFSAII (Michael W. Deem and Ramdas Pophale) SiO2 
 PCOD8010764
Probable space group: P -1
;
_chemical_formula_sum "Si O2"
_cell_formula_units_Z 16
_cell_length_a 18.123496
_cell_length_b 22.205919
_cell_length_c 7.704842
_cell_angle_alpha 125.337231
_cell_angle_beta 130.959650
_cell_angle_gamma 17.179828
_cell_volume 675.523786
_symmetry_space_group_name_H-M "P -1"
_symmetry_group_IT_number 2
_symmetry_cell_setting 'triclinic'
loop_
_space_group_symop_operation_xyz
x,y,z
-x,-y,-z
loop_
_atom_site_type_symbol
_atom_site_label
_atom_site_fract_x
_atom_site_fract_y
_atom_site_fract_z
Si Si1 0.313269 0.786057 0.814769
Si Si2 0.319494 0.424939 0.678006
Si Si3 0.618514 0.563175 0.560718
Si Si4 0.208605 0.013992 0.986066
Si Si5 0.792662 0.295965 0.517007
Si Si6 0.346008 0.246826 0.316490
Si Si7 0.757004 0.617308 0.979240
Si Si8 0.291287 0.099525 0.462419
O O1 0.376110 0.734988 0.618744
O O2 0.123626 0.993207 0.901601
O O3 0.154017 0.822785 0.683904
O O4 0.593944 0.595877 0.044435
O O5 0.479657 0.354614 0.651460
O O6 0.427030 0.264405 0.573323
O O7 0.986614 0.658354 0.523008
O O8 0.782964 0.369124 0.484783
O O9 0.816682 0.492883 0.791608
O O10 0.531621 0.776686 0.047510
O O11 0.034547 0.149722 0.772057
O O12 0.169320 0.111593 0.208773
O O13 0.500000 0.500000 0.500000
O O14 0.354090 0.250930 0.127194
O O15 0.549051 0.037677 0.344276
O O16 0.031229 0.450602 0.219233
O O17 0.500000 0.000000 0.500000
#
# Coordination Sequence:
#
# PCOD8010764 Si02
#       8
#     2   2   2   2   2   2   2   2
#     4  10  21  42  66  87 127 167 208 266 316 371
#     4  11  23  43  64  93 130 169 208 259 313 371
#     4   9  21  39  64  89 124 162 207 262 310 369
#     4  11  22  39  64  90 123 170 211 252 323 374
#     4  10  21  38  63  92 123 161 213 265 313 374
#     4  10  22  43  60  92 131 161 210 255 310 373
#     4   9  21  40  65  85 124 171 200 261 312 369
#     4  12  26  36  63  97 126 166 209 254 312 379
#
# _framework density 23.685324999999999
#
# number of rings (size 3 to 8) (size 9 to 14) (size 15 to 20)
#    0.000    1.750    1.250    2.625    7.000    1.500 
#    0.000    2.500    0.000    6.000    0.000    0.000 
#    0.000    0.000    0.000    0.000    0.000    0.000 
#
# Total GULP energy -198264.598943 kJ/mol
# GULP energy per Si atom -12391.537434 kJ/mol
# Density = 2.363142 g / cm^3
# Si number density = 23.685325 Si / 1000 Ang^3
#
#
#
# Elastic Constant Matrix: (Units=GPa)
#
#
# Indices 1 2 3 4 5 6 
#
# 1 87.6307 14.5622 6.7729 3.8115 0.1830 28.7078
# 2 14.5622 47.4110 -5.4768 -1.0079 -3.3706 17.8799
# 3 6.7729 -5.4768 60.4695 -3.7623 -0.4639 3.0582
# 4 3.8115 -1.0079 -3.7623 32.7022 9.3870 2.7571
# 5 0.1830 -3.3706 -0.4639 9.3870 29.1599 7.2777
# 6 28.7078 17.8799 3.0582 2.7571 7.2777 42.6847
#
#
#
# Elastic Compliance Matrix: (Units=1/GPa)
#
#
# Indices 1 2 3 4 5 6 
#
# 1 0.015015 -0.000818 -0.001346 -0.001920 0.002912 -0.010032
# 2 -0.000818 0.026622 0.003185 0.000588 0.005908 -0.011875
# 3 -0.001346 0.003185 0.017216 0.002284 0.000383 -0.001876
# 4 -0.001920 0.000588 0.002284 0.034204 -0.011033 0.000553
# 5 0.002912 0.005908 0.000383 -0.011033 0.041205 -0.010773
# 6 -0.010032 -0.011875 -0.001876 0.000553 -0.010773 0.037084
#
#
# Mechanical properties :
#
#
# Convention : Reuss Voigt Hill
#
# Bulk Modulus (GPa) = 16.42104 25.24754 20.83429
# Shear Modulus (GPa) = 26.37096 32.88622 29.62859
#
# Velocity S-wave (km/s) = 3.34037 3.73025 3.54068
# Velocity P-wave (km/s) = 4.67177 5.40701 5.05278
#
# Compressibility (1/GPa) = 0.06089748
#
# Stress axis : x y z
#
# Youngs Moduli (GPa) = 66.59835 37.56270 58.08425
#
# Poissons Ratio (x) = 0.03072 0.07816
# Poissons Ratio (y) = 0.05447 -0.18501
# Poissons Ratio (z) = 0.08962 -0.11965
#
# Static dielectric constant tensor:
#      x y z
#    x 5.422080 0.726250 0.737420 
#    y 0.726250 4.232280 0.261630 
#    z 0.737420 0.261630 4.481370 
# 
# 
# High freq. dielectric constant tensor:
#      x y z
#    x 1.939380 0.035180 0.009290 
#    y 0.035180 1.917570 -0.000470 
#    z 0.009290 -0.000470 1.936080 
# 
# From -- ./inp_files/258347.got.cif
#   From: 2010.06.25/outbox.cif.g09.slc.cpg/sg2_130_cif.got.tgz:258347.got - 2010.06.27 13:26:56.
