data_PCOD8010390
_publ_section_title
;
Structure prediction by ZEFSAII (Michael W. Deem and Ramdas Pophale) SiO2 
 PCOD8010390
Probable space group: P -1
;
_chemical_formula_sum "Si O2"
_cell_formula_units_Z 16
_cell_length_a 8.192891
_cell_length_b 18.985552
_cell_length_c 26.206364
_cell_angle_alpha 17.133706
_cell_angle_beta 138.747482
_cell_angle_gamma 140.395741
_cell_volume 762.920910
_symmetry_space_group_name_H-M "P -1"
_symmetry_group_IT_number 2
_symmetry_cell_setting 'triclinic'
loop_
_space_group_symop_operation_xyz
x,y,z
-x,-y,-z
loop_
_atom_site_type_symbol
_atom_site_label
_atom_site_fract_x
_atom_site_fract_y
_atom_site_fract_z
Si Si1 0.468074 0.058200 0.111665
Si Si2 0.877976 0.931075 0.365195
Si Si3 0.764464 0.900218 0.476683
Si Si4 0.663054 0.366010 0.703789
Si Si5 0.260615 0.864799 0.430373
Si Si6 0.451291 0.424834 0.773990
Si Si7 0.088636 0.280708 0.646559
Si Si8 0.940875 0.029596 0.054874
O O1 0.678336 0.060000 0.202757
O O2 0.371231 0.790024 0.248429
O O3 0.217377 0.123274 0.029192
O O4 0.588597 0.276416 0.948105
O O5 0.865498 0.983930 0.385636
O O6 0.826588 0.642097 0.539758
O O7 0.165187 0.025932 0.341048
O O8 0.526065 0.011828 0.361403
O O9 0.665135 0.596974 0.666654
O O10 0.000000 0.000000 0.500000
O O11 0.391580 0.388222 0.643329
O O12 0.791610 0.238782 0.866599
O O13 0.317158 0.614646 0.640365
O O14 0.028204 0.788077 0.388648
O O15 0.226876 0.232269 0.824826
O O16 0.014719 0.021688 0.839986
O O17 0.000000 0.500000 0.500000
#
# Coordination Sequence:
#
# PCOD8010390 Si02
#       8
#     2   2   2   2   2   2   2   2
#     4  11  21  35  60  92 130 157 191 234 295 364
#     4  12  22  38  63  92 118 162 201 244 299 362
#     4  10  24  44  66  83 111 155 209 262 309 346
#     4  11  22  33  53  93 126 165 195 226 289 371
#     4  10  21  38  60  84 122 151 206 244 301 348
#     4   9  20  39  57  86 125 159 196 246 292 352
#     4  12  20  33  52  85 127 165 197 242 283 352
#     4  11  20  33  56  88 132 166 190 228 293 361
#
# _framework density 20.97203
#
# number of rings (size 3 to 8) (size 9 to 14) (size 15 to 20)
#    0.750    0.500    2.500    6.750    0.000    1.500 
#    0.000    0.625    0.000    0.750    0.000    0.000 
#    0.000    0.000    0.000    0.000    0.000    0.000 
#
# Total GULP energy -198255.648666 kJ/mol
# GULP energy per Si atom -12390.978042 kJ/mol
# Density = 2.092430 g / cm^3
# Si number density = 20.972030 Si / 1000 Ang^3
#
#
#
# Elastic Constant Matrix: (Units=GPa)
#
#
# Indices 1 2 3 4 5 6 
#
# 1 139.2665 45.2214 17.7024 21.8016 4.4978 4.9750
# 2 45.2214 48.8572 35.6907 24.9273 7.1277 1.1777
# 3 17.7024 35.6907 77.5522 33.2983 -2.2389 -3.9151
# 4 21.8016 24.9273 33.2983 26.6825 1.5544 -6.1349
# 5 4.4978 7.1277 -2.2389 1.5544 32.4209 13.1452
# 6 4.9750 1.1777 -3.9151 -6.1349 13.1452 23.1013
#
#
#
# Elastic Compliance Matrix: (Units=1/GPa)
#
#
# Indices 1 2 3 4 5 6 
#
# 1 0.011282 -0.011443 0.005328 -0.006453 0.003516 -0.004658
# 2 -0.011443 0.055336 -0.010307 -0.030424 -0.007413 -0.005965
# 3 0.005328 -0.010307 0.032843 -0.038875 0.010191 -0.011179
# 4 -0.006453 -0.030424 -0.038875 0.130211 -0.018050 0.041202
# 5 0.003516 -0.007413 0.010191 -0.018050 0.045435 -0.029299
# 6 -0.004658 -0.005965 -0.011179 0.041202 -0.029299 0.070314
#
#
# Mechanical properties :
#
#
# Convention : Reuss Voigt Hill
#
# Bulk Modulus (GPa) = 15.01105 51.43386 33.22245
# Shear Modulus (GPa) = 12.48533 27.57836 20.03185
#
# Velocity S-wave (km/s) = 2.44259 3.63024 3.09393
# Velocity P-wave (km/s) = 3.88950 6.49228 5.35154
#
# Compressibility (1/GPa) = 0.06661760
#
# Stress axis : x y z
#
# Youngs Moduli (GPa) = 88.63813 18.07151 30.44775
#
# Poissons Ratio (x) = 0.20679 -0.16222
# Poissons Ratio (y) = 1.01427 0.31381
# Poissons Ratio (z) = -0.47225 0.18625
#
# Static dielectric constant tensor:
#      x y z
#    x 4.055420 0.119320 -0.149490 
#    y 0.119320 3.334500 0.329400 
#    z -0.149490 0.329400 3.942480 
# 
# 
# High freq. dielectric constant tensor:
#      x y z
#    x 1.836340 0.013050 -0.004340 
#    y 0.013050 1.768700 0.034090 
#    z -0.004340 0.034090 1.819800 
# 
# From -- ./inp_files/617475.got.cif
#   From: 2010.06.25/outbox.cif.g09.slc.cpg/sg2_309_cif.got.tgz:617475.got - 2010.06.27 13:26:56.
