data_PCOD8010633
_publ_section_title
;
Structure prediction by ZEFSAII (Michael W. Deem and Ramdas Pophale) SiO2 
 PCOD8010633
Probable space group: P -1
;
_chemical_formula_sum "Si O2"
_cell_formula_units_Z 16
_cell_length_a 9.694491
_cell_length_b 12.704113
_cell_length_c 9.040403
_cell_angle_alpha 120.759277
_cell_angle_beta 64.639654
_cell_angle_gamma 85.980962
_cell_volume 802.408386
_symmetry_space_group_name_H-M "P -1"
_symmetry_group_IT_number 2
_symmetry_cell_setting 'triclinic'
loop_
_space_group_symop_operation_xyz
x,y,z
-x,-y,-z
loop_
_atom_site_type_symbol
_atom_site_label
_atom_site_fract_x
_atom_site_fract_y
_atom_site_fract_z
Si Si1 0.107197 0.351621 0.972753
Si Si2 0.611922 0.146051 0.314748
Si Si3 0.202024 0.899990 0.099107
Si Si4 0.988448 0.371647 0.722685
Si Si5 0.722439 0.883402 0.609553
Si Si6 0.158707 0.073456 0.736732
Si Si7 0.673847 0.338552 0.903530
Si Si8 0.449695 0.366970 0.762904
O O1 0.117727 0.213750 0.943099
O O2 0.286250 0.334803 0.818912
O O3 0.986048 0.374109 0.904704
O O4 0.035393 0.477928 0.208139
O O5 0.461049 0.112337 0.297033
O O6 0.552719 0.290442 0.519548
O O7 0.704730 0.039346 0.318201
O O8 0.733618 0.145372 0.127062
O O9 0.271625 0.776239 0.085407
O O10 0.004402 0.958921 0.230033
O O11 0.263324 0.013888 0.204103
O O12 0.827477 0.339951 0.733702
O O13 0.152500 0.262837 0.502508
O O14 0.770376 0.917477 0.450643
O O15 0.547126 0.312747 0.831405
O O16 0.587564 0.477995 0.127563
#
# Coordination Sequence:
#
# PCOD8010633 Si02
#       8
#     2   2   2   2   2   2   2   2
#     4   9  17  34  61  87 109 142 200 245 278 333
#     4  12  25  39  57  88 125 155 188 242 299 345
#     4  12  25  39  57  88 125 155 188 242 299 345
#     4   9  17  34  61  87 109 142 200 245 278 333
#     4  11  22  39  62  86 111 160 201 240 280 343
#     4  11  22  39  62  86 111 160 201 240 280 343
#     4  10  21  38  62  90 116 150 197 245 286 342
#     4  10  21  38  62  90 116 150 197 245 286 342
#
# _framework density 19.939971
#
# number of rings (size 3 to 8) (size 9 to 14) (size 15 to 20)
#    0.000    1.500    5.000    2.250    3.500    0.500 
#    0.000    0.000    0.000    0.750    0.000    0.000 
#    0.000    0.000    0.000    0.000    0.000    0.000 
#
# Total GULP energy -198389.139094 kJ/mol
# GULP energy per Si atom -12399.321193 kJ/mol
# Density = 1.989459 g / cm^3
# Si number density = 19.939971 Si / 1000 Ang^3
#
#
#
# Elastic Constant Matrix: (Units=GPa)
#
#
# Indices 1 2 3 4 5 6 
#
# 1 59.4747 13.7664 19.1681 14.4790 -7.6902 -0.6174
# 2 13.7664 37.2137 23.2846 24.8039 1.8212 2.3428
# 3 19.1681 23.2846 65.9310 16.3977 3.5951 -2.8278
# 4 14.4790 24.8039 16.3977 32.3781 4.3683 -5.4614
# 5 -7.6902 1.8212 3.5951 4.3683 24.7572 8.1622
# 6 -0.6174 2.3428 -2.8278 -5.4614 8.1622 25.2453
#
#
#
# Elastic Compliance Matrix: (Units=1/GPa)
#
#
# Indices 1 2 3 4 5 6 
#
# 1 0.022365 0.003515 -0.005544 -0.012702 0.012058 -0.007047
# 2 0.003515 0.073949 -0.014908 -0.057328 0.016572 -0.026206
# 3 -0.005544 -0.014908 0.021440 0.005165 -0.006964 0.007019
# 4 -0.012702 -0.057328 0.005165 0.087052 -0.026739 0.033065
# 5 0.012058 0.016572 -0.006964 -0.026739 0.057334 -0.026345
# 6 -0.007047 -0.026206 0.007019 0.033065 -0.026345 0.058328
#
#
# Mechanical properties :
#
#
# Convention : Reuss Voigt Hill
#
# Bulk Modulus (GPa) = 11.92174 30.56198 21.24186
# Shear Modulus (GPa) = 13.07866 23.56947 18.32406
#
# Velocity S-wave (km/s) = 2.56384 3.44178 3.03473
# Velocity P-wave (km/s) = 3.84137 5.58165 4.79118
#
# Compressibility (1/GPa) = 0.08388035
#
# Stress axis : x y z
#
# Youngs Moduli (GPa) = 44.71200 13.52289 46.64081
#
# Poissons Ratio (x) = -0.04753 0.25859
# Poissons Ratio (y) = -0.15717 0.69531
# Poissons Ratio (z) = 0.24790 0.20160
#
# Static dielectric constant tensor:
#      x y z
#    x 3.837330 0.075110 -0.082100 
#    y 0.075110 3.696450 0.548080 
#    z -0.082100 0.548080 3.533610 
# 
# 
# High freq. dielectric constant tensor:
#      x y z
#    x 1.798770 0.007150 -0.011620 
#    y 0.007150 1.763470 0.043170 
#    z -0.011620 0.043170 1.754680 
# 
# From -- ./inp_files/181807.got.cif
#   From: 2010.06.25/outbox.cif.g09.slc.cpg/sg2_91_cif.got.tgz:181807.got - 2010.06.27 13:26:56.
