data_PCOD8010268
_publ_section_title
;
Structure prediction by ZEFSAII (Michael W. Deem and Ramdas Pophale) SiO2 
 PCOD8010268
Probable space group: P -1
;
_chemical_formula_sum "Si O2"
_cell_formula_units_Z 16
_cell_length_a 11.133587
_cell_length_b 14.114073
_cell_length_c 11.383231
_cell_angle_alpha 57.734843
_cell_angle_beta 86.862583
_cell_angle_gamma 39.936184
_cell_volume 735.149433
_symmetry_space_group_name_H-M "P -1"
_symmetry_group_IT_number 2
_symmetry_cell_setting 'triclinic'
loop_
_space_group_symop_operation_xyz
x,y,z
-x,-y,-z
loop_
_atom_site_type_symbol
_atom_site_label
_atom_site_fract_x
_atom_site_fract_y
_atom_site_fract_z
Si Si1 0.121592 0.286074 0.108873
Si Si2 0.622753 0.000629 0.922897
Si Si3 0.711564 0.058091 0.452798
Si Si4 0.293810 0.794994 0.866377
Si Si5 0.339826 0.336783 0.497576
Si Si6 0.883871 0.860461 0.217203
Si Si7 0.169561 0.688752 0.806347
Si Si8 0.665240 0.889537 0.410152
O O1 0.946033 0.333097 0.133593
O O2 0.152593 0.241021 0.998620
O O3 0.384841 0.072321 0.300867
O O4 0.000000 0.500000 0.000000
O O5 0.451242 0.209569 0.702966
O O6 0.500000 0.000000 0.000000
O O7 0.740222 0.991457 0.015582
O O8 0.611916 0.218090 0.248274
O O9 0.550103 0.207223 0.480414
O O10 0.712137 0.926747 0.497565
O O11 0.995826 0.866033 0.588674
O O12 0.153757 0.794726 0.840211
O O13 0.107318 0.023435 0.800981
O O14 0.544515 0.562545 0.079641
O O15 0.192568 0.347404 0.443138
O O16 0.157192 0.588937 0.363382
O O17 0.725652 0.907924 0.277260
#
# Coordination Sequence:
#
# PCOD8010268 Si02
#       8
#     2   2   2   2   2   2   2   2
#     4  11  22  38  65 100 129 162 212 266 323 384
#     4  11  23  40  60  93 135 171 210 255 333 392
#     4  11  22  41  71  95 130 166 218 271 325 380
#     4  10  26  46  66  95 121 176 231 265 323 375
#     4  11  23  38  61 100 132 168 209 262 330 387
#     4  11  23  41  62  91 135 173 212 266 318 397
#     4  11  23  45  71  91 130 166 225 279 311 381
#     4  10  21  38  58 101 128 167 210 254 332 391
#
# _framework density 21.764285000000001
#
# number of rings (size 3 to 8) (size 9 to 14) (size 15 to 20)
#    0.000    1.250    5.000    2.625    3.500    2.000 
#    0.000    1.250    0.000    0.000    0.000    0.000 
#    0.000    0.000    0.000    0.000    0.000    0.000 
#
# Total GULP energy -198257.310654 kJ/mol
# GULP energy per Si atom -12391.081916 kJ/mol
# Density = 2.171475 g / cm^3
# Si number density = 21.764285 Si / 1000 Ang^3
#
#
#
# Elastic Constant Matrix: (Units=GPa)
#
#
# Indices 1 2 3 4 5 6 
#
# 1 100.4748 30.3586 26.4099 -17.5104 16.6763 30.7680
# 2 30.3586 114.5767 45.7516 -11.7163 4.9594 29.7541
# 3 26.4099 45.7516 92.6090 -2.8939 16.1821 13.9597
# 4 -17.5104 -11.7163 -2.8939 32.5193 5.3793 -14.1739
# 5 16.6763 4.9594 16.1821 5.3793 31.7655 0.4715
# 6 30.7680 29.7541 13.9597 -14.1739 0.4715 36.2499
#
#
#
# Elastic Compliance Matrix: (Units=1/GPa)
#
#
# Indices 1 2 3 4 5 6 
#
# 1 0.015911 0.000013 -0.001268 0.005087 -0.008408 -0.010929
# 2 0.000013 0.013064 -0.005278 0.000399 0.000702 -0.008554
# 3 -0.001268 -0.005278 0.014864 -0.000449 -0.006000 -0.000413
# 4 0.005087 0.000399 -0.000449 0.040097 -0.009462 0.011329
# 5 -0.008408 0.000702 -0.006000 -0.009462 0.040375 0.004646
# 6 -0.010929 -0.008554 -0.000413 0.011329 0.004646 0.048412
#
#
# Mechanical properties :
#
#
# Convention : Reuss Voigt Hill
#
# Bulk Modulus (GPa) = 32.49805 56.96673 44.73239
# Shear Modulus (GPa) = 25.50407 33.78297 29.64352
#
# Velocity S-wave (km/s) = 3.42692 3.94410 3.69457
# Velocity P-wave (km/s) = 5.53377 6.85364 6.22876
#
# Compressibility (1/GPa) = 0.03077107
#
# Stress axis : x y z
#
# Youngs Moduli (GPa) = 62.85020 76.54665 67.27659
#
# Poissons Ratio (x) = -0.00097 0.08532
# Poissons Ratio (y) = -0.00080 0.35511
# Poissons Ratio (z) = 0.07971 0.40404
#
# Static dielectric constant tensor:
#      x y z
#    x 3.811160 0.172570 0.257860 
#    y 0.172570 3.887090 0.191410 
#    z 0.257860 0.191410 4.361350 
# 
# 
# High freq. dielectric constant tensor:
#      x y z
#    x 1.845570 0.015030 -0.000350 
#    y 0.015030 1.852760 0.005320 
#    z -0.000350 0.005320 1.854980 
# 
# From -- ./inp_files/433822.got.cif
#   From: 2010.06.25/outbox.cif.g09.slc.cpg/sg2_217_cif.got.tgz:433822.got - 2010.06.27 13:26:56.
