data_PCOD8010405
_publ_section_title
;
Structure prediction by ZEFSAII (Michael W. Deem and Ramdas Pophale) SiO2 
 PCOD8010405
Probable space group: P -1
;
_chemical_formula_sum "Si O2"
_cell_formula_units_Z 14
_cell_length_a 11.662416
_cell_length_b 12.663553
_cell_length_c 12.633611
_cell_angle_alpha 144.098566
_cell_angle_beta 140.017768
_cell_angle_gamma 41.280781
_cell_volume 659.293866
_symmetry_space_group_name_H-M "P -1"
_symmetry_group_IT_number 2
_symmetry_cell_setting 'triclinic'
loop_
_space_group_symop_operation_xyz
x,y,z
-x,-y,-z
loop_
_atom_site_type_symbol
_atom_site_label
_atom_site_fract_x
_atom_site_fract_y
_atom_site_fract_z
Si Si1 0.411153 0.232611 0.018283
Si Si2 0.040182 0.177789 0.619825
Si Si3 0.348344 0.140227 0.430700
Si Si4 0.004705 0.815327 0.648660
Si Si5 0.767209 0.931607 0.933003
Si Si6 0.598383 0.512386 0.350752
Si Si7 0.275157 0.417932 0.290168
O O1 0.230343 0.193785 0.815143
O O2 0.600546 0.046614 0.990301
O O3 0.449330 0.409373 0.127503
O O4 0.390036 0.289318 0.171791
O O5 0.074298 0.136295 0.486466
O O6 0.869842 0.377219 0.685150
O O7 0.000000 0.000000 0.500000
O O8 0.317636 0.032907 0.216581
O O9 0.436948 0.302604 0.596093
O O10 0.149846 0.226458 0.421380
O O11 0.500000 0.000000 0.500000
O O12 0.185792 0.624245 0.624543
O O13 0.054297 0.996860 0.874630
O O14 0.838353 0.706042 0.831435
O O15 0.573330 0.560338 0.498475
#
# Coordination Sequence:
#
# PCOD8010405 Si02
#       7
#     2   2   2   2   2   2   2
#     4  11  21  38  60  88 119 152 195 245 286 340
#     4  11  24  39  59  90 121 152 192 241 294 345
#     4  11  22  38  60  88 116 149 195 248 291 335
#     4  10  21  41  60  82 119 159 192 236 288 348
#     4  10  22  39  61  88 115 156 200 235 287 351
#     4   9  22  39  59  84 114 156 199 234 288 350
#     4  10  21  38  60  86 119 156 191 235 293 351
#
# _framework density 21.234839999999998
#
# number of rings (size 3 to 8) (size 9 to 14) (size 15 to 20)
#    0.000    1.714    0.000    3.857    0.000    6.857 
#    0.000    7.857    0.000    0.000    0.000    0.000 
#    0.000    0.000    0.000    0.000    0.000    0.000 
#
# Total GULP energy -173602.145295 kJ/mol
# GULP energy per Si atom -12400.153235 kJ/mol
# Density = 2.118651 g / cm^3
# Si number density = 21.234840 Si / 1000 Ang^3
#
#
#
# Elastic Constant Matrix: (Units=GPa)
#
#
# Indices 1 2 3 4 5 6 
#
# 1 104.0925 39.6654 55.3858 -2.5179 -1.2946 5.2123
# 2 39.6654 108.2023 50.2278 5.7957 5.2346 23.7669
# 3 55.3858 50.2278 137.5403 11.7716 20.3318 12.3123
# 4 -2.5179 5.7957 11.7716 22.3935 -2.9172 5.2378
# 5 -1.2946 5.2346 20.3318 -2.9172 39.7088 6.4260
# 6 5.2123 23.7669 12.3123 5.2378 6.4260 26.5591
#
#
#
# Elastic Compliance Matrix: (Units=1/GPa)
#
#
# Indices 1 2 3 4 5 6 
#
# 1 0.013951 -0.003133 -0.005616 0.005733 0.004075 0.000552
# 2 -0.003133 0.014207 -0.003192 0.000429 0.001481 -0.011062
# 3 -0.005616 -0.003192 0.012212 -0.007439 -0.006789 0.001407
# 4 0.005733 0.000429 -0.007439 0.052874 0.009572 -0.010804
# 5 0.004075 0.001481 -0.006789 0.009572 0.030640 -0.008279
# 6 0.000552 -0.011062 0.001407 -0.010804 -0.008279 0.050924
#
#
# Mechanical properties :
#
#
# Convention : Reuss Voigt Hill
#
# Bulk Modulus (GPa) = 60.65071 71.15477 65.90274
# Shear Modulus (GPa) = 24.48741 31.36937 27.92839
#
# Velocity S-wave (km/s) = 3.39952 3.84768 3.63052
# Velocity P-wave (km/s) = 6.63573 7.30211 6.97688
#
# Compressibility (1/GPa) = 0.01648785
#
# Stress axis : x y z
#
# Youngs Moduli (GPa) = 71.68162 70.38630 81.88446
#
# Poissons Ratio (x) = 0.22049 0.45989
# Poissons Ratio (y) = 0.22454 0.26140
# Poissons Ratio (z) = 0.40259 0.22470
#
# Static dielectric constant tensor:
#      x y z
#    x 4.000350 0.086300 -0.009340 
#    y 0.086300 3.665170 0.272980 
#    z -0.009340 0.272980 4.139410 
# 
# 
# High freq. dielectric constant tensor:
#      x y z
#    x 1.838350 0.010390 0.001670 
#    y 0.010390 1.820870 0.017030 
#    z 0.001670 0.017030 1.847300 
# 
# From -- ./inp_files/201732.got.cif
#   From: 2010.06.25/outbox.cif.g09.slc.cpg/sg2_101_cif.got.tgz:201732.got - 2010.06.27 13:26:56.
