data_PCOD8010352
_publ_section_title
;
Structure prediction by ZEFSAII (Michael W. Deem and Ramdas Pophale) SiO2 
 PCOD8010352
Probable space group: P -1
;
_chemical_formula_sum "Si O2"
_cell_formula_units_Z 16
_cell_length_a 8.815086
_cell_length_b 24.657419
_cell_length_c 20.950786
_cell_angle_alpha 20.968466
_cell_angle_beta 147.621320
_cell_angle_gamma 136.118690
_cell_volume 816.187712
_symmetry_space_group_name_H-M "P -1"
_symmetry_group_IT_number 2
_symmetry_cell_setting 'triclinic'
loop_
_space_group_symop_operation_xyz
x,y,z
-x,-y,-z
loop_
_atom_site_type_symbol
_atom_site_label
_atom_site_fract_x
_atom_site_fract_y
_atom_site_fract_z
Si Si1 0.692763 0.148896 0.733674
Si Si2 0.342745 0.233414 0.143084
Si Si3 0.673953 0.375696 0.013878
Si Si4 0.795898 0.542844 0.569623
Si Si5 0.680109 0.856743 0.267978
Si Si6 0.641161 0.729313 0.643490
Si Si7 0.864283 0.454077 0.440450
Si Si8 0.309503 0.897234 0.465058
O O1 0.522360 0.130600 0.756253
O O2 0.469463 0.169056 0.572176
O O3 0.781526 0.304810 0.597959
O O4 0.000000 0.000000 0.000000
O O5 0.448190 0.206553 0.283139
O O6 0.258482 0.085797 0.247227
O O7 0.621629 0.255720 0.179434
O O8 0.046909 0.391994 0.858270
O O9 0.601326 0.555173 0.820588
O O10 0.439022 0.395082 0.851204
O O11 0.009018 0.297220 0.191791
O O12 0.500000 0.500000 0.500000
O O13 0.734152 0.689492 0.435157
O O14 0.905875 0.589217 0.490085
O O15 0.991498 0.871919 0.385993
O O16 0.500000 0.000000 0.000000
O O17 0.443196 0.838649 0.508074
O O18 0.000000 0.500000 0.500000
#
# Coordination Sequence:
#
# PCOD8010352 Si02
#       8
#     2   2   2   2   2   2   2   2
#     4  11  23  39  60  86 117 153 194 245 300 358
#     4  10  23  40  58  86 123 159 200 247 299 356
#     4   9  20  39  59  85 116 154 201 247 295 355
#     4  11  23  40  64  91 122 161 204 250 303 360
#     4  12  24  41  64  89 121 158 202 250 304 366
#     4  10  21  38  62  87 115 152 202 250 299 359
#     4  10  21  38  59  87 120 155 198 244 295 354
#     4  11  23  39  60  89 122 158 201 250 300 358
#
# _framework density 19.603334
#
# number of rings (size 3 to 8) (size 9 to 14) (size 15 to 20)
#    0.000    1.500    0.000    6.000    0.000    9.500 
#    0.000    1.250    0.000    0.000    0.000    0.000 
#    0.000    0.000    0.000    0.000    0.000    0.000 
#
# Total GULP energy -198433.958500 kJ/mol
# GULP energy per Si atom -12402.122406 kJ/mol
# Density = 1.955872 g / cm^3
# Si number density = 19.603334 Si / 1000 Ang^3
#
#
#
# Elastic Constant Matrix: (Units=GPa)
#
#
# Indices 1 2 3 4 5 6 
#
# 1 171.8638 71.6161 66.4138 4.4409 -0.1862 -0.7836
# 2 71.6161 118.5519 48.2750 10.0587 3.7757 1.8040
# 3 66.4138 48.2750 114.7326 2.3446 0.9040 -4.8243
# 4 4.4409 10.0587 2.3446 30.4604 4.0294 0.4202
# 5 -0.1862 3.7757 0.9040 4.0294 35.2588 1.9502
# 6 -0.7836 1.8040 -4.8243 0.4202 1.9502 37.2076
#
#
#
# Elastic Compliance Matrix: (Units=1/GPa)
#
#
# Indices 1 2 3 4 5 6 
#
# 1 0.008784 -0.003939 -0.003440 0.000215 0.000537 -0.000101
# 2 -0.003939 0.012287 -0.002860 -0.003137 -0.000851 -0.000969
# 3 -0.003440 -0.002860 0.011969 0.000524 -0.000168 0.001621
# 4 0.000215 -0.003137 0.000524 0.034269 -0.003594 0.000026
# 5 0.000537 -0.000851 -0.000168 -0.003594 0.028951 -0.001446
# 6 -0.000101 -0.000969 0.001621 0.000026 -0.001446 0.027207
#
#
# Mechanical properties :
#
#
# Convention : Reuss Voigt Hill
#
# Bulk Modulus (GPa) = 79.60221 86.41759 83.00990
# Shear Modulus (GPa) = 33.75355 35.17490 34.46423
#
# Velocity S-wave (km/s) = 4.15399 4.24055 4.19750
# Velocity P-wave (km/s) = 7.98136 8.25562 8.11965
#
# Compressibility (1/GPa) = 0.01256246
#
# Stress axis : x y z
#
# Youngs Moduli (GPa) = 113.84314 81.38432 83.54785
#
# Poissons Ratio (x) = 0.32061 0.28741
# Poissons Ratio (y) = 0.44847 0.23892
# Poissons Ratio (z) = 0.39162 0.23273
#
# Static dielectric constant tensor:
#      x y z
#    x 3.632510 0.172090 -0.060360 
#    y 0.172090 3.753820 0.090760 
#    z -0.060360 0.090760 3.714530 
# 
# 
# High freq. dielectric constant tensor:
#      x y z
#    x 1.771960 0.008820 -0.006180 
#    y 0.008820 1.776140 0.008840 
#    z -0.006180 0.008840 1.775670 
# 
# From -- ./inp_files/274499.got.cif
#   From: 2010.06.25/outbox.cif.g09.slc.cpg/sg2_138_cif.got.tgz:274499.got - 2010.06.27 13:26:56.
