data_PCOD8010811
_publ_section_title
;
Structure prediction by ZEFSAII (Michael W. Deem and Ramdas Pophale) SiO2 
 PCOD8010811
Probable space group: P -1
;
_chemical_formula_sum "Si O2"
_cell_formula_units_Z 16
_cell_length_a 9.529208
_cell_length_b 12.232432
_cell_length_c 11.288978
_cell_angle_alpha 130.866666
_cell_angle_beta 114.643353
_cell_angle_gamma 50.408427
_cell_volume 766.855496
_symmetry_space_group_name_H-M "P -1"
_symmetry_group_IT_number 2
_symmetry_cell_setting 'triclinic'
loop_
_space_group_symop_operation_xyz
x,y,z
-x,-y,-z
loop_
_atom_site_type_symbol
_atom_site_label
_atom_site_fract_x
_atom_site_fract_y
_atom_site_fract_z
Si Si1 0.092998 0.319318 0.469864
Si Si2 0.524132 0.981450 0.635986
Si Si3 0.431670 0.331361 0.957725
Si Si4 0.364729 0.934254 0.762850
Si Si5 0.811540 0.226924 0.026332
Si Si6 0.911038 0.479903 0.183430
Si Si7 0.312520 0.262254 0.097849
Si Si8 0.917302 0.104628 0.230882
O O1 0.277973 0.178255 0.371930
O O2 0.147708 0.351560 0.641939
O O3 0.000000 0.500000 0.500000
O O4 0.961053 0.247254 0.383488
O O5 0.379336 0.953078 0.638461
O O6 0.500000 0.000000 0.500000
O O7 0.510262 0.147128 0.799027
O O8 0.239103 0.474581 0.937823
O O9 0.597423 0.362352 0.017604
O O10 0.401825 0.329007 0.085090
O O11 0.565777 0.792083 0.779602
O O12 0.215467 0.886220 0.705275
O O13 0.297918 0.109992 0.931181
O O14 0.916716 0.327261 0.151343
O O15 0.819826 0.140944 0.094396
O O16 0.902599 0.085463 0.853180
O O17 0.109058 0.417301 0.159529
#
# Coordination Sequence:
#
# PCOD8010811 Si02
#       8
#     2   2   2   2   2   2   2   2
#     4  12  24  41  65  94 130 174 219 263 318 390
#     4  11  23  43  66  93 130 178 215 256 333 396
#     4  11  22  40  67  92 132 168 214 271 321 386
#     4  10  21  39  68  92 127 169 218 272 311 389
#     4  11  22  38  65  97 129 163 220 270 316 382
#     4  12  23  39  63  95 132 168 213 270 323 383
#     4  10  21  38  64 100 121 163 220 267 328 371
#     4  11  22  40  65  95 128 168 218 271 321 376
#
# _framework density 20.864426999999999
#
# number of rings (size 3 to 8) (size 9 to 14) (size 15 to 20)
#    0.000    1.000    6.250    1.500    0.000    0.000 
#    0.000    4.375    2.750    0.000    0.000    0.000 
#    0.000    0.000    0.000    0.000    0.000    0.000 
#
# Total GULP energy -198362.741741 kJ/mol
# GULP energy per Si atom -12397.671359 kJ/mol
# Density = 2.081694 g / cm^3
# Si number density = 20.864427 Si / 1000 Ang^3
#
#
#
# Elastic Constant Matrix: (Units=GPa)
#
#
# Indices 1 2 3 4 5 6 
#
# 1 157.5679 33.4193 48.8899 -0.0237 -5.1312 2.0076
# 2 33.4193 69.5047 13.3575 1.0938 -11.6755 -9.0734
# 3 48.8899 13.3575 63.3787 -1.4916 -1.9423 10.0424
# 4 -0.0237 1.0938 -1.4916 31.9950 5.6294 -7.7627
# 5 -5.1312 -11.6755 -1.9423 5.6294 33.0245 0.9174
# 6 2.0076 -9.0734 10.0424 -7.7627 0.9174 37.4293
#
#
#
# Elastic Compliance Matrix: (Units=1/GPa)
#
#
# Indices 1 2 3 4 5 6 
#
# 1 0.008950 -0.003030 -0.006344 -0.000060 -0.000057 0.000476
# 2 -0.003030 0.017815 -0.002012 -0.000546 0.005670 0.004769
# 3 -0.006344 -0.002012 0.022054 -0.000367 -0.000167 -0.006137
# 4 -0.000060 -0.000546 -0.000367 0.034099 -0.006236 0.007194
# 5 -0.000057 0.005670 -0.000167 -0.006236 0.033348 -0.000689
# 6 0.000476 0.004769 -0.006137 0.007194 -0.000689 0.031003
#
#
# Mechanical properties :
#
#
# Convention : Reuss Voigt Hill
#
# Bulk Modulus (GPa) = 38.39194 53.53164 45.96179
# Shear Modulus (GPa) = 27.97632 33.47540 30.72586
#
# Velocity S-wave (km/s) = 3.66575 4.00987 3.84167
# Velocity P-wave (km/s) = 6.02973 6.86668 6.46177
#
# Compressibility (1/GPa) = 0.02604714
#
# Stress axis : x y z
#
# Youngs Moduli (GPa) = 111.73753 56.13335 45.34303
#
# Poissons Ratio (x) = 0.17011 0.28764
# Poissons Ratio (y) = 0.33862 0.09121
# Poissons Ratio (z) = 0.70881 0.11292
#
# Static dielectric constant tensor:
#      x y z
#    x 3.803000 0.023140 -0.102580 
#    y 0.023140 3.757180 0.017880 
#    z -0.102580 0.017880 3.693960 
# 
# 
# High freq. dielectric constant tensor:
#      x y z
#    x 1.825360 -0.004630 -0.007810 
#    y -0.004630 1.818120 0.006400 
#    z -0.007810 0.006400 1.792910 
# 
# From -- ./inp_files/185062.got.cif
#   From: 2010.06.25/outbox.cif.g09.slc.cpg/sg2_93_cif.got.tgz:185062.got - 2010.06.27 13:26:56.
