data_PCOD8010824
_publ_section_title
;
Structure prediction by ZEFSAII (Michael W. Deem and Ramdas Pophale) SiO2 
 PCOD8010824
Probable space group: P -1
;
_chemical_formula_sum "Si O2"
_cell_formula_units_Z 16
_cell_length_a 14.463185
_cell_length_b 12.119012
_cell_length_c 15.538297
_cell_angle_alpha 152.216070
_cell_angle_beta 136.269617
_cell_angle_gamma 35.625463
_cell_volume 739.432100
_symmetry_space_group_name_H-M "P -1"
_symmetry_group_IT_number 2
_symmetry_cell_setting 'triclinic'
loop_
_space_group_symop_operation_xyz
x,y,z
-x,-y,-z
loop_
_atom_site_type_symbol
_atom_site_label
_atom_site_fract_x
_atom_site_fract_y
_atom_site_fract_z
Si Si1 0.818753 0.366257 0.794504
Si Si2 0.682962 0.878503 0.530317
Si Si3 0.089718 0.334183 0.058031
Si Si4 0.022058 0.169659 0.558833
Si Si5 0.702352 0.124738 0.988259
Si Si6 0.160259 0.372308 0.370526
Si Si7 0.342197 0.557373 0.089450
Si Si8 0.827289 0.447127 0.191948
O O1 0.791584 0.586679 0.852995
O O2 0.685819 0.509379 0.877986
O O3 0.829024 0.084540 0.569852
O O4 0.991800 0.272170 0.882307
O O5 0.785892 0.626056 0.494603
O O6 0.739465 0.754240 0.387904
O O7 0.500000 0.000000 0.500000
O O8 0.720688 0.116076 0.735344
O O9 0.967029 0.587533 0.216594
O O10 0.200689 0.039002 0.975326
O O11 0.880863 0.345945 0.514599
O O12 0.000000 0.000000 0.500000
O O13 0.527139 0.373356 0.066235
O O14 0.793302 0.247779 0.086564
O O15 0.692948 0.905148 0.767629
O O16 0.012874 0.329486 0.235535
O O17 0.239590 0.505673 0.917238
#
# Coordination Sequence:
#
# PCOD8010824 Si02
#       8
#     2   2   2   2   2   2   2   2
#     4  10  21  38  64  88 119 157 204 252 307 357
#     4  12  25  40  59  90 127 162 203 246 308 369
#     4   9  21  39  62  92 116 155 206 256 297 359
#     4   9  19  38  61  88 118 149 200 257 299 350
#     4  11  22  39  61  85 126 162 198 252 308 356
#     4  11  23  39  64  92 118 162 210 257 303 362
#     4  12  24  40  61  89 127 169 196 251 312 366
#     4  12  24  41  62  88 124 160 211 255 298 363
#
# _framework density 21.638227000000001
#
# number of rings (size 3 to 8) (size 9 to 14) (size 15 to 20)
#    0.000    1.250    2.500    4.125    3.500    0.500 
#    0.000    0.000    0.000    0.000    0.000   17.500 
#    0.000    0.000    0.000    0.000    0.000    0.000 
#
# Total GULP energy -198229.530536 kJ/mol
# GULP energy per Si atom -12389.345659 kJ/mol
# Density = 2.158898 g / cm^3
# Si number density = 21.638227 Si / 1000 Ang^3
#
#
#
# Elastic Constant Matrix: (Units=GPa)
#
#
# Indices 1 2 3 4 5 6 
#
# 1 97.3642 41.1499 31.8445 4.6923 -5.3005 21.5913
# 2 41.1499 83.3587 28.4786 6.8964 9.9162 13.3101
# 3 31.8445 28.4786 85.0268 6.9859 -21.6597 4.5678
# 4 4.6923 6.8964 6.9859 34.1838 1.5328 3.1603
# 5 -5.3005 9.9162 -21.6597 1.5328 32.8418 4.1629
# 6 21.5913 13.3101 4.5678 3.1603 4.1629 28.9964
#
#
#
# Elastic Compliance Matrix: (Units=1/GPa)
#
#
# Indices 1 2 3 4 5 6 
#
# 1 0.015865 -0.005998 -0.002456 0.000215 0.003916 -0.009259
# 2 -0.005998 0.018834 -0.006655 -0.000996 -0.010811 -0.001470
# 3 -0.002456 -0.006655 0.018707 -0.002794 0.014053 0.000223
# 4 0.000215 -0.000996 -0.002794 0.030317 -0.002645 -0.002187
# 5 0.003916 -0.010811 0.014053 -0.002645 0.044532 -0.006272
# 6 -0.009259 -0.001470 0.000223 -0.002187 -0.006272 0.043160
#
#
# Mechanical properties :
#
#
# Convention : Reuss Voigt Hill
#
# Bulk Modulus (GPa) = 43.12432 52.07730 47.60081
# Shear Modulus (GPa) = 23.88218 30.15618 27.01918
#
# Velocity S-wave (km/s) = 3.32581 3.73722 3.53750
# Velocity P-wave (km/s) = 5.89245 6.53773 6.22346
#
# Compressibility (1/GPa) = 0.02318877
#
# Stress axis : x y z
#
# Youngs Moduli (GPa) = 63.03239 53.09539 53.45566
#
# Poissons Ratio (x) = 0.31846 0.13127
# Poissons Ratio (y) = 0.37806 0.35575
# Poissons Ratio (z) = 0.15478 0.35335
#
# Static dielectric constant tensor:
#      x y z
#    x 4.080270 0.365920 -0.323990 
#    y 0.365920 3.844660 0.179000 
#    z -0.323990 0.179000 4.409340 
# 
# 
# High freq. dielectric constant tensor:
#      x y z
#    x 1.848500 0.031290 -0.018020 
#    y 0.031290 1.832160 0.008540 
#    z -0.018020 0.008540 1.864460 
# 
# From -- ./inp_files/274183.got.cif
#   From: 2010.06.25/outbox.cif.g09.slc.cpg/sg2_138_cif.got.tgz:274183.got - 2010.06.27 13:26:56.
