data_PCOD8010999
_publ_section_title
;
Structure prediction by ZEFSAII (Michael W. Deem and Ramdas Pophale) SiO2 
 PCOD8010999
Probable space group: P -1
;
_chemical_formula_sum "Si O2"
_cell_formula_units_Z 14
_cell_length_a 11.589768
_cell_length_b 7.772730
_cell_length_c 19.880887
_cell_angle_alpha 38.444393
_cell_angle_beta 147.417348
_cell_angle_gamma 141.511930
_cell_volume 557.874966
_symmetry_space_group_name_H-M "P -1"
_symmetry_group_IT_number 2
_symmetry_cell_setting 'triclinic'
loop_
_space_group_symop_operation_xyz
x,y,z
-x,-y,-z
loop_
_atom_site_type_symbol
_atom_site_label
_atom_site_fract_x
_atom_site_fract_y
_atom_site_fract_z
Si Si1 0.365948 0.484056 0.371603
Si Si2 0.191482 0.836320 0.462926
Si Si3 0.186753 0.573239 0.675940
Si Si4 0.629487 0.678147 0.318122
Si Si5 0.749730 0.299018 0.966502
Si Si6 0.901039 0.346569 0.247554
Si Si7 0.466612 0.640957 0.026533
O O1 0.500000 0.500000 0.500000
O O2 0.514675 0.730281 0.316210
O O3 0.126321 0.520790 0.260694
O O4 0.325641 0.175434 0.405225
O O5 0.208508 0.837612 0.553014
O O6 0.280874 0.592635 0.548519
O O7 0.932251 0.726532 0.336894
O O8 0.036604 0.586561 0.663480
O O9 0.434097 0.594254 0.820803
O O10 0.438073 0.587731 0.193928
O O11 0.832340 0.994910 0.306296
O O12 0.724240 0.324095 0.026365
O O13 0.000000 0.500000 0.000000
O O14 0.682641 0.949111 0.023896
O O15 0.689534 0.456347 0.088750
#
# Coordination Sequence:
#
# PCOD8010999 Si02
#       7
#     2   2   2   2   2   2   2
#     4  12  26  43  66  96 132 172 216 269 327 382
#     4  11  24  40  67  96 128 172 222 263 318 390
#     4  11  22  41  67  97 131 174 215 264 321 387
#     4  11  23  43  65  95 129 171 216 269 320 379
#     4  10  21  38  65  96 124 165 215 268 318 377
#     4  11  24  43  67  95 135 169 216 269 325 382
#     4  10  22  40  66  94 129 170 212 265 325 379
#
# _framework density 25.095230999999998
#
# number of rings (size 3 to 8) (size 9 to 14) (size 15 to 20)
#    0.000    1.143    1.429    5.143    6.000    1.714 
#    0.000    0.000    0.000    6.000    0.000    0.000 
#    0.000    0.000    0.000    0.000    0.000    0.000 
#
# Total GULP energy -173515.423635 kJ/mol
# GULP energy per Si atom -12393.958831 kJ/mol
# Density = 2.503811 g / cm^3
# Si number density = 25.095231 Si / 1000 Ang^3
#
#
#
# Elastic Constant Matrix: (Units=GPa)
#
#
# Indices 1 2 3 4 5 6 
#
# 1 97.4178 -1.6972 11.8510 7.8335 -20.7474 13.6655
# 2 -1.6972 41.4539 1.6619 12.3906 1.7721 11.7739
# 3 11.8510 1.6619 122.2404 19.5818 -10.3160 -5.9990
# 4 7.8335 12.3906 19.5818 30.0193 -6.7533 2.5588
# 5 -20.7474 1.7721 -10.3160 -6.7533 41.8789 7.2719
# 6 13.6655 11.7739 -5.9990 2.5588 7.2719 44.8839
#
#
#
# Elastic Compliance Matrix: (Units=1/GPa)
#
#
# Indices 1 2 3 4 5 6 
#
# 1 0.012756 0.002417 -0.000673 -0.001901 0.006715 -0.005587
# 2 0.002417 0.030385 0.001059 -0.013352 -0.000643 -0.007700
# 3 -0.000673 0.001059 0.009375 -0.006351 0.000658 0.001435
# 4 -0.001901 -0.013352 -0.006351 0.044667 0.005292 -0.000171
# 5 0.006715 -0.000643 0.000658 0.005292 0.029439 -0.006859
# 6 -0.005587 -0.007700 0.001435 -0.000171 -0.006859 0.027313
#
#
# Mechanical properties :
#
#
# Convention : Reuss Voigt Hill
#
# Bulk Modulus (GPa) = 17.20489 31.63818 24.42154
# Shear Modulus (GPa) = 29.81498 39.97619 34.89559
#
# Velocity S-wave (km/s) = 3.45058 3.99554 3.73302
# Velocity P-wave (km/s) = 4.76929 5.82413 5.32290
#
# Compressibility (1/GPa) = 0.05812301
#
# Stress axis : x y z
#
# Youngs Moduli (GPa) = 78.39628 32.91111 106.66922
#
# Poissons Ratio (x) = -0.07955 0.07174
# Poissons Ratio (y) = -0.18949 -0.11299
# Poissons Ratio (z) = 0.05272 -0.03486
#
# Static dielectric constant tensor:
#      x y z
#    x 4.738450 0.204000 -0.214260 
#    y 0.204000 4.277870 0.223240 
#    z -0.214260 0.223240 4.611060 
# 
# 
# High freq. dielectric constant tensor:
#      x y z
#    x 2.018750 -0.003180 -0.011300 
#    y -0.003180 1.968470 0.015850 
#    z -0.011300 0.015850 2.009260 
# 
# From -- ./inp_files/426427.got.cif
#   From: 2010.06.25/outbox.cif.g09.slc.cpg/sg2_214_cif.got.tgz:426427.got - 2010.06.27 13:26:56.
