data_PCOD8010692
_publ_section_title
;
Structure prediction by ZEFSAII (Michael W. Deem and Ramdas Pophale) SiO2 
 PCOD8010692
Probable space group: P -1
;
_chemical_formula_sum "Si O2"
_cell_formula_units_Z 16
_cell_length_a 17.113861
_cell_length_b 20.420765
_cell_length_c 11.842377
_cell_angle_alpha 140.471397
_cell_angle_beta 21.538474
_cell_angle_gamma 150.429449
_cell_volume 733.398779
_symmetry_space_group_name_H-M "P -1"
_symmetry_group_IT_number 2
_symmetry_cell_setting 'triclinic'
loop_
_space_group_symop_operation_xyz
x,y,z
-x,-y,-z
loop_
_atom_site_type_symbol
_atom_site_label
_atom_site_fract_x
_atom_site_fract_y
_atom_site_fract_z
Si Si1 0.033710 0.190501 0.978309
Si Si2 0.655963 0.838390 0.651327
Si Si3 0.516234 0.331556 0.785764
Si Si4 0.948164 0.143562 0.689307
Si Si5 0.917184 0.119242 0.299349
Si Si6 0.639297 0.163571 0.308708
Si Si7 0.456592 0.472445 0.855534
Si Si8 0.936488 0.275924 0.672098
O O1 0.215220 0.153758 0.632838
O O2 0.229357 0.354891 0.917721
O O3 0.922918 0.135291 0.178529
O O4 0.755015 0.118017 0.182810
O O5 0.767675 0.798674 0.548847
O O6 0.738097 0.981519 0.755939
O O7 0.316882 0.728642 0.955394
O O8 0.714206 0.303694 0.435205
O O9 0.426503 0.385243 0.884111
O O10 0.636852 0.439168 0.869402
O O11 0.225487 0.183067 0.015523
O O12 0.002882 0.200698 0.565888
O O13 0.794033 0.191455 0.020080
O O14 0.850464 0.204988 0.569499
O O15 0.694216 0.960911 0.421310
O O16 0.776641 0.567816 0.508889
#
# Coordination Sequence:
#
# PCOD8010692 Si02
#       8
#     2   2   2   2   2   2   2   2
#     4  10  23  40  61  89 127 158 201 255 302 359
#     4  10  22  42  63  90 129 162 192 260 307 356
#     4   9  20  38  60  84 121 158 202 256 297 358
#     4  10  23  40  62  96 128 152 209 245 310 375
#     4  10  21  38  62  94 119 153 206 250 311 370
#     4  11  21  38  61  95 119 158 201 256 312 357
#     4   9  21  41  56  86 120 162 210 240 297 368
#     4  11  22  41  67  88 123 170 200 247 308 360
#
# _framework density 21.816234999999999
#
# number of rings (size 3 to 8) (size 9 to 14) (size 15 to 20)
#    0.000    2.000    1.250    1.875    3.500    3.000 
#    6.750    1.250    0.000    0.000    0.000    0.000 
#    0.000    0.000    0.000    0.000    0.000    0.000 
#
# Total GULP energy -198269.142564 kJ/mol
# GULP energy per Si atom -12391.821410 kJ/mol
# Density = 2.176658 g / cm^3
# Si number density = 21.816235 Si / 1000 Ang^3
#
#
#
# Elastic Constant Matrix: (Units=GPa)
#
#
# Indices 1 2 3 4 5 6 
#
# 1 64.6260 4.8222 26.3253 0.9076 15.9583 4.1982
# 2 4.8222 66.7037 40.2515 7.7775 -10.7289 8.6727
# 3 26.3253 40.2515 107.8998 19.4262 8.6051 -2.2501
# 4 0.9076 7.7775 19.4262 39.6255 6.0166 1.3947
# 5 15.9583 -10.7289 8.6051 6.0166 21.3842 2.0788
# 6 4.1982 8.6727 -2.2501 1.3947 2.0788 18.5637
#
#
#
# Elastic Compliance Matrix: (Units=1/GPa)
#
#
# Indices 1 2 3 4 5 6 
#
# 1 0.021419 -0.001774 -0.004139 0.004448 -0.016164 -0.003041
# 2 -0.001774 0.028377 -0.011843 -0.002579 0.022670 -0.016636
# 3 -0.004139 -0.011843 0.016459 -0.004609 -0.009136 0.009833
# 4 0.004448 -0.002579 -0.004609 0.029612 -0.010959 -0.001357
# 5 -0.016164 0.022670 -0.009136 -0.010959 0.078517 -0.016012
# 6 -0.003041 -0.016636 0.009833 -0.001357 -0.016012 0.065415
#
#
# Mechanical properties :
#
#
# Convention : Reuss Voigt Hill
#
# Bulk Modulus (GPa) = 32.52916 42.44751 37.48834
# Shear Modulus (GPa) = 17.50953 27.10339 22.30646
#
# Velocity S-wave (km/s) = 2.83608 3.52852 3.20108
# Velocity P-wave (km/s) = 5.06630 6.00830 5.55730
#
# Compressibility (1/GPa) = 0.03074164
#
# Stress axis : x y z
#
# Youngs Moduli (GPa) = 46.68822 35.24003 60.75611
#
# Poissons Ratio (x) = 0.06252 0.25147
# Poissons Ratio (y) = 0.08282 0.71956
# Poissons Ratio (z) = 0.19325 0.41737
#
# Static dielectric constant tensor:
#      x y z
#    x 3.774480 0.391790 0.116190 
#    y 0.391790 4.087300 0.021210 
#    z 0.116190 0.021210 3.992920 
# 
# 
# High freq. dielectric constant tensor:
#      x y z
#    x 1.838030 0.019690 0.010940 
#    y 0.019690 1.848060 0.006050 
#    z 0.010940 0.006050 1.862360 
# 
# From -- ./inp_files/238724.got.cif
#   From: 2010.06.25/outbox.cif.g09.slc.cpg/sg2_120_cif.got.tgz:238724.got - 2010.06.27 13:26:56.
