data_PCOD8010612
_publ_section_title
;
Structure prediction by ZEFSAII (Michael W. Deem and Ramdas Pophale) SiO2 
 PCOD8010612
Probable space group: P -1
;
_chemical_formula_sum "Si O2"
_cell_formula_units_Z 16
_cell_length_a 29.001534
_cell_length_b 7.029542
_cell_length_c 18.111735
_cell_angle_alpha 50.408200
_cell_angle_beta 18.060135
_cell_angle_gamma 60.829639
_cell_volume 765.929004
_symmetry_space_group_name_H-M "P -1"
_symmetry_group_IT_number 2
_symmetry_cell_setting 'triclinic'
loop_
_space_group_symop_operation_xyz
x,y,z
-x,-y,-z
loop_
_atom_site_type_symbol
_atom_site_label
_atom_site_fract_x
_atom_site_fract_y
_atom_site_fract_z
Si Si1 0.670515 0.468468 0.658735
Si Si2 0.837727 0.369627 0.968883
Si Si3 0.411106 0.380894 0.878325
Si Si4 0.107021 0.229776 0.618978
Si Si5 0.749057 0.838075 0.309938
Si Si6 0.308491 0.054569 0.258885
Si Si7 0.335634 0.278623 0.849533
Si Si8 0.802757 0.317113 0.866886
O O1 0.736552 0.612517 0.601719
O O2 0.711216 0.729767 0.477955
O O3 0.759981 0.283193 0.543099
O O4 0.468855 0.242172 0.022690
O O5 0.771744 0.247186 0.018031
O O6 0.037530 0.448613 0.649950
O O7 0.814411 0.640023 0.953184
O O8 0.727296 0.116479 0.258968
O O9 0.615580 0.590386 0.520660
O O10 0.371648 0.268076 0.883490
O O11 0.358421 0.123799 0.079644
O O12 0.304355 0.530953 0.030590
O O13 0.163973 0.130630 0.483726
O O14 0.947637 0.936114 0.966077
O O15 0.500000 0.500000 0.500000
O O16 0.271925 0.971200 0.992271
O O17 0.000000 0.500000 0.500000
#
# Coordination Sequence:
#
# PCOD8010612 Si02
#       8
#     2   2   2   2   2   2   2   2
#     4  10  21  40  62  88 124 159 211 249 304 366
#     4   9  22  38  58  92 125 153 207 253 300 364
#     4  10  22  41  61  89 131 155 208 252 308 367
#     4  10  21  38  62  86 123 160 200 249 313 355
#     4   9  20  40  61  89 124 162 197 265 299 359
#     4  10  22  39  62  90 122 164 200 257 303 367
#     4  11  23  41  67  90 121 170 209 248 312 373
#     4  11  23  39  63  91 127 164 203 255 314 366
#
# _framework density 20.889662999999999
#
# number of rings (size 3 to 8) (size 9 to 14) (size 15 to 20)
#    0.750    1.250    0.000    3.000    0.000    8.500 
#    0.000    8.750    0.000    0.000    0.000    0.000 
#    0.000    0.000    0.000    0.000    0.000    0.000 
#
# Total GULP energy -198277.035395 kJ/mol
# GULP energy per Si atom -12392.314712 kJ/mol
# Density = 2.084212 g / cm^3
# Si number density = 20.889663 Si / 1000 Ang^3
#
#
#
# Elastic Constant Matrix: (Units=GPa)
#
#
# Indices 1 2 3 4 5 6 
#
# 1 103.3016 39.6814 13.8472 -7.7174 -1.2762 -2.5015
# 2 39.6814 97.7539 25.3232 1.4793 -2.2461 9.6122
# 3 13.8472 25.3232 68.7301 -6.1129 -2.8336 10.4215
# 4 -7.7174 1.4793 -6.1129 32.0205 -2.0119 -0.7655
# 5 -1.2762 -2.2461 -2.8336 -2.0119 20.5804 -0.1811
# 6 -2.5015 9.6122 10.4215 -0.7655 -0.1811 27.9345
#
#
#
# Elastic Compliance Matrix: (Units=1/GPa)
#
#
# Indices 1 2 3 4 5 6 
#
# 1 0.012030 -0.005037 -0.000758 0.003090 0.000422 0.003181
# 2 -0.005037 0.013646 -0.003644 -0.002608 0.000386 -0.003856
# 3 -0.000758 -0.003644 0.017206 0.003286 0.002200 -0.005128
# 4 0.003090 -0.002608 0.003286 0.032969 0.003590 0.000875
# 5 0.000422 0.000386 0.002200 0.003590 0.049308 -0.000498
# 6 0.003181 -0.003856 -0.005128 0.000875 -0.000498 0.039344
#
#
# Mechanical properties :
#
#
# Convention : Reuss Voigt Hill
#
# Bulk Modulus (GPa) = 41.66089 47.49879 44.57984
# Shear Modulus (GPa) = 26.12589 28.83602 27.48095
#
# Velocity S-wave (km/s) = 3.54031 3.71940 3.63096
# Velocity P-wave (km/s) = 6.05791 6.42126 6.24223
#
# Compressibility (1/GPa) = 0.02400333
#
# Stress axis : x y z
#
# Youngs Moduli (GPa) = 83.12664 73.28195 58.12022
#
# Poissons Ratio (x) = 0.36910 0.04405
# Poissons Ratio (y) = 0.41869 0.21181
# Poissons Ratio (z) = 0.06301 0.26707
#
# Static dielectric constant tensor:
#      x y z
#    x 3.840430 -0.204220 -0.077330 
#    y -0.204220 3.661680 0.105730 
#    z -0.077330 0.105730 3.640950 
# 
# 
# High freq. dielectric constant tensor:
#      x y z
#    x 1.827750 -0.011420 -0.005270 
#    y -0.011420 1.804990 0.000330 
#    z -0.005270 0.000330 1.811620 
# 
# From -- ./inp_files/580069.got.cif
#   From: 2010.06.25/outbox.cif.g09.slc.cpg/sg2_291_cif.got.tgz:580069.got - 2010.06.27 13:26:56.
