data_PCOD8010787
_publ_section_title
;
Structure prediction by ZEFSAII (Michael W. Deem and Ramdas Pophale) SiO2 
 PCOD8010787
Probable space group: P -1
;
_chemical_formula_sum "Si O2"
_cell_formula_units_Z 16
_cell_length_a 11.683193
_cell_length_b 10.167784
_cell_length_c 18.096956
_cell_angle_alpha 39.673048
_cell_angle_beta 125.773050
_cell_angle_gamma 94.320441
_cell_volume 768.979448
_symmetry_space_group_name_H-M "P -1"
_symmetry_group_IT_number 2
_symmetry_cell_setting 'triclinic'
loop_
_space_group_symop_operation_xyz
x,y,z
-x,-y,-z
loop_
_atom_site_type_symbol
_atom_site_label
_atom_site_fract_x
_atom_site_fract_y
_atom_site_fract_z
Si Si1 0.784416 0.275267 0.673644
Si Si2 0.256718 0.812513 0.898072
Si Si3 0.573375 0.153636 0.450812
Si Si4 0.000792 0.227969 0.486948
Si Si5 0.684021 0.228129 0.313159
Si Si6 0.965810 0.773011 0.853784
Si Si7 0.157968 0.158250 0.850763
Si Si8 0.382422 0.673734 0.261264
O O1 0.581087 0.545936 0.434276
O O2 0.759181 0.279736 0.749951
O O3 0.930076 0.311725 0.697722
O O4 0.879798 0.962172 0.815022
O O5 0.167942 0.680866 0.944019
O O6 0.098290 0.090431 0.663392
O O7 0.283253 0.931226 0.927883
O O8 0.484286 0.549749 0.062125
O O9 0.576165 0.196429 0.346585
O O10 0.419253 0.464017 0.302903
O O11 0.500000 0.000000 0.500000
O O12 0.801119 0.959888 0.646450
O O13 0.842363 0.215618 0.415576
O O14 0.862864 0.576470 0.280814
O O15 0.190286 0.037736 0.583606
O O16 0.000000 0.500000 0.000000
O O17 0.273196 0.982568 0.046997
#
# Coordination Sequence:
#
# PCOD8010787 Si02
#       8
#     2   2   2   2   2   2   2   2
#     4   9  22  39  61  92 132 159 207 263 315 378
#     4  11  22  44  65  91 127 167 216 265 315 381
#     4  11  22  38  68  94 127 166 209 262 321 383
#     4  11  26  43  63  95 127 170 214 272 308 380
#     4  11  24  45  64  91 130 167 213 262 322 377
#     4  10  21  38  63  94 127 163 206 261 321 383
#     4  11  23  39  68  90 125 170 212 261 317 376
#     4  10  21  42  60  95 129 164 207 265 314 384
#
# _framework density 20.806798000000001
#
# number of rings (size 3 to 8) (size 9 to 14) (size 15 to 20)
#    0.000    1.500    2.500    1.875    3.500    2.500 
#    2.250    0.000    0.000    0.000    0.000    0.000 
#    0.000    0.000    0.000    0.000    0.000    0.000 
#
# Total GULP energy -198392.590450 kJ/mol
# GULP energy per Si atom -12399.536903 kJ/mol
# Density = 2.075944 g / cm^3
# Si number density = 20.806798 Si / 1000 Ang^3
#
#
#
# Elastic Constant Matrix: (Units=GPa)
#
#
# Indices 1 2 3 4 5 6 
#
# 1 85.1611 33.8767 27.8127 -7.2416 -4.3601 -10.8839
# 2 33.8767 68.2652 28.1024 -4.2469 -8.3421 -6.0641
# 3 27.8127 28.1024 108.9557 -0.5746 -7.8749 0.5012
# 4 -7.2416 -4.2469 -0.5746 28.8028 1.3005 -5.3439
# 5 -4.3601 -8.3421 -7.8749 1.3005 41.7086 -1.1958
# 6 -10.8839 -6.0641 0.5012 -5.3439 -1.1958 22.2395
#
#
#
# Elastic Compliance Matrix: (Units=1/GPa)
#
#
# Indices 1 2 3 4 5 6 
#
# 1 0.016368 -0.006088 -0.002613 0.004555 0.000073 0.007508
# 2 -0.006088 0.019762 -0.003352 0.001760 0.002716 0.003054
# 3 -0.002613 -0.003352 0.010791 -0.001492 0.001062 -0.002737
# 4 0.004555 0.001760 -0.001492 0.038322 -0.000306 0.011935
# 5 0.000073 0.002716 0.001062 -0.000306 0.024794 0.002012
# 6 0.007508 0.003054 -0.002737 0.011935 0.002012 0.052510
#
#
# Mechanical properties :
#
#
# Convention : Reuss Voigt Hill
#
# Bulk Modulus (GPa) = 43.82832 49.10728 46.46780
# Shear Modulus (GPa) = 25.73888 30.05620 27.89754
#
# Velocity S-wave (km/s) = 3.52098 3.80483 3.66565
# Velocity P-wave (km/s) = 6.13513 6.55401 6.34803
#
# Compressibility (1/GPa) = 0.02281630
#
# Stress axis : x y z
#
# Youngs Moduli (GPa) = 61.09398 50.60153 92.66903
#
# Poissons Ratio (x) = 0.30804 0.24217
# Poissons Ratio (y) = 0.37192 0.31060
# Poissons Ratio (z) = 0.15966 0.16960
#
# Static dielectric constant tensor:
#      x y z
#    x 3.665730 -0.217850 0.287020 
#    y -0.217850 3.744660 0.172270 
#    z 0.287020 0.172270 3.796420 
# 
# 
# High freq. dielectric constant tensor:
#      x y z
#    x 1.813040 -0.006790 0.008630 
#    y -0.006790 1.807970 0.011110 
#    z 0.008630 0.011110 1.829180 
# 
# From -- ./inp_files/399948.got.cif
#   From: 2010.06.25/outbox.cif.g09.slc.cpg/sg2_200_cif.got.tgz:399948.got - 2010.06.27 13:26:56.
