data_PCOD8010983
_publ_section_title
;
Structure prediction by ZEFSAII (Michael W. Deem and Ramdas Pophale) SiO2 
 PCOD8010983
Probable space group: P -1
;
_chemical_formula_sum "Si O2"
_cell_formula_units_Z 16
_cell_length_a 25.669793
_cell_length_b 23.950016
_cell_length_c 10.417072
_cell_angle_alpha 35.413792
_cell_angle_beta 143.949168
_cell_angle_gamma 168.614229
_cell_volume 730.080571
_symmetry_space_group_name_H-M "P -1"
_symmetry_group_IT_number 2
_symmetry_cell_setting 'triclinic'
loop_
_space_group_symop_operation_xyz
x,y,z
-x,-y,-z
loop_
_atom_site_type_symbol
_atom_site_label
_atom_site_fract_x
_atom_site_fract_y
_atom_site_fract_z
Si Si1 0.920826 0.371974 0.446271
Si Si2 0.546490 0.686264 0.136896
Si Si3 0.381044 0.704353 0.654893
Si Si4 0.138425 0.102819 0.458037
Si Si5 0.243307 0.491488 0.499985
Si Si6 0.285204 0.161089 0.292285
Si Si7 0.692116 0.712178 0.160936
Si Si8 0.792983 0.335844 0.992565
O O1 0.873802 0.397056 0.186761
O O2 0.000000 0.500000 0.500000
O O3 0.159813 0.547458 0.560502
O O4 0.652391 0.038212 0.550358
O O5 0.331160 0.382956 0.270208
O O6 0.714928 0.847253 0.303466
O O7 0.714706 0.830488 0.074220
O O8 0.429137 0.672370 0.919103
O O9 0.279085 0.552412 0.606320
O O10 0.000000 0.000000 0.500000
O O11 0.912569 0.856800 0.362537
O O12 0.506976 0.710137 0.566797
O O13 0.196070 0.538220 0.234856
O O14 0.986032 0.160413 0.592370
O O15 0.413875 0.367624 0.264401
O O16 0.233338 0.175308 0.041122
O O17 0.000000 0.500000 0.000000
O O18 0.500000 0.000000 0.000000
#
# Coordination Sequence:
#
# PCOD8010983 Si02
#       8
#     2   2   2   2   2   2   2   2
#     4  12  27  49  71 106 138 177 221 291 365 413
#     4  10  21  38  65  94 121 179 229 272 317 402
#     4  12  24  43  77  96 133 172 235 283 332 418
#     4   9  20  38  58  87 130 170 232 259 325 393
#     4  12  23  42  67 103 129 172 238 272 326 423
#     4  11  25  38  63  99 139 174 217 279 335 380
#     4  10  22  38  61  89 141 179 212 276 336 386
#     4  12  23  45  74 101 135 179 224 288 354 415
#
# _framework density 21.915389000000001
#
# number of rings (size 3 to 8) (size 9 to 14) (size 15 to 20)
#    0.000    1.000    3.750    2.625    5.250    1.000 
#    2.250    0.000    0.000    0.000    0.000    0.000 
#    0.000    0.000    0.000    0.000    0.000    0.000 
#
# Total GULP energy -198294.359184 kJ/mol
# GULP energy per Si atom -12393.397449 kJ/mol
# Density = 2.186551 g / cm^3
# Si number density = 21.915389 Si / 1000 Ang^3
#
#
#
# Elastic Constant Matrix: (Units=GPa)
#
#
# Indices 1 2 3 4 5 6 
#
# 1 68.0540 23.9724 29.8348 11.8993 7.1252 3.3172
# 2 23.9724 128.4858 63.9507 17.2463 -5.2965 1.8232
# 3 29.8348 63.9507 191.6475 23.7265 -8.6155 -13.5506
# 4 11.8993 17.2463 23.7265 37.9193 1.2959 0.8310
# 5 7.1252 -5.2965 -8.6155 1.2959 25.7826 4.6902
# 6 3.3172 1.8232 -13.5506 0.8310 4.6902 28.3986
#
#
#
# Elastic Compliance Matrix: (Units=1/GPa)
#
#
# Indices 1 2 3 4 5 6 
#
# 1 0.017505 -0.002034 -0.002047 -0.003060 -0.005439 -0.001903
# 2 -0.002034 0.009957 -0.002782 -0.002179 0.002155 -0.002021
# 3 -0.002047 -0.002782 0.007137 -0.002700 0.001861 0.003595
# 4 -0.003060 -0.002179 -0.002700 0.030103 -0.001766 -0.001380
# 5 -0.005439 0.002155 0.001861 -0.001766 0.042457 -0.005575
# 6 -0.001903 -0.002021 0.003595 -0.001380 -0.005575 0.038242
#
#
# Mechanical properties :
#
#
# Convention : Reuss Voigt Hill
#
# Bulk Modulus (GPa) = 47.90678 69.30035 58.60356
# Shear Modulus (GPa) = 30.10511 36.44873 33.27692
#
# Velocity S-wave (km/s) = 3.71036 4.08261 3.90093
# Velocity P-wave (km/s) = 6.34532 7.34261 6.86211
#
# Compressibility (1/GPa) = 0.02087387
#
# Stress axis : x y z
#
# Youngs Moduli (GPa) = 57.12582 100.42939 140.11272
#
# Poissons Ratio (x) = 0.20426 0.28677
# Poissons Ratio (y) = 0.11619 0.38983
# Poissons Ratio (z) = 0.11692 0.27942
#
# Static dielectric constant tensor:
#      x y z
#    x 4.033670 -0.158960 -0.221500 
#    y -0.158960 4.368250 0.376910 
#    z -0.221500 0.376910 4.411390 
# 
# 
# High freq. dielectric constant tensor:
#      x y z
#    x 1.855960 0.012880 -0.010320 
#    y 0.012880 1.877930 0.016880 
#    z -0.010320 0.016880 1.872980 
# 
# From -- ./inp_files/477796.got.cif
#   From: 2010.06.25/outbox.cif.g09.slc.cpg/sg2_239_cif.got.tgz:477796.got - 2010.06.27 13:26:56.
