data_PCOD8010605
_publ_section_title
;
Structure prediction by ZEFSAII (Michael W. Deem and Ramdas Pophale) SiO2 
 PCOD8010605
Probable space group: P -1
;
_chemical_formula_sum "Si O2"
_cell_formula_units_Z 16
_cell_length_a 20.003881
_cell_length_b 6.826235
_cell_length_c 19.801608
_cell_angle_alpha 60.147371
_cell_angle_beta 159.541965
_cell_angle_gamma 119.805714
_cell_volume 815.467804
_symmetry_space_group_name_H-M "P -1"
_symmetry_group_IT_number 2
_symmetry_cell_setting 'triclinic'
loop_
_space_group_symop_operation_xyz
x,y,z
-x,-y,-z
loop_
_atom_site_type_symbol
_atom_site_label
_atom_site_fract_x
_atom_site_fract_y
_atom_site_fract_z
Si Si1 0.334798 0.666861 0.907477
Si Si2 0.016123 0.917980 0.605417
Si Si3 0.252751 0.433107 0.345105
Si Si4 0.731957 0.853267 0.083317
Si Si5 0.603477 0.950915 0.207883
Si Si6 0.074349 0.950996 0.899568
Si Si7 0.688682 0.446298 0.773936
Si Si8 0.021562 0.216217 0.935519
O O1 0.347555 0.407978 0.946694
O O2 0.346375 0.813474 0.825050
O O3 0.135076 0.696996 0.753644
O O4 0.517531 0.750095 0.112077
O O5 0.137757 0.106896 0.733366
O O6 0.800042 0.869306 0.439444
O O7 0.000000 0.000000 0.500000
O O8 0.461670 0.419986 0.577046
O O9 0.259362 0.450923 0.267634
O O10 0.121531 0.202677 0.277906
O O11 0.166799 0.650959 0.258045
O O12 0.855093 0.919354 0.122946
O O13 0.549667 0.002460 0.887080
O O14 0.037800 0.142215 0.886438
O O15 0.234022 0.798684 0.105498
O O16 0.788756 0.618689 0.894207
O O17 0.000000 0.000000 0.000000
#
# Coordination Sequence:
#
# PCOD8010605 Si02
#       8
#     2   2   2   2   2   2   2   2
#     4   9  19  36  59  88 112 147 193 237 289 345
#     4   9  20  38  60  85 112 148 192 241 285 343
#     4  10  21  38  62  86 112 151 197 242 286 342
#     4  11  23  36  57  85 119 155 190 240 294 345
#     4   9  19  37  59  82 114 148 192 239 284 346
#     4  11  23  39  54  83 124 154 190 241 295 340
#     4  10  21  38  62  86 111 151 197 241 288 342
#     4  11  19  36  60  87 116 150 191 241 285 341
#
# _framework density 19.620640999999999
#
# number of rings (size 3 to 8) (size 9 to 14) (size 15 to 20)
#    0.000    2.000    2.500    1.875    0.000    9.500 
#    0.000    0.000    0.000    0.000    0.000    0.000 
#    0.000    0.000    0.000    0.000    0.000    0.000 
#
# Total GULP energy -198392.338735 kJ/mol
# GULP energy per Si atom -12399.521171 kJ/mol
# Density = 1.957598 g / cm^3
# Si number density = 19.620641 Si / 1000 Ang^3
#
#
#
# Elastic Constant Matrix: (Units=GPa)
#
#
# Indices 1 2 3 4 5 6 
#
# 1 90.3887 30.3716 21.5934 8.8340 15.6252 -15.4977
# 2 30.3716 74.0305 31.2109 10.8761 7.6978 -22.5780
# 3 21.5934 31.2109 134.2429 7.2086 33.1208 -11.7902
# 4 8.8340 10.8761 7.2086 15.6258 -0.3798 4.5277
# 5 15.6252 7.6978 33.1208 -0.3798 22.8810 -5.3314
# 6 -15.4977 -22.5780 -11.7902 4.5277 -5.3314 26.5875
#
#
#
# Elastic Compliance Matrix: (Units=1/GPa)
#
#
# Indices 1 2 3 4 5 6 
#
# 1 0.015633 -0.002134 0.002021 -0.010814 -0.011250 0.007783
# 2 -0.002134 0.025879 -0.002926 -0.022258 0.002128 0.023652
# 3 0.002021 -0.002926 0.012911 -0.006003 -0.018794 0.001672
# 4 -0.010814 -0.022258 -0.006003 0.100903 0.015463 -0.041950
# 5 -0.011250 0.002128 -0.018794 0.015463 0.078121 -0.000053
# 6 0.007783 0.023652 0.001672 -0.041950 -0.000053 0.070108
#
#
# Mechanical properties :
#
#
# Convention : Reuss Voigt Hill
#
# Bulk Modulus (GPa) = 20.68423 51.66820 36.17621
# Shear Modulus (GPa) = 15.34929 27.38459 21.36694
#
# Velocity S-wave (km/s) = 2.80000 3.73996 3.30359
# Velocity P-wave (km/s) = 4.58457 6.71122 5.74712
#
# Compressibility (1/GPa) = 0.04834602
#
# Stress axis : x y z
#
# Youngs Moduli (GPa) = 63.96531 38.64089 77.45592
#
# Poissons Ratio (x) = 0.08245 -0.15656
# Poissons Ratio (y) = 0.13649 0.22664
# Poissons Ratio (z) = -0.12929 0.11307
#
# Static dielectric constant tensor:
#      x y z
#    x 3.523700 -0.225060 0.345070 
#    y -0.225060 3.509210 0.005180 
#    z 0.345070 0.005180 3.948310 
# 
# 
# High freq. dielectric constant tensor:
#      x y z
#    x 1.754240 -0.016750 0.017560 
#    y -0.016750 1.757730 0.005320 
#    z 0.017560 0.005320 1.770390 
# 
# From -- ./inp_files/57051.got.cif
#   From: 2010.06.25/outbox.cif.g09.slc.cpg/sg2_29_cif.got.tgz:57051.got - 2010.06.27 13:26:56.
