data_PCOD8010413
_publ_section_title
;
Structure prediction by ZEFSAII (Michael W. Deem and Ramdas Pophale) SiO2 
 PCOD8010413
Probable space group: P -1
;
_chemical_formula_sum "Si O2"
_cell_formula_units_Z 14
_cell_length_a 9.059776
_cell_length_b 14.688902
_cell_length_c 8.909584
_cell_angle_alpha 63.993583
_cell_angle_beta 131.487346
_cell_angle_gamma 130.477632
_cell_volume 675.534972
_symmetry_space_group_name_H-M "P -1"
_symmetry_group_IT_number 2
_symmetry_cell_setting 'triclinic'
loop_
_space_group_symop_operation_xyz
x,y,z
-x,-y,-z
loop_
_atom_site_type_symbol
_atom_site_label
_atom_site_fract_x
_atom_site_fract_y
_atom_site_fract_z
Si Si1 0.302243 0.836785 0.672713
Si Si2 0.452487 0.604815 0.907456
Si Si3 0.113863 0.999651 0.423178
Si Si4 0.461427 0.767629 0.552399
Si Si5 0.033938 0.598397 0.792321
Si Si6 0.304585 0.655751 0.220788
Si Si7 0.338990 0.196034 0.883647
O O1 0.281327 0.949894 0.601622
O O2 0.359699 0.828682 0.544174
O O3 0.058566 0.711659 0.638666
O O4 0.501247 0.850409 0.908912
O O5 0.443121 0.652903 0.701764
O O6 0.215565 0.565934 0.866536
O O7 0.500000 0.500000 0.000000
O O8 0.666595 0.713964 0.065076
O O9 0.919113 0.916764 0.230352
O O10 0.267362 0.133732 0.367173
O O11 0.000000 0.000000 0.500000
O O12 0.315838 0.724748 0.330397
O O13 0.772431 0.481569 0.689766
O O14 0.101926 0.638452 0.983650
O O15 0.555587 0.732662 0.253811
#
# Coordination Sequence:
#
# PCOD8010413 Si02
#       7
#     2   2   2   2   2   2   2
#     4   9  22  40  60  85 121 160 195 249 303 349
#     4   9  20  38  57  88 120 153 194 249 304 356
#     4  12  23  40  61  91 120 159 209 247 290 353
#     4  10  21  38  60  87 118 157 207 242 294 363
#     4   8  18  36  57  82 120 157 195 239 310 359
#     4   9  16  36  57  84 116 151 197 248 288 357
#     4   9  21  41  59  85 129 155 199 250 292 358
#
# _framework density 20.724316000000002
#
# number of rings (size 3 to 8) (size 9 to 14) (size 15 to 20)
#    0.000    3.143    1.429    0.429    0.000    7.429 
#   10.286    3.571    0.000    0.000    0.000    0.000 
#    0.000    0.000    0.000    0.000    0.000    0.000 
#
# Total GULP energy -173487.936378 kJ/mol
# GULP energy per Si atom -12391.995456 kJ/mol
# Density = 2.067715 g / cm^3
# Si number density = 20.724316 Si / 1000 Ang^3
#
#
#
# Elastic Constant Matrix: (Units=GPa)
#
#
# Indices 1 2 3 4 5 6 
#
# 1 81.1969 41.0657 55.9306 -7.8137 -18.9968 -11.0408
# 2 41.0657 93.0914 50.1216 9.5982 -2.5506 7.1004
# 3 55.9306 50.1216 84.5968 11.0217 -19.6992 -4.8934
# 4 -7.8137 9.5982 11.0217 39.2137 -4.5617 2.6525
# 5 -18.9968 -2.5506 -19.6992 -4.5617 35.7730 -6.0662
# 6 -11.0408 7.1004 -4.8934 2.6525 -6.0662 42.7282
#
#
#
# Elastic Compliance Matrix: (Units=1/GPa)
#
#
# Indices 1 2 3 4 5 6 
#
# 1 0.031336 -0.007441 -0.014968 0.012979 0.010941 0.008367
# 2 -0.007441 0.019335 -0.008470 -0.004401 -0.009004 -0.007111
# 3 -0.014968 -0.008470 0.029651 -0.008585 0.007100 0.002477
# 4 0.012979 -0.004401 -0.008585 0.032174 0.006293 0.001998
# 5 0.010941 -0.009004 0.007100 0.006293 0.039593 0.010367
# 6 0.008367 -0.007111 0.002477 0.001998 0.010367 0.028379
#
#
# Mechanical properties :
#
#
# Convention : Reuss Voigt Hill
#
# Bulk Modulus (GPa) = 53.87371 61.45788 57.66579
# Shear Modulus (GPa) = 20.12769 30.99415 25.56092
#
# Velocity S-wave (km/s) = 3.11981 3.87142 3.51576
# Velocity P-wave (km/s) = 6.24735 7.05005 6.66081
#
# Compressibility (1/GPa) = 0.01856193
#
# Stress axis : x y z
#
# Youngs Moduli (GPa) = 31.91206 51.72068 33.72615
#
# Poissons Ratio (x) = 0.38485 0.50482
# Poissons Ratio (y) = 0.23746 0.28568
# Poissons Ratio (z) = 0.47767 0.43810
#
# Static dielectric constant tensor:
#      x y z
#    x 3.557790 0.246160 -0.332870 
#    y 0.246160 4.029790 0.049030 
#    z -0.332870 0.049030 3.583900 
# 
# 
# High freq. dielectric constant tensor:
#      x y z
#    x 1.788020 0.014310 -0.034480 
#    y 0.014310 1.822620 0.002870 
#    z -0.034480 0.002870 1.794800 
# 
# From -- ./inp_files/196333.got.cif
#   From: 2010.06.25/outbox.cif.g09.slc.cpg/sg2_99_cif.got.tgz:196333.got - 2010.06.27 13:26:56.
