data_PCOD8010943
_publ_section_title
;
Structure prediction by ZEFSAII (Michael W. Deem and Ramdas Pophale) SiO2 
 PCOD8010943
Probable space group: P -1
;
_chemical_formula_sum "Si O2"
_cell_formula_units_Z 16
_cell_length_a 13.741634
_cell_length_b 8.818322
_cell_length_c 11.070982
_cell_angle_alpha 128.218799
_cell_angle_beta 59.280846
_cell_angle_gamma 89.937224
_cell_volume 800.014626
_symmetry_space_group_name_H-M "P -1"
_symmetry_group_IT_number 2
_symmetry_cell_setting 'triclinic'
loop_
_space_group_symop_operation_xyz
x,y,z
-x,-y,-z
loop_
_atom_site_type_symbol
_atom_site_label
_atom_site_fract_x
_atom_site_fract_y
_atom_site_fract_z
Si Si1 0.907385 0.062130 0.975724
Si Si2 0.271044 0.505176 0.808477
Si Si3 0.214066 0.218730 0.008290
Si Si4 0.313803 0.517422 0.178601
Si Si5 0.044556 0.573786 0.129939
Si Si6 0.110062 0.968462 0.601662
Si Si7 0.516096 0.575266 0.206838
Si Si8 0.325489 0.049928 0.606597
O O1 0.993375 0.978771 0.760252
O O2 0.814233 0.952461 0.985037
O O3 0.810222 0.325291 0.162570
O O4 0.000000 0.000000 0.000000
O O5 0.398043 0.525978 0.776751
O O6 0.309249 0.251438 0.628841
O O7 0.181377 0.565567 0.013943
O O8 0.319019 0.109378 0.781581
O O9 0.275527 0.323713 0.114291
O O10 0.074450 0.401795 0.134706
O O11 0.180378 0.744076 0.372931
O O12 0.402865 0.506149 0.232084
O O13 0.391802 0.512666 0.008967
O O14 0.944057 0.822299 0.352360
O O15 0.000000 0.500000 0.000000
O O16 0.209643 0.992952 0.638640
O O17 0.458201 0.839020 0.384107
#
# Coordination Sequence:
#
# PCOD8010943 Si02
#       8
#     2   2   2   2   2   2   2   2
#     4  11  22  36  59  85 119 147 186 233 281 340
#     4  10  19  33  59  89 109 144 190 237 280 328
#     4  11  20  35  56  86 112 154 185 227 287 336
#     4  10  22  36  58  83 117 147 189 232 289 330
#     4  10  16  32  56  83 111 138 189 242 276 323
#     4  10  20  35  57  86 115 148 181 235 289 333
#     4  10  20  38  59  86 113 146 191 244 275 325
#     4  10  18  34  63  84 112 142 194 242 279 314
#
# _framework density 19.999632999999999
#
# number of rings (size 3 to 8) (size 9 to 14) (size 15 to 20)
#    0.000    1.750    6.250    1.125    0.000    1.000 
#    0.000    1.250    0.000    0.000    0.000    0.000 
#    0.000    0.000    0.000    0.000    0.000    0.000 
#
# Total GULP energy -198224.160211 kJ/mol
# GULP energy per Si atom -12389.010013 kJ/mol
# Density = 1.995411 g / cm^3
# Si number density = 19.999633 Si / 1000 Ang^3
#
#
#
# Elastic Constant Matrix: (Units=GPa)
#
#
# Indices 1 2 3 4 5 6 
#
# 1 107.7787 35.7606 23.9953 17.3917 0.0952 4.7956
# 2 35.7606 93.2717 33.8345 17.9914 -2.9091 3.5360
# 3 23.9953 33.8345 112.8221 20.1748 -4.5232 -0.6105
# 4 17.3917 17.9914 20.1748 21.4803 2.3124 -1.2934
# 5 0.0952 -2.9091 -4.5232 2.3124 25.5223 10.0718
# 6 4.7956 3.5360 -0.6105 -1.2934 10.0718 28.9420
#
#
#
# Elastic Compliance Matrix: (Units=1/GPa)
#
#
# Indices 1 2 3 4 5 6 
#
# 1 0.011504 -0.002845 -0.000334 -0.006870 0.001084 -0.002250
# 2 -0.002845 0.014376 -0.002121 -0.008248 0.003119 -0.002784
# 3 -0.000334 -0.002121 0.011275 -0.008907 0.002902 -0.000856
# 4 -0.006870 -0.008248 -0.008907 0.069300 -0.012481 0.009398
# 5 0.001084 0.003119 0.002902 -0.012481 0.048217 -0.017837
# 6 -0.002250 -0.002784 -0.000856 0.009398 -0.017837 0.041874
#
#
# Mechanical properties :
#
#
# Convention : Reuss Voigt Hill
#
# Bulk Modulus (GPa) = 37.65820 55.67259 46.66539
# Shear Modulus (GPa) = 23.14838 29.87440 26.51139
#
# Velocity S-wave (km/s) = 3.40581 3.86910 3.64482
# Velocity P-wave (km/s) = 5.85972 6.91788 6.41067
#
# Compressibility (1/GPa) = 0.02655464
#
# Stress axis : x y z
#
# Youngs Moduli (GPa) = 86.92303 69.56254 88.69141
#
# Poissons Ratio (x) = 0.19794 0.02959
# Poissons Ratio (y) = 0.24734 0.18812
# Poissons Ratio (z) = 0.02900 0.14754
#
# Static dielectric constant tensor:
#      x y z
#    x 4.009080 0.112340 -0.228410 
#    y 0.112340 3.481430 0.392220 
#    z -0.228410 0.392220 3.739130 
# 
# 
# High freq. dielectric constant tensor:
#      x y z
#    x 1.795220 0.013340 -0.015710 
#    y 0.013340 1.735850 0.032700 
#    z -0.015710 0.032700 1.769820 
# 
# From -- ./inp_files/196905.got.cif
#   From: 2010.06.25/outbox.cif.g09.slc.cpg/sg2_99_cif.got.tgz:196905.got - 2010.06.27 13:26:56.
