data_PCOD8010055
_publ_section_title
;
Structure prediction by ZEFSAII (Michael W. Deem and Ramdas Pophale) SiO2 
 PCOD8010055
Probable space group: P -1
;
_chemical_formula_sum "Si O2"
_cell_formula_units_Z 14
_cell_length_a 10.642310
_cell_length_b 19.667397
_cell_length_c 5.093032
_cell_angle_alpha 106.554677
_cell_angle_beta 92.661905
_cell_angle_gamma 39.818951
_cell_volume 627.994650
_symmetry_space_group_name_H-M "P -1"
_symmetry_group_IT_number 2
_symmetry_cell_setting 'triclinic'
loop_
_space_group_symop_operation_xyz
x,y,z
-x,-y,-z
loop_
_atom_site_type_symbol
_atom_site_label
_atom_site_fract_x
_atom_site_fract_y
_atom_site_fract_z
Si Si1 0.882258 0.968429 0.713411
Si Si2 0.903976 0.687892 0.815121
Si Si3 0.436790 0.376518 0.913146
Si Si4 0.650742 0.497741 0.465667
Si Si5 0.868183 0.139697 0.889155
Si Si6 0.470711 0.087675 0.728560
Si Si7 0.751371 0.692071 0.291849
O O1 0.960477 0.918330 0.373355
O O2 0.823227 0.076750 0.848241
O O3 0.681424 0.012460 0.811408
O O4 0.053492 0.868142 0.829279
O O5 0.850627 0.655727 0.546071
O O6 0.119870 0.631216 0.726986
O O7 0.721352 0.827244 0.990297
O O8 0.923203 0.630779 0.016964
O O9 0.444464 0.416113 0.687788
O O10 0.663861 0.270289 0.933191
O O11 0.340810 0.343882 0.799579
O O12 0.315121 0.471008 0.234601
O O13 0.500000 0.500000 0.500000
O O14 0.427791 0.168870 0.599561
O O15 0.500000 0.000000 0.500000
#
# Coordination Sequence:
#
# PCOD8010055 Si02
#       7
#     2   2   2   2   2   2   2
#     4  10  21  37  64  95 140 170 226 269 336 399
#     4  10  24  45  69 100 139 173 237 288 339 412
#     4  12  24  45  74 101 140 184 230 293 340 406
#     4  12  28  47  71 101 139 183 232 284 357 416
#     4  10  21  39  63  99 129 179 220 280 326 400
#     4  10  24  44  68 100 142 184 219 285 343 415
#     4  10  23  43  71 103 138 171 240 277 344 404
#
# _framework density 22.293184
#
# number of rings (size 3 to 8) (size 9 to 14) (size 15 to 20)
#    0.857    0.571    1.429    3.000    2.000    6.286 
#    5.143    0.000    0.000    0.000    0.000    0.000 
#    0.000    0.000    0.000    0.000    0.000    0.000 
#
# Total GULP energy -173554.028370 kJ/mol
# GULP energy per Si atom -12396.716312 kJ/mol
# Density = 2.224244 g / cm^3
# Si number density = 22.293184 Si / 1000 Ang^3
#
#
#
# Elastic Constant Matrix: (Units=GPa)
#
#
# Indices 1 2 3 4 5 6 
#
# 1 164.8364 74.7570 75.0320 14.4135 -6.9263 -17.5315
# 2 74.7570 58.2406 55.6501 -3.5300 4.6559 -0.2757
# 3 75.0320 55.6501 137.2654 -11.2432 5.1898 5.1187
# 4 14.4135 -3.5300 -11.2432 41.1843 -2.3673 -7.0116
# 5 -6.9263 4.6559 5.1898 -2.3673 24.5634 -0.6897
# 6 -17.5315 -0.2757 5.1187 -7.0116 -0.6897 35.0293
#
#
#
# Elastic Compliance Matrix: (Units=1/GPa)
#
#
# Indices 1 2 3 4 5 6 
#
# 1 0.021270 -0.026365 -0.002368 -0.008123 0.010975 0.009374
# 2 -0.026365 0.061050 -0.008568 0.009485 -0.016559 -0.009890
# 3 -0.002368 -0.008568 0.012445 0.002982 -0.001456 -0.002503
# 4 -0.008123 0.009485 0.002982 0.028866 -0.001900 0.001314
# 5 0.010975 -0.016559 -0.001456 -0.001900 0.047241 0.006125
# 6 0.009374 -0.009890 -0.002503 0.001314 0.006125 0.033910
#
#
# Mechanical properties :
#
#
# Convention : Reuss Voigt Hill
#
# Bulk Modulus (GPa) = 49.58980 85.69118 67.64049
# Shear Modulus (GPa) = 17.47615 30.48229 23.97922
#
# Velocity S-wave (km/s) = 2.80290 3.70176 3.28324
# Velocity P-wave (km/s) = 5.72431 7.53608 6.69179
#
# Compressibility (1/GPa) = 0.02016544
#
# Stress axis : x y z
#
# Youngs Moduli (GPa) = 47.01492 16.37996 80.35095
#
# Poissons Ratio (x) = 0.43186 0.19024
# Poissons Ratio (y) = 1.23954 0.68841
# Poissons Ratio (z) = 0.11131 0.14034
#
# Static dielectric constant tensor:
#      x y z
#    x 3.847460 -0.133860 -0.122090 
#    y -0.133860 4.290600 -0.312410 
#    z -0.122090 -0.312410 4.294600 
# 
# 
# High freq. dielectric constant tensor:
#      x y z
#    x 1.870550 -0.015810 -0.004750 
#    y -0.015810 1.877550 -0.009220 
#    z -0.004750 -0.009220 1.884070 
# 
# From -- ./inp_files/49000.got.cif
#   From: 2010.06.25/outbox.cif.g09.slc.cpg/sg2_25_cif.got.tgz:49000.got - 2010.06.27 13:26:56.
