data_PCOD8010673
_publ_section_title
;
Structure prediction by ZEFSAII (Michael W. Deem and Ramdas Pophale) SiO2 
 PCOD8010673
Probable space group: P -1
;
_chemical_formula_sum "Si O2"
_cell_formula_units_Z 16
_cell_length_a 22.057175
_cell_length_b 10.910030
_cell_length_c 16.382952
_cell_angle_alpha 43.160783
_cell_angle_beta 23.416506
_cell_angle_gamma 29.752532
_cell_volume 730.942588
_symmetry_space_group_name_H-M "P -1"
_symmetry_group_IT_number 2
_symmetry_cell_setting 'triclinic'
loop_
_space_group_symop_operation_xyz
x,y,z
-x,-y,-z
loop_
_atom_site_type_symbol
_atom_site_label
_atom_site_fract_x
_atom_site_fract_y
_atom_site_fract_z
Si Si1 0.851247 0.052764 0.267400
Si Si2 0.521127 0.033111 0.627573
Si Si3 0.742964 0.445216 0.085707
Si Si4 0.872732 0.662909 0.917101
Si Si5 0.254443 0.763006 0.512977
Si Si6 0.553895 0.616659 0.773471
Si Si7 0.648136 0.682511 0.457816
Si Si8 0.161235 0.898372 0.240022
O O1 0.676165 0.049018 0.465474
O O2 0.767295 0.306037 0.205048
O O3 0.861517 0.076350 0.338736
O O4 0.096900 0.778478 0.071203
O O5 0.508450 0.049226 0.534209
O O6 0.620946 0.752545 0.663181
O O7 0.273197 0.263157 0.859398
O O8 0.490713 0.660586 0.258559
O O9 0.805953 0.596383 0.955020
O O10 0.132312 0.402110 0.741568
O O11 0.841727 0.898627 0.818220
O O12 0.286730 0.520674 0.593042
O O13 0.084401 0.955093 0.555902
O O14 0.521821 0.675335 0.687555
O O15 0.755746 0.305171 0.692157
O O16 0.324967 0.742361 0.034976
#
# Coordination Sequence:
#
# PCOD8010673 Si02
#       8
#     2   2   2   2   2   2   2   2
#     4  11  23  37  61  94 135 165 203 256 324 375
#     4  11  20  38  62  95 130 164 201 267 317 373
#     4  11  22  38  62  92 131 169 205 256 319 381
#     4  10  21  38  62  92 129 164 209 254 319 368
#     4  11  22  39  62  92 127 165 209 253 313 372
#     4  10  22  41  66  93 127 161 220 261 312 370
#     4  11  22  36  64  97 123 162 211 263 318 374
#     4   9  23  43  66  89 125 172 210 265 309 365
#
# _framework density 21.889544000000001
#
# number of rings (size 3 to 8) (size 9 to 14) (size 15 to 20)
#    0.000    1.500    2.500    2.625    1.750    4.000 
#    0.000    0.625    0.000    2.250    0.000    0.000 
#    0.000    0.000    0.000    0.000    0.000    0.000 
#
# Total GULP energy -198416.579663 kJ/mol
# GULP energy per Si atom -12401.036229 kJ/mol
# Density = 2.183972 g / cm^3
# Si number density = 21.889544 Si / 1000 Ang^3
#
#
#
# Elastic Constant Matrix: (Units=GPa)
#
#
# Indices 1 2 3 4 5 6 
#
# 1 85.7108 44.4338 46.2345 -6.9874 -13.8116 5.0989
# 2 44.4338 132.1855 42.2211 -0.9501 -12.7775 -9.3453
# 3 46.2345 42.2211 94.5788 3.2721 -16.2812 1.6358
# 4 -6.9874 -0.9501 3.2721 26.4406 -1.6132 -0.3011
# 5 -13.8116 -12.7775 -16.2812 -1.6132 44.1249 -3.9806
# 6 5.0989 -9.3453 1.6358 -0.3011 -3.9806 25.6013
#
#
#
# Elastic Compliance Matrix: (Units=1/GPa)
#
#
# Indices 1 2 3 4 5 6 
#
# 1 0.018637 -0.004092 -0.007088 0.005718 0.001846 -0.004399
# 2 -0.004092 0.010167 -0.002405 -0.000290 0.001204 0.004864
# 3 -0.007088 -0.002405 0.015714 -0.003738 0.002738 -0.000088
# 4 0.005718 -0.000290 -0.003738 0.039888 0.001761 -0.000263
# 5 0.001846 0.001204 0.002738 0.001761 0.025007 0.003806
# 6 -0.004399 0.004864 -0.000088 -0.000263 0.003806 0.042306
#
#
# Mechanical properties :
#
#
# Convention : Reuss Voigt Hill
#
# Bulk Modulus (GPa) = 57.64443 64.25044 60.94744
# Shear Modulus (GPa) = 27.07475 31.20574 29.14024
#
# Velocity S-wave (km/s) = 3.52075 3.77981 3.65257
# Velocity P-wave (km/s) = 6.55125 6.96169 6.75959
#
# Compressibility (1/GPa) = 0.01734773
#
# Stress axis : x y z
#
# Youngs Moduli (GPa) = 53.65576 98.35615 63.63757
#
# Poissons Ratio (x) = 0.40252 0.45106
# Poissons Ratio (y) = 0.21958 0.15305
# Poissons Ratio (z) = 0.38031 0.23655
#
# Static dielectric constant tensor:
#      x y z
#    x 3.887360 0.315730 0.091970 
#    y 0.315730 4.118950 0.165320 
#    z 0.091970 0.165320 4.048860 
# 
# 
# High freq. dielectric constant tensor:
#      x y z
#    x 1.849610 0.031300 0.003190 
#    y 0.031300 1.861670 0.014900 
#    z 0.003190 0.014900 1.866810 
# 
# From -- ./inp_files/399248.got.cif
#   From: 2010.06.25/outbox.cif.g09.slc.cpg/sg2_200_cif.got.tgz:399248.got - 2010.06.27 13:26:56.
