data_PCOD8010280
_publ_section_title
;
Structure prediction by ZEFSAII (Michael W. Deem and Ramdas Pophale) SiO2 
 PCOD8010280
Probable space group: P -1
;
_chemical_formula_sum "Si O2"
_cell_formula_units_Z 14
_cell_length_a 8.608435
_cell_length_b 15.364755
_cell_length_c 15.895140
_cell_angle_alpha 152.988232
_cell_angle_beta 121.804040
_cell_angle_gamma 74.588058
_cell_volume 689.189463
_symmetry_space_group_name_H-M "P -1"
_symmetry_group_IT_number 2
_symmetry_cell_setting 'triclinic'
loop_
_space_group_symop_operation_xyz
x,y,z
-x,-y,-z
loop_
_atom_site_type_symbol
_atom_site_label
_atom_site_fract_x
_atom_site_fract_y
_atom_site_fract_z
Si Si1 0.470876 0.975897 0.280862
Si Si2 0.689037 0.515028 0.120513
Si Si3 0.917759 0.396628 0.796761
Si Si4 0.667015 0.556511 0.761613
Si Si5 0.199485 0.972583 0.873248
Si Si6 0.517779 0.133210 0.247785
Si Si7 0.725886 0.737268 0.494939
O O1 0.710789 0.144513 0.530024
O O2 0.475857 0.975395 0.180384
O O3 0.313829 0.057261 0.337538
O O4 0.379798 0.729452 0.076662
O O5 0.744726 0.685478 0.359474
O O6 0.899638 0.619170 0.213149
O O7 0.500000 0.500000 0.000000
O O8 0.857003 0.554503 0.864182
O O9 0.000000 0.500000 0.000000
O O10 0.591748 0.385346 0.514165
O O11 0.466476 0.481463 0.702111
O O12 0.751145 0.804142 0.968109
O O13 0.294120 0.848495 0.740434
O O14 0.944501 0.805787 0.665329
O O15 0.296886 0.027465 0.041718
#
# Coordination Sequence:
#
# PCOD8010280 Si02
#       7
#     2   2   2   2   2   2   2
#     4  10  23  42  58  83 123 149 185 244 282 332
#     4  12  24  39  62  87 113 152 194 231 286 345
#     4  10  22  40  61  87 116 151 191 233 287 340
#     4  10  21  38  58  83 118 151 189 237 283 336
#     4  11  20  37  61  83 116 153 190 237 282 333
#     4   9  21  38  57  86 117 151 190 232 288 339
#     4  10  22  37  59  88 112 150 197 230 280 342
#
# _framework density 20.313717
#
# number of rings (size 3 to 8) (size 9 to 14) (size 15 to 20)
#    0.000    2.000    0.000    5.571    0.000    6.286 
#    0.000    9.286    0.000    0.000    0.000    0.000 
#    0.000    0.000    0.000    0.000    0.000    0.000 
#
# Total GULP energy -173648.530513 kJ/mol
# GULP energy per Si atom -12403.466465 kJ/mol
# Density = 2.026748 g / cm^3
# Si number density = 20.313717 Si / 1000 Ang^3
#
#
#
# Elastic Constant Matrix: (Units=GPa)
#
#
# Indices 1 2 3 4 5 6 
#
# 1 128.4012 23.6300 36.2977 -35.3485 10.5791 -3.3589
# 2 23.6300 62.6324 33.2011 -29.1837 -0.1187 -3.8025
# 3 36.2977 33.2011 60.8945 -40.3970 3.7915 -3.0301
# 4 -35.3485 -29.1837 -40.3970 47.1267 -1.5048 -0.4827
# 5 10.5791 -0.1187 3.7915 -1.5048 34.7638 -13.9759
# 6 -3.3589 -3.8025 -3.0301 -0.4827 -13.9759 28.0806
#
#
#
# Elastic Compliance Matrix: (Units=1/GPa)
#
#
# Indices 1 2 3 4 5 6 
#
# 1 0.010182 -0.000109 -0.002067 0.005707 -0.002741 -0.000286
# 2 -0.000109 0.024227 -0.007267 0.008828 0.002938 0.004097
# 3 -0.002067 -0.007267 0.041340 0.029372 -0.001415 0.003030
# 4 0.005707 0.008828 0.029372 0.056203 -0.000075 0.005976
# 5 -0.002741 0.002938 -0.001415 -0.000075 0.037163 0.018412
# 6 -0.000286 0.004097 0.003030 0.005976 0.018412 0.045726
#
#
# Mechanical properties :
#
#
# Convention : Reuss Voigt Hill
#
# Bulk Modulus (GPa) = 17.58613 48.68730 33.13671
# Shear Modulus (GPa) = 19.78764 32.58084 26.18424
#
# Velocity S-wave (km/s) = 3.12445 4.00920 3.59415
# Velocity P-wave (km/s) = 4.65750 6.74176 5.79412
#
# Compressibility (1/GPa) = 0.05686300
#
# Stress axis : x y z
#
# Youngs Moduli (GPa) = 98.21120 41.27613 24.18944
#
# Poissons Ratio (x) = 0.00449 0.05000
# Poissons Ratio (y) = 0.01069 0.17579
# Poissons Ratio (z) = 0.20302 0.29996
#
# Static dielectric constant tensor:
#      x y z
#    x 3.900990 -0.039520 0.006810 
#    y -0.039520 3.669510 -0.170620 
#    z 0.006810 -0.170620 3.689520 
# 
# 
# High freq. dielectric constant tensor:
#      x y z
#    x 1.810710 -0.003980 -0.002880 
#    y -0.003980 1.789780 -0.014650 
#    z -0.002880 -0.014650 1.797270 
# 
# From -- ./inp_files/219703.got.cif
#   From: 2010.06.25/outbox.cif.g09.slc.cpg/sg2_110_cif.got.tgz:219703.got - 2010.06.27 13:26:56.
