data_PCOD8010053
_publ_section_title
;
Structure prediction by ZEFSAII (Michael W. Deem and Ramdas Pophale) SiO2 
 PCOD8010053
Probable space group: P -1
;
_chemical_formula_sum "Si O2"
_cell_formula_units_Z 14
_cell_length_a 10.350170
_cell_length_b 13.157377
_cell_length_c 10.293229
_cell_angle_alpha 66.083964
_cell_angle_beta 52.774703
_cell_angle_gamma 34.028223
_cell_volume 609.945639
_symmetry_space_group_name_H-M "P -1"
_symmetry_group_IT_number 2
_symmetry_cell_setting 'triclinic'
loop_
_space_group_symop_operation_xyz
x,y,z
-x,-y,-z
loop_
_atom_site_type_symbol
_atom_site_label
_atom_site_fract_x
_atom_site_fract_y
_atom_site_fract_z
Si Si1 0.439778 0.644734 0.859818
Si Si2 0.240998 0.069323 0.146881
Si Si3 0.563223 0.799704 0.312145
Si Si4 0.751101 0.040221 0.327440
Si Si5 0.640798 0.320081 0.831602
Si Si6 0.681891 0.494372 0.325303
Si Si7 0.881214 0.844349 0.097673
O O1 0.370771 0.773282 0.729507
O O2 0.676370 0.435926 0.767585
O O3 0.480657 0.671051 0.966925
O O4 0.199830 0.684424 0.007840
O O5 0.987123 0.281916 0.240408
O O6 0.328483 0.932128 0.274411
O O7 0.180384 0.049743 0.051765
O O8 0.500000 0.000000 0.000000
O O9 0.427750 0.909677 0.473575
O O10 0.683710 0.608817 0.345835
O O11 0.802862 0.758130 0.165487
O O12 0.722406 0.979690 0.248557
O O13 0.056865 0.890389 0.270332
O O14 0.436298 0.407413 0.794007
O O15 0.500000 0.500000 0.500000
#
# Coordination Sequence:
#
# PCOD8010053 Si02
#       7
#     2   2   2   2   2   2   2
#     4  10  21  40  65  95 127 167 227 274 319 390
#     4  10  24  45  66  99 134 175 226 269 332 408
#     4  11  26  41  67  95 140 176 211 274 345 386
#     4  11  23  41  67  97 132 173 223 273 330 394
#     4  10  21  37  64  95 126 169 220 271 326 383
#     4  12  25  42  68 100 140 172 225 278 336 400
#     4  10  21  43  66  93 131 171 225 268 323 400
#
# _framework density 22.952864999999999
#
# number of rings (size 3 to 8) (size 9 to 14) (size 15 to 20)
#    0.000    1.429    1.429    3.857    4.000    3.429 
#    0.000    4.286    0.000   16.286    0.000    0.000 
#    0.000    0.000    0.000    0.000    0.000    0.000 
#
# Total GULP energy -173457.328099 kJ/mol
# GULP energy per Si atom -12389.809150 kJ/mol
# Density = 2.290062 g / cm^3
# Si number density = 22.952865 Si / 1000 Ang^3
#
#
#
# Elastic Constant Matrix: (Units=GPa)
#
#
# Indices 1 2 3 4 5 6 
#
# 1 73.6434 13.5738 28.9345 -5.7425 8.8555 7.2277
# 2 13.5738 107.7246 32.4083 -8.2904 1.2353 -3.2859
# 3 28.9345 32.4083 107.2902 -3.1091 13.1354 -0.5946
# 4 -5.7425 -8.2904 -3.1091 33.1146 4.5506 2.0603
# 5 8.8555 1.2353 13.1354 4.5506 36.0731 -2.3988
# 6 7.2277 -3.2859 -0.5946 2.0603 -2.3988 31.9731
#
#
#
# Elastic Compliance Matrix: (Units=1/GPa)
#
#
# Indices 1 2 3 4 5 6 
#
# 1 0.016211 -0.000803 -0.003665 0.002981 -0.003276 -0.004253
# 2 -0.000803 0.010459 -0.002968 0.002029 0.000739 0.001126
# 3 -0.003665 -0.002968 0.011604 0.000121 -0.003207 0.000491
# 4 0.002981 0.002029 0.000121 0.032115 -0.005090 -0.002914
# 5 -0.003276 0.000739 -0.003207 -0.005090 0.030535 0.003376
# 6 -0.004253 0.001126 0.000491 -0.002914 0.003376 0.032804
#
#
# Mechanical properties :
#
#
# Convention : Reuss Voigt Hill
#
# Bulk Modulus (GPa) = 42.73194 48.72129 45.72661
# Shear Modulus (GPa) = 31.96904 34.48159 33.22531
#
# Velocity S-wave (km/s) = 3.73609 3.88013 3.80879
# Velocity P-wave (km/s) = 6.10482 6.43013 6.26959
#
# Compressibility (1/GPa) = 0.02340170
#
# Stress axis : x y z
#
# Youngs Moduli (GPa) = 61.68696 95.61080 86.17398
#
# Poissons Ratio (x) = 0.07674 0.31587
# Poissons Ratio (y) = 0.04951 0.25578
# Poissons Ratio (z) = 0.22611 0.28379
#
# Static dielectric constant tensor:
#      x y z
#    x 4.281840 -0.287160 0.476190 
#    y -0.287160 4.370420 -0.162210 
#    z 0.476190 -0.162210 4.085640 
# 
# 
# High freq. dielectric constant tensor:
#      x y z
#    x 1.896090 -0.004420 0.029050 
#    y -0.004420 1.916340 -0.008700 
#    z 0.029050 -0.008700 1.899930 
# 
# From -- ./inp_files/431163.got.cif
#   From: 2010.06.25/outbox.cif.g09.slc.cpg/sg2_216_cif.got.tgz:431163.got - 2010.06.27 13:26:56.
