data_PCOD8010359
_publ_section_title
;
Structure prediction by ZEFSAII (Michael W. Deem and Ramdas Pophale) SiO2 
 PCOD8010359
Probable space group: P -1
;
_chemical_formula_sum "Si O2"
_cell_formula_units_Z 16
_cell_length_a 8.712085
_cell_length_b 8.428421
_cell_length_c 22.080307
_cell_angle_alpha 119.914496
_cell_angle_beta 146.639312
_cell_angle_gamma 68.694494
_cell_volume 767.973402
_symmetry_space_group_name_H-M "P -1"
_symmetry_group_IT_number 2
_symmetry_cell_setting 'triclinic'
loop_
_space_group_symop_operation_xyz
x,y,z
-x,-y,-z
loop_
_atom_site_type_symbol
_atom_site_label
_atom_site_fract_x
_atom_site_fract_y
_atom_site_fract_z
Si Si1 0.452141 0.475498 0.362854
Si Si2 0.490429 0.328265 0.707517
Si Si3 0.951161 0.066579 0.783109
Si Si4 0.329281 0.477551 0.797761
Si Si5 0.562176 0.704071 0.083206
Si Si6 0.862978 0.224812 0.130694
Si Si7 0.513872 0.849210 0.526480
Si Si8 0.897543 0.281945 0.541569
O O1 0.499184 0.545435 0.323862
O O2 0.469927 0.645201 0.447119
O O3 0.698810 0.354294 0.438586
O O4 0.153956 0.353418 0.244428
O O5 0.546995 0.465262 0.810823
O O6 0.175311 0.215308 0.588479
O O7 0.713946 0.183169 0.752845
O O8 0.817862 0.892187 0.666249
O O9 0.106920 0.979027 0.873489
O O10 0.152801 0.198586 0.832611
O O11 0.394434 0.311075 0.833298
O O12 0.346576 0.674848 0.874530
O O13 0.014490 0.439965 0.658909
O O14 0.500000 0.500000 0.000000
O O15 0.294572 0.806032 0.992388
O O16 0.281820 0.873751 0.506743
O O17 0.500000 0.000000 0.500000
#
# Coordination Sequence:
#
# PCOD8010359 Si02
#       8
#     2   2   2   2   2   2   2   2
#     4  12  20  41  59  96 124 169 205 243 315 365
#     4  10  23  38  60  89 136 159 201 250 316 372
#     4  12  23  41  61  99 120 161 211 255 311 360
#     4   9  20  41  62  89 121 167 200 248 310 359
#     4  10  22  43  69  88 119 163 216 259 301 364
#     4  11  22  41  69  88 122 163 214 258 293 372
#     4  12  22  36  64  92 128 159 207 253 298 377
#     4  10  21  38  59  88 129 162 195 249 303 377
#
# _framework density 20.834057000000001
#
# number of rings (size 3 to 8) (size 9 to 14) (size 15 to 20)
#    0.750    0.500    3.750    4.125    0.000    0.500 
#    0.000    7.500    0.000    0.000    0.000    0.000 
#    0.000    0.000    0.000    0.000    0.000    0.000 
#
# Total GULP energy -198212.797615 kJ/mol
# GULP energy per Si atom -12388.299851 kJ/mol
# Density = 2.078664 g / cm^3
# Si number density = 20.834057 Si / 1000 Ang^3
#
#
#
# Elastic Constant Matrix: (Units=GPa)
#
#
# Indices 1 2 3 4 5 6 
#
# 1 117.9809 64.8054 42.2141 -12.3953 -2.6305 19.1611
# 2 64.8054 103.2766 22.2743 -29.3646 4.5614 18.3847
# 3 42.2141 22.2743 67.1590 -12.5436 2.5030 -5.1844
# 4 -12.3953 -29.3646 -12.5436 46.2961 10.3152 0.3792
# 5 -2.6305 4.5614 2.5030 10.3152 18.5852 -5.5739
# 6 19.1611 18.3847 -5.1844 0.3792 -5.5739 30.6644
#
#
#
# Elastic Compliance Matrix: (Units=1/GPa)
#
#
# Indices 1 2 3 4 5 6 
#
# 1 0.018090 -0.010518 -0.009766 -0.006316 0.008453 -0.005034
# 2 -0.010518 0.023777 0.001885 0.017476 -0.020679 -0.011339
# 3 -0.009766 0.001885 0.022302 0.005857 -0.005816 0.007613
# 4 -0.006316 0.017476 0.005857 0.039704 -0.031536 -0.011764
# 5 0.008453 -0.020679 -0.005816 -0.031536 0.084952 0.021964
# 6 -0.005034 -0.011339 0.007613 -0.011764 0.021964 0.047980
#
#
# Mechanical properties :
#
#
# Convention : Reuss Voigt Hill
#
# Bulk Modulus (GPa) = 36.53536 60.77822 48.65679
# Shear Modulus (GPa) = 17.68490 29.71733 23.70112
#
# Velocity S-wave (km/s) = 2.91666 3.78084 3.37651
# Velocity P-wave (km/s) = 5.37745 6.94950 6.21339
#
# Compressibility (1/GPa) = 0.02737075
#
# Stress axis : x y z
#
# Youngs Moduli (GPa) = 55.27846 42.05705 44.83953
#
# Poissons Ratio (x) = 0.44237 0.43789
# Poissons Ratio (y) = 0.58144 -0.08452
# Poissons Ratio (z) = 0.53984 -0.07927
#
# Static dielectric constant tensor:
#      x y z
#    x 3.747570 0.356120 -0.163410 
#    y 0.356120 3.809040 -0.325170 
#    z -0.163410 -0.325170 4.195520 
# 
# 
# High freq. dielectric constant tensor:
#      x y z
#    x 1.802670 0.027110 0.000930 
#    y 0.027110 1.807810 -0.015530 
#    z 0.000930 -0.015530 1.822660 
# 
# From -- ./inp_files/267456.got.cif
#   From: 2010.06.25/outbox.cif.g09.slc.cpg/sg2_134_cif.got.tgz:267456.got - 2010.06.27 13:26:56.
