data_PCOD8010125
_publ_section_title
;
Structure prediction by ZEFSAII (Michael W. Deem and Ramdas Pophale) SiO2 
 PCOD8010125
Probable space group: P -1
;
_chemical_formula_sum "Si O2"
_cell_formula_units_Z 14
_cell_length_a 15.528188
_cell_length_b 9.809551
_cell_length_c 17.057413
_cell_angle_alpha 32.261542
_cell_angle_beta 27.999557
_cell_angle_gamma 36.404079
_cell_volume 633.297058
_symmetry_space_group_name_H-M "P -1"
_symmetry_group_IT_number 2
_symmetry_cell_setting 'triclinic'
loop_
_space_group_symop_operation_xyz
x,y,z
-x,-y,-z
loop_
_atom_site_type_symbol
_atom_site_label
_atom_site_fract_x
_atom_site_fract_y
_atom_site_fract_z
Si Si1 0.943524 0.403612 0.009597
Si Si2 0.709894 0.847203 0.255176
Si Si3 0.946823 0.660493 0.542449
Si Si4 0.295973 0.959890 0.551479
Si Si5 0.296467 0.401776 0.459670
Si Si6 0.596687 0.698530 0.056955
Si Si7 0.346364 0.553594 0.029063
O O1 0.826646 0.183528 0.225413
O O2 0.807087 0.632512 0.957094
O O3 0.000000 0.500000 0.000000
O O4 0.140037 0.300418 0.856739
O O5 0.499614 0.792940 0.438389
O O6 0.777280 0.742797 0.338143
O O7 0.697739 0.154539 0.110719
O O8 0.845205 0.491585 0.761170
O O9 0.000000 0.500000 0.500000
O O10 0.139142 0.663288 0.433093
O O11 0.821924 0.945285 0.480073
O O12 0.341844 0.199714 0.448510
O O13 0.479725 0.506016 0.285855
O O14 0.590701 0.651435 0.991846
O O15 0.500000 0.000000 0.000000
O O16 0.500000 0.500000 0.000000
#
# Coordination Sequence:
#
# PCOD8010125 Si02
#       7
#     2   2   2   2   2   2   2
#     4  12  30  48  71 109 150 196 242 301 375 432
#     4  12  23  45  77 102 140 187 249 301 353 430
#     4  10  21  37  66 106 140 180 235 300 358 419
#     4  11  22  45  74 105 142 186 245 305 354 433
#     4  11  22  45  72 105 140 186 247 303 361 428
#     4  12  28  48  72 107 156 190 235 308 373 435
#     4  12  23  43  76 112 139 190 249 300 363 428
#
# _framework density 22.106528000000001
#
# number of rings (size 3 to 8) (size 9 to 14) (size 15 to 20)
#    0.000    0.571    4.286    4.714    4.000    2.286 
#    2.571    1.429    0.000    0.000    0.000    0.000 
#    0.000    0.000    0.000    0.000    0.000    0.000 
#
# Total GULP energy -173542.825079 kJ/mol
# GULP energy per Si atom -12395.916077 kJ/mol
# Density = 2.205621 g / cm^3
# Si number density = 22.106528 Si / 1000 Ang^3
#
#
#
# Elastic Constant Matrix: (Units=GPa)
#
#
# Indices 1 2 3 4 5 6 
#
# 1 149.9274 72.2855 30.2174 17.0736 9.7586 -19.1858
# 2 72.2855 133.6210 55.3152 20.3155 6.6307 -8.7404
# 3 30.2174 55.3152 129.5373 27.2063 14.0680 -2.7084
# 4 17.0736 20.3155 27.2063 39.4853 -6.2572 -3.0701
# 5 9.7586 6.6307 14.0680 -6.2572 38.6518 1.8547
# 6 -19.1858 -8.7404 -2.7084 -3.0701 1.8547 44.2488
#
#
#
# Elastic Compliance Matrix: (Units=1/GPa)
#
#
# Indices 1 2 3 4 5 6 
#
# 1 0.009698 -0.004822 0.000591 -0.002241 -0.002354 0.003232
# 2 -0.004822 0.011799 -0.003646 -0.001434 0.000293 -0.000095
# 3 0.000591 -0.003646 0.011056 -0.006737 -0.004635 -0.000060
# 4 -0.002241 -0.001434 -0.006737 0.033059 0.008603 0.000266
# 5 -0.002354 0.000293 -0.004635 0.008603 0.029587 -0.001890
# 6 0.003232 -0.000095 -0.000060 0.000266 -0.001890 0.024076
#
#
# Mechanical properties :
#
#
# Convention : Reuss Voigt Hill
#
# Bulk Modulus (GPa) = 59.52962 80.96912 70.24937
# Shear Modulus (GPa) = 35.55493 41.49501 38.52497
#
# Velocity S-wave (km/s) = 4.01477 4.33719 4.17909
# Velocity P-wave (km/s) = 6.96262 7.86053 7.42516
#
# Compressibility (1/GPa) = 0.01679836
#
# Stress axis : x y z
#
# Youngs Moduli (GPa) = 103.11857 84.75264 90.44900
#
# Poissons Ratio (x) = 0.40865 -0.05344
# Poissons Ratio (y) = 0.49721 0.32979
# Poissons Ratio (z) = -0.06092 0.30902
#
# Static dielectric constant tensor:
#      x y z
#    x 4.395070 -0.640880 0.109220 
#    y -0.640880 4.106330 0.122040 
#    z 0.109220 0.122040 4.387980 
# 
# 
# High freq. dielectric constant tensor:
#      x y z
#    x 1.876760 -0.032880 0.006520 
#    y -0.032880 1.850670 0.014230 
#    z 0.006520 0.014230 1.887990 
# 
# From -- ./inp_files/529255.got.cif
#   From: 2010.06.25/outbox.cif.g09.slc.cpg/sg2_265_cif.got.tgz:529255.got - 2010.06.27 13:26:56.
