data_PCOD8010687
_publ_section_title
;
Structure prediction by ZEFSAII (Michael W. Deem and Ramdas Pophale) SiO2 
 PCOD8010687
Probable space group: P -1
;
_chemical_formula_sum "Si O2"
_cell_formula_units_Z 16
_cell_length_a 7.503713
_cell_length_b 11.096927
_cell_length_c 12.803790
_cell_angle_alpha 50.576980
_cell_angle_beta 83.205182
_cell_angle_gamma 68.236561
_cell_volume 754.608645
_symmetry_space_group_name_H-M "P -1"
_symmetry_group_IT_number 2
_symmetry_cell_setting 'triclinic'
loop_
_space_group_symop_operation_xyz
x,y,z
-x,-y,-z
loop_
_atom_site_type_symbol
_atom_site_label
_atom_site_fract_x
_atom_site_fract_y
_atom_site_fract_z
Si Si1 0.309407 0.309893 0.575714
Si Si2 0.632496 0.362386 0.194257
Si Si3 0.040129 0.810035 0.571866
Si Si4 0.370468 0.061744 0.873991
Si Si5 0.119379 0.683226 0.414483
Si Si6 0.952028 0.189465 0.869442
Si Si7 0.659852 0.279368 0.009905
Si Si8 0.377070 0.197461 0.406884
O O1 0.288609 0.495708 0.511631
O O2 0.409187 0.264571 0.480961
O O3 0.094906 0.313418 0.579664
O O4 0.443699 0.165961 0.727384
O O5 0.798528 0.315094 0.294940
O O6 0.731711 0.281292 0.122140
O O7 0.461613 0.293674 0.265958
O O8 0.544948 0.565535 0.079463
O O9 0.128719 0.783361 0.463183
O O10 0.848759 0.766175 0.619714
O O11 0.000000 0.000000 0.500000
O O12 0.357950 0.899196 0.908264
O O13 0.161050 0.204057 0.844685
O O14 0.500000 0.000000 0.000000
O O15 0.154875 0.770386 0.258140
O O16 0.813241 0.307153 0.903454
O O17 0.000000 0.000000 0.000000
O O18 0.500000 0.000000 0.500000
#
# Coordination Sequence:
#
# PCOD8010687 Si02
#       8
#     2   2   2   2   2   2   2   2
#     4   9  19  36  62  90 126 163 206 273 326 374
#     4  11  24  44  65  91 131 175 215 273 315 388
#     4  11  24  40  68  97 127 168 217 270 326 398
#     4  10  21  38  62  93 125 166 211 265 323 394
#     4   9  19  37  62  94 121 160 216 267 323 381
#     4   9  19  38  63  82 123 171 203 259 319 380
#     4  10  23  44  61  88 132 172 217 262 328 380
#     4  11  21  41  65  94 130 170 213 265 333 383
#
# _framework density 21.203042
#
# number of rings (size 3 to 8) (size 9 to 14) (size 15 to 20)
#    0.000    2.000    1.250    1.500    7.000    1.000 
#    9.000    2.500    0.000    0.000    0.000    0.000 
#    0.000    0.000    0.000    0.000    0.000    0.000 
#
# Total GULP energy -198321.448175 kJ/mol
# GULP energy per Si atom -12395.090511 kJ/mol
# Density = 2.115478 g / cm^3
# Si number density = 21.203042 Si / 1000 Ang^3
#
#
#
# Elastic Constant Matrix: (Units=GPa)
#
#
# Indices 1 2 3 4 5 6 
#
# 1 69.9627 23.9381 36.4853 14.5637 14.9484 -2.7921
# 2 23.9381 159.4213 68.9422 21.2953 7.1640 -2.2951
# 3 36.4853 68.9422 161.7708 18.9780 18.7829 0.6446
# 4 14.5637 21.2953 18.9780 48.9818 0.6257 -4.1203
# 5 14.9484 7.1640 18.7829 0.6257 33.8868 2.4254
# 6 -2.7921 -2.2951 0.6446 -4.1203 2.4254 18.9124
#
#
#
# Elastic Compliance Matrix: (Units=1/GPa)
#
#
# Indices 1 2 3 4 5 6 
#
# 1 0.018197 -0.000781 -0.002580 -0.003761 -0.006556 0.002701
# 2 -0.000781 0.007957 -0.003019 -0.002022 0.000339 0.000469
# 3 -0.002580 -0.003019 0.008535 -0.001271 -0.002863 -0.000948
# 4 -0.003761 -0.002022 -0.001271 0.023218 0.002073 0.004035
# 5 -0.006556 0.000339 -0.002863 0.002073 0.034220 -0.004766
# 6 0.002701 0.000469 -0.000948 0.004035 -0.004766 0.054854
#
#
# Mechanical properties :
#
#
# Convention : Reuss Voigt Hill
#
# Bulk Modulus (GPa) = 45.59883 72.20957 58.90420
# Shear Modulus (GPa) = 29.93081 37.80879 33.86980
#
# Velocity S-wave (km/s) = 3.76124 4.22735 4.00109
# Velocity P-wave (km/s) = 6.35728 7.61298 7.01329
#
# Compressibility (1/GPa) = 0.02193039
#
# Stress axis : x y z
#
# Youngs Moduli (GPa) = 54.95330 125.67243 117.16017
#
# Poissons Ratio (x) = 0.09815 0.30224
# Poissons Ratio (y) = 0.04292 0.35371
# Poissons Ratio (z) = 0.14176 0.37941
#
# Static dielectric constant tensor:
#      x y z
#    x 4.035010 -0.516750 -0.310050 
#    y -0.516750 4.466110 0.315840 
#    z -0.310050 0.315840 4.373740 
# 
# 
# High freq. dielectric constant tensor:
#      x y z
#    x 1.800890 -0.013860 0.001770 
#    y -0.013860 1.843070 0.003390 
#    z 0.001770 0.003390 1.848610 
# 
# From -- ./inp_files/392067.got.cif
#   From: 2010.06.25/outbox.cif.g09.slc.cpg/sg2_197_cif.got.tgz:392067.got - 2010.06.27 13:26:56.
