data_PCOD8010130
_publ_section_title
;
Structure prediction by ZEFSAII (Michael W. Deem and Ramdas Pophale) SiO2 
 PCOD8010130
Probable space group: P -1
;
_chemical_formula_sum "Si O2"
_cell_formula_units_Z 16
_cell_length_a 11.783231
_cell_length_b 15.468585
_cell_length_c 7.576483
_cell_angle_alpha 83.442696
_cell_angle_beta 105.934545
_cell_angle_gamma 151.215086
_cell_volume 615.121397
_symmetry_space_group_name_H-M "P -1"
_symmetry_group_IT_number 2
_symmetry_cell_setting 'triclinic'
loop_
_space_group_symop_operation_xyz
x,y,z
-x,-y,-z
loop_
_atom_site_type_symbol
_atom_site_label
_atom_site_fract_x
_atom_site_fract_y
_atom_site_fract_z
Si Si1 0.039118 0.051943 0.237180
Si Si2 0.196850 0.396455 0.947748
Si Si3 0.388393 0.011171 0.778644
Si Si4 0.754613 0.995358 0.915377
Si Si5 0.742640 0.259788 0.322177
Si Si6 0.087484 0.623960 0.246237
Si Si7 0.988540 0.125964 0.523862
Si Si8 0.489861 0.461569 0.268649
O O1 0.902877 0.002630 0.363627
O O2 0.323213 0.274896 0.320545
O O3 0.874588 0.976719 0.011093
O O4 0.032624 0.941791 0.281813
O O5 0.413028 0.519902 0.871130
O O6 0.125839 0.451978 0.912649
O O7 0.310211 0.429764 0.169725
O O8 0.945090 0.178421 0.837361
O O9 0.275965 0.975922 0.917275
O O10 0.365916 0.891698 0.801363
O O11 0.217712 0.931858 0.558052
O O12 0.678007 0.229395 0.821494
O O13 0.483990 0.815818 0.743229
O O14 0.827445 0.284645 0.546686
O O15 0.972746 0.452914 0.266021
O O16 0.269880 0.350490 0.556195
#
# Coordination Sequence:
#
# PCOD8010130 Si02
#       8
#     2   2   2   2   2   2   2   2
#     4   9  21  40  59  96 121 155 208 252 299 367
#     4  10  22  41  60  90 124 158 208 249 302 367
#     4  11  23  42  64  93 126 164 203 253 307 368
#     4  10  22  42  65  90 128 161 205 257 307 361
#     4  11  24  40  63  91 126 163 204 254 304 366
#     4  11  25  41  62  94 124 163 207 251 310 367
#     4  10  21  37  66  89 123 163 199 249 309 359
#     4  10  21  39  62  88 123 162 200 254 303 357
#
# _framework density 26.011126000000001
#
# number of rings (size 3 to 8) (size 9 to 14) (size 15 to 20)
#    0.000    1.750    1.250    1.875    3.500    3.500 
#    0.000    4.375    0.000    0.000    0.000    0.000 
#    0.000    0.000    0.000    0.000    0.000    0.000 
#
# Total GULP energy -198375.030988 kJ/mol
# GULP energy per Si atom -12398.439437 kJ/mol
# Density = 2.595192 g / cm^3
# Si number density = 26.011126 Si / 1000 Ang^3
#
#
#
# Elastic Constant Matrix: (Units=GPa)
#
#
# Indices 1 2 3 4 5 6 
#
# 1 88.3959 28.6480 19.0396 -5.1285 39.9653 0.7354
# 2 28.6480 135.1312 18.5216 -10.3867 17.0594 5.7619
# 3 19.0396 18.5216 57.1844 3.5182 32.7755 0.2344
# 4 -5.1285 -10.3867 3.5182 33.7698 2.2590 7.7097
# 5 39.9653 17.0594 32.7755 2.2590 41.3954 6.9047
# 6 0.7354 5.7619 0.2344 7.7097 6.9047 29.6400
#
#
#
# Elastic Compliance Matrix: (Units=1/GPa)
#
#
# Indices 1 2 3 4 5 6 
#
# 1 0.024835 -0.002761 0.011500 0.002359 -0.033234 0.006958
# 2 -0.002761 0.008523 -0.003120 0.003038 0.001925 -0.002803
# 3 0.011500 -0.003120 0.039099 -0.002879 -0.042391 0.010636
# 4 0.002359 0.003038 -0.002879 0.033350 -0.001580 -0.008933
# 5 -0.033234 0.001925 -0.042391 -0.001580 0.092494 -0.020350
# 6 0.006958 -0.002803 0.010636 -0.008933 -0.020350 0.041090
#
#
# Mechanical properties :
#
#
# Convention : Reuss Voigt Hill
#
# Bulk Modulus (GPa) = 11.94825 45.90333 28.92579
# Shear Modulus (GPa) = 19.52720 35.26118 27.39419
#
# Velocity S-wave (km/s) = 2.74291 3.68587 3.24878
# Velocity P-wave (km/s) = 3.82556 5.98331 5.02170
#
# Compressibility (1/GPa) = 0.08369424
#
# Stress axis : x y z
#
# Youngs Moduli (GPa) = 40.26560 117.32654 25.57598
#
# Poissons Ratio (x) = 0.32395 -0.29412
# Poissons Ratio (y) = 0.11118 0.07981
# Poissons Ratio (z) = -0.46305 0.36610
#
# Static dielectric constant tensor:
#      x y z
#    x 4.753520 0.138900 0.503400 
#    y 0.138900 4.578450 -0.204560 
#    z 0.503400 -0.204560 4.909150 
# 
# 
# High freq. dielectric constant tensor:
#      x y z
#    x 2.040830 0.009530 0.011070 
#    y 0.009530 2.039720 -0.013940 
#    z 0.011070 -0.013940 2.049640 
# 
# From -- ./inp_files/272961.got.cif
#   From: 2010.06.25/outbox.cif.g09.slc.cpg/sg2_137_cif.got.tgz:272961.got - 2010.06.27 13:26:56.
