data_PCOD8010065
_publ_section_title
;
Structure prediction by ZEFSAII (Michael W. Deem and Ramdas Pophale) SiO2 
 PCOD8010065
Probable space group: P -1
;
_chemical_formula_sum "Si O2"
_cell_formula_units_Z 16
_cell_length_a 7.996385
_cell_length_b 12.121870
_cell_length_c 16.170958
_cell_angle_alpha 44.481902
_cell_angle_beta 120.350552
_cell_angle_gamma 88.045778
_cell_volume 718.117329
_symmetry_space_group_name_H-M "P -1"
_symmetry_group_IT_number 2
_symmetry_cell_setting 'triclinic'
loop_
_space_group_symop_operation_xyz
x,y,z
-x,-y,-z
loop_
_atom_site_type_symbol
_atom_site_label
_atom_site_fract_x
_atom_site_fract_y
_atom_site_fract_z
Si Si1 0.244395 0.817889 0.818237
Si Si2 0.228364 0.376499 0.558494
Si Si3 0.936643 0.281813 0.451548
Si Si4 0.060505 0.618754 0.164423
Si Si5 0.339797 0.009180 0.027202
Si Si6 0.187664 0.558849 0.839948
Si Si7 0.046590 0.924390 0.891454
Si Si8 0.370979 0.624846 0.511061
O O1 0.109371 0.731267 0.795916
O O2 0.222196 0.837456 0.901011
O O3 0.119357 0.034388 0.628317
O O4 0.540861 0.661354 0.950997
O O5 0.111432 0.348690 0.464658
O O6 0.327241 0.502940 0.500246
O O7 0.000000 0.500000 0.500000
O O8 0.468035 0.147011 0.770598
O O9 0.786286 0.370199 0.280783
O O10 0.736119 0.374788 0.426929
O O11 0.336162 0.486014 0.345976
O O12 0.850793 0.758394 0.109009
O O13 0.026737 0.463024 0.200896
O O14 0.011621 0.766084 0.998614
O O15 0.181874 0.944497 0.989234
O O16 0.500000 0.000000 0.000000
O O17 0.772212 0.146561 0.682783
#
# Coordination Sequence:
#
# PCOD8010065 Si02
#       8
#     2   2   2   2   2   2   2   2
#     4  10  23  46  67  92 124 169 228 268 322 372
#     4  10  21  37  64  97 126 170 214 248 321 390
#     4  10  21  42  66  95 129 166 220 272 316 375
#     4  12  26  41  62 100 134 167 217 259 334 389
#     4  12  24  41  64  94 132 173 211 267 319 386
#     4  11  24  40  70  96 122 172 220 275 318 381
#     4  11  24  44  63  90 140 172 207 270 319 385
#     4  10  23  41  63  96 133 177 208 258 328 390
#
# _framework density 22.280483
#
# number of rings (size 3 to 8) (size 9 to 14) (size 15 to 20)
#    0.000    1.250    1.250    5.250    7.000    3.000 
#    0.000    2.500    0.000    0.000    0.000    0.000 
#    0.000    0.000    0.000    0.000    0.000    0.000 
#
# Total GULP energy -198467.186280 kJ/mol
# GULP energy per Si atom -12404.199143 kJ/mol
# Density = 2.222977 g / cm^3
# Si number density = 22.280483 Si / 1000 Ang^3
#
#
#
# Elastic Constant Matrix: (Units=GPa)
#
#
# Indices 1 2 3 4 5 6 
#
# 1 58.7933 7.1344 19.8934 -3.2658 9.3231 23.5317
# 2 7.1344 106.8410 19.4401 -6.1943 14.9875 25.1022
# 3 19.8934 19.4401 89.9707 -2.3190 19.8388 4.4924
# 4 -3.2658 -6.1943 -2.3190 33.9938 -0.3831 -1.7893
# 5 9.3231 14.9875 19.8388 -0.3831 36.1470 1.3395
# 6 23.5317 25.1022 4.4924 -1.7893 1.3395 32.3676
#
#
#
# Elastic Compliance Matrix: (Units=1/GPa)
#
#
# Indices 1 2 3 4 5 6 
#
# 1 0.028813 0.005669 -0.004978 0.002114 -0.006128 -0.024283
# 2 0.005669 0.013538 -0.002260 0.002062 -0.005295 -0.013974
# 3 -0.004978 -0.002260 0.013725 0.000180 -0.005447 0.003702
# 4 0.002114 0.002062 0.000180 0.029919 -0.001128 -0.001461
# 5 -0.006128 -0.005295 -0.005447 -0.001128 0.034128 0.007843
# 6 -0.024283 -0.013974 0.003702 -0.001461 0.007843 0.058467
#
#
# Mechanical properties :
#
#
# Convention : Reuss Voigt Hill
#
# Bulk Modulus (GPa) = 18.88983 38.72674 28.80829
# Shear Modulus (GPa) = 25.07865 34.44416 29.76141
#
# Velocity S-wave (km/s) = 3.35862 3.93610 3.65877
# Velocity P-wave (km/s) = 4.85150 6.17061 5.55038
#
# Compressibility (1/GPa) = 0.05293854
#
# Stress axis : x y z
#
# Youngs Moduli (GPa) = 34.70607 73.86686 72.86238
#
# Poissons Ratio (x) = -0.41876 0.36268
# Poissons Ratio (y) = -0.19675 0.16468
# Poissons Ratio (z) = 0.17275 0.16695
#
# Static dielectric constant tensor:
#      x y z
#    x 3.891830 0.180270 0.031370 
#    y 0.180270 4.257010 -0.043950 
#    z 0.031370 -0.043950 4.152340 
# 
# 
# High freq. dielectric constant tensor:
#      x y z
#    x 1.868400 0.008780 -0.002100 
#    y 0.008780 1.873180 -0.001860 
#    z -0.002100 -0.001860 1.896860 
# 
# From -- ./inp_files/519652.got.cif
#   From: 2010.06.25/outbox.cif.g09.slc.cpg/sg2_260_cif.got.tgz:519652.got - 2010.06.27 13:26:56.
