data_PCOD8010657
_publ_section_title
;
Structure prediction by ZEFSAII (Michael W. Deem and Ramdas Pophale) SiO2 
 PCOD8010657
Probable space group: P -1
;
_chemical_formula_sum "Si O2"
_cell_formula_units_Z 16
_cell_length_a 11.277930
_cell_length_b 11.148840
_cell_length_c 7.694302
_cell_angle_alpha 59.673373
_cell_angle_beta 68.678167
_cell_angle_gamma 95.268895
_cell_volume 730.847457
_symmetry_space_group_name_H-M "P -1"
_symmetry_group_IT_number 2
_symmetry_cell_setting 'triclinic'
loop_
_space_group_symop_operation_xyz
x,y,z
-x,-y,-z
loop_
_atom_site_type_symbol
_atom_site_label
_atom_site_fract_x
_atom_site_fract_y
_atom_site_fract_z
Si Si1 0.643549 0.600043 0.643073
Si Si2 0.879975 0.228072 0.513971
Si Si3 0.300444 0.067953 0.109825
Si Si4 0.335643 0.902479 0.524867
Si Si5 0.158332 0.571682 0.338793
Si Si6 0.884970 0.520595 0.927622
Si Si7 0.648603 0.609676 0.044454
Si Si8 0.616187 0.894319 0.341967
O O1 0.758232 0.534051 0.570449
O O2 0.644015 0.623628 0.830626
O O3 0.673044 0.759141 0.423562
O O4 0.498737 0.487668 0.735529
O O5 0.799721 0.229676 0.371670
O O6 0.799780 0.285425 0.664631
O O7 0.037870 0.324904 0.334655
O O8 0.853521 0.055939 0.705662
O O9 0.299386 0.232038 0.007999
O O10 0.382503 0.030121 0.255256
O O11 0.633212 0.950858 0.094266
O O12 0.458976 0.840172 0.527165
O O13 0.302568 0.971589 0.670547
O O14 0.178533 0.605772 0.094392
O O15 0.000000 0.500000 0.500000
O O16 0.761125 0.536620 0.092159
O O17 0.000000 0.500000 0.000000
#
# Coordination Sequence:
#
# PCOD8010657 Si02
#       8
#     2   2   2   2   2   2   2   2
#     4  10  21  38  62  91 126 164 208 259 320 367
#     4   9  21  40  60  85 124 165 208 257 314 365
#     4  10  22  38  59  90 124 163 209 258 310 372
#     4   9  22  39  58  92 130 162 210 254 309 382
#     4   9  20  40  63  86 123 167 203 261 312 370
#     4  10  22  39  63  89 125 167 211 261 312 378
#     4  10  22  39  59  92 128 164 206 269 314 362
#     4  11  21  38  63  91 128 168 204 262 309 380
#
# _framework density 21.892391
#
# number of rings (size 3 to 8) (size 9 to 14) (size 15 to 20)
#    0.750    1.500    1.250    0.375    3.500    4.000 
#    4.500    0.000    0.000    8.250    0.000    0.000 
#    0.000    0.000    0.000    0.000    0.000    0.000 
#
# Total GULP energy -198219.715126 kJ/mol
# GULP energy per Si atom -12388.732195 kJ/mol
# Density = 2.184256 g / cm^3
# Si number density = 21.892391 Si / 1000 Ang^3
#
#
#
# Elastic Constant Matrix: (Units=GPa)
#
#
# Indices 1 2 3 4 5 6 
#
# 1 114.3847 47.3599 13.7760 5.4998 -7.9061 -13.9073
# 2 47.3599 128.1941 21.1052 15.4160 -3.0550 10.1863
# 3 13.7760 21.1052 28.8783 13.8996 -3.2057 -0.2884
# 4 5.4998 15.4160 13.8996 29.0574 7.2267 2.0847
# 5 -7.9061 -3.0550 -3.2057 7.2267 33.9360 2.5573
# 6 -13.9073 10.1863 -0.2884 2.0847 2.5573 36.5071
#
#
#
# Elastic Compliance Matrix: (Units=1/GPa)
#
#
# Indices 1 2 3 4 5 6 
#
# 1 0.011573 -0.004342 -0.002331 0.000443 0.001579 0.005466
# 2 -0.004342 0.010845 -0.004670 -0.002466 0.000396 -0.004604
# 3 -0.002331 -0.004670 0.051818 -0.024212 0.008968 0.001579
# 4 0.000443 -0.002466 -0.024212 0.050567 -0.013076 -0.001306
# 5 0.001579 0.000396 0.008968 -0.013076 0.033581 -0.001044
# 6 0.005466 -0.004604 0.001579 -0.001306 -0.001044 0.030919
#
#
# Mechanical properties :
#
#
# Convention : Reuss Voigt Hill
#
# Bulk Modulus (GPa) = 19.39837 48.43771 33.91804
# Shear Modulus (GPa) = 21.81760 32.51448 27.16604
#
# Velocity S-wave (km/s) = 3.16030 3.85800 3.52645
# Velocity P-wave (km/s) = 4.71133 6.48221 5.66638
#
# Compressibility (1/GPa) = 0.05155073
#
# Stress axis : x y z
#
# Youngs Moduli (GPa) = 86.40602 92.20508 19.29831
#
# Poissons Ratio (x) = 0.40034 0.04499
# Poissons Ratio (y) = 0.37516 0.09012
# Poissons Ratio (z) = 0.20144 0.43059
#
# Static dielectric constant tensor:
#      x y z
#    x 3.837580 0.243050 0.029150 
#    y 0.243050 4.316310 0.271630 
#    z 0.029150 0.271630 3.812820 
# 
# 
# High freq. dielectric constant tensor:
#      x y z
#    x 1.846240 0.015150 0.004890 
#    y 0.015150 1.870580 0.010850 
#    z 0.004890 0.010850 1.841880 
# 
# From -- ./inp_files/242932.got.cif
#   From: 2010.06.25/outbox.cif.g09.slc.cpg/sg2_122_cif.got.tgz:242932.got - 2010.06.27 13:26:56.
