data_PCOD8010979
_publ_section_title
;
Structure prediction by ZEFSAII (Michael W. Deem and Ramdas Pophale) SiO2 
 PCOD8010979
Probable space group: P -1
;
_chemical_formula_sum "Si O2"
_cell_formula_units_Z 16
_cell_length_a 17.780913
_cell_length_b 5.722791
_cell_length_c 9.838034
_cell_angle_alpha 39.933347
_cell_angle_beta 89.838505
_cell_angle_gamma 87.674097
_cell_volume 641.436694
_symmetry_space_group_name_H-M "P -1"
_symmetry_group_IT_number 2
_symmetry_cell_setting 'triclinic'
loop_
_space_group_symop_operation_xyz
x,y,z
-x,-y,-z
loop_
_atom_site_type_symbol
_atom_site_label
_atom_site_fract_x
_atom_site_fract_y
_atom_site_fract_z
Si Si1 0.218607 0.241957 0.487997
Si Si2 0.707670 0.774564 0.765351
Si Si3 0.538596 0.748120 0.780640
Si Si4 0.516171 0.707074 0.246900
Si Si5 0.038651 0.530482 0.842201
Si Si6 0.794367 0.613600 0.107277
Si Si7 0.944699 0.630911 0.557197
Si Si8 0.312631 0.411223 0.651949
O O1 0.235059 0.408368 0.264212
O O2 0.140960 0.468051 0.431123
O O3 0.290744 0.329146 0.535636
O O4 0.207759 0.818248 0.695634
O O5 0.626438 0.607410 0.851478
O O6 0.689690 0.159503 0.520406
O O7 0.750354 0.787165 0.901272
O O8 0.507780 0.674871 0.656964
O O9 0.525423 0.169983 0.659182
O O10 0.500000 0.500000 0.000000
O O11 0.604008 0.740692 0.252250
O O12 0.500000 0.000000 0.000000
O O13 0.117886 0.285004 0.941694
O O14 0.976282 0.410843 0.788140
O O15 0.056397 0.936915 0.618555
O O16 0.000000 0.500000 0.000000
O O17 0.748376 0.773312 0.167498
O O18 0.000000 0.500000 0.500000
#
# Coordination Sequence:
#
# PCOD8010979 Si02
#       8
#     2   2   2   2   2   2   2   2
#     4  10  24  41  63  97 129 170 219 272 338 404
#     4  11  25  42  68  94 132 171 224 279 334 405
#     4  10  23  42  68  97 132 180 227 280 345 406
#     4  10  23  41  69  96 132 179 228 279 342 409
#     4  10  21  38  65  93 128 170 219 269 329 400
#     4  10  22  42  64  93 129 176 216 271 339 402
#     4  10  21  40  64  92 132 170 212 273 332 397
#     4  11  25  42  67  95 131 172 222 278 338 405
#
# _framework density 24.944004
#
# number of rings (size 3 to 8) (size 9 to 14) (size 15 to 20)
#    0.000    1.750    0.000    3.000    8.750    5.500 
#    0.000    0.000    0.000    0.000    0.000    0.000 
#    0.000    0.000    0.000    0.000    0.000    0.000 
#
# Total GULP energy -198240.326658 kJ/mol
# GULP energy per Si atom -12390.020416 kJ/mol
# Density = 2.488723 g / cm^3
# Si number density = 24.944004 Si / 1000 Ang^3
#
#
#
# Elastic Constant Matrix: (Units=GPa)
#
#
# Indices 1 2 3 4 5 6 
#
# 1 174.6003 19.9709 49.1960 12.6444 33.2947 -19.3502
# 2 19.9709 92.7757 28.2488 27.2888 12.0915 -3.7145
# 3 49.1960 28.2488 77.1034 35.8011 13.6182 -6.2262
# 4 12.6444 27.2888 35.8011 44.4291 5.4141 -1.1306
# 5 33.2947 12.0915 13.6182 5.4141 40.9622 10.6395
# 6 -19.3502 -3.7145 -6.2262 -1.1306 10.6395 45.9572
#
#
#
# Elastic Compliance Matrix: (Units=1/GPa)
#
#
# Indices 1 2 3 4 5 6 
#
# 1 0.008896 0.000011 -0.005319 0.002728 -0.007054 0.004726
# 2 0.000011 0.013661 -0.001007 -0.007159 -0.003157 0.001527
# 3 -0.005319 -0.001007 0.025615 -0.018265 -0.001769 0.001110
# 4 0.002728 -0.007159 -0.018265 0.040712 0.000875 -0.001106
# 5 -0.007054 -0.003157 -0.001769 0.000875 0.034521 -0.011435
# 6 0.004726 0.001527 0.001110 -0.001106 -0.011435 0.026643
#
#
# Mechanical properties :
#
#
# Convention : Reuss Voigt Hill
#
# Bulk Modulus (GPa) = 28.13572 59.92342 44.02957
# Shear Modulus (GPa) = 28.64887 42.74060 35.69474
#
# Velocity S-wave (km/s) = 3.39267 4.14389 3.78695
# Velocity P-wave (km/s) = 5.16246 6.85355 6.06721
#
# Compressibility (1/GPa) = 0.03554200
#
# Stress axis : x y z
#
# Youngs Moduli (GPa) = 112.40703 73.19956 39.03904
#
# Poissons Ratio (x) = -0.00080 0.20766
# Poissons Ratio (y) = -0.00122 0.03932
# Poissons Ratio (z) = 0.59792 0.07372
#
# Static dielectric constant tensor:
#      x y z
#    x 4.740960 -1.184150 0.094450 
#    y -1.184150 -1.051500 0.816450 
#    z 0.094450 0.816450 4.382160 
# 
# 
# High freq. dielectric constant tensor:
#      x y z
#    x 2.006450 -0.009810 0.005260 
#    y -0.009810 1.986450 0.009390 
#    z 0.005260 0.009390 2.007580 
# 
# From -- ./inp_files/107835.got.cif
#   From: 2010.06.25/outbox.cif.g09.slc.cpg/sg2_54_cif.got.tgz:107835.got - 2010.06.27 13:26:56.
