data_PCOD8010755
_publ_section_title
;
Structure prediction by ZEFSAII (Michael W. Deem and Ramdas Pophale) SiO2 
 PCOD8010755
Probable space group: P -1
;
_chemical_formula_sum "Si O2"
_cell_formula_units_Z 16
_cell_length_a 5.177547
_cell_length_b 18.741688
_cell_length_c 12.124569
_cell_angle_alpha 35.874287
_cell_angle_beta 71.027805
_cell_angle_gamma 75.570578
_cell_volume 651.781641
_symmetry_space_group_name_H-M "P -1"
_symmetry_group_IT_number 2
_symmetry_cell_setting 'triclinic'
loop_
_space_group_symop_operation_xyz
x,y,z
-x,-y,-z
loop_
_atom_site_type_symbol
_atom_site_label
_atom_site_fract_x
_atom_site_fract_y
_atom_site_fract_z
Si Si1 0.364070 0.526146 0.319007
Si Si2 0.621550 0.832530 0.735663
Si Si3 0.792440 0.192630 0.340511
Si Si4 0.512767 0.138858 0.029909
Si Si5 0.184938 0.353256 0.743749
Si Si6 0.973798 0.140991 0.809250
Si Si7 0.574486 0.414465 0.997350
Si Si8 0.432076 0.858880 0.330893
O O1 0.262798 0.405239 0.547230
O O2 0.645805 0.575056 0.273162
O O3 0.139393 0.632591 0.216620
O O4 0.382548 0.494510 0.226385
O O5 0.420986 0.890959 0.598969
O O6 0.497605 0.854596 0.845474
O O7 0.649848 0.687260 0.885364
O O8 0.929887 0.881897 0.613096
O O9 0.823904 0.328640 0.111028
O O10 0.672964 0.205716 0.462669
O O11 0.464026 0.003110 0.163290
O O12 0.264635 0.212555 0.917518
O O13 0.807558 0.192066 0.875198
O O14 0.795473 0.172323 0.688405
O O15 0.279435 0.197251 0.678354
O O16 0.000000 0.000000 0.000000
O O17 0.500000 0.500000 0.000000
#
# Coordination Sequence:
#
# PCOD8010755 Si02
#       8
#     2   2   2   2   2   2   2   2
#     4  10  21  40  60  91 126 160 206 262 319 374
#     4  10  23  40  64  94 128 162 219 260 317 380
#     4  10  23  43  62  93 130 166 217 261 313 378
#     4  11  22  40  68  96 130 171 212 267 320 383
#     4  10  21  38  63  91 125 159 206 264 315 378
#     4  10  23  41  62  95 129 171 214 261 318 375
#     4  10  23  42  65  89 125 167 209 265 321 381
#     4  11  24  42  65  94 136 171 214 261 317 386
#
# _framework density 24.548100000000002
#
# number of rings (size 3 to 8) (size 9 to 14) (size 15 to 20)
#    0.750    1.000    1.250    3.000    0.000    8.500 
#    0.000    2.500    0.000    0.000    0.000    0.000 
#    0.000    0.000    0.000    0.000    0.000    0.000 
#
# Total GULP energy -198222.161064 kJ/mol
# GULP energy per Si atom -12388.885066 kJ/mol
# Density = 2.449223 g / cm^3
# Si number density = 24.548100 Si / 1000 Ang^3
#
#
#
# Elastic Constant Matrix: (Units=GPa)
#
#
# Indices 1 2 3 4 5 6 
#
# 1 130.4887 42.9936 25.9784 23.6863 34.7405 -31.2386
# 2 42.9936 114.9603 22.6186 34.6315 9.4344 0.1662
# 3 25.9784 22.6186 94.0210 45.0322 25.7947 -9.0773
# 4 23.6863 34.6315 45.0322 51.4675 2.3421 -3.6833
# 5 34.7405 9.4344 25.7947 2.3421 33.2179 -0.6867
# 6 -31.2386 0.1662 -9.0773 -3.6833 -0.6867 30.3193
#
#
#
# Elastic Compliance Matrix: (Units=1/GPa)
#
#
# Indices 1 2 3 4 5 6 
#
# 1 0.025449 -0.003971 0.015428 -0.018934 -0.035559 0.027756
# 2 -0.003971 0.012377 0.001710 -0.008322 -0.000200 -0.004663
# 3 0.015428 0.001710 0.038124 -0.038094 -0.043090 0.021696
# 4 -0.018934 -0.008322 -0.038094 0.063361 0.046822 -0.022110
# 5 -0.035559 -0.000200 -0.043090 0.046822 0.096648 -0.041659
# 6 0.027756 -0.004663 0.021696 -0.022110 -0.041659 0.064471
#
#
# Mechanical properties :
#
#
# Convention : Reuss Voigt Hill
#
# Bulk Modulus (GPa) = 9.77674 58.07234 33.92454
# Shear Modulus (GPa) = 16.22368 39.52624 27.87496
#
# Velocity S-wave (km/s) = 2.57357 4.01703 3.37341
# Velocity P-wave (km/s) = 3.58083 6.72482 5.38728
#
# Compressibility (1/GPa) = 0.10228353
#
# Stress axis : x y z
#
# Youngs Moduli (GPa) = 39.29446 80.79256 26.23023
#
# Poissons Ratio (x) = 0.32083 -0.40467
# Poissons Ratio (y) = 0.15604 -0.04486
# Poissons Ratio (z) = -0.60622 -0.13816
#
# Static dielectric constant tensor:
#      x y z
#    x 4.605800 -0.230980 0.214090 
#    y -0.230980 4.353690 0.211090 
#    z 0.214090 0.211090 4.521820 
# 
# 
# High freq. dielectric constant tensor:
#      x y z
#    x 1.976330 -0.001180 0.020360 
#    y -0.001180 1.971880 0.014410 
#    z 0.020360 0.014410 1.976390 
# 
# From -- ./inp_files/370338.got.cif
#   From: 2010.06.25/outbox.cif.g09.slc.cpg/sg2_186_cif.got.tgz:370338.got - 2010.06.27 13:26:56.
