data_PCOD8010756
_publ_section_title
;
Structure prediction by ZEFSAII (Michael W. Deem and Ramdas Pophale) SiO2 
 PCOD8010756
Probable space group: P -1
;
_chemical_formula_sum "Si O2"
_cell_formula_units_Z 16
_cell_length_a 22.355438
_cell_length_b 5.968855
_cell_length_c 27.909388
_cell_angle_alpha 84.462429
_cell_angle_beta 169.101480
_cell_angle_gamma 95.555174
_cell_volume 700.793581
_symmetry_space_group_name_H-M "P -1"
_symmetry_group_IT_number 2
_symmetry_cell_setting 'triclinic'
loop_
_space_group_symop_operation_xyz
x,y,z
-x,-y,-z
loop_
_atom_site_type_symbol
_atom_site_label
_atom_site_fract_x
_atom_site_fract_y
_atom_site_fract_z
Si Si1 0.257715 0.397219 0.580360
Si Si2 0.634726 0.659744 0.552625
Si Si3 0.605783 0.072243 0.790554
Si Si4 0.225131 0.265774 0.237040
Si Si5 0.676733 0.072630 0.520275
Si Si6 0.851958 0.677767 0.056259
Si Si7 0.858227 0.055259 0.335698
Si Si8 0.721801 0.702662 0.155479
O O1 0.025440 0.588231 0.371475
O O2 0.377568 0.242280 0.634895
O O3 0.541808 0.531382 0.827564
O O4 0.080695 0.248202 0.483952
O O5 0.304846 0.530242 0.282762
O O6 0.607720 0.792842 0.578968
O O7 0.906776 0.474299 0.780762
O O8 0.758545 0.815119 0.603502
O O9 0.398486 0.915582 0.595268
O O10 0.782608 0.907388 0.968864
O O11 0.851418 0.217046 0.948399
O O12 0.371559 0.119055 0.312693
O O13 0.969801 0.243158 0.756451
O O14 0.854853 0.836380 0.303791
O O15 0.000000 0.000000 0.500000
O O16 0.490117 0.136751 0.048712
O O17 0.500000 0.500000 0.000000
#
# Coordination Sequence:
#
# PCOD8010756 Si02
#       8
#     2   2   2   2   2   2   2   2
#     4  11  23  43  67  94 138 179 207 263 334 388
#     4  10  21  39  64  89 123 174 229 286 338 383
#     4  12  25  42  63  93 134 177 224 279 333 389
#     4  10  21  38  63  91 126 175 229 288 334 381
#     4  11  24  41  63  93 126 176 236 282 326 386
#     4  11  23  44  61  89 133 176 220 276 337 386
#     4  10  22  46  75 106 131 165 214 260 316 394
#     4   9  21  43  70 102 134 165 205 256 316 391
#
# _framework density 22.831257999999998
#
# number of rings (size 3 to 8) (size 9 to 14) (size 15 to 20)
#    0.000    1.500    2.500    1.500    3.500    4.500 
#    0.000   23.750    0.000    0.000    0.000    0.000 
#    0.000    0.000    0.000    0.000    0.000    0.000 
#
# Total GULP energy -198291.377662 kJ/mol
# GULP energy per Si atom -12393.211104 kJ/mol
# Density = 2.277929 g / cm^3
# Si number density = 22.831258 Si / 1000 Ang^3
#
#
#
# Elastic Constant Matrix: (Units=GPa)
#
#
# Indices 1 2 3 4 5 6 
#
# 1 80.7406 39.1072 68.2400 -4.1197 -10.6706 -18.1296
# 2 39.1072 106.3123 60.1948 0.3044 5.5589 -20.0900
# 3 68.2400 60.1948 140.4176 9.0225 1.7621 -22.5400
# 4 -4.1197 0.3044 9.0225 57.3321 -4.0089 8.9972
# 5 -10.6706 5.5589 1.7621 -4.0089 34.9328 5.1372
# 6 -18.1296 -20.0900 -22.5400 8.9972 5.1372 29.5497
#
#
#
# Elastic Compliance Matrix: (Units=1/GPa)
#
#
# Indices 1 2 3 4 5 6 
#
# 1 0.024776 -0.003088 -0.010696 0.003727 0.008689 0.002296
# 2 -0.003088 0.013754 -0.003338 -0.000970 -0.003941 0.005891
# 3 -0.010696 -0.003338 0.014797 -0.004110 -0.004617 0.004509
# 4 0.003727 -0.000970 -0.004110 0.020047 0.005049 -0.008489
# 5 0.008689 -0.003941 -0.004617 0.005049 0.033942 -0.008309
# 6 0.002296 0.005891 0.004509 -0.008489 -0.008309 0.046723
#
#
# Mechanical properties :
#
#
# Convention : Reuss Voigt Hill
#
# Bulk Modulus (GPa) = 52.40854 73.61717 63.01286
# Shear Modulus (GPa) = 25.68772 35.02482 30.35627
#
# Velocity S-wave (km/s) = 3.35791 3.92097 3.65031
# Velocity P-wave (km/s) = 6.16755 7.26724 6.73986
#
# Compressibility (1/GPa) = 0.01908086
#
# Stress axis : x y z
#
# Youngs Moduli (GPa) = 40.36195 72.70407 67.58321
#
# Poissons Ratio (x) = 0.22454 0.72290
# Poissons Ratio (y) = 0.12466 0.22559
# Poissons Ratio (z) = 0.43173 0.24269
#
# Static dielectric constant tensor:
#      x y z
#    x 3.580580 -0.162030 0.079150 
#    y -0.162030 4.489620 0.009780 
#    z 0.079150 0.009780 4.540170 
# 
# 
# High freq. dielectric constant tensor:
#      x y z
#    x 1.859050 -0.010750 0.000780 
#    y -0.010750 1.922970 0.013060 
#    z 0.000780 0.013060 1.908680 
# 
# From -- ./inp_files/624105.got.cif
#   From: 2010.06.25/outbox.cif.g09.slc.cpg/sg2_313_cif.got.tgz:624105.got - 2010.06.27 13:26:56.
