data_PCOD8010821
_publ_section_title
;
Structure prediction by ZEFSAII (Michael W. Deem and Ramdas Pophale) SiO2 
 PCOD8010821
Probable space group: P -1
;
_chemical_formula_sum "Si O2"
_cell_formula_units_Z 12
_cell_length_a 6.699109
_cell_length_b 18.699581
_cell_length_c 9.904318
_cell_angle_alpha 143.383493
_cell_angle_beta 57.382363
_cell_angle_gamma 103.692626
_cell_volume 573.960139
_symmetry_space_group_name_H-M "P -1"
_symmetry_group_IT_number 2
_symmetry_cell_setting 'triclinic'
loop_
_space_group_symop_operation_xyz
x,y,z
-x,-y,-z
loop_
_atom_site_type_symbol
_atom_site_label
_atom_site_fract_x
_atom_site_fract_y
_atom_site_fract_z
Si Si1 0.133285 0.786405 0.085927
Si Si2 0.289128 0.007884 0.290949
Si Si3 0.293270 0.688515 0.597747
Si Si4 0.238934 0.957509 0.942314
Si Si5 0.804415 0.438361 0.095415
Si Si6 0.808920 0.440673 0.801502
O O1 0.850947 0.868197 0.374032
O O2 0.297446 0.877146 0.164634
O O3 0.109046 0.740499 0.873447
O O4 0.275523 0.659479 0.933782
O O5 0.575983 0.990568 0.127731
O O6 0.147051 0.026651 0.225776
O O7 0.372347 0.801621 0.678494
O O8 0.556910 0.572316 0.370323
O O9 0.116893 0.654128 0.498887
O O10 0.000000 0.000000 0.000000
O O11 0.044052 0.460145 0.113708
O O12 0.893851 0.373444 0.815883
O O13 0.500000 0.500000 0.000000
#
# Coordination Sequence:
#
# PCOD8010821 Si02
#       6
#     2   2   2   2   2   2
#     4  10  21  40  64  89 127 161 194 252 312 353
#     4   9  22  42  61  89 123 160 204 247 300 365
#     4  10  22  39  60  96 120 154 209 244 305 360
#     4  10  22  40  66  88 118 163 207 250 294 362
#     4  10  21  38  64  87 124 163 193 252 307 354
#     4   9  21  37  57  92 119 158 204 241 295 364
#
# _framework density 20.907373
#
# number of rings (size 3 to 8) (size 9 to 14) (size 15 to 20)
#    0.000    2.333    0.000    0.500    9.333    3.333 
#    0.000   15.833    0.000    0.000    0.000    0.000 
#    0.000    0.000    0.000    0.000    0.000    0.000 
#
# Total GULP energy -148691.746038 kJ/mol
# GULP energy per Si atom -12390.978836 kJ/mol
# Density = 2.085979 g / cm^3
# Si number density = 20.907373 Si / 1000 Ang^3
#
#
#
# Elastic Constant Matrix: (Units=GPa)
#
#
# Indices 1 2 3 4 5 6 
#
# 1 119.4190 47.2813 48.3518 -7.4634 19.2287 -7.7612
# 2 47.2813 145.2274 59.0223 -1.6074 6.1773 8.9566
# 3 48.3518 59.0223 123.1997 -15.9448 22.4828 -10.3854
# 4 -7.4634 -1.6074 -15.9448 35.6972 -7.5807 2.3905
# 5 19.2287 6.1773 22.4828 -7.5807 29.6528 -5.5663
# 6 -7.7612 8.9566 -10.3854 2.3905 -5.5663 19.8867
#
#
#
# Elastic Compliance Matrix: (Units=1/GPa)
#
#
# Indices 1 2 3 4 5 6 
#
# 1 0.011260 -0.002920 -0.001871 0.000184 -0.004584 0.003427
# 2 -0.002920 0.010204 -0.004879 -0.001467 0.001657 -0.007643
# 3 -0.001871 -0.004879 0.013234 0.003670 -0.005675 0.006349
# 4 0.000184 -0.001467 0.003670 0.030730 0.005344 0.000451
# 5 -0.004584 0.001657 -0.005675 0.005344 0.043133 0.005932
# 6 0.003427 -0.007643 0.006349 0.000451 0.005932 0.059986
#
#
# Mechanical properties :
#
#
# Convention : Reuss Voigt Hill
#
# Bulk Modulus (GPa) = 65.11070 77.46188 71.28629
# Shear Modulus (GPa) = 25.90581 32.59339 29.24960
#
# Velocity S-wave (km/s) = 3.52387 3.95263 3.74439
# Velocity P-wave (km/s) = 6.91136 7.61324 7.27078
#
# Compressibility (1/GPa) = 0.01535846
#
# Stress axis : x y z
#
# Youngs Moduli (GPa) = 88.81126 98.00188 75.56024
#
# Poissons Ratio (x) = 0.28614 0.14138
# Poissons Ratio (y) = 0.25931 0.36867
# Poissons Ratio (z) = 0.16617 0.47816
#
# Static dielectric constant tensor:
#      x y z
#    x 3.801650 0.041180 0.731490 
#    y 0.041180 4.114910 -0.007310 
#    z 0.731490 -0.007310 4.546740 
# 
# 
# High freq. dielectric constant tensor:
#      x y z
#    x 1.797600 0.002470 0.021030 
#    y 0.002470 1.829520 -0.011870 
#    z 0.021030 -0.011870 1.818620 
# 
# From -- ./inp_files/19627.got.cif
#   From: 2010.06.25/outbox.cif.g09.slc.cpg/sg2_10_cif.got.tgz:19627.got - 2010.06.27 13:26:56.
