data_PCOD8010691
_publ_section_title
;
Structure prediction by ZEFSAII (Michael W. Deem and Ramdas Pophale) SiO2 
 PCOD8010691
Probable space group: P -1
;
_chemical_formula_sum "Si O2"
_cell_formula_units_Z 16
_cell_length_a 9.636193
_cell_length_b 11.422431
_cell_length_c 8.898955
_cell_angle_alpha 80.926452
_cell_angle_beta 129.366815
_cell_angle_gamma 89.242780
_cell_volume 739.501817
_symmetry_space_group_name_H-M "P -1"
_symmetry_group_IT_number 2
_symmetry_cell_setting 'triclinic'
loop_
_space_group_symop_operation_xyz
x,y,z
-x,-y,-z
loop_
_atom_site_type_symbol
_atom_site_label
_atom_site_fract_x
_atom_site_fract_y
_atom_site_fract_z
Si Si1 0.745114 0.299649 0.493765
Si Si2 0.374771 0.789026 0.007114
Si Si3 0.258705 0.086917 0.348819
Si Si4 0.429458 0.386568 0.042461
Si Si5 0.620659 0.140365 0.673981
Si Si6 0.189418 0.930261 0.601132
Si Si7 0.001983 0.440631 0.797215
Si Si8 0.965820 0.318856 0.108158
O O1 0.548754 0.355219 0.281606
O O2 0.723825 0.243632 0.655890
O O3 0.836742 0.197264 0.463949
O O4 0.882865 0.397945 0.586870
O O5 0.437816 0.833714 0.200493
O O6 0.541126 0.717092 0.042909
O O7 0.302473 0.907142 0.836790
O O8 0.224485 0.701942 0.947742
O O9 0.440868 0.145696 0.446817
O O10 0.086535 0.188790 0.206695
O O11 0.252628 0.990424 0.228933
O O12 0.283874 0.011560 0.535986
O O13 0.500000 0.500000 0.000000
O O14 0.217581 0.404808 0.932262
O O15 0.000000 0.000000 0.500000
O O16 0.953251 0.585580 0.747693
O O17 0.939116 0.377980 0.915143
#
# Coordination Sequence:
#
# PCOD8010691 Si02
#       8
#     2   2   2   2   2   2   2   2
#     4  10  23  42  67  94 128 176 219 260 330 388
#     4  11  22  41  65  95 132 165 217 270 330 375
#     4  10  22  40  66  93 132 168 216 269 332 387
#     4  11  24  43  62  95 138 169 213 275 317 386
#     4  10  22  42  65  97 127 169 217 273 325 388
#     4  10  21  38  62  93 130 166 210 273 322 387
#     4  11  24  43  68  96 133 176 220 264 329 383
#     4  11  22  41  67  98 125 170 223 270 311 394
#
# _framework density 21.636187
#
# number of rings (size 3 to 8) (size 9 to 14) (size 15 to 20)
#    0.000    1.500    3.750    0.750    0.000    5.500 
#    0.000    2.500    0.000    0.000    0.000    0.000 
#    0.000    0.000    0.000    0.000    0.000    0.000 
#
# Total GULP energy -198343.817426 kJ/mol
# GULP energy per Si atom -12396.488589 kJ/mol
# Density = 2.158694 g / cm^3
# Si number density = 21.636187 Si / 1000 Ang^3
#
#
#
# Elastic Constant Matrix: (Units=GPa)
#
#
# Indices 1 2 3 4 5 6 
#
# 1 60.0688 14.1684 8.3369 3.2581 4.7959 -9.7567
# 2 14.1684 103.5183 37.6269 7.4678 2.9305 -7.2342
# 3 8.3369 37.6269 66.1793 12.1054 -3.6855 -11.8780
# 4 3.2581 7.4678 12.1054 34.2701 4.5563 1.6389
# 5 4.7959 2.9305 -3.6855 4.5563 34.8246 -0.0932
# 6 -9.7567 -7.2342 -11.8780 1.6389 -0.0932 37.6717
#
#
#
# Elastic Compliance Matrix: (Units=1/GPa)
#
#
# Indices 1 2 3 4 5 6 
#
# 1 0.018071 -0.001907 -0.000355 -0.001086 -0.002212 0.004244
# 2 -0.001907 0.012488 -0.007035 0.000168 -0.001556 -0.000325
# 3 -0.000355 -0.007035 0.021646 -0.006862 0.003845 0.005690
# 4 -0.001086 0.000168 -0.006862 0.032500 -0.004853 -0.003839
# 5 -0.002212 -0.001556 0.003845 -0.004853 0.030194 0.000626
# 6 0.004244 -0.000325 0.005690 -0.003839 0.000626 0.029544
#
#
# Mechanical properties :
#
#
# Convention : Reuss Voigt Hill
#
# Bulk Modulus (GPa) = 29.75298 38.89231 34.32265
# Shear Modulus (GPa) = 28.69578 32.66222 30.67900
#
# Velocity S-wave (km/s) = 3.64577 3.88959 3.76965
# Velocity P-wave (km/s) = 5.61280 6.17952 5.90297
#
# Compressibility (1/GPa) = 0.03361007
#
# Stress axis : x y z
#
# Youngs Moduli (GPa) = 55.33575 80.07987 46.19814
#
# Poissons Ratio (x) = 0.15269 0.01642
# Poissons Ratio (y) = 0.10551 0.32502
# Poissons Ratio (z) = 0.01966 0.56339
#
# Static dielectric constant tensor:
#      x y z
#    x 6.949840 0.501430 -0.733460 
#    y 0.501430 4.285350 -0.206550 
#    z -0.733460 -0.206550 3.764350 
# 
# 
# High freq. dielectric constant tensor:
#      x y z
#    x 1.860490 -0.001470 -0.008770 
#    y -0.001470 1.861960 -0.001940 
#    z -0.008770 -0.001940 1.827920 
# 
# From -- ./inp_files/187051.got.cif
#   From: 2010.06.25/outbox.cif.g09.slc.cpg/sg2_94_cif.got.tgz:187051.got - 2010.06.27 13:26:56.
