data_PCOD8010346
_publ_section_title
;
Structure prediction by ZEFSAII (Michael W. Deem and Ramdas Pophale) SiO2 
 PCOD8010346
Probable space group: P -1
;
_chemical_formula_sum "Si O2"
_cell_formula_units_Z 14
_cell_length_a 9.414651
_cell_length_b 17.524540
_cell_length_c 20.988374
_cell_angle_alpha 160.127585
_cell_angle_beta 37.547047
_cell_angle_gamma 131.441860
_cell_volume 656.058233
_symmetry_space_group_name_H-M "P -1"
_symmetry_group_IT_number 2
_symmetry_cell_setting 'triclinic'
loop_
_space_group_symop_operation_xyz
x,y,z
-x,-y,-z
loop_
_atom_site_type_symbol
_atom_site_label
_atom_site_fract_x
_atom_site_fract_y
_atom_site_fract_z
Si Si1 0.568661 0.268620 0.137413
Si Si2 0.584793 0.981021 0.269985
Si Si3 0.891384 0.403323 0.232579
Si Si4 0.586762 0.405230 0.674067
Si Si5 0.908073 0.764325 0.415227
Si Si6 0.263815 0.715491 0.144101
Si Si7 0.834281 0.706675 0.606124
O O1 0.706038 0.338994 0.202358
O O2 0.548041 0.428008 0.207614
O O3 0.288824 0.306578 0.292238
O O4 0.726482 0.986410 0.839696
O O5 0.459789 0.784142 0.173133
O O6 0.611896 0.126651 0.437211
O O7 0.390526 0.186140 0.452117
O O8 0.863748 0.846113 0.033495
O O9 0.757506 0.540561 0.452524
O O10 0.000416 0.585852 0.302213
O O11 0.861479 0.409773 0.588590
O O12 0.415103 0.502769 0.874063
O O13 0.086314 0.631363 0.186341
O O14 0.916311 0.033146 0.632759
#
# Coordination Sequence:
#
# PCOD8010346 Si02
#       7
#     2   2   2   2   2   2   2
#     4  11  24  40  61  88 116 153 198 241 290 345
#     4  10  21  38  59  86 123 149 198 232 288 347
#     4  12  21  41  62  85 121 155 189 244 290 340
#     4  12  21  41  62  85 121 155 189 244 290 340
#     4   9  20  41  59  86 120 154 191 238 287 347
#     4   9  20  41  59  86 120 154 191 238 287 347
#     4  11  24  40  61  88 116 153 198 241 290 345
#
# _framework density 21.339566000000001
#
# number of rings (size 3 to 8) (size 9 to 14) (size 15 to 20)
#    0.857    0.571    4.286    1.714    0.000    1.143 
#    0.000    1.429    0.000    0.000    0.000    0.000 
#    0.000    0.000    0.000    0.000    0.000    0.000 
#
# Total GULP energy -173452.787365 kJ/mol
# GULP energy per Si atom -12389.484812 kJ/mol
# Density = 2.129100 g / cm^3
# Si number density = 21.339566 Si / 1000 Ang^3
#
#
#
# Elastic Constant Matrix: (Units=GPa)
#
#
# Indices 1 2 3 4 5 6 
#
# 1 78.0629 5.1516 42.3499 -6.5733 7.3266 11.7297
# 2 5.1516 47.5006 23.6492 -8.1262 -1.1165 -9.3455
# 3 42.3499 23.6492 136.3249 -16.9615 22.1799 -1.0314
# 4 -6.5733 -8.1262 -16.9615 24.8010 7.1413 5.8337
# 5 7.3266 -1.1165 22.1799 7.1413 39.0468 1.0589
# 6 11.7297 -9.3455 -1.0314 5.8337 1.0589 18.4027
#
#
#
# Elastic Compliance Matrix: (Units=1/GPa)
#
#
# Indices 1 2 3 4 5 6 
#
# 1 0.018061 -0.001630 -0.004631 0.004759 -0.001295 -0.014034
# 2 -0.001630 0.026312 -0.004271 0.001236 0.002890 0.013604
# 3 -0.004631 -0.004271 0.011621 0.007525 -0.007216 -0.000536
# 4 0.004759 0.001236 0.007525 0.055834 -0.014833 -0.018830
# 5 -0.001295 0.002890 -0.007216 -0.014833 0.032620 0.004713
# 6 -0.014034 0.013604 -0.000536 -0.018830 0.004713 0.075861
#
#
# Mechanical properties :
#
#
# Convention : Reuss Voigt Hill
#
# Bulk Modulus (GPa) = 28.63028 44.90999 36.77014
# Shear Modulus (GPa) = 19.76143 29.16594 24.46369
#
# Velocity S-wave (km/s) = 3.04640 3.70097 3.38953
# Velocity P-wave (km/s) = 5.08131 6.27328 5.70849
#
# Compressibility (1/GPa) = 0.03492805
#
# Stress axis : x y z
#
# Youngs Moduli (GPa) = 55.36696 38.00604 86.04799
#
# Poissons Ratio (x) = 0.06196 0.39852
# Poissons Ratio (y) = 0.09026 0.36755
# Poissons Ratio (z) = 0.25643 0.16234
#
# Static dielectric constant tensor:
#      x y z
#    x 3.626990 0.181350 0.030190 
#    y 0.181350 3.551840 -0.020720 
#    z 0.030190 -0.020720 3.991320 
# 
# 
# High freq. dielectric constant tensor:
#      x y z
#    x 1.816600 0.017590 0.001760 
#    y 0.017590 1.810730 -0.007000 
#    z 0.001760 -0.007000 1.855680 
# 
# From -- ./inp_files/591012.got.cif
#   From: 2010.06.25/outbox.cif.g09.slc.cpg/sg2_296_cif.got.tgz:591012.got - 2010.06.27 13:26:56.
