data_PCOD8010310
_publ_section_title
;
Structure prediction by ZEFSAII (Michael W. Deem and Ramdas Pophale) SiO2 
 PCOD8010310
Probable space group: P -1
;
_chemical_formula_sum "Si O2"
_cell_formula_units_Z 16
_cell_length_a 7.933218
_cell_length_b 14.214801
_cell_length_c 13.985478
_cell_angle_alpha 50.774064
_cell_angle_beta 43.219891
_cell_angle_gamma 44.888467
_cell_volume 739.884899
_symmetry_space_group_name_H-M "P -1"
_symmetry_group_IT_number 2
_symmetry_cell_setting 'triclinic'
loop_
_space_group_symop_operation_xyz
x,y,z
-x,-y,-z
loop_
_atom_site_type_symbol
_atom_site_label
_atom_site_fract_x
_atom_site_fract_y
_atom_site_fract_z
Si Si1 0.620655 0.683841 0.989779
Si Si2 0.796639 0.929609 0.525484
Si Si3 0.762052 0.387591 0.176050
Si Si4 0.304663 0.785300 0.532698
Si Si5 0.666660 0.027590 0.994474
Si Si6 0.174796 0.044385 0.717386
Si Si7 0.300153 0.659064 0.978133
Si Si8 0.786427 0.800158 0.230916
O O1 0.475582 0.724834 0.917705
O O2 0.937136 0.653702 0.876992
O O3 0.595668 0.551510 0.124665
O O4 0.453135 0.810465 0.047683
O O5 0.902094 0.893749 0.396589
O O6 0.026962 0.812874 0.571592
O O7 0.758979 0.079958 0.467275
O O8 0.499785 0.931931 0.661662
O O9 0.608018 0.341407 0.348896
O O10 0.781827 0.303391 0.123665
O O11 0.559166 0.747716 0.377794
O O12 0.994377 0.966508 0.871090
O O13 0.500000 0.000000 0.000000
O O14 0.635795 0.953353 0.149261
O O15 0.092814 0.177544 0.733336
O O16 0.500000 0.500000 0.000000
O O17 0.019559 0.694604 0.131375
#
# Coordination Sequence:
#
# PCOD8010310 Si02
#       8
#     2   2   2   2   2   2   2   2
#     4  10  23  42  63  97 129 170 229 268 331 389
#     4   9  21  37  61  93 138 171 215 269 342 388
#     4  10  23  42  69  93 130 181 221 274 323 405
#     4  10  22  40  63  94 133 175 216 271 330 399
#     4  12  24  36  66  95 133 170 214 283 331 387
#     4  10  21  38  58  94 134 173 215 272 326 406
#     4  10  22  44  70  94 132 175 221 276 328 396
#     4  11  23  39  62 102 131 164 219 277 330 394
#
# _framework density 21.624987000000001
#
# number of rings (size 3 to 8) (size 9 to 14) (size 15 to 20)
#    0.000    1.750    1.250    1.875    8.750    0.000 
#    4.500    2.500    0.000   12.750    0.000    0.000 
#    0.000    0.000    0.000    0.000    0.000    0.000 
#
# Total GULP energy -198346.357660 kJ/mol
# GULP energy per Si atom -12396.647354 kJ/mol
# Density = 2.157577 g / cm^3
# Si number density = 21.624987 Si / 1000 Ang^3
#
#
#
# Elastic Constant Matrix: (Units=GPa)
#
#
# Indices 1 2 3 4 5 6 
#
# 1 153.1848 41.0801 59.4557 2.1266 -1.8334 4.2810
# 2 41.0801 82.3709 47.1882 6.0032 10.0375 2.6130
# 3 59.4557 47.1882 158.5941 -1.4251 3.3237 -6.6835
# 4 2.1266 6.0032 -1.4251 27.7451 -0.0619 1.7286
# 5 -1.8334 10.0375 3.3237 -0.0619 37.4053 6.8409
# 6 4.2810 2.6130 -6.6835 1.7286 6.8409 25.8894
#
#
#
# Elastic Compliance Matrix: (Units=1/GPa)
#
#
# Indices 1 2 3 4 5 6 
#
# 1 0.008320 -0.002942 -0.002373 0.000016 0.001805 -0.002169
# 2 -0.002942 0.016573 -0.003809 -0.003512 -0.004103 -0.000851
# 3 -0.002373 -0.003809 0.008474 0.001255 -0.000391 0.002984
# 4 0.000016 -0.003512 0.001255 0.037001 0.001283 -0.002134
# 5 0.001805 -0.004103 -0.000391 0.001283 0.029394 -0.007838
# 6 -0.002169 -0.000851 0.002984 -0.002134 -0.007838 0.042054
#
#
# Mechanical properties :
#
#
# Convention : Reuss Voigt Hill
#
# Bulk Modulus (GPa) = 66.14908 76.62198 71.38553
# Shear Modulus (GPa) = 30.28384 34.63635 32.46009
#
# Velocity S-wave (km/s) = 3.74626 4.00644 3.87854
# Velocity P-wave (km/s) = 7.02625 7.54395 7.28970
#
# Compressibility (1/GPa) = 0.01511737
#
# Stress axis : x y z
#
# Youngs Moduli (GPa) = 120.19110 60.33924 118.01353
#
# Poissons Ratio (x) = 0.17754 0.28002
# Poissons Ratio (y) = 0.35365 0.44957
# Poissons Ratio (z) = 0.28518 0.22986
#
# Static dielectric constant tensor:
#      x y z
#    x 4.379680 -0.103700 0.274100 
#    y -0.103700 3.637480 0.216070 
#    z 0.274100 0.216070 3.975510 
# 
# 
# High freq. dielectric constant tensor:
#      x y z
#    x 1.874770 -0.002260 0.001440 
#    y -0.002260 1.822620 0.007790 
#    z 0.001440 0.007790 1.841140 
# 
# From -- ./inp_files/503965.got.cif
#   From: 2010.06.25/outbox.cif.g09.slc.cpg/sg2_252_cif.got.tgz:503965.got - 2010.06.27 13:26:56.
