data_PCOD8010071
_publ_section_title
;
Structure prediction by ZEFSAII (Michael W. Deem and Ramdas Pophale) SiO2 
 PCOD8010071
Probable space group: P -1
;
_chemical_formula_sum "Si O2"
_cell_formula_units_Z 12
_cell_length_a 13.268248
_cell_length_b 6.069283
_cell_length_c 12.226003
_cell_angle_alpha 85.815109
_cell_angle_beta 137.014760
_cell_angle_gamma 67.720958
_cell_volume 516.611107
_symmetry_space_group_name_H-M "P -1"
_symmetry_group_IT_number 2
_symmetry_cell_setting 'triclinic'
loop_
_space_group_symop_operation_xyz
x,y,z
-x,-y,-z
loop_
_atom_site_type_symbol
_atom_site_label
_atom_site_fract_x
_atom_site_fract_y
_atom_site_fract_z
Si Si1 0.664135 0.495409 0.984193
Si Si2 0.645216 0.561108 0.590875
Si Si3 0.285311 0.667099 0.737083
Si Si4 0.947539 0.750382 0.373870
Si Si5 0.635486 0.883450 0.775643
Si Si6 0.068565 0.114462 0.875900
O O1 0.487679 0.488069 0.842358
O O2 0.602740 0.777869 0.864813
O O3 0.712175 0.503242 0.149783
O O4 0.840799 0.207978 0.073714
O O5 0.500000 0.500000 0.500000
O O6 0.681584 0.671733 0.722925
O O7 0.851215 0.269690 0.731795
O O8 0.557360 0.796968 0.416266
O O9 0.124904 0.754004 0.519885
O O10 0.242625 0.952000 0.741775
O O11 0.924014 0.721443 0.227452
O O12 0.000000 0.500000 0.500000
O O13 0.813613 0.883048 0.932372
#
# Coordination Sequence:
#
# PCOD8010071 Si02
#       6
#     2   2   2   2   2   2
#     4  10  22  41  67  95 137 175 216 269 331 390
#     4  11  27  47  68  97 131 172 226 281 330 389
#     4   9  21  39  60  99 136 173 214 267 321 390
#     4  10  21  37  64  98 133 173 220 262 322 396
#     4  11  25  44  68  98 129 175 220 278 334 391
#     4  11  25  42  68  99 131 176 219 274 332 388
#
# _framework density 23.228303
#
# number of rings (size 3 to 8) (size 9 to 14) (size 15 to 20)
#    0.000    1.667    0.000    2.500    7.000    5.333 
#    0.000    5.000    0.000    0.000    0.000    0.000 
#    0.000    0.000    0.000    0.000    0.000    0.000 
#
# Total GULP energy -148797.987902 kJ/mol
# GULP energy per Si atom -12399.832325 kJ/mol
# Density = 2.317543 g / cm^3
# Si number density = 23.228303 Si / 1000 Ang^3
#
#
#
# Elastic Constant Matrix: (Units=GPa)
#
#
# Indices 1 2 3 4 5 6 
#
# 1 93.5800 26.6770 44.5210 -17.5939 7.3405 -2.1646
# 2 26.6770 54.4572 29.7325 -0.3847 7.0217 -9.2134
# 3 44.5210 29.7325 122.3958 -3.7159 4.2321 -8.1528
# 4 -17.5939 -0.3847 -3.7159 43.9186 2.2215 -3.3903
# 5 7.3405 7.0217 4.2321 2.2215 51.4168 -16.4168
# 6 -2.1646 -9.2134 -8.1528 -3.3903 -16.4168 28.1969
#
#
#
# Elastic Compliance Matrix: (Units=1/GPa)
#
#
# Indices 1 2 3 4 5 6 
#
# 1 0.015388 -0.005317 -0.004215 0.005689 -0.002110 -0.002319
# 2 -0.005317 0.023930 -0.003521 -0.001740 -0.000208 0.006063
# 3 -0.004215 -0.003521 0.010642 -0.000707 0.000887 0.002034
# 4 0.005689 -0.001740 -0.000707 0.025186 -0.000915 0.002159
# 5 -0.002110 -0.000208 0.000887 -0.000915 0.024221 0.014018
# 6 -0.002319 0.006063 0.002034 0.002159 0.014018 0.046277
#
#
# Mechanical properties :
#
#
# Convention : Reuss Voigt Hill
#
# Bulk Modulus (GPa) = 41.91950 52.47711 47.19830
# Shear Modulus (GPa) = 27.82368 36.00663 31.91515
#
# Velocity S-wave (km/s) = 3.46473 3.94143 3.71074
# Velocity P-wave (km/s) = 5.83881 6.58438 6.22277
#
# Compressibility (1/GPa) = 0.02385525
#
# Stress axis : x y z
#
# Youngs Moduli (GPa) = 64.98360 41.78775 93.96783
#
# Poissons Ratio (x) = 0.22220 0.39604
# Poissons Ratio (y) = 0.34554 0.33084
# Poissons Ratio (z) = 0.27388 0.14713
#
# Static dielectric constant tensor:
#      x y z
#    x 3.891580 -0.040430 -0.172440 
#    y -0.040430 3.991220 0.047800 
#    z -0.172440 0.047800 4.715600 
# 
# 
# High freq. dielectric constant tensor:
#      x y z
#    x 1.901730 -0.002770 -0.007760 
#    y -0.002770 1.902530 -0.002460 
#    z -0.007760 -0.002460 1.948320 
# 
# From -- ./inp_files/58162.got.cif
#   From: 2010.06.25/outbox.cif.g09.slc.cpg/sg2_30_cif.got.tgz:58162.got - 2010.06.27 13:26:56.
