data_PCOD8010906
_publ_section_title
;
Structure prediction by ZEFSAII (Michael W. Deem and Ramdas Pophale) SiO2 
 PCOD8010906
Probable space group: P -1
;
_chemical_formula_sum "Si O2"
_cell_formula_units_Z 16
_cell_length_a 15.840929
_cell_length_b 11.378352
_cell_length_c 11.990209
_cell_angle_alpha 129.845520
_cell_angle_beta 151.868740
_cell_angle_gamma 44.387599
_cell_volume 712.417208
_symmetry_space_group_name_H-M "P -1"
_symmetry_group_IT_number 2
_symmetry_cell_setting 'triclinic'
loop_
_space_group_symop_operation_xyz
x,y,z
-x,-y,-z
loop_
_atom_site_type_symbol
_atom_site_label
_atom_site_fract_x
_atom_site_fract_y
_atom_site_fract_z
Si Si1 0.120555 0.039181 0.760034
Si Si2 0.007449 0.377239 0.726507
Si Si3 0.376932 0.455800 0.488706
Si Si4 0.960391 0.682245 0.516055
Si Si5 0.586339 0.670079 0.793406
Si Si6 0.457757 0.032294 0.775531
Si Si7 0.324676 0.893721 0.338946
Si Si8 0.949025 0.033570 0.123081
O O1 0.095350 0.226789 0.825537
O O2 0.028265 0.034116 0.767583
O O3 0.354554 0.922019 0.963226
O O4 0.000000 0.000000 0.500000
O O5 0.820292 0.514393 0.654074
O O6 0.940105 0.337650 0.502845
O O7 0.198603 0.415939 0.948424
O O8 0.436136 0.614798 0.653944
O O9 0.362317 0.407389 0.316227
O O10 0.541979 0.299295 0.647829
O O11 0.000000 0.500000 0.500000
O O12 0.056477 0.777602 0.765993
O O13 0.728278 0.801178 0.303400
O O14 0.482191 0.874134 0.788057
O O15 0.438035 0.989419 0.595299
O O16 0.238406 0.971404 0.164102
O O17 0.143697 0.903317 0.210704
#
# Coordination Sequence:
#
# PCOD8010906 Si02
#       8
#     2   2   2   2   2   2   2   2
#     4  11  23  41  65  98 131 173 217 274 324 406
#     4  11  24  39  62  97 132 172 218 270 329 399
#     4  10  21  38  64  97 131 170 219 268 333 391
#     4  11  25  44  63  94 134 174 217 274 334 397
#     4   9  21  39  63  95 132 173 211 276 328 389
#     4   9  22  44  65  94 128 175 222 269 334 391
#     4   9  21  43  66  95 125 178 220 274 328 392
#     4  10  22  44  67  93 131 170 228 266 334 393
#
# _framework density 22.458749000000001
#
# number of rings (size 3 to 8) (size 9 to 14) (size 15 to 20)
#    0.000    2.000    1.250    0.375    8.750    4.500 
#    0.000    1.250    0.000    0.000    0.000    0.000 
#    0.000    0.000    0.000    0.000    0.000    0.000 
#
# Total GULP energy -198290.734283 kJ/mol
# GULP energy per Si atom -12393.170893 kJ/mol
# Density = 2.240763 g / cm^3
# Si number density = 22.458749 Si / 1000 Ang^3
#
#
#
# Elastic Constant Matrix: (Units=GPa)
#
#
# Indices 1 2 3 4 5 6 
#
# 1 91.2426 33.2249 33.3693 -15.8131 -10.9226 -1.1734
# 2 33.2249 101.7530 24.9101 -22.4851 13.6525 -4.5108
# 3 33.3693 24.9101 137.3074 -10.9316 -4.7475 -2.8609
# 4 -15.8131 -22.4851 -10.9316 28.7541 -0.5947 6.1769
# 5 -10.9226 13.6525 -4.7475 -0.5947 29.2237 -2.2249
# 6 -1.1734 -4.5108 -2.8609 6.1769 -2.2249 24.9196
#
#
#
# Elastic Compliance Matrix: (Units=1/GPa)
#
#
# Indices 1 2 3 4 5 6 
#
# 1 0.015004 -0.004424 -0.002268 0.004243 0.007335 -0.000751
# 2 -0.004424 0.014546 -0.001199 0.008431 -0.008515 -0.000563
# 3 -0.002268 -0.001199 0.008166 0.000834 0.001094 0.000505
# 4 0.004243 0.008431 0.000834 0.046080 -0.002024 -0.009781
# 5 0.007335 -0.008515 0.001094 -0.002024 0.041313 0.003120
# 6 -0.000751 -0.000563 0.000505 -0.009781 0.003120 0.042753
#
#
# Mechanical properties :
#
#
# Convention : Reuss Voigt Hill
#
# Bulk Modulus (GPa) = 45.58865 57.03463 51.31164
# Shear Modulus (GPa) = 26.18412 32.49938 29.34175
#
# Velocity S-wave (km/s) = 3.41820 3.80816 3.61844
# Velocity P-wave (km/s) = 5.99347 6.69228 6.35249
#
# Compressibility (1/GPa) = 0.02193528
#
# Stress axis : x y z
#
# Youngs Moduli (GPa) = 66.64939 68.74589 122.45350
#
# Poissons Ratio (x) = 0.30412 0.27773
# Poissons Ratio (y) = 0.29485 0.14679
# Poissons Ratio (z) = 0.15116 0.08241
#
# Static dielectric constant tensor:
#      x y z
#    x 4.043270 0.027430 -0.174560 
#    y 0.027430 3.980010 0.055200 
#    z -0.174560 0.055200 4.696470 
# 
# 
# High freq. dielectric constant tensor:
#      x y z
#    x 1.874360 -0.011360 -0.004230 
#    y -0.011360 1.865670 -0.005040 
#    z -0.004230 -0.005040 1.898680 
# 
# From -- ./inp_files/451700.got.cif
#   From: 2010.06.25/outbox.cif.g09.slc.cpg/sg2_226_cif.got.tgz:451700.got - 2010.06.27 13:26:56.
