data_PCOD8010074
_publ_section_title
;
Structure prediction by ZEFSAII (Michael W. Deem and Ramdas Pophale) SiO2 
 PCOD8010074
Probable space group: P -1
;
_chemical_formula_sum "Si O2"
_cell_formula_units_Z 14
_cell_length_a 12.873997
_cell_length_b 12.097971
_cell_length_c 5.117200
_cell_angle_alpha 90.170462
_cell_angle_beta 102.583833
_cell_angle_gamma 53.301627
_cell_volume 615.380461
_symmetry_space_group_name_H-M "P -1"
_symmetry_group_IT_number 2
_symmetry_cell_setting 'triclinic'
loop_
_space_group_symop_operation_xyz
x,y,z
-x,-y,-z
loop_
_atom_site_type_symbol
_atom_site_label
_atom_site_fract_x
_atom_site_fract_y
_atom_site_fract_z
Si Si1 0.092275 0.839340 0.622181
Si Si2 0.261741 0.704675 0.202068
Si Si3 0.367258 0.031325 0.311264
Si Si4 0.829465 0.690478 0.036783
Si Si5 0.490660 0.726430 0.259368
Si Si6 0.898189 0.757647 0.583066
Si Si7 0.664457 0.590771 0.849476
O O1 0.201373 0.750545 0.457431
O O2 0.006174 0.783979 0.606856
O O3 0.165103 0.822488 0.934637
O O4 0.000000 0.000000 0.500000
O O5 0.405266 0.673073 0.287093
O O6 0.280813 0.566970 0.128189
O O7 0.395792 0.893759 0.204330
O O8 0.500000 0.000000 0.500000
O O9 0.250928 0.093054 0.469690
O O10 0.309678 0.149315 0.055180
O O11 0.904536 0.669100 0.345597
O O12 0.791054 0.586511 0.996132
O O13 0.929729 0.663073 0.856203
O O14 0.548988 0.674351 0.003047
O O15 0.608264 0.665118 0.537854
#
# Coordination Sequence:
#
# PCOD8010074 Si02
#       7
#     2   2   2   2   2   2   2
#     4  12  26  47  70  94 128 171 228 277 318 376
#     4  12  27  45  68  97 129 179 221 264 326 391
#     4  10  21  37  64  99 131 162 217 259 336 373
#     4  10  22  39  64  95 136 166 209 265 328 381
#     4  12  24  39  68  97 136 175 214 268 326 388
#     4  10  23  40  64  96 131 164 218 275 323 372
#     4  12  24  44  64  98 140 171 211 266 329 401
#
# _framework density 22.750153000000001
#
# number of rings (size 3 to 8) (size 9 to 14) (size 15 to 20)
#    0.857    0.000    1.429    6.429    4.000    1.143 
#    0.000    4.286    0.000    0.000    0.000    0.000 
#    0.000    0.000    0.000    0.000    0.000    0.000 
#
# Total GULP energy -173645.570215 kJ/mol
# GULP energy per Si atom -12403.255015 kJ/mol
# Density = 2.269837 g / cm^3
# Si number density = 22.750153 Si / 1000 Ang^3
#
#
#
# Elastic Constant Matrix: (Units=GPa)
#
#
# Indices 1 2 3 4 5 6 
#
# 1 110.1050 11.3784 6.7090 14.3657 -3.0050 16.9541
# 2 11.3784 62.7975 2.2641 19.9863 -6.8644 23.6138
# 3 6.7090 2.2641 87.4698 11.6024 -7.6908 -6.8465
# 4 14.3657 19.9863 11.6024 27.1188 1.9299 6.3426
# 5 -3.0050 -6.8644 -7.6908 1.9299 36.9607 3.0828
# 6 16.9541 23.6138 -6.8465 6.3426 3.0828 31.7727
#
#
#
# Elastic Compliance Matrix: (Units=1/GPa)
#
#
# Indices 1 2 3 4 5 6 
#
# 1 0.010747 0.002893 -0.000430 -0.006172 0.002225 -0.006962
# 2 0.002893 0.030669 0.000804 -0.020202 0.008904 -0.020995
# 3 -0.000430 0.000804 0.012887 -0.006902 0.002863 0.003509
# 4 -0.006172 -0.020202 -0.006902 0.057167 -0.009201 0.006301
# 5 0.002225 0.008904 0.002863 -0.009201 0.030661 -0.008326
# 6 -0.006962 -0.020995 0.003509 0.006301 -0.008326 0.051098
#
#
# Mechanical properties :
#
#
# Convention : Reuss Voigt Hill
#
# Bulk Modulus (GPa) = 16.43733 33.45281 24.94507
# Shear Modulus (GPa) = 24.15755 35.17183 29.66469
#
# Velocity S-wave (km/s) = 3.26216 3.93619 3.61492
# Velocity P-wave (km/s) = 4.62923 5.94933 5.33030
#
# Compressibility (1/GPa) = 0.06083712
#
# Stress axis : x y z
#
# Youngs Moduli (GPa) = 93.04621 32.60628 77.59942
#
# Poissons Ratio (x) = -0.09434 0.03336
# Poissons Ratio (y) = -0.26922 -0.06235
# Poissons Ratio (z) = 0.04000 -0.02620
#
# Static dielectric constant tensor:
#      x y z
#    x 3.836110 -0.202050 -0.151640 
#    y -0.202050 3.910790 -0.067790 
#    z -0.151640 -0.067790 4.152280 
# 
# 
# High freq. dielectric constant tensor:
#      x y z
#    x 1.907900 0.005400 -0.000540 
#    y 0.005400 1.898600 0.006560 
#    z -0.000540 0.006560 1.903630 
# 
# From -- ./inp_files/67347.got.cif
#   From: 2010.06.25/outbox.cif.g09.slc.cpg/sg2_34_cif.got.tgz:67347.got - 2010.06.27 13:26:56.
