data_PCOD8010920
_publ_section_title
;
Structure prediction by ZEFSAII (Michael W. Deem and Ramdas Pophale) SiO2 
 PCOD8010920
Probable space group: P -1
;
_chemical_formula_sum "Si O2"
_cell_formula_units_Z 16
_cell_length_a 18.791048
_cell_length_b 11.700945
_cell_length_c 16.712532
_cell_angle_alpha 28.404621
_cell_angle_beta 155.592413
_cell_angle_gamma 136.539166
_cell_volume 667.442934
_symmetry_space_group_name_H-M "P -1"
_symmetry_group_IT_number 2
_symmetry_cell_setting 'triclinic'
loop_
_space_group_symop_operation_xyz
x,y,z
-x,-y,-z
loop_
_atom_site_type_symbol
_atom_site_label
_atom_site_fract_x
_atom_site_fract_y
_atom_site_fract_z
Si Si1 0.113882 0.740748 0.991966
Si Si2 0.679840 0.774828 0.746766
Si Si3 0.332548 0.067892 0.031335
Si Si4 0.304387 0.871598 0.686103
Si Si5 0.967739 0.443828 0.133187
Si Si6 0.646777 0.697810 0.933975
Si Si7 0.448172 0.683416 0.116684
Si Si8 0.243823 0.155301 0.713616
O O1 0.146926 0.666399 0.977211
O O2 0.284713 0.812652 0.153858
O O3 0.907409 0.962810 0.657433
O O4 0.123129 0.493589 0.206734
O O5 0.756764 0.709989 0.957031
O O6 0.559082 0.600099 0.710263
O O7 0.559450 0.078796 0.425052
O O8 0.842039 0.706200 0.889441
O O9 0.207393 0.200462 0.743553
O O10 0.552014 0.005094 0.279456
O O11 0.256597 0.247775 0.920975
O O12 0.370299 0.577757 0.901440
O O13 0.318883 0.859838 0.804131
O O14 0.052320 0.234728 0.419386
O O15 0.659862 0.648071 0.338000
O O16 0.373528 0.853545 0.015588
#
# Coordination Sequence:
#
# PCOD8010920 Si02
#       8
#     2   2   2   2   2   2   2   2
#     4  11  25  43  67 103 134 166 217 274 332 395
#     4  10  22  42  69  91 130 178 211 271 336 377
#     4  11  24  40  69  98 126 179 219 266 325 387
#     4  10  21  44  68  91 134 172 218 275 319 385
#     4  11  24  43  63 100 138 165 207 280 335 387
#     4  10  23  43  67  95 128 174 230 269 313 388
#     4   9  19  37  66  95 125 173 215 260 325 400
#     4  10  21  38  64  99 132 167 214 265 329 396
#
# _framework density 23.972090000000001
#
# number of rings (size 3 to 8) (size 9 to 14) (size 15 to 20)
#    0.000    1.750    1.250    1.875    5.250    1.500 
#    0.000    3.125    0.000    0.000    0.000    0.000 
#    0.000    0.000    0.000    0.000    0.000    0.000 
#
# Total GULP energy -198300.020963 kJ/mol
# GULP energy per Si atom -12393.751310 kJ/mol
# Density = 2.391753 g / cm^3
# Si number density = 23.972090 Si / 1000 Ang^3
#
#
#
# Elastic Constant Matrix: (Units=GPa)
#
#
# Indices 1 2 3 4 5 6 
#
# 1 126.6608 52.6782 16.2293 16.7637 -0.9774 -35.9271
# 2 52.6782 113.0550 11.4270 5.6076 -5.6458 -15.4025
# 3 16.2293 11.4270 46.1348 -4.4941 -4.1473 -14.8985
# 4 16.7637 5.6076 -4.4941 25.9812 -8.8028 -2.4353
# 5 -0.9774 -5.6458 -4.1473 -8.8028 24.0338 9.5297
# 6 -35.9271 -15.4025 -14.8985 -2.4353 9.5297 50.2163
#
#
#
# Elastic Compliance Matrix: (Units=1/GPa)
#
#
# Indices 1 2 3 4 5 6 
#
# 1 0.014187 -0.005026 -0.002657 -0.010561 -0.008465 0.008914
# 2 -0.005026 0.011225 -0.000858 0.001695 0.003281 -0.000948
# 3 -0.002657 -0.000858 0.025715 0.008618 0.005354 0.004867
# 4 -0.010561 0.001695 0.008618 0.053865 0.023709 -0.006366
# 5 -0.008465 0.003281 0.005354 0.023709 0.056836 -0.013097
# 6 0.008914 -0.000948 0.004867 -0.006366 -0.013097 0.029622
#
#
# Mechanical properties :
#
#
# Convention : Reuss Voigt Hill
#
# Bulk Modulus (GPa) = 29.37338 49.61327 39.49333
# Shear Modulus (GPa) = 22.73972 33.74733 28.24352
#
# Velocity S-wave (km/s) = 3.08326 3.75610 3.43619
# Velocity P-wave (km/s) = 4.99551 6.28906 5.67923
#
# Compressibility (1/GPa) = 0.03404443
#
# Stress axis : x y z
#
# Youngs Moduli (GPa) = 70.48738 89.08997 38.88718
#
# Poissons Ratio (x) = 0.44779 0.10331
# Poissons Ratio (y) = 0.35429 0.03337
# Poissons Ratio (z) = 0.18727 0.07646
#
# Static dielectric constant tensor:
#      x y z
#    x 4.614850 -0.186240 -0.177930 
#    y -0.186240 4.365800 0.049360 
#    z -0.177930 0.049360 3.783020 
# 
# 
# High freq. dielectric constant tensor:
#      x y z
#    x 1.969670 -0.008420 -0.016310 
#    y -0.008420 1.946750 -0.003300 
#    z -0.016310 -0.003300 1.914890 
# 
# From -- ./inp_files/577931.got.cif
#   From: 2010.06.25/outbox.cif.g09.slc.cpg/sg2_289_cif.got.tgz:577931.got - 2010.06.27 13:26:56.
