data_PCOD8010986
_publ_section_title
;
Structure prediction by ZEFSAII (Michael W. Deem and Ramdas Pophale) SiO2 
 PCOD8010986
Probable space group: P -1
;
_chemical_formula_sum "Si O2"
_cell_formula_units_Z 14
_cell_length_a 15.218337
_cell_length_b 9.911318
_cell_length_c 18.961359
_cell_angle_alpha 36.309351
_cell_angle_beta 148.382574
_cell_angle_gamma 153.933430
_cell_volume 648.377822
_symmetry_space_group_name_H-M "P -1"
_symmetry_group_IT_number 2
_symmetry_cell_setting 'triclinic'
loop_
_space_group_symop_operation_xyz
x,y,z
-x,-y,-z
loop_
_atom_site_type_symbol
_atom_site_label
_atom_site_fract_x
_atom_site_fract_y
_atom_site_fract_z
Si Si1 0.679362 0.602196 0.401514
Si Si2 0.914653 0.756799 0.646081
Si Si3 0.603108 0.189206 0.403432
Si Si4 0.237151 0.176858 0.347831
Si Si5 0.253721 0.327564 0.812684
Si Si6 0.138331 0.789015 0.173955
Si Si7 0.721865 0.612273 0.038539
O O1 0.816645 0.670072 0.537134
O O2 0.627643 0.316268 0.445582
O O3 0.438200 0.493098 0.307874
O O4 0.822921 0.905344 0.321183
O O5 0.762978 0.764013 0.593799
O O6 0.900717 0.484018 0.779360
O O7 0.752887 0.480377 0.330196
O O8 0.711611 0.041623 0.534735
O O9 0.336894 0.949375 0.300455
O O10 0.992269 0.026336 0.211334
O O11 0.290769 0.476072 0.851903
O O12 0.470455 0.357621 0.936715
O O13 0.896039 0.608233 0.121429
O O14 0.196486 0.046962 0.051562
#
# Coordination Sequence:
#
# PCOD8010986 Si02
#       7
#     2   2   2   2   2   2   2
#     4  11  24  40  62  98 135 171 204 249 333 392
#     4  11  25  41  60  99 138 165 202 261 335 380
#     4  11  22  39  69  99 126 167 214 259 318 384
#     4  12  23  41  65  98 136 164 203 270 319 392
#     4  10  21  38  65  94 125 160 223 262 308 366
#     4  10  21  42  67  88 130 166 221 264 310 375
#     4   9  21  41  65  92 117 176 224 264 298 371
#
# _framework density 21.592348000000001
#
# number of rings (size 3 to 8) (size 9 to 14) (size 15 to 20)
#    0.000    1.429    2.857    2.143    2.000    1.143 
#    5.143    1.429    0.000    0.000    0.000    0.000 
#    0.000    0.000    0.000    0.000    0.000    0.000 
#
# Total GULP energy -173536.753167 kJ/mol
# GULP energy per Si atom -12395.482369 kJ/mol
# Density = 2.154320 g / cm^3
# Si number density = 21.592348 Si / 1000 Ang^3
#
#
#
# Elastic Constant Matrix: (Units=GPa)
#
#
# Indices 1 2 3 4 5 6 
#
# 1 143.9396 51.0298 37.4338 3.0624 18.4697 1.8444
# 2 51.0298 109.0548 37.8759 12.6689 27.2542 2.1570
# 3 37.4338 37.8759 68.6177 18.1078 17.6796 -2.9346
# 4 3.0624 12.6689 18.1078 31.1903 6.1689 12.8287
# 5 18.4697 27.2542 17.6796 6.1689 29.7409 11.1180
# 6 1.8444 2.1570 -2.9346 12.8287 11.1180 38.6098
#
#
#
# Elastic Compliance Matrix: (Units=1/GPa)
#
#
# Indices 1 2 3 4 5 6 
#
# 1 0.009129 -0.003081 -0.004145 0.003522 -0.000514 -0.001601
# 2 -0.003081 0.014400 -0.002621 -0.003314 -0.010230 0.003190
# 3 -0.004145 -0.002621 0.025726 -0.015674 -0.011063 0.010693
# 4 0.003522 -0.003314 -0.015674 0.048720 0.007342 -0.019476
# 5 -0.000514 -0.010230 -0.011063 0.007342 0.055330 -0.018617
# 6 -0.001601 0.003190 0.010693 -0.019476 -0.018617 0.038443
#
#
# Mechanical properties :
#
#
# Convention : Reuss Voigt Hill
#
# Bulk Modulus (GPa) = 33.82938 63.81012 48.81975
# Shear Modulus (GPa) = 22.59410 32.92636 27.76023
#
# Velocity S-wave (km/s) = 3.23831 3.90924 3.58949
# Velocity P-wave (km/s) = 5.44826 7.07054 6.31174
#
# Compressibility (1/GPa) = 0.02956011
#
# Stress axis : x y z
#
# Youngs Moduli (GPa) = 109.53813 69.44303 38.87192
#
# Poissons Ratio (x) = 0.21397 0.16113
# Poissons Ratio (y) = 0.33752 0.10189
# Poissons Ratio (z) = 0.45405 0.18201
#
# Static dielectric constant tensor:
#      x y z
#    x 4.065210 0.369380 0.076900 
#    y 0.369380 4.291030 0.179850 
#    z 0.076900 0.179850 3.754260 
# 
# 
# High freq. dielectric constant tensor:
#      x y z
#    x 1.860670 0.021530 0.002520 
#    y 0.021530 1.848480 0.019950 
#    z 0.002520 0.019950 1.823820 
# 
# From -- ./inp_files/175785.got.cif
#   From: 2010.06.25/outbox.cif.g09.slc.cpg/sg2_88_cif.got.tgz:175785.got - 2010.06.27 13:26:56.
