data_PCOD8010742
_publ_section_title
;
Structure prediction by ZEFSAII (Michael W. Deem and Ramdas Pophale) SiO2 
 PCOD8010742
Probable space group: P -1
;
_chemical_formula_sum "Si O2"
_cell_formula_units_Z 16
_cell_length_a 10.956580
_cell_length_b 9.233559
_cell_length_c 12.583237
_cell_angle_alpha 133.712439
_cell_angle_beta 48.584143
_cell_angle_gamma 113.064994
_cell_volume 685.021527
_symmetry_space_group_name_H-M "P -1"
_symmetry_group_IT_number 2
_symmetry_cell_setting 'triclinic'
loop_
_space_group_symop_operation_xyz
x,y,z
-x,-y,-z
loop_
_atom_site_type_symbol
_atom_site_label
_atom_site_fract_x
_atom_site_fract_y
_atom_site_fract_z
Si Si1 0.618104 0.947170 0.559519
Si Si2 0.005948 0.121512 0.273771
Si Si3 0.117870 0.469802 0.073150
Si Si4 0.731823 0.939438 0.263938
Si Si5 0.660894 0.743888 0.864706
Si Si6 0.227327 0.663547 0.312201
Si Si7 0.514500 0.828144 0.768315
Si Si8 0.178155 0.684871 0.942233
O O1 0.737583 0.876537 0.356011
O O2 0.656218 0.164469 0.689166
O O3 0.437639 0.946431 0.616081
O O4 0.621673 0.792999 0.579695
O O5 0.150925 0.235482 0.202605
O O6 0.867731 0.095415 0.250400
O O7 0.921536 0.255742 0.484788
O O8 0.084205 0.895683 0.146325
O O9 0.130650 0.617402 0.238417
O O10 0.930900 0.431267 0.135469
O O11 0.210849 0.552958 0.961733
O O12 0.221878 0.256079 0.933965
O O13 0.644933 0.523384 0.810618
O O14 0.632454 0.746934 0.755413
O O15 0.537200 0.928098 0.076118
O O16 0.351644 0.714745 0.803021
#
# Coordination Sequence:
#
# PCOD8010742 Si02
#       8
#     2   2   2   2   2   2   2   2
#     4  10  22  39  61  91 119 163 196 240 302 354
#     4   9  20  41  61  83 120 160 197 244 298 343
#     4  10  21  38  63  90 118 155 204 248 294 350
#     4   9  20  40  62  84 125 156 201 246 289 356
#     4  10  22  38  59  92 126 152 194 255 296 346
#     4  11  23  36  65  93 115 157 205 247 290 353
#     4  10  22  39  60  88 125 159 194 239 307 359
#     4   9  21  41  60  86 123 160 191 251 299 349
#
# _framework density 23.356929999999998
#
# number of rings (size 3 to 8) (size 9 to 14) (size 15 to 20)
#    0.000    2.250    0.000    1.125    7.000    2.500 
#    6.750    5.625    0.000    0.000    0.000    0.000 
#    0.000    0.000    0.000    0.000    0.000    0.000 
#
# Total GULP energy -198276.734814 kJ/mol
# GULP energy per Si atom -12392.295926 kJ/mol
# Density = 2.330377 g / cm^3
# Si number density = 23.356930 Si / 1000 Ang^3
#
#
#
# Elastic Constant Matrix: (Units=GPa)
#
#
# Indices 1 2 3 4 5 6 
#
# 1 80.9862 27.5400 17.5894 8.7395 7.3087 12.9427
# 2 27.5400 90.8596 9.8873 -5.6631 5.5443 11.6684
# 3 17.5894 9.8873 43.5416 8.1078 12.0701 8.6734
# 4 8.7395 -5.6631 8.1078 26.9912 4.2962 3.4808
# 5 7.3087 5.5443 12.0701 4.2962 33.2929 -1.9879
# 6 12.9427 11.6684 8.6734 3.4808 -1.9879 30.5739
#
#
#
# Elastic Compliance Matrix: (Units=1/GPa)
#
#
# Indices 1 2 3 4 5 6 
#
# 1 0.015649 -0.004078 -0.003571 -0.004198 -0.001138 -0.003651
# 2 -0.004078 0.013276 -0.001087 0.005204 -0.001817 -0.003743
# 3 -0.003571 -0.001087 0.029601 -0.005633 -0.009424 -0.006442
# 4 -0.004198 0.005204 -0.005633 0.042231 -0.003571 -0.003651
# 5 -0.001138 -0.001817 -0.009424 -0.003571 0.034856 0.006521
# 6 -0.003651 -0.003743 -0.006442 -0.003651 0.006521 0.038349
#
#
# Mechanical properties :
#
#
# Convention : Reuss Voigt Hill
#
# Bulk Modulus (GPa) = 24.35888 36.15786 30.25837
# Shear Modulus (GPa) = 24.37595 28.86301 26.61948
#
# Velocity S-wave (km/s) = 3.23403 3.51912 3.37958
# Velocity P-wave (km/s) = 4.93932 5.65919 5.31146
#
# Compressibility (1/GPa) = 0.04105280
#
# Stress axis : x y z
#
# Youngs Moduli (GPa) = 63.89990 75.32230 33.78299
#
# Poissons Ratio (x) = 0.30717 0.12065
# Poissons Ratio (y) = 0.26059 0.03673
# Poissons Ratio (z) = 0.22821 0.08190
#
# Static dielectric constant tensor:
#      x y z
#    x 4.211730 0.257160 0.124150 
#    y 0.257160 4.253850 -0.026700 
#    z 0.124150 -0.026700 4.075850 
# 
# 
# High freq. dielectric constant tensor:
#      x y z
#    x 1.927380 0.018680 0.005040 
#    y 0.018680 1.919010 -0.001130 
#    z 0.005040 -0.001130 1.908850 
# 
# From -- ./inp_files/226122.got.cif
#   From: 2010.06.25/outbox.cif.g09.slc.cpg/sg2_114_cif.got.tgz:226122.got - 2010.06.27 13:26:56.
