data_PCOD8010471
_publ_section_title
;
Structure prediction by ZEFSAII (Michael W. Deem and Ramdas Pophale) SiO2 
 PCOD8010471
Probable space group: P -1
;
_chemical_formula_sum "Si O2"
_cell_formula_units_Z 16
_cell_length_a 15.484370
_cell_length_b 6.177876
_cell_length_c 14.579093
_cell_angle_alpha 122.612409
_cell_angle_beta 141.329945
_cell_angle_gamma 57.382525
_cell_volume 715.268007
_symmetry_space_group_name_H-M "P -1"
_symmetry_group_IT_number 2
_symmetry_cell_setting 'triclinic'
loop_
_space_group_symop_operation_xyz
x,y,z
-x,-y,-z
loop_
_atom_site_type_symbol
_atom_site_label
_atom_site_fract_x
_atom_site_fract_y
_atom_site_fract_z
Si Si1 0.294299 0.102293 0.620231
Si Si2 0.858176 0.788625 0.107283
Si Si3 0.089561 0.226046 0.640545
Si Si4 0.636927 0.723812 0.638456
Si Si5 0.580896 0.677528 0.775493
Si Si6 0.957920 0.814007 0.685437
Si Si7 0.441981 0.282949 0.626713
Si Si8 0.063368 0.239850 0.137702
O O1 0.227561 0.201991 0.685364
O O2 0.168402 0.006489 0.438839
O O3 0.337863 0.323437 0.638360
O O4 0.431184 0.881262 0.703764
O O5 0.851611 0.789017 0.211403
O O6 0.957309 0.517729 0.090294
O O7 0.701576 0.818218 0.943187
O O8 0.911637 0.041892 0.173231
O O9 0.996571 0.518368 0.608177
O O10 0.000000 0.000000 0.500000
O O11 0.610711 0.554678 0.667945
O O12 0.635674 0.597755 0.506944
O O13 0.790041 0.782695 0.799150
O O14 0.509709 0.978453 0.600614
O O15 0.567192 0.440812 0.779067
O O16 0.898314 0.792637 0.731577
O O17 0.000000 0.000000 0.000000
#
# Coordination Sequence:
#
# PCOD8010471 Si02
#       8
#     2   2   2   2   2   2   2   2
#     4  11  24  41  70  98 124 172 216 279 328 393
#     4  11  26  44  65 102 138 177 220 279 330 398
#     4  11  25  44  74 100 127 171 227 281 337 390
#     4  10  21  38  60  94 126 181 221 271 322 388
#     4  11  25  41  63  95 138 173 219 266 335 401
#     4  11  24  43  70 100 132 167 231 278 331 397
#     4  10  22  40  62  93 135 169 224 273 326 388
#     4  11  23  40  67  97 138 179 226 269 334 390
#
# _framework density 22.369237999999999
#
# number of rings (size 3 to 8) (size 9 to 14) (size 15 to 20)
#    0.000    1.250    2.500    2.250    3.500    6.500 
#    0.000    1.250    0.000    0.000    0.000    0.000 
#    0.000    0.000    0.000    0.000    0.000    0.000 
#
# Total GULP energy -198284.784777 kJ/mol
# GULP energy per Si atom -12392.799049 kJ/mol
# Density = 2.231832 g / cm^3
# Si number density = 22.369238 Si / 1000 Ang^3
#
#
#
# Elastic Constant Matrix: (Units=GPa)
#
#
# Indices 1 2 3 4 5 6 
#
# 1 166.9580 28.2520 25.8110 5.9148 7.8686 9.8238
# 2 28.2520 80.7902 38.5000 9.2927 4.6259 5.0005
# 3 25.8110 38.5000 78.7173 2.1053 14.2200 -6.5899
# 4 5.9148 9.2927 2.1053 35.6832 3.6136 10.1272
# 5 7.8686 4.6259 14.2200 3.6136 34.0207 4.9528
# 6 9.8238 5.0005 -6.5899 10.1272 4.9528 33.9919
#
#
#
# Elastic Compliance Matrix: (Units=1/GPa)
#
#
# Indices 1 2 3 4 5 6 
#
# 1 0.006605 -0.001418 -0.001561 -0.000045 -0.000396 -0.001932
# 2 -0.001418 0.017435 -0.008684 -0.003110 0.002392 -0.003260
# 3 -0.001561 -0.008684 0.019357 0.000299 -0.007526 0.006489
# 4 -0.000045 -0.003110 0.000299 0.031439 -0.001782 -0.008579
# 5 -0.000396 0.002392 -0.007526 -0.001782 0.033373 -0.006028
# 6 -0.001932 -0.003260 0.006489 -0.008579 -0.006028 0.035149
#
#
# Mechanical properties :
#
#
# Convention : Reuss Voigt Hill
#
# Bulk Modulus (GPa) = 49.82460 56.84349 53.33404
# Shear Modulus (GPa) = 28.83944 36.33268 32.58606
#
# Velocity S-wave (km/s) = 3.59450 4.03454 3.82086
# Velocity P-wave (km/s) = 6.28883 6.86804 6.58480
#
# Compressibility (1/GPa) = 0.02007041
#
# Stress axis : x y z
#
# Youngs Moduli (GPa) = 151.40552 57.35747 51.65985
#
# Poissons Ratio (x) = 0.08136 0.08063
# Poissons Ratio (y) = 0.21476 0.44861
# Poissons Ratio (z) = 0.23632 0.49809
#
# Static dielectric constant tensor:
#      x y z
#    x 4.652370 0.229760 -0.090010 
#    y 0.229760 3.941350 0.008460 
#    z -0.090010 0.008460 4.023090 
# 
# 
# High freq. dielectric constant tensor:
#      x y z
#    x 1.905470 0.017100 0.009000 
#    y 0.017100 1.865400 -0.006830 
#    z 0.009000 -0.006830 1.875110 
# 
# From -- ./inp_files/85140.got.cif
#   From: 2010.06.25/outbox.cif.g09.slc.cpg/sg2_43_cif.got.tgz:85140.got - 2010.06.27 13:26:56.
