data_PCOD8010207
_publ_section_title
;
Structure prediction by ZEFSAII (Michael W. Deem and Ramdas Pophale) SiO2 
 PCOD8010207
Probable space group: P -1
;
_chemical_formula_sum "Si O2"
_cell_formula_units_Z 16
_cell_length_a 11.269454
_cell_length_b 8.484449
_cell_length_c 7.613710
_cell_angle_alpha 107.349566
_cell_angle_beta 90.689362
_cell_angle_gamma 92.944425
_cell_volume 693.661662
_symmetry_space_group_name_H-M "P -1"
_symmetry_group_IT_number 2
_symmetry_cell_setting 'triclinic'
loop_
_space_group_symop_operation_xyz
x,y,z
-x,-y,-z
loop_
_atom_site_type_symbol
_atom_site_label
_atom_site_fract_x
_atom_site_fract_y
_atom_site_fract_z
Si Si1 0.778296 0.496527 0.290369
Si Si2 0.021336 0.253627 0.617897
Si Si3 0.191598 0.701927 0.131891
Si Si4 0.461401 0.373593 0.723998
Si Si5 0.675254 0.278039 0.526092
Si Si6 0.302097 0.965989 0.001071
Si Si7 0.516836 0.747084 0.931433
Si Si8 0.162399 0.962675 0.656756
O O1 0.903246 0.581435 0.386447
O O2 0.679012 0.632685 0.316829
O O3 0.735570 0.360571 0.383922
O O4 0.797144 0.414778 0.074130
O O5 0.942862 0.291703 0.800222
O O6 0.941723 0.181672 0.430942
O O7 0.121274 0.132102 0.637208
O O8 0.273372 0.632406 0.265302
O O9 0.240535 0.889969 0.149700
O O10 0.532314 0.289417 0.536267
O O11 0.512068 0.564373 0.792008
O O12 0.486379 0.268008 0.862586
O O13 0.717494 0.089667 0.459725
O O14 0.402493 0.842686 0.894916
O O15 0.193204 0.977341 0.866829
O O16 0.363770 0.148734 0.094577
#
# Coordination Sequence:
#
# PCOD8010207 Si02
#       8
#     2   2   2   2   2   2   2   2
#     4  12  23  44  68  99 134 173 222 270 326 392
#     4  10  25  44  67  95 129 179 223 275 322 382
#     4  11  22  43  70  94 135 172 223 271 327 385
#     4  11  20  41  65 101 135 171 211 273 328 395
#     4  11  23  41  67  95 135 175 212 274 329 385
#     4  11  20  41  66  99 128 177 209 273 331 389
#     4  10  21  37  69  98 137 167 219 266 331 399
#     4  10  22  45  64  89 139 164 220 278 317 383
#
# _framework density 23.066001
#
# number of rings (size 3 to 8) (size 9 to 14) (size 15 to 20)
#    0.000    1.250    3.750    2.250    0.000    2.500 
#    9.000    2.500    0.000    0.000    0.000    0.000 
#    0.000    0.000    0.000    0.000    0.000    0.000 
#
# Total GULP energy -198329.333034 kJ/mol
# GULP energy per Si atom -12395.583315 kJ/mol
# Density = 2.301350 g / cm^3
# Si number density = 23.066001 Si / 1000 Ang^3
#
#
#
# Elastic Constant Matrix: (Units=GPa)
#
#
# Indices 1 2 3 4 5 6 
#
# 1 136.5796 42.7669 34.4427 1.0999 -11.3459 6.5043
# 2 42.7669 51.5351 -2.5084 -2.4832 -2.6576 2.0030
# 3 34.4427 -2.5084 63.8376 -8.2542 5.1318 0.9528
# 4 1.0999 -2.4832 -8.2542 19.4627 -7.5580 1.7035
# 5 -11.3459 -2.6576 5.1318 -7.5580 46.9254 1.0903
# 6 6.5043 2.0030 0.9528 1.7035 1.0903 46.3991
#
#
#
# Elastic Compliance Matrix: (Units=1/GPa)
#
#
# Indices 1 2 3 4 5 6 
#
# 1 0.013416 -0.011585 -0.008505 -0.004663 0.002792 -0.001100
# 2 -0.011585 0.029768 0.008488 0.007754 -0.000792 -0.000101
# 3 -0.008505 0.008488 0.022069 0.009993 -0.002381 0.000062
# 4 -0.004663 0.007754 0.009993 0.060163 0.007962 -0.002282
# 5 0.002792 -0.000792 -0.002381 0.007962 0.023510 -0.001153
# 6 -0.001100 -0.000101 0.000062 -0.002282 -0.001153 0.021820
#
#
# Mechanical properties :
#
#
# Convention : Reuss Voigt Hill
#
# Bulk Modulus (GPa) = 23.78105 44.59499 34.18802
# Shear Modulus (GPa) = 24.04224 34.37419 29.20821
#
# Velocity S-wave (km/s) = 3.23201 3.86457 3.56236
# Velocity P-wave (km/s) = 4.92546 6.26808 5.63689
#
# Compressibility (1/GPa) = 0.04205028
#
# Stress axis : x y z
#
# Youngs Moduli (GPa) = 74.53791 33.59291 45.31156
#
# Poissons Ratio (x) = 0.38918 0.38535
# Poissons Ratio (y) = 0.86354 -0.38461
# Poissons Ratio (z) = 0.63391 -0.28514
#
# Static dielectric constant tensor:
#      x y z
#    x 4.434480 -0.112940 0.106470 
#    y -0.112940 4.154930 -0.132570 
#    z 0.106470 -0.132570 4.004070 
# 
# 
# High freq. dielectric constant tensor:
#      x y z
#    x 1.919530 -0.011390 0.008450 
#    y -0.011390 1.904100 -0.009740 
#    z 0.008450 -0.009740 1.898170 
# 
# From -- ./inp_files/239757.got.cif
#   From: 2010.06.25/outbox.cif.g09.slc.cpg/sg2_120_cif.got.tgz:239757.got - 2010.06.27 13:26:56.
