data_PCOD8010592
_publ_section_title
;
Structure prediction by ZEFSAII (Michael W. Deem and Ramdas Pophale) SiO2 
 PCOD8010592
Probable space group: P -1
;
_chemical_formula_sum "Si O2"
_cell_formula_units_Z 16
_cell_length_a 12.885024
_cell_length_b 21.892825
_cell_length_c 9.342089
_cell_angle_alpha 36.498020
_cell_angle_beta 35.611834
_cell_angle_gamma 34.001220
_cell_volume 786.883040
_symmetry_space_group_name_H-M "P -1"
_symmetry_group_IT_number 2
_symmetry_cell_setting 'triclinic'
loop_
_space_group_symop_operation_xyz
x,y,z
-x,-y,-z
loop_
_atom_site_type_symbol
_atom_site_label
_atom_site_fract_x
_atom_site_fract_y
_atom_site_fract_z
Si Si1 0.015364 0.199627 0.586693
Si Si2 0.723078 0.972939 0.628603
Si Si3 0.042135 0.400253 0.528923
Si Si4 0.645203 0.396566 0.924057
Si Si5 0.559299 0.377743 0.733749
Si Si6 0.162266 0.385269 0.123769
Si Si7 0.914433 0.134927 0.125204
Si Si8 0.738772 0.861732 0.112590
O O1 0.792028 0.279149 0.612456
O O2 0.176103 0.096300 0.499220
O O3 0.119217 0.277797 0.359267
O O4 0.975218 0.142551 0.879011
O O5 0.843689 0.040288 0.409728
O O6 0.483121 0.068765 0.692303
O O7 0.732949 0.882593 0.909596
O O8 0.158983 0.418318 0.232147
O O9 0.172350 0.276644 0.698492
O O10 0.000000 0.500000 0.500000
O O11 0.841382 0.412570 0.652308
O O12 0.539086 0.400809 0.884361
O O13 0.500000 0.500000 0.000000
O O14 0.729443 0.264227 0.143951
O O15 0.500000 0.500000 0.500000
O O16 0.403240 0.340190 0.907038
O O17 0.000000 0.500000 0.000000
O O18 0.119540 0.090505 0.071296
#
# Coordination Sequence:
#
# PCOD8010592 Si02
#       8
#     2   2   2   2   2   2   2   2
#     4  11  24  42  62 100 125 170 224 261 329 392
#     4  11  25  42  68  89 132 174 217 271 319 390
#     4  11  23  40  67  96 130 170 213 267 333 385
#     4  10  21  38  61  98 125 162 214 261 323 392
#     4  11  22  40  63  91 132 166 209 264 324 387
#     4  12  23  42  65  95 138 166 207 277 322 391
#     4  10  22  43  65  90 130 166 221 272 316 389
#     4  10  24  45  61  97 128 167 223 266 323 388
#
# _framework density 20.333390000000001
#
# number of rings (size 3 to 8) (size 9 to 14) (size 15 to 20)
#    0.000    1.250    5.000    1.500    7.000    3.500 
#    0.000    0.000    0.000    0.000    0.000    0.000 
#    0.000    0.000    0.000    0.000    0.000    0.000 
#
# Total GULP energy -198327.719335 kJ/mol
# GULP energy per Si atom -12395.482458 kJ/mol
# Density = 2.028711 g / cm^3
# Si number density = 20.333390 Si / 1000 Ang^3
#
#
#
# Elastic Constant Matrix: (Units=GPa)
#
#
# Indices 1 2 3 4 5 6 
#
# 1 94.8086 48.8209 30.5588 -1.6282 -19.1478 -13.3149
# 2 48.8209 135.4057 48.1957 12.9345 -2.8631 8.6151
# 3 30.5588 48.1957 88.8430 -4.2777 -7.5314 -5.6117
# 4 -1.6282 12.9345 -4.2777 28.4509 -4.3007 -1.5917
# 5 -19.1478 -2.8631 -7.5314 -4.3007 36.6336 4.4611
# 6 -13.3149 8.6151 -5.6117 -1.5917 4.4611 36.0828
#
#
#
# Elastic Compliance Matrix: (Units=1/GPa)
#
#
# Indices 1 2 3 4 5 6 
#
# 1 0.016870 -0.006559 -0.000877 0.005399 0.007917 0.006914
# 2 -0.006559 0.012929 -0.005867 -0.008063 -0.003802 -0.006305
# 3 -0.000877 -0.005867 0.015431 0.005504 0.002486 0.003412
# 4 0.005399 -0.008063 0.005504 0.041400 0.007493 0.005673
# 5 0.007917 -0.003802 0.002486 0.007493 0.032464 0.000533
# 6 0.006914 -0.006305 0.003412 0.005673 0.000533 0.032486
#
#
# Mechanical properties :
#
#
# Convention : Reuss Voigt Hill
#
# Bulk Modulus (GPa) = 53.68855 63.80091 58.74473
# Shear Modulus (GPa) = 27.11587 32.99894 30.05741
#
# Velocity S-wave (km/s) = 3.65576 4.03289 3.84895
# Velocity P-wave (km/s) = 6.65439 7.28911 6.97897
#
# Compressibility (1/GPa) = 0.01862594
#
# Stress axis : x y z
#
# Youngs Moduli (GPa) = 59.27618 77.34519 64.80333
#
# Poissons Ratio (x) = 0.50728 0.05683
# Poissons Ratio (y) = 0.38877 0.38018
# Poissons Ratio (z) = 0.05198 0.45376
#
# Static dielectric constant tensor:
#      x y z
#    x 5.771070 -0.161990 -0.854530 
#    y -0.161990 3.387430 -0.146540 
#    z -0.854530 -0.146540 3.960570 
# 
# 
# High freq. dielectric constant tensor:
#      x y z
#    x 1.801200 -0.012940 -0.009640 
#    y -0.012940 1.790350 0.000640 
#    z -0.009640 0.000640 1.804570 
# 
# From -- ./inp_files/273513.got.cif
#   From: 2010.06.25/outbox.cif.g09.slc.cpg/sg2_137_cif.got.tgz:273513.got - 2010.06.27 13:26:56.
