data_PCOD8010836
_publ_section_title
;
Structure prediction by ZEFSAII (Michael W. Deem and Ramdas Pophale) SiO2 
 PCOD8010836
Probable space group: P -1
;
_chemical_formula_sum "Si O2"
_cell_formula_units_Z 16
_cell_length_a 11.718461
_cell_length_b 21.881245
_cell_length_c 7.711291
_cell_angle_alpha 139.210191
_cell_angle_beta 125.381860
_cell_angle_gamma 33.865057
_cell_volume 713.079117
_symmetry_space_group_name_H-M "P -1"
_symmetry_group_IT_number 2
_symmetry_cell_setting 'triclinic'
loop_
_space_group_symop_operation_xyz
x,y,z
-x,-y,-z
loop_
_atom_site_type_symbol
_atom_site_label
_atom_site_fract_x
_atom_site_fract_y
_atom_site_fract_z
Si Si1 0.278279 0.268383 0.081514
Si Si2 0.562824 0.766347 0.205698
Si Si3 0.435140 0.330783 0.647578
Si Si4 0.089938 0.856949 0.380071
Si Si5 0.006318 0.785891 0.846711
Si Si6 0.132082 0.633480 0.955543
Si Si7 0.554293 0.966750 0.775214
Si Si8 0.859127 0.105889 0.952770
O O1 0.348718 0.312364 0.373382
O O2 0.057014 0.338320 0.091429
O O3 0.265368 0.312002 0.964714
O O4 0.449376 0.102691 0.872747
O O5 0.645362 0.671152 0.243494
O O6 0.476783 0.908877 0.499472
O O7 0.376994 0.803353 0.027511
O O8 0.682348 0.215195 0.619702
O O9 0.343748 0.480109 0.868748
O O10 0.956372 0.893175 0.171421
O O11 0.119094 0.743829 0.269661
O O12 0.945737 0.007662 0.652418
O O13 0.127160 0.646721 0.766175
O O14 0.801337 0.846658 0.709120
O O15 0.136167 0.782097 0.811599
O O16 0.500000 0.000000 0.000000
O O17 0.000000 0.000000 0.000000
#
# Coordination Sequence:
#
# PCOD8010836 Si02
#       8
#     2   2   2   2   2   2   2   2
#     4  12  25  41  63  97 129 164 210 259 319 374
#     4  12  25  40  65  95 130 165 205 262 319 376
#     4  12  23  43  67  89 125 172 217 256 305 369
#     4  10  22  39  65  89 122 161 209 254 313 372
#     4  10  21  38  64  90 121 162 207 253 316 366
#     4  10  23  41  64  89 124 169 220 255 298 373
#     4  12  20  39  64  95 126 160 202 258 321 378
#     4  12  23  39  62  99 132 155 202 265 323 381
#
# _framework density 22.437905000000001
#
# number of rings (size 3 to 8) (size 9 to 14) (size 15 to 20)
#    0.750    0.000    3.750    5.250    0.000    1.500 
#    0.000    1.250    0.000    3.750    0.000    0.000 
#    0.000    0.000    0.000    0.000    0.000    0.000 
#
# Total GULP energy -198220.568116 kJ/mol
# GULP energy per Si atom -12388.785507 kJ/mol
# Density = 2.238684 g / cm^3
# Si number density = 22.437905 Si / 1000 Ang^3
#
#
#
# Elastic Constant Matrix: (Units=GPa)
#
#
# Indices 1 2 3 4 5 6 
#
# 1 130.5402 28.7500 29.3230 -5.4856 14.2732 9.3597
# 2 28.7500 74.9234 12.4671 7.7379 6.9534 12.9824
# 3 29.3230 12.4671 39.5866 -2.4822 11.0123 6.9406
# 4 -5.4856 7.7379 -2.4822 33.6256 10.8776 7.0783
# 5 14.2732 6.9534 11.0123 10.8776 30.3820 -5.3787
# 6 9.3597 12.9824 6.9406 7.0783 -5.3787 38.5289
#
#
#
# Elastic Compliance Matrix: (Units=1/GPa)
#
#
# Indices 1 2 3 4 5 6 
#
# 1 0.010089 -0.002729 -0.004983 0.003555 -0.003906 -0.001832
# 2 -0.002729 0.015851 -0.002159 -0.003060 -0.001156 -0.003888
# 3 -0.004983 -0.002159 0.035703 0.008792 -0.014699 -0.008161
# 4 0.003555 -0.003060 0.008792 0.040932 -0.020911 -0.011856
# 5 -0.003906 -0.001156 -0.014699 -0.020911 0.050461 0.014872
# 6 -0.001832 -0.003888 -0.008161 -0.011856 0.014872 0.033434
#
#
# Mechanical properties :
#
#
# Convention : Reuss Voigt Hill
#
# Bulk Modulus (GPa) = 23.86616 42.90338 33.38477
# Shear Modulus (GPa) = 22.70893 32.14132 27.42512
#
# Velocity S-wave (km/s) = 3.18477 3.78889 3.49989
# Velocity P-wave (km/s) = 4.91765 6.18897 5.58957
#
# Compressibility (1/GPa) = 0.04190033
#
# Stress axis : x y z
#
# Youngs Moduli (GPa) = 99.12086 63.08940 28.00903
#
# Poissons Ratio (x) = 0.17220 0.13956
# Poissons Ratio (y) = 0.27054 0.06046
# Poissons Ratio (z) = 0.49389 0.13619
#
# Static dielectric constant tensor:
#      x y z
#    x 4.303280 0.156040 0.400160 
#    y 0.156040 3.882590 -0.137220 
#    z 0.400160 -0.137220 3.813580 
# 
# 
# High freq. dielectric constant tensor:
#      x y z
#    x 1.903440 0.011650 0.026800 
#    y 0.011650 1.875210 -0.017800 
#    z 0.026800 -0.017800 1.858220 
# 
# From -- ./inp_files/285074.got.cif
#   From: 2010.06.25/outbox.cif.g09.slc.cpg/sg2_143_cif.got.tgz:285074.got - 2010.06.27 13:26:56.
