data_PCOD8010616
_publ_section_title
;
Structure prediction by ZEFSAII (Michael W. Deem and Ramdas Pophale) SiO2 
 PCOD8010616
Probable space group: P -1
;
_chemical_formula_sum "Si O2"
_cell_formula_units_Z 14
_cell_length_a 29.396845
_cell_length_b 17.306803
_cell_length_c 6.953517
_cell_angle_alpha 139.023230
_cell_angle_beta 38.630434
_cell_angle_gamma 162.148781
_cell_volume 675.828356
_symmetry_space_group_name_H-M "P -1"
_symmetry_group_IT_number 2
_symmetry_cell_setting 'triclinic'
loop_
_space_group_symop_operation_xyz
x,y,z
-x,-y,-z
loop_
_atom_site_type_symbol
_atom_site_label
_atom_site_fract_x
_atom_site_fract_y
_atom_site_fract_z
Si Si1 0.455257 0.327704 0.191661
Si Si2 0.011695 0.518496 0.267668
Si Si3 0.880403 0.148737 0.749673
Si Si4 0.552764 0.121088 0.254901
Si Si5 0.747754 0.620047 0.612632
Si Si6 0.345178 0.926391 0.888319
Si Si7 0.999246 0.070449 0.331830
O O1 0.500000 0.500000 0.500000
O O2 0.301634 0.144769 0.232851
O O3 0.604805 0.506697 0.903875
O O4 0.409779 0.150005 0.138527
O O5 0.033128 0.680596 0.411684
O O6 0.000000 0.500000 0.500000
O O7 0.161421 0.658808 0.970744
O O8 0.873675 0.245376 0.111640
O O9 0.979292 0.179495 0.555441
O O10 0.690312 0.412768 0.331316
O O11 0.608398 0.084339 0.106431
O O12 0.408151 0.970921 0.561198
O O13 0.500000 0.000000 0.000000
O O14 0.838135 0.723578 0.709000
O O15 0.857011 0.830776 0.486642
O O16 0.000000 0.000000 0.000000
#
# Coordination Sequence:
#
# PCOD8010616 Si02
#       7
#     2   2   2   2   2   2   2
#     4  10  21  41  62  86 124 160 195 249 301 351
#     4  10  22  40  62  88 122 157 195 251 301 348
#     4  10  23  40  63  91 118 158 209 243 293 366
#     4  10  21  38  62  87 118 157 195 248 303 349
#     4  10  24  41  61  92 121 156 206 246 298 364
#     4   9  21  38  58  89 119 150 204 248 290 359
#     4  11  24  42  63  88 122 161 200 250 300 352
#
# _framework density 20.715318
#
# number of rings (size 3 to 8) (size 9 to 14) (size 15 to 20)
#    0.000    2.000    0.000    1.714    0.000   16.571 
#    0.000    1.429    0.000    0.000    0.000    0.000 
#    0.000    0.000    0.000    0.000    0.000    0.000 
#
# Total GULP energy -173550.870121 kJ/mol
# GULP energy per Si atom -12396.490723 kJ/mol
# Density = 2.066817 g / cm^3
# Si number density = 20.715318 Si / 1000 Ang^3
#
#
#
# Elastic Constant Matrix: (Units=GPa)
#
#
# Indices 1 2 3 4 5 6 
#
# 1 115.0828 34.4113 53.4274 4.1474 5.5966 -15.2618
# 2 34.4113 106.2655 69.3525 4.7408 10.8229 10.8159
# 3 53.4274 69.3525 145.1149 11.7059 19.5863 3.5343
# 4 4.1474 4.7408 11.7059 39.4071 2.8994 -0.7434
# 5 5.5966 10.8229 19.5863 2.8994 44.1029 2.4717
# 6 -15.2618 10.8159 3.5343 -0.7434 2.4717 37.8888
#
#
#
# Elastic Compliance Matrix: (Units=1/GPa)
#
#
# Indices 1 2 3 4 5 6 
#
# 1 0.011656 -0.002119 -0.003461 0.000143 0.000254 0.005609
# 2 -0.002119 0.014493 -0.006003 0.000208 -0.000389 -0.004401
# 3 -0.003461 -0.006003 0.011639 -0.002156 -0.003081 -0.000608
# 4 0.000143 0.000208 -0.002156 0.026055 -0.000868 0.000767
# 5 0.000254 -0.000389 -0.003081 -0.000868 0.024224 -0.001097
# 6 0.005609 -0.004401 -0.000608 0.000767 -0.001097 0.030052
#
#
# Mechanical properties :
#
#
# Convention : Reuss Voigt Hill
#
# Bulk Modulus (GPa) = 68.39495 75.64952 72.02223
# Shear Modulus (GPa) = 34.20919 38.23122 36.22020
#
# Velocity S-wave (km/s) = 4.06815 4.30065 4.18601
# Velocity P-wave (km/s) = 7.42662 7.82679 7.62933
#
# Compressibility (1/GPa) = 0.01462096
#
# Stress axis : x y z
#
# Youngs Moduli (GPa) = 85.79109 69.00004 85.91713
#
# Poissons Ratio (x) = 0.14619 0.29740
# Poissons Ratio (y) = 0.18177 0.51580
# Poissons Ratio (z) = 0.29696 0.41424
#
# Static dielectric constant tensor:
#      x y z
#    x 4.108920 0.067440 -0.127840 
#    y 0.067440 3.946760 0.049460 
#    z -0.127840 0.049460 3.723270 
# 
# 
# High freq. dielectric constant tensor:
#      x y z
#    x 1.823010 0.002810 -0.007430 
#    y 0.002810 1.822370 0.006810 
#    z -0.007430 0.006810 1.802760 
# 
# From -- ./inp_files/127264.got.cif
#   From: 2010.06.25/outbox.cif.g09.slc.cpg/sg2_64_cif.got.tgz:127264.got - 2010.06.27 13:26:56.
