data_PCOD8010725
_publ_section_title
;
Structure prediction by ZEFSAII (Michael W. Deem and Ramdas Pophale) SiO2 
 PCOD8010725
Probable space group: P -1
;
_chemical_formula_sum "Si O2"
_cell_formula_units_Z 12
_cell_length_a 15.462871
_cell_length_b 5.052435
_cell_length_c 9.384164
_cell_angle_alpha 93.655205
_cell_angle_beta 137.466031
_cell_angle_gamma 85.816632
_cell_volume 494.247220
_symmetry_space_group_name_H-M "P -1"
_symmetry_group_IT_number 2
_symmetry_cell_setting 'triclinic'
loop_
_space_group_symop_operation_xyz
x,y,z
-x,-y,-z
loop_
_atom_site_type_symbol
_atom_site_label
_atom_site_fract_x
_atom_site_fract_y
_atom_site_fract_z
Si Si1 0.543827 0.775306 0.233396
Si Si2 0.119613 0.528370 0.044381
Si Si3 0.104576 0.304326 0.693311
Si Si4 0.778931 0.951260 0.704713
Si Si5 0.611357 0.708939 0.992057
Si Si6 0.973963 0.892735 0.684054
O O1 0.645231 0.886146 0.470150
O O2 0.485650 0.498144 0.201841
O O3 0.428047 0.994080 0.093894
O O4 0.611719 0.709473 0.163789
O O5 0.199661 0.250402 0.143424
O O6 0.216371 0.751204 0.221429
O O7 0.000000 0.500000 0.000000
O O8 0.068637 0.619890 0.823280
O O9 0.116205 0.100784 0.564322
O O10 0.000000 0.500000 0.500000
O O11 0.248998 0.391622 0.897708
O O12 0.060630 0.149010 0.777849
O O13 0.894522 0.923116 0.731458
#
# Coordination Sequence:
#
# PCOD8010725 Si02
#       6
#     2   2   2   2   2   2
#     4  10  21  38  63  86 121 157 205 257 293 356
#     4  10  22  37  62  91 123 159 200 259 302 355
#     4  11  25  37  63  88 129 166 191 254 308 382
#     4  11  21  39  66  91 122 157 205 257 305 355
#     4  10  22  39  58  90 121 159 202 250 304 353
#     4  10  23  38  56  94 122 158 202 245 317 363
#
# _framework density 24.279350000000001
#
# number of rings (size 3 to 8) (size 9 to 14) (size 15 to 20)
#    0.000    1.667    1.667    3.000   11.667    1.333 
#    0.000    0.000    0.000    6.000    0.000    0.000 
#    0.000    0.000    0.000    0.000    0.000    0.000 
#
# Total GULP energy -148700.787411 kJ/mol
# GULP energy per Si atom -12391.732284 kJ/mol
# Density = 2.422409 g / cm^3
# Si number density = 24.279350 Si / 1000 Ang^3
#
#
#
# Elastic Constant Matrix: (Units=GPa)
#
#
# Indices 1 2 3 4 5 6 
#
# 1 72.1098 33.1561 48.7197 -11.5446 14.6355 7.7856
# 2 33.1561 130.6697 27.5874 -3.3825 9.7628 23.3840
# 3 48.7197 27.5874 153.1822 17.4777 -3.4457 15.3591
# 4 -11.5446 -3.3825 17.4777 45.9721 1.5559 0.5514
# 5 14.6355 9.7628 -3.4457 1.5559 44.1133 -1.2466
# 6 7.7856 23.3840 15.3591 0.5514 -1.2466 27.6142
#
#
#
# Elastic Compliance Matrix: (Units=1/GPa)
#
#
# Indices 1 2 3 4 5 6 
#
# 1 0.024291 -0.003596 -0.008351 0.009286 -0.008235 0.000284
# 2 -0.003596 0.009987 0.000081 -0.000067 -0.001222 -0.007543
# 3 -0.008351 0.000081 0.010260 -0.006079 0.003680 -0.003134
# 4 0.009286 -0.000067 -0.006079 0.026541 -0.004474 0.000088
# 5 -0.008235 -0.001222 0.003680 -0.004474 0.026190 0.002581
# 6 0.000284 -0.007543 -0.003134 0.000088 0.002581 0.044378
#
#
# Mechanical properties :
#
#
# Convention : Reuss Voigt Hill
#
# Bulk Modulus (GPa) = 48.06008 63.87645 55.96826
# Shear Modulus (GPa) = 29.01687 39.97318 34.49503
#
# Velocity S-wave (km/s) = 3.46081 4.06197 3.77338
# Velocity P-wave (km/s) = 5.98391 6.95453 6.48740
#
# Compressibility (1/GPa) = 0.02080729
#
# Stress axis : x y z
#
# Youngs Moduli (GPa) = 41.16801 100.12602 97.46385
#
# Poissons Ratio (x) = 0.36001 0.81395
# Poissons Ratio (y) = 0.14802 -0.00793
# Poissons Ratio (z) = 0.34381 -0.00815
#
# Static dielectric constant tensor:
#      x y z
#    x 4.629460 -0.102450 -0.656660 
#    y -0.102450 5.001350 0.150400 
#    z -0.656660 0.150400 5.005770 
# 
# 
# High freq. dielectric constant tensor:
#      x y z
#    x 1.941530 0.002600 -0.017140 
#    y 0.002600 1.989960 0.013170 
#    z -0.017140 0.013170 1.978750 
# 
# From -- ./inp_files/39304.got.cif
#   From: 2010.06.25/outbox.cif.g09.slc.cpg/sg2_20_cif.got.tgz:39304.got - 2010.06.27 13:26:56.
