data_PCOD8010621
_publ_section_title
;
Structure prediction by ZEFSAII (Michael W. Deem and Ramdas Pophale) SiO2 
 PCOD8010621
Probable space group: P -1
;
_chemical_formula_sum "Si O2"
_cell_formula_units_Z 12
_cell_length_a 5.206748
_cell_length_b 22.300602
_cell_length_c 4.977177
_cell_angle_alpha 100.886268
_cell_angle_beta 61.748737
_cell_angle_gamma 112.115792
_cell_volume 471.581014
_symmetry_space_group_name_H-M "P -1"
_symmetry_group_IT_number 2
_symmetry_cell_setting 'triclinic'
loop_
_space_group_symop_operation_xyz
x,y,z
-x,-y,-z
loop_
_atom_site_type_symbol
_atom_site_label
_atom_site_fract_x
_atom_site_fract_y
_atom_site_fract_z
Si Si1 0.541155 0.446681 0.628192
Si Si2 0.893745 0.576249 0.747703
Si Si3 0.381731 0.925846 0.415083
Si Si4 0.443428 0.729636 0.719702
Si Si5 0.353035 0.121970 0.257658
Si Si6 0.017792 0.683987 0.383352
O O1 0.500000 0.500000 0.500000
O O2 0.768787 0.497718 0.773909
O O3 0.732637 0.401256 0.384326
O O4 0.253467 0.398230 0.901531
O O5 0.827809 0.608471 0.522220
O O6 0.483777 0.883382 0.547914
O O7 0.014223 0.902758 0.542617
O O8 0.500000 0.000000 0.500000
O O9 0.457394 0.080208 0.949994
O O10 0.530969 0.803750 0.829336
O O11 0.225803 0.717798 0.558917
O O12 0.761360 0.717020 0.482270
O O13 0.240452 0.686199 0.023669
#
# Coordination Sequence:
#
# PCOD8010621 Si02
#       6
#     2   2   2   2   2   2
#     4  10  21  38  62  87 123 160 213 259 356 392
#     4  10  23  38  59  92 119 167 210 280 324 407
#     4  12  25  44  72 106 138 180 225 278 336 399
#     4  12  26  45  68 100 132 186 227 278 338 397
#     4  12  24  44  69  98 143 179 225 280 334 401
#     4  12  27  45  71  98 137 175 239 280 336 399
#
# _framework density 25.446313
#
# number of rings (size 3 to 8) (size 9 to 14) (size 15 to 20)
#    0.000    0.667    0.000    8.000    4.667    0.000 
#    0.000    0.000    0.000    0.000    0.000    0.000 
#    0.000    0.000    0.000    0.000    0.000    0.000 
#
# Total GULP energy -148808.565459 kJ/mol
# GULP energy per Si atom -12400.713788 kJ/mol
# Density = 2.538840 g / cm^3
# Si number density = 25.446313 Si / 1000 Ang^3
#
#
#
# Elastic Constant Matrix: (Units=GPa)
#
#
# Indices 1 2 3 4 5 6 
#
# 1 108.2901 7.4912 62.1069 0.2258 -3.6428 -7.7904
# 2 7.4912 96.9977 2.6122 -2.0942 -19.7009 1.7614
# 3 62.1069 2.6122 191.6826 4.9145 -26.1193 -20.7793
# 4 0.2258 -2.0942 4.9145 33.8385 -1.6420 3.3052
# 5 -3.6428 -19.7009 -26.1193 -1.6420 32.9646 -0.2251
# 6 -7.7904 1.7614 -20.7793 3.3052 -0.2251 36.2213
#
#
#
# Elastic Compliance Matrix: (Units=1/GPa)
#
#
# Indices 1 2 3 4 5 6 
#
# 1 0.011600 -0.001342 -0.004106 0.000286 -0.002758 0.000161
# 2 -0.001342 0.012060 0.001344 0.000971 0.008171 -0.000142
# 3 -0.004106 0.001344 0.007848 -0.001073 0.006539 0.003692
# 4 0.000286 0.000971 -0.001073 0.030153 0.001241 -0.003345
# 5 -0.002758 0.008171 0.006539 0.001241 0.040177 0.002897
# 6 0.000161 -0.000142 0.003692 -0.003345 0.002897 0.030091
#
#
# Mechanical properties :
#
#
# Convention : Reuss Voigt Hill
#
# Bulk Modulus (GPa) = 42.91986 60.15456 51.53721
# Shear Modulus (GPa) = 33.80540 42.25557 38.03049
#
# Velocity S-wave (km/s) = 3.64881 4.07944 3.87012
# Velocity P-wave (km/s) = 5.88687 6.77349 6.34568
#
# Compressibility (1/GPa) = 0.02329924
#
# Stress axis : x y z
#
# Youngs Moduli (GPa) = 86.20350 82.91739 127.42345
#
# Poissons Ratio (x) = 0.11130 0.52321
# Poissons Ratio (y) = 0.11571 -0.17122
# Poissons Ratio (z) = 0.35396 -0.11142
#
# Static dielectric constant tensor:
#      x y z
#    x 6.159270 1.719020 -0.858810 
#    y 1.719020 6.933720 -0.947740 
#    z -0.858810 -0.947740 5.613120 
# 
# 
# High freq. dielectric constant tensor:
#      x y z
#    x 2.048830 0.018040 -0.004690 
#    y 0.018040 2.025840 0.006250 
#    z -0.004690 0.006250 2.038720 
# 
# From -- ./inp_files/13216.got.cif
#   From: 2010.06.25/outbox.cif.g09.slc.cpg/sg2_7_cif.got.tgz:13216.got - 2010.06.27 13:26:56.
