data_PCOD8010414
_publ_section_title
;
Structure prediction by ZEFSAII (Michael W. Deem and Ramdas Pophale) SiO2 
 PCOD8010414
Probable space group: P -1
;
_chemical_formula_sum "Si O2"
_cell_formula_units_Z 16
_cell_length_a 5.609346
_cell_length_b 18.802051
_cell_length_c 11.709150
_cell_angle_alpha 56.494986
_cell_angle_beta 54.408958
_cell_angle_gamma 84.888931
_cell_volume 786.749905
_symmetry_space_group_name_H-M "P -1"
_symmetry_group_IT_number 2
_symmetry_cell_setting 'triclinic'
loop_
_space_group_symop_operation_xyz
x,y,z
-x,-y,-z
loop_
_atom_site_type_symbol
_atom_site_label
_atom_site_fract_x
_atom_site_fract_y
_atom_site_fract_z
Si Si1 0.698976 0.936111 0.508097
Si Si2 0.139808 0.725214 0.470846
Si Si3 0.087946 0.819233 0.174402
Si Si4 0.636910 0.511226 0.285407
Si Si5 0.669312 0.648104 0.332707
Si Si6 0.388719 0.047339 0.233575
Si Si7 0.434732 0.127531 0.631382
Si Si8 0.269394 0.466617 0.196233
O O1 0.651466 0.900137 0.684651
O O2 0.605335 0.856868 0.507913
O O3 0.500000 0.000000 0.500000
O O4 0.049361 0.996785 0.323553
O O5 0.091745 0.789260 0.329705
O O6 0.376676 0.680216 0.395039
O O7 0.257103 0.789375 0.491976
O O8 0.828682 0.642530 0.665093
O O9 0.979799 0.732513 0.198037
O O10 0.839681 0.871545 0.205878
O O11 0.419320 0.882617 0.977902
O O12 0.688620 0.610926 0.233792
O O13 0.364138 0.433225 0.496965
O O14 0.489175 0.513402 0.200704
O O15 0.965708 0.493934 0.225545
O O16 0.549762 0.972586 0.275510
O O17 0.500000 0.500000 0.000000
#
# Coordination Sequence:
#
# PCOD8010414 Si02
#       8
#     2   2   2   2   2   2   2   2
#     4   9  20  39  58  78 115 155 205 246 306 368
#     4  10  22  37  60  87 124 155 201 257 309 366
#     4  11  21  37  60  90 126 151 209 259 307 373
#     4  10  21  40  68  89 122 168 207 255 318 374
#     4   9  21  37  61  89 120 155 200 260 312 366
#     4  10  21  38  61  87 116 164 204 254 309 371
#     4  10  21  38  60  87 119 164 197 257 313 371
#     4  11  23  42  64  93 128 169 210 253 311 384
#
# _framework density 20.336829999999999
#
# number of rings (size 3 to 8) (size 9 to 14) (size 15 to 20)
#    0.000    2.000    1.250    1.500    1.750    7.500 
#    2.250    3.750    0.000    0.000    0.000    0.000 
#    0.000    0.000    0.000    0.000    0.000    0.000 
#
# Total GULP energy -198239.283761 kJ/mol
# GULP energy per Si atom -12389.955235 kJ/mol
# Density = 2.029054 g / cm^3
# Si number density = 20.336830 Si / 1000 Ang^3
#
#
#
# Elastic Constant Matrix: (Units=GPa)
#
#
# Indices 1 2 3 4 5 6 
#
# 1 104.0349 44.6930 43.6517 0.1386 -3.7631 32.2710
# 2 44.6930 132.0410 63.3446 -2.5124 -1.2784 38.2834
# 3 43.6517 63.3446 131.0990 6.4143 -2.0013 18.1326
# 4 0.1386 -2.5124 6.4143 15.7527 1.2378 6.1865
# 5 -3.7631 -1.2784 -2.0013 1.2378 20.2626 1.0981
# 6 32.2710 38.2834 18.1326 6.1865 1.0981 36.7229
#
#
#
# Elastic Compliance Matrix: (Units=1/GPa)
#
#
# Indices 1 2 3 4 5 6 
#
# 1 0.015144 0.000745 -0.003830 0.006582 0.002805 -0.013387
# 2 0.000745 0.014563 -0.005740 0.010404 0.000655 -0.014775
# 3 -0.003830 -0.005740 0.011355 -0.007487 0.000234 0.004997
# 4 0.006582 0.010404 -0.007487 0.078558 -0.002245 -0.026101
# 5 0.002805 0.000655 0.000234 -0.002245 0.050312 -0.004390
# 6 -0.013387 -0.014775 0.004997 -0.026101 -0.004390 0.056458
#
#
# Mechanical properties :
#
#
# Convention : Reuss Voigt Hill
#
# Bulk Modulus (GPa) = 42.71306 74.50597 58.60952
# Shear Modulus (GPa) = 19.85340 28.91335 24.38337
#
# Velocity S-wave (km/s) = 3.12786 3.77467 3.46638
# Velocity P-wave (km/s) = 5.83893 7.46411 6.70097
#
# Compressibility (1/GPa) = 0.02341204
#
# Stress axis : x y z
#
# Youngs Moduli (GPa) = 66.03132 68.66725 88.06345
#
# Poissons Ratio (x) = -0.05117 0.33731
# Poissons Ratio (y) = -0.04921 0.50550
# Poissons Ratio (z) = 0.25292 0.39417
#
# Static dielectric constant tensor:
#      x y z
#    x 3.985190 0.324050 -0.045770 
#    y 0.324050 4.121370 0.086020 
#    z -0.045770 0.086020 3.554920 
# 
# 
# High freq. dielectric constant tensor:
#      x y z
#    x 1.803340 0.011370 -0.008140 
#    y 0.011370 1.803390 0.006900 
#    z -0.008140 0.006900 1.768110 
# 
# From -- ./inp_files/47092.got.cif
#   From: 2010.06.25/outbox.cif.g09.slc.cpg/sg2_24_cif.got.tgz:47092.got - 2010.06.27 13:26:56.
