data_PCOD8010727
_publ_section_title
;
Structure prediction by ZEFSAII (Michael W. Deem and Ramdas Pophale) SiO2 
 PCOD8010727
Probable space group: P -1
;
_chemical_formula_sum "Si O2"
_cell_formula_units_Z 16
_cell_length_a 13.899285
_cell_length_b 9.278617
_cell_length_c 14.143234
_cell_angle_alpha 40.105624
_cell_angle_beta 138.825365
_cell_angle_gamma 122.370142
_cell_volume 770.075076
_symmetry_space_group_name_H-M "P -1"
_symmetry_group_IT_number 2
_symmetry_cell_setting 'triclinic'
loop_
_space_group_symop_operation_xyz
x,y,z
-x,-y,-z
loop_
_atom_site_type_symbol
_atom_site_label
_atom_site_fract_x
_atom_site_fract_y
_atom_site_fract_z
Si Si1 0.909434 0.167598 0.108589
Si Si2 0.699107 0.860214 0.433800
Si Si3 0.096719 0.226572 0.552755
Si Si4 0.597737 0.482723 0.857987
Si Si5 0.811240 0.668207 0.802779
Si Si6 0.393781 0.899593 0.099806
Si Si7 0.688875 0.597133 0.244603
Si Si8 0.766476 0.346193 0.239973
O O1 0.067285 0.152793 0.177400
O O2 0.921941 0.004184 0.290192
O O3 0.887816 0.419919 0.006276
O O4 0.769655 0.114266 0.966469
O O5 0.796282 0.819698 0.432867
O O6 0.754964 0.687337 0.643478
O O7 0.528990 0.821177 0.307291
O O8 0.712502 0.112072 0.353398
O O9 0.165036 0.404503 0.583276
O O10 0.938300 0.329163 0.349536
O O11 0.669559 0.691928 0.755536
O O12 0.609334 0.259455 0.913998
O O13 0.426368 0.560173 0.714524
O O14 0.677798 0.433156 0.040363
O O15 0.402167 0.155917 0.945971
O O16 0.734645 0.524703 0.210090
#
# Coordination Sequence:
#
# PCOD8010727 Si02
#       8
#     2   2   2   2   2   2   2   2
#     4   9  20  36  58  85 119 153 189 247 297 336
#     4  12  22  37  63  93 118 156 201 249 290 351
#     4  11  23  40  64  90 120 151 206 251 291 342
#     4  11  22  40  62  91 117 161 197 247 294 355
#     4  10  22  36  58  91 123 151 196 247 299 349
#     4  10  21  38  63  87 122 150 201 248 292 340
#     4  11  22  41  62  90 121 157 195 251 300 347
#     4  12  24  37  64  90 120 156 207 239 297 353
#
# _framework density 20.777196
#
# number of rings (size 3 to 8) (size 9 to 14) (size 15 to 20)
#    0.000    1.250    3.750    3.750    5.250    2.000 
#    0.000    0.625    0.000    3.000    0.000    0.000 
#    0.000    0.000    0.000    0.000    0.000    0.000 
#
# Total GULP energy -198282.567870 kJ/mol
# GULP energy per Si atom -12392.660492 kJ/mol
# Density = 2.072991 g / cm^3
# Si number density = 20.777196 Si / 1000 Ang^3
#
#
#
# Elastic Constant Matrix: (Units=GPa)
#
#
# Indices 1 2 3 4 5 6 
#
# 1 109.9361 49.6781 34.9313 11.9216 1.8469 35.5807
# 2 49.6781 79.4449 29.7492 28.4462 2.1350 9.1085
# 3 34.9313 29.7492 45.2846 18.7363 -2.9438 15.7220
# 4 11.9216 28.4462 18.7363 27.4430 10.6229 9.0945
# 5 1.8469 2.1350 -2.9438 10.6229 29.8308 9.5155
# 6 35.5807 9.1085 15.7220 9.0945 9.5155 39.3414
#
#
#
# Elastic Compliance Matrix: (Units=1/GPa)
#
#
# Indices 1 2 3 4 5 6 
#
# 1 0.022462 -0.015398 -0.009619 0.019397 -0.002815 -0.016709
# 2 -0.015398 0.032667 0.000964 -0.034658 0.007141 0.012263
# 3 -0.009619 0.000964 0.046530 -0.033770 0.019376 -0.006999
# 4 0.019397 -0.034658 -0.033770 0.104620 -0.035610 -0.011595
# 5 -0.002815 0.007141 0.019376 -0.035610 0.051296 -0.011026
# 6 -0.016709 0.012263 -0.006999 -0.011595 -0.011026 0.045836
#
#
# Mechanical properties :
#
#
# Convention : Reuss Voigt Hill
#
# Bulk Modulus (GPa) = 18.67264 51.48698 35.07981
# Shear Modulus (GPa) = 13.53662 27.34349 20.44005
#
# Velocity S-wave (km/s) = 2.55524 3.63165 3.13992
# Velocity P-wave (km/s) = 4.20860 6.51303 5.48324
#
# Compressibility (1/GPa) = 0.05355429
#
# Stress axis : x y z
#
# Youngs Moduli (GPa) = 44.51877 30.61194 21.49136
#
# Poissons Ratio (x) = 0.47137 0.20672
# Poissons Ratio (y) = 0.68551 -0.02072
# Poissons Ratio (z) = 0.42820 -0.02951
#
# Static dielectric constant tensor:
#      x y z
#    x 4.292840 0.655520 0.280840 
#    y 0.655520 3.899930 0.264830 
#    z 0.280840 0.264830 3.724570 
# 
# 
# High freq. dielectric constant tensor:
#      x y z
#    x 1.814800 0.034930 0.016740 
#    y 0.034930 1.796410 0.024220 
#    z 0.016740 0.024220 1.803320 
# 
# From -- ./inp_files/402153.got.cif
#   From: 2010.06.25/outbox.cif.g09.slc.cpg/sg2_202_cif.got.tgz:402153.got - 2010.06.27 13:26:56.
