data_PCOD8010655
_publ_section_title
;
Structure prediction by ZEFSAII (Michael W. Deem and Ramdas Pophale) SiO2 
 PCOD8010655
Probable space group: P -1
;
_chemical_formula_sum "Si O2"
_cell_formula_units_Z 14
_cell_length_a 20.811632
_cell_length_b 11.248255
_cell_length_c 5.314423
_cell_angle_alpha 67.109423
_cell_angle_beta 115.881289
_cell_angle_gamma 146.566694
_cell_volume 615.928783
_symmetry_space_group_name_H-M "P -1"
_symmetry_group_IT_number 2
_symmetry_cell_setting 'triclinic'
loop_
_space_group_symop_operation_xyz
x,y,z
-x,-y,-z
loop_
_atom_site_type_symbol
_atom_site_label
_atom_site_fract_x
_atom_site_fract_y
_atom_site_fract_z
Si Si1 0.351392 0.400206 0.161885
Si Si2 0.917371 0.006183 0.855320
Si Si3 0.985288 0.825206 0.616873
Si Si4 0.576918 0.768938 0.566179
Si Si5 0.681892 0.116239 0.142848
Si Si6 0.258284 0.668647 0.417622
Si Si7 0.534480 0.213770 0.252517
O O1 0.220316 0.235134 0.182988
O O2 0.443375 0.545103 0.429615
O O3 0.366143 0.276702 0.173717
O O4 0.376380 0.541728 0.874804
O O5 0.947780 0.133043 0.551852
O O6 0.949475 0.135905 0.053407
O O7 0.000000 0.000000 0.000000
O O8 0.846989 0.587009 0.574648
O O9 0.000000 0.000000 0.500000
O O10 0.565492 0.872619 0.655301
O O11 0.668583 0.947546 0.352577
O O12 0.742389 0.282424 0.337236
O O13 0.757942 0.249954 0.904673
O O14 0.542307 0.951392 0.979823
O O15 0.385997 0.783604 0.489466
#
# Coordination Sequence:
#
# PCOD8010655 Si02
#       7
#     2   2   2   2   2   2   2
#     4  10  23  39  65  97 131 168 211 264 316 374
#     4  10  21  38  62  91 124 154 204 261 320 362
#     4  10  22  39  59  93 119 157 204 258 323 365
#     4  10  23  41  62  97 131 176 208 252 313 395
#     4  11  24  41  60  95 130 174 210 253 316 387
#     4  12  24  38  67  92 134 163 208 271 317 374
#     4  11  22  37  65  95 133 165 216 253 327 375
#
# _framework density 22.729899
#
# number of rings (size 3 to 8) (size 9 to 14) (size 15 to 20)
#    0.000    1.429    1.429    3.857   10.000    0.000 
#    0.000    0.000    0.000    5.143    0.000    0.000 
#    0.000    0.000    0.000    0.000    0.000    0.000 
#
# Total GULP energy -173458.627768 kJ/mol
# GULP energy per Si atom -12389.901983 kJ/mol
# Density = 2.267816 g / cm^3
# Si number density = 22.729899 Si / 1000 Ang^3
#
#
#
# Elastic Constant Matrix: (Units=GPa)
#
#
# Indices 1 2 3 4 5 6 
#
# 1 39.3069 -6.8242 14.9966 14.2053 -11.0782 -0.5039
# 2 -6.8242 117.2381 30.4405 15.1642 -14.0153 2.9858
# 3 14.9966 30.4405 126.5074 3.5576 -38.9005 -3.0816
# 4 14.2053 15.1642 3.5576 26.1915 0.9802 -7.0817
# 5 -11.0782 -14.0153 -38.9005 0.9802 33.5205 -1.3136
# 6 -0.5039 2.9858 -3.0816 -7.0817 -1.3136 29.6837
#
#
#
# Elastic Compliance Matrix: (Units=1/GPa)
#
#
# Indices 1 2 3 4 5 6 
#
# 1 0.043718 0.009215 -0.001342 -0.031421 0.017387 -0.007051
# 2 0.009215 0.012077 -0.001824 -0.013082 0.006201 -0.004094
# 3 -0.001342 -0.001824 0.012757 0.000111 0.013678 0.002117
# 4 -0.031421 -0.013082 0.000111 0.067804 -0.017072 0.016215
# 5 0.017387 0.006201 0.013678 -0.017072 0.054522 -0.000569
# 6 -0.007051 -0.004094 0.002117 0.016215 -0.000569 0.038044
#
#
# Mechanical properties :
#
#
# Convention : Reuss Voigt Hill
#
# Bulk Modulus (GPa) = 12.39882 40.03092 26.21487
# Shear Modulus (GPa) = 20.51654 34.17511 27.34582
#
# Velocity S-wave (km/s) = 3.00763 3.88175 3.47230
# Velocity P-wave (km/s) = 4.18662 6.14332 5.25681
#
# Compressibility (1/GPa) = 0.08065283
#
# Stress axis : x y z
#
# Youngs Moduli (GPa) = 22.87380 82.80060 78.38867
#
# Poissons Ratio (x) = -0.76304 0.10517
# Poissons Ratio (y) = -0.21079 0.14294
# Poissons Ratio (z) = 0.03069 0.15099
#
# Static dielectric constant tensor:
#      x y z
#    x 3.878680 -0.193140 -0.756300 
#    y -0.193140 4.140510 -0.058820 
#    z -0.756300 -0.058820 5.690900 
# 
# 
# High freq. dielectric constant tensor:
#      x y z
#    x 1.837160 -0.010630 -0.018620 
#    y -0.010630 1.910480 -0.008500 
#    z -0.018620 -0.008500 1.913230 
# 
# From -- ./inp_files/80679.got.cif
#   From: 2010.06.25/outbox.cif.g09.slc.cpg/sg2_41_cif.got.tgz:80679.got - 2010.06.27 13:26:56.
