data_PCOD8010178
_publ_section_title
;
Structure prediction by ZEFSAII (Michael W. Deem and Ramdas Pophale) SiO2 
 PCOD8010178
Probable space group: P -1
;
_chemical_formula_sum "Si O2"
_cell_formula_units_Z 14
_cell_length_a 9.189181
_cell_length_b 17.783641
_cell_length_c 12.475452
_cell_angle_alpha 28.678240
_cell_angle_beta 143.986552
_cell_angle_gamma 132.222830
_cell_volume 570.107117
_symmetry_space_group_name_H-M "P -1"
_symmetry_group_IT_number 2
_symmetry_cell_setting 'triclinic'
loop_
_space_group_symop_operation_xyz
x,y,z
-x,-y,-z
loop_
_atom_site_type_symbol
_atom_site_label
_atom_site_fract_x
_atom_site_fract_y
_atom_site_fract_z
Si Si1 0.973572 0.865890 0.261762
Si Si2 0.713087 0.882624 0.883799
Si Si3 0.644912 0.474037 0.228083
Si Si4 0.928939 0.825050 0.660367
Si Si5 0.268180 0.721509 0.806167
Si Si6 0.016444 0.295879 0.922141
Si Si7 0.624959 0.179767 0.713475
O O1 0.064881 0.739368 0.566652
O O2 0.845555 0.782998 0.189699
O O3 0.223195 0.939536 0.278312
O O4 0.769154 0.003934 0.013930
O O5 0.416910 0.875452 0.711764
O O6 0.825933 0.834033 0.896409
O O7 0.912276 0.536983 0.288437
O O8 0.688311 0.288767 0.513583
O O9 0.500000 0.500000 0.000000
O O10 0.476790 0.569976 0.101552
O O11 0.665123 0.835235 0.429695
O O12 0.126040 0.713852 0.843524
O O13 0.909361 0.733078 0.874443
O O14 0.000000 0.000000 0.500000
O O15 0.725148 0.273240 0.759003
#
# Coordination Sequence:
#
# PCOD8010178 Si02
#       7
#     2   2   2   2   2   2   2
#     4  10  21  37  67  99 129 165 225 281 327 379
#     4   9  20  36  63  95 125 162 222 274 324 373
#     4  11  24  46  72  95 132 174 228 281 331 385
#     4  12  25  43  66 100 142 179 216 267 336 404
#     4  11  25  41  65  97 134 176 217 270 331 396
#     4  10  23  43  70  95 132 175 223 275 331 391
#     4  11  24  43  67 101 134 176 221 277 331 393
#
# _framework density 24.556788000000001
#
# number of rings (size 3 to 8) (size 9 to 14) (size 15 to 20)
#    0.000    1.429    1.429    3.429    6.000    5.143 
#    0.000    0.714    0.000    0.000    0.000    0.000 
#    0.000    0.000    0.000    0.000    0.000    0.000 
#
# Total GULP energy -173465.896417 kJ/mol
# GULP energy per Si atom -12390.421173 kJ/mol
# Density = 2.450090 g / cm^3
# Si number density = 24.556788 Si / 1000 Ang^3
#
#
#
# Elastic Constant Matrix: (Units=GPa)
#
#
# Indices 1 2 3 4 5 6 
#
# 1 125.1399 42.6703 30.6051 11.1192 6.6526 -4.2152
# 2 42.6703 98.4048 18.7828 19.3919 20.0051 11.1657
# 3 30.6051 18.7828 77.8319 9.5525 2.1040 -8.9281
# 4 11.1192 19.3919 9.5525 45.2374 -2.2014 -2.1251
# 5 6.6526 20.0051 2.1040 -2.2014 32.7452 12.4067
# 6 -4.2152 11.1657 -8.9281 -2.1251 12.4067 39.0418
#
#
#
# Elastic Compliance Matrix: (Units=1/GPa)
#
#
# Indices 1 2 3 4 5 6 
#
# 1 0.010108 -0.003998 -0.002812 -0.000104 -0.000043 0.001600
# 2 -0.003998 0.015210 -0.001536 -0.005726 -0.007621 -0.003023
# 3 -0.002812 -0.001536 0.014994 -0.001687 -0.001004 0.003792
# 4 -0.000104 -0.005726 -0.001687 0.025231 0.004926 0.001048
# 5 -0.000043 -0.007621 -0.001004 0.004926 0.039518 -0.010345
# 6 0.001600 -0.003023 0.003792 0.001048 -0.010345 0.030862
#
#
# Mechanical properties :
#
#
# Convention : Reuss Voigt Hill
#
# Bulk Modulus (GPa) = 42.34171 53.94365 48.14268
# Shear Modulus (GPa) = 31.15483 37.35945 34.25714
#
# Velocity S-wave (km/s) = 3.56572 3.90468 3.73904
# Velocity P-wave (km/s) = 5.85084 6.50717 6.18771
#
# Compressibility (1/GPa) = 0.02361738
#
# Stress axis : x y z
#
# Youngs Moduli (GPa) = 98.93546 65.74772 66.69386
#
# Poissons Ratio (x) = 0.26289 0.18756
# Poissons Ratio (y) = 0.39559 0.10246
# Poissons Ratio (z) = 0.27823 0.10100
#
# Static dielectric constant tensor:
#      x y z
#    x 4.586630 -0.318330 0.474550 
#    y -0.318330 5.612700 -0.101720 
#    z 0.474550 -0.101720 4.888300 
# 
# 
# High freq. dielectric constant tensor:
#      x y z
#    x 1.952560 -0.006100 0.000960 
#    y -0.006100 1.993660 0.023720 
#    z 0.000960 0.023720 1.961140 
# 
# From -- ./inp_files/402767.got.cif
#   From: 2010.06.25/outbox.cif.g09.slc.cpg/sg2_202_cif.got.tgz:402767.got - 2010.06.27 13:26:56.
