data_PCOD8010176
_publ_section_title
;
Structure prediction by ZEFSAII (Michael W. Deem and Ramdas Pophale) SiO2 
 PCOD8010176
Probable space group: P -1
;
_chemical_formula_sum "Si O2"
_cell_formula_units_Z 14
_cell_length_a 13.422338
_cell_length_b 11.999980
_cell_length_c 9.731003
_cell_angle_alpha 123.461942
_cell_angle_beta 35.366095
_cell_angle_gamma 136.353431
_cell_volume 623.198380
_symmetry_space_group_name_H-M "P -1"
_symmetry_group_IT_number 2
_symmetry_cell_setting 'triclinic'
loop_
_space_group_symop_operation_xyz
x,y,z
-x,-y,-z
loop_
_atom_site_type_symbol
_atom_site_label
_atom_site_fract_x
_atom_site_fract_y
_atom_site_fract_z
Si Si1 0.016736 0.868935 0.468161
Si Si2 0.490925 0.363301 0.661932
Si Si3 0.645660 0.770081 0.977034
Si Si4 0.221803 0.879618 0.983094
Si Si5 0.065633 0.562835 0.815892
Si Si6 0.372541 0.610522 0.936038
Si Si7 0.400845 0.121277 0.366811
O O1 0.796062 0.734210 0.696775
O O2 0.183742 0.955709 0.461656
O O3 0.082359 0.795523 0.222747
O O4 0.000000 0.000000 0.500000
O O5 0.740074 0.445763 0.450039
O O6 0.434226 0.484317 0.751384
O O7 0.380128 0.210581 0.580247
O O8 0.388669 0.303207 0.884914
O O9 0.427608 0.678855 0.076464
O O10 0.765624 0.964450 0.981122
O O11 0.134335 0.749144 0.869785
O O12 0.453997 0.938712 0.800458
O O13 0.000000 0.500000 0.000000
O O14 0.872950 0.465930 0.861495
O O15 0.512737 0.759719 0.778863
#
# Coordination Sequence:
#
# PCOD8010176 Si02
#       7
#     2   2   2   2   2   2   2
#     4  10  21  37  67  97 127 170 221 270 325 390
#     4  11  27  45  65  99 142 169 226 273 330 401
#     4  11  26  44  65  98 137 178 214 275 338 387
#     4  10  22  43  68  96 135 163 232 272 320 401
#     4  11  25  42  71 103 127 176 220 277 335 378
#     4  12  24  44  69  99 133 178 221 270 333 395
#     4  11  22  40  70 101 120 179 221 278 331 375
#
# _framework density 22.464756000000001
#
# number of rings (size 3 to 8) (size 9 to 14) (size 15 to 20)
#    0.000    1.143    5.714    1.286    6.000    3.429 
#    2.571    0.000    0.000    0.000    0.000    0.000 
#    0.000    0.000    0.000    0.000    0.000    0.000 
#
# Total GULP energy -173574.280833 kJ/mol
# GULP energy per Si atom -12398.162917 kJ/mol
# Density = 2.241363 g / cm^3
# Si number density = 22.464756 Si / 1000 Ang^3
#
#
#
# Elastic Constant Matrix: (Units=GPa)
#
#
# Indices 1 2 3 4 5 6 
#
# 1 51.0106 2.5972 -18.0624 -14.8023 -0.9933 12.5815
# 2 2.5972 32.3638 -2.6023 -5.7813 -6.7188 -5.1473
# 3 -18.0624 -2.6023 50.6048 -9.6925 -5.2557 -11.1565
# 4 -14.8023 -5.7813 -9.6925 31.8986 2.9526 -7.3993
# 5 -0.9933 -6.7188 -5.2557 2.9526 36.6424 -0.2458
# 6 12.5815 -5.1473 -11.1565 -7.3993 -0.2458 26.1246
#
#
#
# Elastic Compliance Matrix: (Units=1/GPa)
#
#
# Indices 1 2 3 4 5 6 
#
# 1 0.030359 0.001595 0.013692 0.017582 0.001639 -0.003464
# 2 0.001595 0.037512 0.008809 0.012811 0.007247 0.014081
# 3 0.013692 0.008809 0.033029 0.021051 0.005130 0.015257
# 4 0.017582 0.012811 0.021051 0.052204 0.001758 0.017849
# 5 0.001639 0.007247 0.005130 0.001758 0.029282 0.003603
# 6 -0.003464 0.014081 0.015257 0.017849 0.003603 0.054325
#
#
# Mechanical properties :
#
#
# Convention : Reuss Voigt Hill
#
# Bulk Modulus (GPa) = 6.70725 10.87158 8.78942
# Shear Modulus (GPa) = 20.98925 29.06959 25.02942
#
# Velocity S-wave (km/s) = 3.05998 3.60114 3.34153
# Velocity P-wave (km/s) = 3.93406 4.70540 4.33691
#
# Compressibility (1/GPa) = 0.14909230
#
# Stress axis : x y z
#
# Youngs Moduli (GPa) = 32.93896 26.65847 30.27598
#
# Poissons Ratio (x) = -0.04252 -0.41455
# Poissons Ratio (y) = -0.05253 -0.26670
# Poissons Ratio (z) = -0.45101 -0.23483
#
# Static dielectric constant tensor:
#      x y z
#    x 4.578580 0.912950 -0.361440 
#    y 0.912950 4.974110 -0.076050 
#    z -0.361440 -0.076050 4.608110 
# 
# 
# High freq. dielectric constant tensor:
#      x y z
#    x 1.880260 0.012770 -0.014160 
#    y 0.012770 1.888680 0.014180 
#    z -0.014160 0.014180 1.881160 
# 
# From -- ./inp_files/261146.got.cif
#   From: 2010.06.25/outbox.cif.g09.slc.cpg/sg2_131_cif.got.tgz:261146.got - 2010.06.27 13:26:56.
