data_PCOD8010374
_publ_section_title
;
Structure prediction by ZEFSAII (Michael W. Deem and Ramdas Pophale) SiO2 
 PCOD8010374
Probable space group: P -1
;
_chemical_formula_sum "Si O2"
_cell_formula_units_Z 16
_cell_length_a 13.437824
_cell_length_b 13.384696
_cell_length_c 5.236446
_cell_angle_alpha 99.654842
_cell_angle_beta 121.487723
_cell_angle_gamma 105.519332
_cell_volume 717.644883
_symmetry_space_group_name_H-M "P -1"
_symmetry_group_IT_number 2
_symmetry_cell_setting 'triclinic'
loop_
_space_group_symop_operation_xyz
x,y,z
-x,-y,-z
loop_
_atom_site_type_symbol
_atom_site_label
_atom_site_fract_x
_atom_site_fract_y
_atom_site_fract_z
Si Si1 0.249663 0.293297 0.788748
Si Si2 0.516057 0.892295 0.697956
Si Si3 0.380132 0.257979 0.438412
Si Si4 0.333132 0.703342 0.682656
Si Si5 0.303804 0.878095 0.053104
Si Si6 0.934354 0.369900 0.899948
Si Si7 0.026738 0.740547 0.604970
Si Si8 0.599267 0.461779 0.989725
O O1 0.314659 0.264844 0.619137
O O2 0.095889 0.230516 0.528198
O O3 0.287623 0.247931 0.074785
O O4 0.288580 0.426998 0.931395
O O5 0.586967 0.850034 0.557169
O O6 0.471589 0.795835 0.811949
O O7 0.389057 0.906140 0.437124
O O8 0.620844 0.014479 0.987064
O O9 0.518181 0.367192 0.632079
O O10 0.220451 0.669801 0.305614
O O11 0.292780 0.760033 0.886000
O O12 0.342515 0.591738 0.742187
O O13 0.154890 0.856184 0.883461
O O14 0.970878 0.307341 0.693505
O O15 0.984785 0.347835 0.227795
O O16 0.000000 0.500000 0.000000
O O17 0.500000 0.500000 0.000000
#
# Coordination Sequence:
#
# PCOD8010374 Si02
#       8
#     2   2   2   2   2   2   2   2
#     4  11  24  42  64  91 131 175 207 256 314 380
#     4  11  21  40  66  90 126 159 220 269 328 365
#     4  11  23  41  63  94 125 169 215 262 309 375
#     4  11  21  39  61  94 130 162 210 261 320 381
#     4  10  23  40  63  95 120 170 206 277 322 370
#     4  11  23  38  61  94 128 171 208 255 315 378
#     4  11  23  44  61  92 130 168 215 258 316 381
#     4  10  21  38  59  93 125 167 207 251 309 374
#
# _framework density 22.295152999999999
#
# number of rings (size 3 to 8) (size 9 to 14) (size 15 to 20)
#    0.000    1.250    2.500    4.125    0.000    4.000 
#    0.000    1.250    0.000    0.000    0.000    0.000 
#    0.000    0.000    0.000    0.000    0.000    0.000 
#
# Total GULP energy -198334.825869 kJ/mol
# GULP energy per Si atom -12395.926617 kJ/mol
# Density = 2.224441 g / cm^3
# Si number density = 22.295153 Si / 1000 Ang^3
#
#
#
# Elastic Constant Matrix: (Units=GPa)
#
#
# Indices 1 2 3 4 5 6 
#
# 1 71.2046 14.8278 35.7130 -2.3668 19.0468 4.0190
# 2 14.8278 65.9057 16.9298 2.9341 10.2107 2.9852
# 3 35.7130 16.9298 105.7127 -10.9030 21.8888 1.2277
# 4 -2.3668 2.9341 -10.9030 36.1589 5.9107 5.1560
# 5 19.0468 10.2107 21.8888 5.9107 41.1748 -0.0975
# 6 4.0190 2.9852 1.2277 5.1560 -0.0975 33.0311
#
#
#
# Elastic Compliance Matrix: (Units=1/GPa)
#
#
# Indices 1 2 3 4 5 6 
#
# 1 0.018467 -0.002046 -0.004558 0.001248 -0.005796 -0.002104
# 2 -0.002046 0.016489 -0.001671 -0.001507 -0.002040 -0.000950
# 3 -0.004558 -0.001671 0.012761 0.004559 -0.004917 -0.000495
# 4 0.001248 -0.001507 0.004559 0.031118 -0.007107 -0.005063
# 5 -0.005796 -0.002040 -0.004917 -0.007107 0.031113 0.002273
# 6 -0.002104 -0.000950 -0.000495 -0.005063 0.002273 0.031432
#
#
# Mechanical properties :
#
#
# Convention : Reuss Voigt Hill
#
# Bulk Modulus (GPa) = 32.08594 41.97379 37.02987
# Shear Modulus (GPa) = 29.70542 33.76312 31.73427
#
# Velocity S-wave (km/s) = 3.65413 3.89571 3.77685
# Velocity P-wave (km/s) = 5.67681 6.25322 5.97197
#
# Compressibility (1/GPa) = 0.03116630
#
# Stress axis : x y z
#
# Youngs Moduli (GPa) = 54.15133 60.64616 78.36346
#
# Poissons Ratio (x) = 0.12410 0.35715
# Poissons Ratio (y) = 0.11081 0.13098
# Poissons Ratio (z) = 0.24680 0.10137
#
# Static dielectric constant tensor:
#      x y z
#    x 4.091640 0.024690 0.269170 
#    y 0.024690 4.242640 0.319190 
#    z 0.269170 0.319190 4.243780 
# 
# 
# High freq. dielectric constant tensor:
#      x y z
#    x 1.871840 0.001570 0.009600 
#    y 0.001570 1.866900 0.000060 
#    z 0.009600 0.000060 1.879430 
# 
# From -- ./inp_files/82751.got.cif
#   From: 2010.06.25/outbox.cif.g09.slc.cpg/sg2_42_cif.got.tgz:82751.got - 2010.06.27 13:26:56.
