data_PCOD8010312
_publ_section_title
;
Structure prediction by ZEFSAII (Michael W. Deem and Ramdas Pophale) SiO2 
 PCOD8010312
Probable space group: P -1
;
_chemical_formula_sum "Si O2"
_cell_formula_units_Z 16
_cell_length_a 5.054804
_cell_length_b 11.404849
_cell_length_c 12.007500
_cell_angle_alpha 91.995430
_cell_angle_beta 77.881738
_cell_angle_gamma 98.982736
_cell_volume 668.496298
_symmetry_space_group_name_H-M "P -1"
_symmetry_group_IT_number 2
_symmetry_cell_setting 'triclinic'
loop_
_space_group_symop_operation_xyz
x,y,z
-x,-y,-z
loop_
_atom_site_type_symbol
_atom_site_label
_atom_site_fract_x
_atom_site_fract_y
_atom_site_fract_z
Si Si1 0.113416 0.249948 0.542019
Si Si2 0.711181 0.639756 0.690455
Si Si3 0.494079 0.333385 0.070055
Si Si4 0.660894 0.947975 0.146150
Si Si5 0.797781 0.573569 0.079199
Si Si6 0.843144 0.525010 0.312786
Si Si7 0.832098 0.145660 0.972998
Si Si8 0.529059 0.099630 0.594901
O O1 0.166306 0.260938 0.406054
O O2 0.094625 0.382963 0.589124
O O3 0.365015 0.204757 0.579679
O O4 0.842640 0.157034 0.586384
O O5 0.633951 0.722147 0.804539
O O6 0.456652 0.552704 0.655641
O O7 0.941463 0.565229 0.708182
O O8 0.528722 0.472329 0.106328
O O9 0.281622 0.315807 0.983465
O O10 0.772854 0.280724 0.008686
O O11 0.390313 0.910130 0.097802
O O12 0.586588 0.960565 0.281728
O O13 0.871550 0.853293 0.108425
O O14 0.808536 0.074457 0.089427
O O15 0.882407 0.607220 0.199603
O O16 0.000000 0.500000 0.000000
O O17 0.500000 0.000000 0.500000
#
# Coordination Sequence:
#
# PCOD8010312 Si02
#       8
#     2   2   2   2   2   2   2   2
#     4  12  26  45  73 100 130 190 229 277 357 394
#     4  11  23  43  67 104 141 179 231 278 331 412
#     4  10  23  38  64  98 139 181 219 271 341 413
#     4  10  24  47  67 102 132 167 232 288 343 400
#     4  10  21  38  58  99 142 174 221 270 339 404
#     4  11  23  42  68  99 142 180 224 287 328 418
#     4  10  23  43  73  98 131 178 221 283 344 409
#     4  12  28  49  70 101 136 177 233 295 340 408
#
# _framework density 23.934313
#
# number of rings (size 3 to 8) (size 9 to 14) (size 15 to 20)
#    0.000    1.250    1.250    3.375    5.250    1.000 
#    4.500    0.000    0.000    0.000    0.000    0.000 
#    0.000    0.000    0.000    0.000    0.000    0.000 
#
# Total GULP energy -198357.185569 kJ/mol
# GULP energy per Si atom -12397.324098 kJ/mol
# Density = 2.387984 g / cm^3
# Si number density = 23.934313 Si / 1000 Ang^3
#
#
#
# Elastic Constant Matrix: (Units=GPa)
#
#
# Indices 1 2 3 4 5 6 
#
# 1 107.3223 18.8878 41.2940 -6.0954 0.2545 -12.2767
# 2 18.8878 72.5001 29.2035 5.8050 -1.4645 -3.5639
# 3 41.2940 29.2035 172.5929 -14.6240 -9.8840 -7.9373
# 4 -6.0954 5.8050 -14.6240 26.1306 -2.6819 -0.3836
# 5 0.2545 -1.4645 -9.8840 -2.6819 32.4097 -3.0206
# 6 -12.2767 -3.5639 -7.9373 -0.3836 -3.0206 38.8874
#
#
#
# Elastic Compliance Matrix: (Units=1/GPa)
#
#
# Indices 1 2 3 4 5 6 
#
# 1 0.010875 -0.002053 -0.001985 0.001886 -0.000364 0.002830
# 2 -0.002053 0.015851 -0.002685 -0.005555 -0.000531 0.000161
# 3 -0.001985 -0.002685 0.007290 0.004490 0.002569 0.000859
# 4 0.001886 -0.005555 0.004490 0.042978 0.004828 0.001802
# 5 -0.000364 -0.000531 0.002569 0.004828 0.032289 0.002917
# 6 0.002830 0.000161 0.000859 0.001802 0.002917 0.027043
#
#
# Mechanical properties :
#
#
# Convention : Reuss Voigt Hill
#
# Bulk Modulus (GPa) = 48.61268 59.02065 53.81666
# Shear Modulus (GPa) = 31.92280 37.02086 34.47183
#
# Velocity S-wave (km/s) = 3.65604 3.93717 3.79920
# Velocity P-wave (km/s) = 6.17876 6.73657 6.46369
#
# Compressibility (1/GPa) = 0.02057077
#
# Stress axis : x y z
#
# Youngs Moduli (GPa) = 91.95758 63.08682 137.16829
#
# Poissons Ratio (x) = 0.12949 0.27234
# Poissons Ratio (y) = 0.18875 0.36826
# Poissons Ratio (z) = 0.18257 0.16937
#
# Static dielectric constant tensor:
#      x y z
#    x 7.889130 7.224600 -1.513090 
#    y 7.224600 19.507030 -3.383190 
#    z -1.513090 -3.383190 5.256630 
# 
# 
# High freq. dielectric constant tensor:
#      x y z
#    x 1.968480 -0.004850 -0.001190 
#    y -0.004850 1.935470 -0.007000 
#    z -0.001190 -0.007000 1.961080 
# 
# From -- ./inp_files/363050.got.cif
#   From: 2010.06.25/outbox.cif.g09.slc.cpg/sg2_182_cif.got.tgz:363050.got - 2010.06.27 13:26:56.
