data_PCOD8010166
_publ_section_title
;
Structure prediction by ZEFSAII (Michael W. Deem and Ramdas Pophale) SiO2 
 PCOD8010166
Probable space group: P -1
;
_chemical_formula_sum "Si O2"
_cell_formula_units_Z 12
_cell_length_a 8.984208
_cell_length_b 14.515862
_cell_length_c 12.183621
_cell_angle_alpha 32.713874
_cell_angle_beta 134.217874
_cell_angle_gamma 124.885199
_cell_volume 614.984565
_symmetry_space_group_name_H-M "P -1"
_symmetry_group_IT_number 2
_symmetry_cell_setting 'triclinic'
loop_
_space_group_symop_operation_xyz
x,y,z
-x,-y,-z
loop_
_atom_site_type_symbol
_atom_site_label
_atom_site_fract_x
_atom_site_fract_y
_atom_site_fract_z
Si Si1 0.494350 0.743748 0.416647
Si Si2 0.869672 0.532262 0.791717
Si Si3 0.608796 0.063634 0.260153
Si Si4 0.799944 0.083437 0.756334
Si Si5 0.950916 0.129681 0.549734
Si Si6 0.746294 0.198121 0.981867
O O1 0.624927 0.564979 0.665383
O O2 0.427631 0.791240 0.211395
O O3 0.657657 0.881910 0.406470
O O4 0.290670 0.754309 0.380524
O O5 0.885259 0.366744 0.886274
O O6 0.942875 0.694188 0.598923
O O7 0.000000 0.500000 0.000000
O O8 0.374900 0.062135 0.191076
O O9 0.773141 0.093184 0.408633
O O10 0.630288 0.202478 0.035938
O O11 0.845530 0.153433 0.590001
O O12 0.000000 0.000000 0.000000
O O13 0.110225 0.969124 0.797122
#
# Coordination Sequence:
#
# PCOD8010166 Si02
#       6
#     2   2   2   2   2   2
#     4  10  23  41  63  96 126 165 216 257 317 373
#     4  12  25  41  65  99 127 164 217 265 314 375
#     4  10  21  37  67  92 123 165 208 259 313 370
#     4  10  22  40  67  93 128 170 211 256 319 386
#     4  12  21  43  67  95 128 168 211 260 324 376
#     4  12  22  41  69  94 126 166 215 271 312 369
#
# _framework density 19.512685000000001
#
# number of rings (size 3 to 8) (size 9 to 14) (size 15 to 20)
#    1.000    0.000    5.000    3.000    2.333    0.000 
#    0.000    3.333    0.000    0.000    0.000    0.000 
#    0.000    0.000    0.000    0.000    0.000    0.000 
#
# Total GULP energy -148708.726700 kJ/mol
# GULP energy per Si atom -12392.393892 kJ/mol
# Density = 1.946827 g / cm^3
# Si number density = 19.512685 Si / 1000 Ang^3
#
#
#
# Elastic Constant Matrix: (Units=GPa)
#
#
# Indices 1 2 3 4 5 6 
#
# 1 109.5050 24.7470 64.9090 10.1540 -8.5482 -5.7157
# 2 24.7470 69.7489 39.0089 -3.0036 -17.8576 -2.9082
# 3 64.9090 39.0089 120.5365 5.8744 -3.2561 -8.1676
# 4 10.1540 -3.0036 5.8744 38.4397 0.7224 -10.2736
# 5 -8.5482 -17.8576 -3.2561 0.7224 26.9055 10.0132
# 6 -5.7157 -2.9082 -8.1676 -10.2736 10.0132 27.8465
#
#
#
# Elastic Compliance Matrix: (Units=1/GPa)
#
#
# Indices 1 2 3 4 5 6 
#
# 1 0.014083 0.000121 -0.007487 -0.003213 0.004518 -0.002103
# 2 0.000121 0.022202 -0.007221 0.001175 0.015728 -0.004997
# 3 -0.007487 -0.007221 0.014770 0.000588 -0.007204 0.004849
# 4 -0.003213 0.001175 0.000588 0.030437 -0.005808 0.012953
# 5 0.004518 0.015728 -0.007204 -0.005808 0.056516 -0.022008
# 6 -0.002103 -0.004997 0.004849 0.012953 -0.022008 0.049073
#
#
# Mechanical properties :
#
#
# Convention : Reuss Voigt Hill
#
# Bulk Modulus (GPa) = 45.70116 61.90222 53.80169
# Shear Modulus (GPa) = 22.36637 30.04670 26.20653
#
# Velocity S-wave (km/s) = 3.38930 3.92836 3.66874
# Velocity P-wave (km/s) = 6.22805 7.23664 6.75120
#
# Compressibility (1/GPa) = 0.02188128
#
# Stress axis : x y z
#
# Youngs Moduli (GPa) = 71.00563 45.04072 67.70352
#
# Poissons Ratio (x) = -0.00545 0.50689
# Poissons Ratio (y) = -0.00859 0.48891
# Poissons Ratio (z) = 0.53161 0.32525
#
# Static dielectric constant tensor:
#      x y z
#    x 3.800140 -0.060300 0.031010 
#    y -0.060300 3.622040 0.011280 
#    z 0.031010 0.011280 3.552390 
# 
# 
# High freq. dielectric constant tensor:
#      x y z
#    x 1.753110 -0.001300 -0.000100 
#    y -0.001300 1.765230 0.016690 
#    z -0.000100 0.016690 1.758310 
# 
# From -- ./inp_files/160533.got.cif
#   From: 2010.06.25/outbox.cif.g09.slc.cpg/sg2_81_cif.got.tgz:160533.got - 2010.06.27 13:26:56.
