data_PCOD8010349
_publ_section_title
;
Structure prediction by ZEFSAII (Michael W. Deem and Ramdas Pophale) SiO2 
 PCOD8010349
Probable space group: P -1
;
_chemical_formula_sum "Si O2"
_cell_formula_units_Z 16
_cell_length_a 8.946051
_cell_length_b 10.414631
_cell_length_c 13.502493
_cell_angle_alpha 85.847193
_cell_angle_beta 94.962566
_cell_angle_gamma 140.227573
_cell_volume 801.757097
_symmetry_space_group_name_H-M "P -1"
_symmetry_group_IT_number 2
_symmetry_cell_setting 'triclinic'
loop_
_space_group_symop_operation_xyz
x,y,z
-x,-y,-z
loop_
_atom_site_type_symbol
_atom_site_label
_atom_site_fract_x
_atom_site_fract_y
_atom_site_fract_z
Si Si1 0.529287 0.168839 0.965557
Si Si2 0.531134 0.753063 0.330760
Si Si3 0.883804 0.081916 0.189217
Si Si4 0.238788 0.363177 0.704066
Si Si5 0.514408 0.647069 0.543026
Si Si6 0.361750 0.652705 0.829851
Si Si7 0.896041 0.499880 0.812716
Si Si8 0.200487 0.074365 0.283124
O O1 0.763545 0.344144 0.904926
O O2 0.297137 0.063811 0.902304
O O3 0.559981 0.278442 0.056895
O O4 0.500000 0.000000 0.000000
O O5 0.602964 0.658734 0.301336
O O6 0.517593 0.754636 0.449453
O O7 0.272324 0.613574 0.285393
O O8 0.726861 0.981283 0.287174
O O9 0.028315 0.306013 0.166229
O O10 0.070117 0.088946 0.202487
O O11 0.294643 0.507250 0.614161
O O12 0.306715 0.467200 0.809662
O O13 0.965587 0.155457 0.691833
O O14 0.500000 0.500000 0.500000
O O15 0.743935 0.818872 0.614984
O O16 0.575144 0.839392 0.762087
O O17 0.131573 0.581213 0.794341
#
# Coordination Sequence:
#
# PCOD8010349 Si02
#       8
#     2   2   2   2   2   2   2   2
#     4  11  24  40  60  87 108 149 204 234 286 344
#     4   9  20  37  60  88 115 150 194 235 276 339
#     4  10  21  38  59  87 116 147 195 239 281 340
#     4   9  20  37  58  86 119 152 188 234 290 334
#     4   9  17  34  60  88 117 151 194 230 278 341
#     4  11  23  37  60  83 116 154 188 241 287 340
#     4  11  22  38  62  83 114 150 195 240 281 340
#     4  10  22  38  58  90 121 152 186 234 293 337
#
# _framework density 19.956168999999999
#
# number of rings (size 3 to 8) (size 9 to 14) (size 15 to 20)
#    0.000    2.000    1.250    2.625    1.750    6.000 
#    0.000   11.250    0.000    4.500    0.000    0.000 
#    0.000    0.000    0.000    0.000    0.000    0.000 
#
# Total GULP energy -198288.512072 kJ/mol
# GULP energy per Si atom -12393.032005 kJ/mol
# Density = 1.991075 g / cm^3
# Si number density = 19.956169 Si / 1000 Ang^3
#
#
#
# Elastic Constant Matrix: (Units=GPa)
#
#
# Indices 1 2 3 4 5 6 
#
# 1 68.4664 39.7528 53.0444 -4.3282 0.1775 19.6270
# 2 39.7528 160.2557 71.4715 -8.8471 -0.9807 10.1831
# 3 53.0444 71.4715 142.1738 6.6694 7.5032 5.7083
# 4 -4.3282 -8.8471 6.6694 33.5079 -2.0768 1.5576
# 5 0.1775 -0.9807 7.5032 -2.0768 22.2988 3.6853
# 6 19.6270 10.1831 5.7083 1.5576 3.6853 36.5290
#
#
#
# Elastic Compliance Matrix: (Units=1/GPa)
#
#
# Indices 1 2 3 4 5 6 
#
# 1 0.026852 -0.001230 -0.009443 0.006001 0.005689 -0.013439
# 2 -0.001230 0.008658 -0.004104 0.003156 0.002310 -0.001479
# 3 -0.009443 -0.004104 0.012982 -0.005480 -0.005812 0.005009
# 4 0.006001 0.003156 -0.005480 0.033152 0.005891 -0.005255
# 5 0.005689 0.002310 -0.005812 0.005891 0.048721 -0.007959
# 6 -0.013439 -0.001479 0.005009 -0.005255 -0.007959 0.035253
#
#
# Mechanical properties :
#
#
# Convention : Reuss Voigt Hill
#
# Bulk Modulus (GPa) = 52.79804 77.71482 65.25643
# Shear Modulus (GPa) = 24.81569 32.24228 28.52898
#
# Velocity S-wave (km/s) = 3.53017 4.02388 3.78508
# Velocity P-wave (km/s) = 6.56739 7.78564 7.20232
#
# Compressibility (1/GPa) = 0.01894010
#
# Stress axis : x y z
#
# Youngs Moduli (GPa) = 37.24054 115.50338 77.02711
#
# Poissons Ratio (x) = 0.14204 0.72733
# Poissons Ratio (y) = 0.04579 0.31612
# Poissons Ratio (z) = 0.35164 0.47403
#
# Static dielectric constant tensor:
#      x y z
#    x 3.363420 0.041730 0.080680 
#    y 0.041730 4.039040 -0.131520 
#    z 0.080680 -0.131520 4.062830 
# 
# 
# High freq. dielectric constant tensor:
#      x y z
#    x 1.744220 0.010350 0.004110 
#    y 0.010350 1.804290 0.000110 
#    z 0.004110 0.000110 1.777840 
# 
# From -- ./inp_files/390224.got.cif
#   From: 2010.06.25/outbox.cif.g09.slc.cpg/sg2_196_cif.got.tgz:390224.got - 2010.06.27 13:26:56.
