data_PCOD8010400
_publ_section_title
;
Structure prediction by ZEFSAII (Michael W. Deem and Ramdas Pophale) SiO2 
 PCOD8010400
Probable space group: P -1
;
_chemical_formula_sum "Si O2"
_cell_formula_units_Z 16
_cell_length_a 5.087383
_cell_length_b 15.831177
_cell_length_c 14.713767
_cell_angle_alpha 52.097047
_cell_angle_beta 117.240722
_cell_angle_gamma 96.770761
_cell_volume 808.513774
_symmetry_space_group_name_H-M "P -1"
_symmetry_group_IT_number 2
_symmetry_cell_setting 'triclinic'
loop_
_space_group_symop_operation_xyz
x,y,z
-x,-y,-z
loop_
_atom_site_type_symbol
_atom_site_label
_atom_site_fract_x
_atom_site_fract_y
_atom_site_fract_z
Si Si1 0.781014 0.890208 0.860254
Si Si2 0.169785 0.420675 0.253229
Si Si3 0.651757 0.061479 0.410059
Si Si4 0.639279 0.309634 0.254353
Si Si5 0.561699 0.083408 0.029437
Si Si6 0.690355 0.458270 0.645285
Si Si7 0.727930 0.649916 0.009529
Si Si8 0.641023 0.668461 0.185503
O O1 0.536846 0.939103 0.711803
O O2 0.626172 0.934433 0.900579
O O3 0.874673 0.756618 0.959193
O O4 0.086470 0.934609 0.871929
O O5 0.450453 0.384446 0.253367
O O6 0.278508 0.434146 0.364403
O O7 0.977749 0.328012 0.290754
O O8 0.983842 0.539108 0.109981
O O9 0.641681 0.184629 0.359586
O O10 0.500000 0.000000 0.500000
O O11 0.000000 0.000000 0.500000
O O12 0.512399 0.344679 0.111440
O O13 0.436346 0.203327 0.887488
O O14 0.500000 0.000000 0.000000
O O15 0.500000 0.500000 0.500000
O O16 0.543009 0.386834 0.737309
O O17 0.004060 0.382909 0.709768
O O18 0.556115 0.648964 0.079654
#
# Coordination Sequence:
#
# PCOD8010400 Si02
#       8
#     2   2   2   2   2   2   2   2
#     4  10  22  38  61  88 114 156 197 231 295 363
#     4  11  21  36  57  88 117 144 182 236 288 336
#     4  11  23  43  62  81 117 163 200 233 278 349
#     4  11  23  36  58  90 116 144 185 237 288 336
#     4  11  21  38  61  90 119 143 192 260 301 332
#     4  11  23  41  59  79 116 162 197 228 275 347
#     4   9  20  36  60  86 120 147 178 229 296 360
#     4  10  21  38  60  86 111 153 196 230 287 355
#
# _framework density 19.789397999999998
#
# number of rings (size 3 to 8) (size 9 to 14) (size 15 to 20)
#    0.000    1.500    0.000    6.750    0.000    8.000 
#    0.000    7.500    0.000    0.000    0.000    0.000 
#    0.000    0.000    0.000    0.000    0.000    0.000 
#
# Total GULP energy -198407.026455 kJ/mol
# GULP energy per Si atom -12400.439153 kJ/mol
# Density = 1.974436 g / cm^3
# Si number density = 19.789398 Si / 1000 Ang^3
#
#
#
# Elastic Constant Matrix: (Units=GPa)
#
#
# Indices 1 2 3 4 5 6 
#
# 1 116.3580 17.0721 41.2242 1.1406 12.8100 1.3905
# 2 17.0721 113.7723 48.5922 8.6862 12.5103 1.0849
# 3 41.2242 48.5922 128.5336 11.2481 4.4711 -0.3512
# 4 1.1406 8.6862 11.2481 28.0398 1.9020 4.9745
# 5 12.8100 12.5103 4.4711 1.9020 29.6135 -1.8805
# 6 1.3905 1.0849 -0.3512 4.9745 -1.8805 30.0412
#
#
#
# Elastic Compliance Matrix: (Units=1/GPa)
#
#
# Indices 1 2 3 4 5 6 
#
# 1 0.010197 0.000266 -0.003343 0.001303 -0.004166 -0.000997
# 2 0.000266 0.011017 -0.003981 -0.001465 -0.004104 -0.000471
# 3 -0.003343 -0.003981 0.010576 -0.003184 0.001803 0.001062
# 4 0.001303 -0.001465 -0.003184 0.038672 -0.002367 -0.006597
# 5 -0.004166 -0.004104 0.001803 -0.002367 0.037380 0.003094
# 6 -0.000997 -0.000471 0.001062 -0.006597 0.003094 0.034649
#
#
# Mechanical properties :
#
#
# Convention : Reuss Voigt Hill
#
# Bulk Modulus (GPa) = 56.57757 63.60454 60.09105
# Shear Modulus (GPa) = 30.76926 34.32395 32.54660
#
# Velocity S-wave (km/s) = 3.94742 4.16920 4.05983
# Velocity P-wave (km/s) = 7.03051 7.44223 7.23930
#
# Compressibility (1/GPa) = 0.01767485
#
# Stress axis : x y z
#
# Youngs Moduli (GPa) = 98.06562 90.76580 94.55440
#
# Poissons Ratio (x) = -0.02411 0.31608
# Poissons Ratio (y) = -0.02605 0.37639
# Poissons Ratio (z) = 0.32782 0.36131
#
# Static dielectric constant tensor:
#      x y z
#    x 3.681790 0.015580 0.021660 
#    y 0.015580 3.842540 0.033780 
#    z 0.021660 0.033780 3.732120 
# 
# 
# High freq. dielectric constant tensor:
#      x y z
#    x 1.788140 -0.000710 -0.001700 
#    y -0.000710 1.774550 0.001260 
#    z -0.001700 0.001260 1.764490 
# 
# From -- ./inp_files/484340.got.cif
#   From: 2010.06.25/outbox.cif.g09.slc.cpg/sg2_243_cif.got.tgz:484340.got - 2010.06.27 13:26:56.
