data_PCOD8010628
_publ_section_title
;
Structure prediction by ZEFSAII (Michael W. Deem and Ramdas Pophale) SiO2 
 PCOD8010628
Probable space group: P -1
;
_chemical_formula_sum "Si O2"
_cell_formula_units_Z 16
_cell_length_a 20.869374
_cell_length_b 16.484053
_cell_length_c 8.393070
_cell_angle_alpha 131.850494
_cell_angle_beta 34.967356
_cell_angle_gamma 153.670240
_cell_volume 707.772036
_symmetry_space_group_name_H-M "P -1"
_symmetry_group_IT_number 2
_symmetry_cell_setting 'triclinic'
loop_
_space_group_symop_operation_xyz
x,y,z
-x,-y,-z
loop_
_atom_site_type_symbol
_atom_site_label
_atom_site_fract_x
_atom_site_fract_y
_atom_site_fract_z
Si Si1 0.525628 0.124363 0.315977
Si Si2 0.809731 0.652018 0.564571
Si Si3 0.218893 0.547848 0.179035
Si Si4 0.162856 0.122911 0.962711
Si Si5 0.444982 0.726318 0.255984
Si Si6 0.421700 0.596968 0.569772
Si Si7 0.200355 0.756563 0.313474
Si Si8 0.871362 0.002006 0.812204
O O1 0.530063 0.141600 0.521219
O O2 0.578006 0.283762 0.350717
O O3 0.310337 0.919318 0.430499
O O4 0.679116 0.154894 0.982416
O O5 0.741693 0.490038 0.582527
O O6 0.660786 0.554184 0.591339
O O7 0.021036 0.810510 0.250613
O O8 0.815665 0.752042 0.812046
O O9 0.389523 0.714168 0.173665
O O10 0.183253 0.620536 0.232206
O O11 0.010633 0.357384 0.437844
O O12 0.289287 0.498180 0.869579
O O13 0.360951 0.264965 0.645847
O O14 0.129311 0.995568 0.988944
O O15 0.000000 0.000000 0.000000
O O16 0.646384 0.817749 0.970875
O O17 0.000000 0.000000 0.500000
#
# Coordination Sequence:
#
# PCOD8010628 Si02
#       8
#     2   2   2   2   2   2   2   2
#     4   9  19  39  65  83 120 166 200 256 316 368
#     4  10  23  42  63  86 128 171 197 257 310 353
#     4  10  23  38  62  94 123 158 212 254 313 377
#     4  11  23  40  64  93 125 163 212 254 301 368
#     4  11  23  42  63  97 123 163 215 255 296 381
#     4  10  21  38  62  88 126 164 206 251 307 373
#     4   9  20  42  60  87 124 161 198 265 323 362
#     4  10  23  40  63  87 129 165 203 250 313 358
#
# _framework density 22.606148999999998
#
# number of rings (size 3 to 8) (size 9 to 14) (size 15 to 20)
#    0.000    2.000    2.500    0.375    7.000    3.000 
#    4.500    1.250    0.000    0.000    0.000    0.000 
#    0.000    0.000    0.000    0.000    0.000    0.000 
#
# Total GULP energy -198216.211539 kJ/mol
# GULP energy per Si atom -12388.513221 kJ/mol
# Density = 2.255470 g / cm^3
# Si number density = 22.606149 Si / 1000 Ang^3
#
#
#
# Elastic Constant Matrix: (Units=GPa)
#
#
# Indices 1 2 3 4 5 6 
#
# 1 46.0391 21.4725 39.8182 -11.5410 -3.0903 32.8219
# 2 21.4725 117.3940 69.5359 -3.0359 2.2676 31.8815
# 3 39.8182 69.5359 157.5612 -9.7824 7.8748 38.2786
# 4 -11.5410 -3.0359 -9.7824 44.7830 6.0970 5.9906
# 5 -3.0903 2.2676 7.8748 6.0970 15.2628 -2.2854
# 6 32.8219 31.8815 38.2786 5.9906 -2.2854 50.7801
#
#
#
# Elastic Compliance Matrix: (Units=1/GPa)
#
#
# Indices 1 2 3 4 5 6 
#
# 1 0.054650 0.003374 -0.005732 0.017593 0.001231 -0.035141
# 2 0.003374 0.012525 -0.004598 0.001692 -0.000499 -0.006800
# 3 -0.005732 -0.004598 0.010796 0.001812 -0.007083 -0.002079
# 4 0.017593 0.001692 0.001812 0.031558 -0.012941 -0.018105
# 5 0.001231 -0.000499 -0.007083 -0.012941 0.076135 0.009810
# 6 -0.035141 -0.006800 -0.002079 -0.018105 0.009810 0.050820
#
#
# Mechanical properties :
#
#
# Convention : Reuss Voigt Hill
#
# Bulk Modulus (GPa) = 15.61076 64.73861 40.17468
# Shear Modulus (GPa) = 18.39932 34.84304 26.62118
#
# Velocity S-wave (km/s) = 2.85600 3.93021 3.43535
# Velocity P-wave (km/s) = 4.21855 7.02105 5.79186
#
# Compressibility (1/GPa) = 0.06405839
#
# Stress axis : x y z
#
# Youngs Moduli (GPa) = 18.29842 79.84019 92.62593
#
# Poissons Ratio (x) = -0.26936 0.53090
# Poissons Ratio (y) = -0.06173 0.42591
# Poissons Ratio (z) = 0.10488 0.36712
#
# Static dielectric constant tensor:
#      x y z
#    x 3.874360 -0.034650 0.534350 
#    y -0.034650 4.318880 -0.183880 
#    z 0.534350 -0.183880 4.748890 
# 
# 
# High freq. dielectric constant tensor:
#      x y z
#    x 1.852260 0.009870 0.020250 
#    y 0.009870 1.895140 -0.009720 
#    z 0.020250 -0.009720 1.901980 
# 
# From -- ./inp_files/355291.got.cif
#   From: 2010.06.25/outbox.cif.g09.slc.cpg/sg2_178_cif.got.tgz:355291.got - 2010.06.27 13:26:56.
