data_PCOD8010614
_publ_section_title
;
Structure prediction by ZEFSAII (Michael W. Deem and Ramdas Pophale) SiO2 
 PCOD8010614
Probable space group: P -1
;
_chemical_formula_sum "Si O2"
_cell_formula_units_Z 14
_cell_length_a 10.030223
_cell_length_b 8.940287
_cell_length_c 19.738698
_cell_angle_alpha 128.449642
_cell_angle_beta 51.078580
_cell_angle_gamma 149.561196
_cell_volume 683.080475
_symmetry_space_group_name_H-M "P -1"
_symmetry_group_IT_number 2
_symmetry_cell_setting 'triclinic'
loop_
_space_group_symop_operation_xyz
x,y,z
-x,-y,-z
loop_
_atom_site_type_symbol
_atom_site_label
_atom_site_fract_x
_atom_site_fract_y
_atom_site_fract_z
Si Si1 0.651054 0.216575 0.712980
Si Si2 0.674327 0.593263 0.904040
Si Si3 0.954846 0.306170 0.098070
Si Si4 0.508972 0.837268 0.004166
Si Si5 0.731780 0.193261 0.534203
Si Si6 0.165150 0.528097 0.707989
Si Si7 0.230871 0.199716 0.537021
O O1 0.563466 0.326409 0.816555
O O2 0.647774 0.249643 0.642307
O O3 0.958328 0.420507 0.686316
O O4 0.455008 0.873063 0.697541
O O5 0.971860 0.791241 0.894664
O O6 0.500000 0.500000 0.000000
O O7 0.667801 0.781163 0.912667
O O8 0.941733 0.501196 0.192545
O O9 0.195517 0.519035 0.027051
O O10 0.663795 0.024065 0.077059
O O11 0.500000 0.000000 0.000000
O O12 0.000000 0.500000 0.500000
O O13 0.500000 0.000000 0.500000
O O14 0.758795 0.997001 0.489491
O O15 0.176429 0.308871 0.643948
O O16 0.500000 0.500000 0.500000
O O17 0.000000 0.000000 0.500000
#
# Coordination Sequence:
#
# PCOD8010614 Si02
#       7
#     2   2   2   2   2   2   2
#     4  11  22  39  65  92 125 159 207 262 305 368
#     4   9  20  39  65  91 114 159 206 251 303 358
#     4  10  21  38  62  87 116 157 204 253 296 367
#     4  11  22  39  58  86 128 159 194 248 313 369
#     4  12  25  43  61  92 133 167 205 255 319 378
#     4  11  20  39  65  94 114 153 217 262 297 354
#     4  12  22  41  68  90 120 163 214 260 310 363
#
# _framework density 20.49539
#
# number of rings (size 3 to 8) (size 9 to 14) (size 15 to 20)
#    0.000    1.143    2.857    5.143    0.000    3.429 
#    5.143    0.000    0.000    0.000    0.000    0.000 
#    0.000    0.000    0.000    0.000    0.000    0.000 
#
# Total GULP energy -173458.154529 kJ/mol
# GULP energy per Si atom -12389.868181 kJ/mol
# Density = 2.044874 g / cm^3
# Si number density = 20.495390 Si / 1000 Ang^3
#
#
#
# Elastic Constant Matrix: (Units=GPa)
#
#
# Indices 1 2 3 4 5 6 
#
# 1 137.5428 46.1346 52.2746 16.5529 -13.0067 -8.9055
# 2 46.1346 107.9770 31.9996 11.0508 -2.5473 0.6414
# 3 52.2746 31.9996 159.2631 23.7016 -9.8335 -6.6152
# 4 16.5529 11.0508 23.7016 33.8583 -2.5801 0.9687
# 5 -13.0067 -2.5473 -9.8335 -2.5801 33.5804 10.2080
# 6 -8.9055 0.6414 -6.6152 0.9687 10.2080 40.3490
#
#
#
# Elastic Compliance Matrix: (Units=1/GPa)
#
#
# Indices 1 2 3 4 5 6 
#
# 1 0.009698 -0.003284 -0.002007 -0.002123 0.002356 0.001319
# 2 -0.003284 0.011095 -0.001028 -0.001313 -0.000560 -0.000897
# 3 -0.002007 -0.001028 0.007844 -0.004127 0.000903 0.000730
# 4 -0.002123 -0.001313 -0.004127 0.034043 0.001165 -0.002236
# 5 0.002356 -0.000560 0.000903 0.001165 0.033372 -0.007794
# 6 0.001319 -0.000897 0.000730 -0.002236 -0.007794 0.027234
#
#
# Mechanical properties :
#
#
# Convention : Reuss Voigt Hill
#
# Bulk Modulus (GPa) = 62.49905 73.95563 68.22734
# Shear Modulus (GPa) = 35.39585 39.84915 37.62250
#
# Velocity S-wave (km/s) = 4.16025 4.41420 4.28910
# Velocity P-wave (km/s) = 7.32375 7.88306 7.60854
#
# Compressibility (1/GPa) = 0.01600024
#
# Stress axis : x y z
#
# Youngs Moduli (GPa) = 103.10892 90.12685 127.47812
#
# Poissons Ratio (x) = 0.29597 0.25590
# Poissons Ratio (y) = 0.33860 0.13102
# Poissons Ratio (z) = 0.20698 0.09263
#
# Static dielectric constant tensor:
#      x y z
#    x 4.821860 -0.448720 -0.679680 
#    y -0.448720 4.089710 0.450800 
#    z -0.679680 0.450800 4.428310 
# 
# 
# High freq. dielectric constant tensor:
#      x y z
#    x 1.784760 0.021000 -0.013420 
#    y 0.021000 1.808270 0.013980 
#    z -0.013420 0.013980 1.813060 
# 
# From -- ./inp_files/122185.got.cif
#   From: 2010.06.25/outbox.cif.g09.slc.cpg/sg2_62_cif.got.tgz:122185.got - 2010.06.27 13:26:56.
