data_PCOD8010220
_publ_section_title
;
Structure prediction by ZEFSAII (Michael W. Deem and Ramdas Pophale) SiO2 
 PCOD8010220
Probable space group: P -1
;
_chemical_formula_sum "Si O2"
_cell_formula_units_Z 14
_cell_length_a 21.765442
_cell_length_b 5.176990
_cell_length_c 9.042119
_cell_angle_alpha 62.836895
_cell_angle_beta 54.468389
_cell_angle_gamma 56.670598
_cell_volume 678.519206
_symmetry_space_group_name_H-M "P -1"
_symmetry_group_IT_number 2
_symmetry_cell_setting 'triclinic'
loop_
_space_group_symop_operation_xyz
x,y,z
-x,-y,-z
loop_
_atom_site_type_symbol
_atom_site_label
_atom_site_fract_x
_atom_site_fract_y
_atom_site_fract_z
Si Si1 0.916500 0.015554 0.181484
Si Si2 0.671186 0.053031 0.975136
Si Si3 0.374660 0.755214 0.505901
Si Si4 0.464189 0.755552 0.668219
Si Si5 0.242158 0.451915 0.778982
Si Si6 0.707239 0.665752 0.727120
Si Si7 0.147278 0.498883 0.624326
O O1 0.839352 0.250027 0.131371
O O2 0.905950 0.147560 0.331861
O O3 0.915467 0.669662 0.270607
O O4 0.000000 0.000000 0.000000
O O5 0.678081 0.385511 0.863992
O O6 0.688176 0.881965 0.840617
O O7 0.578326 0.137000 0.140700
O O8 0.735930 0.821794 0.059916
O O9 0.392708 0.756586 0.655409
O O10 0.460460 0.581959 0.342728
O O11 0.314711 0.571955 0.613352
O O12 0.339559 0.109277 0.401100
O O13 0.500000 0.000000 0.500000
O O14 0.218081 0.320106 0.695109
O O15 0.804856 0.508542 0.593739
#
# Coordination Sequence:
#
# PCOD8010220 Si02
#       7
#     2   2   2   2   2   2   2
#     4  10  21  37  71 105 119 154 220 268 298 371
#     4  12  26  39  62  97 127 167 217 265 315 373
#     4  11  23  44  65  89 124 177 218 259 327 370
#     4  11  25  41  66  86 129 169 223 276 308 369
#     4  10  22  40  71  90 125 170 218 257 308 387
#     4  12  25  41  63  95 131 168 211 260 320 387
#     4  10  21  40  67  92 126 170 201 262 309 380
#
# _framework density 20.633165000000002
#
# number of rings (size 3 to 8) (size 9 to 14) (size 15 to 20)
#    0.857    0.286    2.857    3.857    6.000    1.143 
#    0.000    0.000    0.000    5.143    0.000    0.000 
#    0.000    0.000    0.000    0.000    0.000    0.000 
#
# Total GULP energy -173517.838995 kJ/mol
# GULP energy per Si atom -12394.131357 kJ/mol
# Density = 2.058620 g / cm^3
# Si number density = 20.633165 Si / 1000 Ang^3
#
#
#
# Elastic Constant Matrix: (Units=GPa)
#
#
# Indices 1 2 3 4 5 6 
#
# 1 74.9852 37.9047 48.8503 9.5283 -23.0522 21.2193
# 2 37.9047 112.4678 63.2558 8.5406 -5.6167 32.0308
# 3 48.8503 63.2558 136.3908 22.4572 -27.3618 14.3496
# 4 9.5283 8.5406 22.4572 55.8775 2.8162 0.6654
# 5 -23.0522 -5.6167 -27.3618 2.8162 31.2939 -5.8691
# 6 21.2193 32.0308 14.3496 0.6654 -5.8691 41.7834
#
#
#
# Elastic Compliance Matrix: (Units=1/GPa)
#
#
# Indices 1 2 3 4 5 6 
#
# 1 0.023099 -0.003516 -0.002945 -0.002795 0.012905 -0.006167
# 2 -0.003516 0.016213 -0.007074 0.001466 -0.007746 -0.009325
# 3 -0.002945 -0.007074 0.014040 -0.004602 0.009920 0.003563
# 4 -0.002795 0.001466 -0.004602 0.020374 -0.007561 0.000489
# 5 0.012905 -0.007746 0.009920 -0.007561 0.050010 0.003123
# 6 -0.006167 -0.009325 0.003563 0.000489 0.003123 0.033420
#
#
# Mechanical properties :
#
#
# Convention : Reuss Voigt Hill
#
# Bulk Modulus (GPa) = 38.04801 69.31837 53.68319
# Shear Modulus (GPa) = 25.90851 37.37981 31.64416
#
# Velocity S-wave (km/s) = 3.54739 4.26095 3.92044
# Velocity P-wave (km/s) = 5.93792 7.60764 6.82404
#
# Compressibility (1/GPa) = 0.02628259
#
# Stress axis : x y z
#
# Youngs Moduli (GPa) = 43.29174 61.68005 71.22316
#
# Poissons Ratio (x) = 0.21684 0.20975
# Poissons Ratio (y) = 0.15220 0.50385
# Poissons Ratio (z) = 0.12749 0.43634
#
# Static dielectric constant tensor:
#      x y z
#    x 3.620840 0.093840 0.068330 
#    y 0.093840 3.983510 0.303420 
#    z 0.068330 0.303420 3.838520 
# 
# 
# High freq. dielectric constant tensor:
#      x y z
#    x 1.784540 0.017310 -0.015540 
#    y 0.017310 1.823190 0.017320 
#    z -0.015540 0.017320 1.801150 
# 
# From -- ./inp_files/111827.got.cif
#   From: 2010.06.25/outbox.cif.g09.slc.cpg/sg2_56_cif.got.tgz:111827.got - 2010.06.27 13:26:56.
