data_PCOD8010923
_publ_section_title
;
Structure prediction by ZEFSAII (Michael W. Deem and Ramdas Pophale) SiO2 
 PCOD8010923
Probable space group: P -1
;
_chemical_formula_sum "Si O2"
_cell_formula_units_Z 16
_cell_length_a 16.537443
_cell_length_b 9.278331
_cell_length_c 4.858198
_cell_angle_alpha 73.377381
_cell_angle_beta 96.353394
_cell_angle_gamma 60.035057
_cell_volume 589.241533
_symmetry_space_group_name_H-M "P -1"
_symmetry_group_IT_number 2
_symmetry_cell_setting 'triclinic'
loop_
_space_group_symop_operation_xyz
x,y,z
-x,-y,-z
loop_
_atom_site_type_symbol
_atom_site_label
_atom_site_fract_x
_atom_site_fract_y
_atom_site_fract_z
Si Si1 0.081497 0.939775 0.844061
Si Si2 0.332197 0.480962 0.686766
Si Si3 0.536230 0.295294 0.685987
Si Si4 0.174671 0.093089 0.114568
Si Si5 0.988673 0.715443 0.666351
Si Si6 0.142143 0.379659 0.624235
Si Si7 0.338844 0.814794 0.691556
Si Si8 0.211873 0.525985 0.109730
O O1 0.120370 0.732854 0.889679
O O2 0.170729 0.948469 0.999065
O O3 0.031229 0.085089 0.496413
O O4 0.000000 0.000000 0.000000
O O5 0.442650 0.303576 0.771476
O O6 0.332454 0.642801 0.740518
O O7 0.280806 0.545746 0.336503
O O8 0.274253 0.427655 0.904271
O O9 0.500000 0.500000 0.500000
O O10 0.577775 0.193760 0.466610
O O11 0.630204 0.187934 0.982168
O O12 0.062523 0.261148 0.071276
O O13 0.234522 0.996072 0.471667
O O14 0.220794 0.191449 0.918413
O O15 0.939324 0.664341 0.441565
O O16 0.103686 0.544287 0.751895
O O17 0.178916 0.411916 0.333465
#
# Coordination Sequence:
#
# PCOD8010923 Si02
#       8
#     2   2   2   2   2   2   2   2
#     4  11  23  40  60  95 134 169 216 276 333 371
#     4  11  22  39  64  96 133 162 213 270 333 391
#     4  10  21  38  65 100 135 167 205 272 341 393
#     4  11  24  39  66  91 129 178 223 269 318 399
#     4  10  22  42  63  85 129 172 234 265 320 384
#     4  10  24  41  60  91 125 181 222 268 318 386
#     4  11  21  38  67 100 132 168 216 268 331 395
#     4  12  24  40  65  97 134 171 217 270 329 385
#
# _framework density 27.153552999999999
#
# number of rings (size 3 to 8) (size 9 to 14) (size 15 to 20)
#    0.000    1.250    2.500    4.875    5.250    1.500 
#    0.000    0.000    0.000    4.500    0.000    0.000 
#    0.000    0.000    0.000    0.000    0.000    0.000 
#
# Total GULP energy -198302.290064 kJ/mol
# GULP energy per Si atom -12393.893129 kJ/mol
# Density = 2.709175 g / cm^3
# Si number density = 27.153553 Si / 1000 Ang^3
#
#
#
# Elastic Constant Matrix: (Units=GPa)
#
#
# Indices 1 2 3 4 5 6 
#
# 1 98.8675 31.0087 35.2455 -20.6995 -23.9199 -12.6946
# 2 31.0087 60.5747 17.4861 3.2201 -20.9422 7.8711
# 3 35.2455 17.4861 166.8175 -7.5776 -13.0549 0.2564
# 4 -20.6995 3.2201 -7.5776 42.5635 -5.6586 -6.2558
# 5 -23.9199 -20.9422 -13.0549 -5.6586 48.3239 5.6954
# 6 -12.6946 7.8711 0.2564 -6.2558 5.6954 44.6263
#
#
#
# Elastic Compliance Matrix: (Units=1/GPa)
#
#
# Indices 1 2 3 4 5 6 
#
# 1 0.017886 -0.008355 -0.002031 0.010735 0.005065 0.007432
# 2 -0.008355 0.024697 -0.000580 -0.006395 0.006661 -0.008476
# 3 -0.002031 -0.000580 0.006542 0.000219 0.000603 -0.000559
# 4 0.010735 -0.006395 0.000219 0.031100 0.005316 0.007861
# 5 0.005065 0.006661 0.000603 0.005316 0.027163 -0.002459
# 6 0.007432 -0.008476 -0.000559 0.007861 -0.002459 0.027436
#
#
# Mechanical properties :
#
#
# Convention : Reuss Voigt Hill
#
# Bulk Modulus (GPa) = 36.77187 54.86003 45.81595
# Shear Modulus (GPa) = 30.15326 43.27070 36.71198
#
# Velocity S-wave (km/s) = 3.33599 3.99627 3.68096
# Velocity P-wave (km/s) = 5.33011 6.44523 5.91401
#
# Compressibility (1/GPa) = 0.02719470
#
# Stress axis : x y z
#
# Youngs Moduli (GPa) = 55.90961 40.49080 152.85046
#
# Poissons Ratio (x) = 0.33830 0.31038
# Poissons Ratio (y) = 0.46712 0.08861
# Poissons Ratio (z) = 0.11353 0.02347
#
# Static dielectric constant tensor:
#      x y z
#    x 5.573100 -0.133550 0.007250 
#    y -0.133550 5.027600 0.156390 
#    z 0.007250 0.156390 4.656900 
# 
# 
# High freq. dielectric constant tensor:
#      x y z
#    x 2.102520 0.001890 0.005780 
#    y 0.001890 2.076680 0.021970 
#    z 0.005780 0.021970 2.116730 
# 
# From -- ./inp_files/108853.got.cif
#   From: 2010.06.25/outbox.cif.g09.slc.cpg/sg2_55_cif.got.tgz:108853.got - 2010.06.27 13:26:56.
