data_PCOD8010468
_publ_section_title
;
Structure prediction by ZEFSAII (Michael W. Deem and Ramdas Pophale) SiO2 
 PCOD8010468
Probable space group: P -1
;
_chemical_formula_sum "Si O2"
_cell_formula_units_Z 14
_cell_length_a 6.072673
_cell_length_b 18.697293
_cell_length_c 9.098915
_cell_angle_alpha 44.951223
_cell_angle_beta 127.427301
_cell_angle_gamma 116.998708
_cell_volume 579.107431
_symmetry_space_group_name_H-M "P -1"
_symmetry_group_IT_number 2
_symmetry_cell_setting 'triclinic'
loop_
_space_group_symop_operation_xyz
x,y,z
-x,-y,-z
loop_
_atom_site_type_symbol
_atom_site_label
_atom_site_fract_x
_atom_site_fract_y
_atom_site_fract_z
Si Si1 0.189599 0.731455 0.112617
Si Si2 0.264623 0.768011 0.410422
Si Si3 0.617795 0.957796 0.277111
Si Si4 0.707790 0.859043 0.074097
Si Si5 0.848315 0.920162 0.722719
Si Si6 0.247459 0.538834 0.245180
Si Si7 0.302424 0.577590 0.880805
O O1 0.159907 0.708496 0.308484
O O2 0.508568 0.759913 0.158938
O O3 0.098987 0.629385 0.137760
O O4 0.000100 0.823316 0.856573
O O5 0.508934 0.847136 0.338772
O O6 0.376775 0.690425 0.687586
O O7 0.017406 0.832052 0.287202
O O8 0.623217 0.953063 0.464871
O O9 0.922696 0.987686 0.295122
O O10 0.401087 0.044638 0.015935
O O11 0.697175 0.890845 0.853632
O O12 0.500000 0.500000 0.500000
O O13 0.018234 0.449197 0.252053
O O14 0.359785 0.579227 0.075263
O O15 0.500000 0.500000 0.000000
#
# Coordination Sequence:
#
# PCOD8010468 Si02
#       7
#     2   2   2   2   2   2   2
#     4  10  23  40  65  93 132 171 217 270 331 390
#     4  11  24  40  63  98 130 171 221 271 328 390
#     4  10  21  38  60  93 132 173 219 271 312 393
#     4  10  21  39  62  93 130 176 220 262 330 386
#     4   9  21  39  59  94 130 174 219 264 326 384
#     4  11  25  48  72 100 137 173 223 284 337 409
#     4  11  27  46  71 105 132 175 227 276 345 403
#
# _framework density 24.175134
#
# number of rings (size 3 to 8) (size 9 to 14) (size 15 to 20)
#    0.000    1.714    0.000    2.571    4.000   10.857 
#    0.000    0.000    0.000    0.000    0.000    0.000 
#    0.000    0.000    0.000    0.000    0.000    0.000 
#
# Total GULP energy -173656.246316 kJ/mol
# GULP energy per Si atom -12404.017594 kJ/mol
# Density = 2.412011 g / cm^3
# Si number density = 24.175134 Si / 1000 Ang^3
#
#
#
# Elastic Constant Matrix: (Units=GPa)
#
#
# Indices 1 2 3 4 5 6 
#
# 1 63.4309 10.7810 26.1920 -7.0402 0.3835 -7.8019
# 2 10.7810 99.3198 30.3571 -8.1622 1.7224 -8.1394
# 3 26.1920 30.3571 148.9370 -3.5150 -3.7737 3.8327
# 4 -7.0402 -8.1622 -3.5150 39.5547 -0.4045 -0.6490
# 5 0.3835 1.7224 -3.7737 -0.4045 41.2526 -1.3863
# 6 -7.8019 -8.1394 3.8327 -0.6490 -1.3863 33.0848
#
#
#
# Elastic Compliance Matrix: (Units=1/GPa)
#
#
# Indices 1 2 3 4 5 6 
#
# 1 0.018016 -0.000375 -0.003147 0.002922 -0.000258 0.004567
# 2 -0.000375 0.011224 -0.002262 0.002091 -0.000552 0.002953
# 3 -0.003147 -0.002262 0.007796 -0.000362 0.000760 -0.002177
# 4 0.002922 0.002091 -0.000362 0.026232 0.000169 0.001767
# 5 -0.000258 -0.000552 0.000760 0.000169 0.024362 0.000739
# 6 0.004567 0.002953 -0.002177 0.001767 0.000739 0.032347
#
#
# Mechanical properties :
#
#
# Convention : Reuss Voigt Hill
#
# Bulk Modulus (GPa) = 39.26637 49.59420 44.43028
# Shear Modulus (GPa) = 35.70563 39.06893 37.38728
#
# Velocity S-wave (km/s) = 3.84729 4.02441 3.93685
# Velocity P-wave (km/s) = 6.00110 6.49258 6.25167
#
# Compressibility (1/GPa) = 0.02546709
#
# Stress axis : x y z
#
# Youngs Moduli (GPa) = 55.50625 89.09381 128.27814
#
# Poissons Ratio (x) = 0.03340 0.40369
# Poissons Ratio (y) = 0.02081 0.29023
# Poissons Ratio (z) = 0.17468 0.20157
#
# Static dielectric constant tensor:
#      x y z
#    x 4.292400 0.012880 -0.098860 
#    y 0.012880 4.186230 -0.021440 
#    z -0.098860 -0.021440 4.386750 
# 
# 
# High freq. dielectric constant tensor:
#      x y z
#    x 1.962420 -0.002270 -0.010670 
#    y -0.002270 1.948920 0.001790 
#    z -0.010670 0.001790 1.969420 
# 
# From -- ./inp_files/138628.got.cif
#   From: 2010.06.25/outbox.cif.g09.slc.cpg/sg2_70_cif.got.tgz:138628.got - 2010.06.27 13:26:56.
