data_PCOD8010195
_publ_section_title
;
Structure prediction by ZEFSAII (Michael W. Deem and Ramdas Pophale) SiO2 
 PCOD8010195
Probable space group: P -1
;
_chemical_formula_sum "Si O2"
_cell_formula_units_Z 16
_cell_length_a 14.918474
_cell_length_b 17.883555
_cell_length_c 5.310983
_cell_angle_alpha 92.249524
_cell_angle_beta 81.107799
_cell_angle_gamma 151.012605
_cell_volume 664.657667
_symmetry_space_group_name_H-M "P -1"
_symmetry_group_IT_number 2
_symmetry_cell_setting 'triclinic'
loop_
_space_group_symop_operation_xyz
x,y,z
-x,-y,-z
loop_
_atom_site_type_symbol
_atom_site_label
_atom_site_fract_x
_atom_site_fract_y
_atom_site_fract_z
Si Si1 0.302748 0.691165 0.649963
Si Si2 0.345946 0.325244 0.568629
Si Si3 0.479794 0.190101 0.947436
Si Si4 0.394642 0.568885 0.219770
Si Si5 0.272852 0.832679 0.580027
Si Si6 0.100795 0.844937 0.937441
Si Si7 0.783822 0.707737 0.873826
Si Si8 0.053254 0.372167 0.648484
O O1 0.421581 0.762857 0.351983
O O2 0.202395 0.699459 0.680093
O O3 0.142032 0.511867 0.748049
O O4 0.440285 0.795519 0.844860
O O5 0.500000 0.500000 0.500000
O O6 0.464708 0.335051 0.581257
O O7 0.226815 0.240351 0.346972
O O8 0.211713 0.244941 0.858138
O O9 0.513105 0.303300 0.990314
O O10 0.254957 0.011124 0.019299
O O11 0.385782 0.479485 0.084287
O O12 0.182056 0.442156 0.363366
O O13 0.209324 0.850547 0.797784
O O14 0.166593 0.771469 0.353373
O O15 0.500000 0.000000 0.500000
O O16 0.985606 0.809761 0.776112
O O17 0.942629 0.696891 0.179660
#
# Coordination Sequence:
#
# PCOD8010195 Si02
#       8
#     2   2   2   2   2   2   2   2
#     4  11  26  45  67 100 132 178 230 280 328 390
#     4  10  21  37  68  98 131 166 219 276 327 396
#     4  11  26  44  68  97 140 178 221 273 339 397
#     4  10  21  45  67 100 131 175 220 276 333 393
#     4  12  25  44  68  96 139 178 228 273 341 396
#     4  12  25  42  69  96 138 183 221 276 336 402
#     4  11  22  39  66 101 129 170 223 273 329 390
#     4  11  25  43  70  99 134 176 230 280 330 393
#
# _framework density 24.072544000000001
#
# number of rings (size 3 to 8) (size 9 to 14) (size 15 to 20)
#    0.000    1.000    2.500    4.875    3.500    5.500 
#    0.000    1.250    0.000    0.000    0.000    0.875 
#    0.000    0.000    0.000    0.000    0.000    0.000 
#
# Total GULP energy -198314.340385 kJ/mol
# GULP energy per Si atom -12394.646274 kJ/mol
# Density = 2.401775 g / cm^3
# Si number density = 24.072544 Si / 1000 Ang^3
#
#
#
# Elastic Constant Matrix: (Units=GPa)
#
#
# Indices 1 2 3 4 5 6 
#
# 1 98.6073 17.1988 21.4964 4.0922 15.3853 25.2059
# 2 17.1988 99.0434 20.3510 0.4341 1.3624 14.3220
# 3 21.4964 20.3510 105.1383 16.5584 10.5239 13.7425
# 4 4.0922 0.4341 16.5584 33.0716 9.2697 10.8153
# 5 15.3853 1.3624 10.5239 9.2697 31.4829 12.5733
# 6 25.2059 14.3220 13.7425 10.8153 12.5733 28.2541
#
#
#
# Elastic Compliance Matrix: (Units=1/GPa)
#
#
# Indices 1 2 3 4 5 6 
#
# 1 0.013751 -0.000387 -0.001530 0.003578 -0.002645 -0.011520
# 2 -0.000387 0.011436 -0.001883 0.002318 0.002197 -0.006401
# 3 -0.001530 -0.001883 0.011160 -0.004797 -0.001193 -0.000742
# 4 0.003578 0.002318 -0.004797 0.038442 -0.005929 -0.014111
# 5 -0.002645 0.002197 -0.001193 -0.005929 0.040703 -0.014018
# 6 -0.011520 -0.006401 -0.000742 -0.014111 -0.014018 0.060916
#
#
# Mechanical properties :
#
#
# Convention : Reuss Voigt Hill
#
# Bulk Modulus (GPa) = 34.78447 46.76460 40.77453
# Shear Modulus (GPa) = 25.82773 34.81124 30.31949
#
# Velocity S-wave (km/s) = 3.27909 3.80688 3.55280
# Velocity P-wave (km/s) = 5.36822 6.22831 5.81419
#
# Compressibility (1/GPa) = 0.02874846
#
# Stress axis : x y z
#
# Youngs Moduli (GPa) = 72.72132 87.44423 89.60297
#
# Poissons Ratio (x) = 0.03384 0.13706
# Poissons Ratio (y) = 0.02814 0.16870
# Poissons Ratio (z) = 0.11124 0.16464
#
# Static dielectric constant tensor:
#      x y z
#    x 5.171450 0.189240 0.464690 
#    y 0.189240 4.478850 0.101850 
#    z 0.464690 0.101850 4.505070 
# 
# 
# High freq. dielectric constant tensor:
#      x y z
#    x 1.971400 0.009980 0.016260 
#    y 0.009980 1.940020 0.010700 
#    z 0.016260 0.010700 1.938860 
# 
# From -- ./inp_files/99685.got.cif
#   From: 2010.06.25/outbox.cif.g09.slc.cpg/sg2_50_cif.got.tgz:99685.got - 2010.06.27 13:26:56.
