data_PCOD8010796
_publ_section_title
;
Structure prediction by ZEFSAII (Michael W. Deem and Ramdas Pophale) SiO2 
 PCOD8010796
Probable space group: P -1
;
_chemical_formula_sum "Si O2"
_cell_formula_units_Z 14
_cell_length_a 14.207726
_cell_length_b 7.787299
_cell_length_c 11.413351
_cell_angle_alpha 86.602613
_cell_angle_beta 149.120815
_cell_angle_gamma 83.707250
_cell_volume 614.398881
_symmetry_space_group_name_H-M "P -1"
_symmetry_group_IT_number 2
_symmetry_cell_setting 'triclinic'
loop_
_space_group_symop_operation_xyz
x,y,z
-x,-y,-z
loop_
_atom_site_type_symbol
_atom_site_label
_atom_site_fract_x
_atom_site_fract_y
_atom_site_fract_z
Si Si1 0.276486 0.685006 0.227464
Si Si2 0.844126 0.738976 0.104222
Si Si3 0.243918 0.647480 0.441009
Si Si4 0.891506 0.934400 0.734840
Si Si5 0.360685 0.195211 0.363756
Si Si6 0.904205 0.072778 0.273002
Si Si7 0.666345 0.456755 0.955086
O O1 0.235877 0.573953 0.302278
O O2 0.497823 0.685093 0.468760
O O3 0.260923 0.572445 0.100563
O O4 0.106680 0.881942 0.027812
O O5 0.074026 0.641443 0.345634
O O6 0.801335 0.934382 0.112493
O O7 0.767051 0.751525 0.890088
O O8 0.755754 0.609893 0.093030
O O9 0.436425 0.535863 0.718712
O O10 0.234298 0.855527 0.391463
O O11 0.773655 0.805990 0.665561
O O12 0.929999 0.901919 0.637684
O O13 0.500000 0.000000 0.500000
O O14 0.741303 0.267078 0.112527
O O15 0.000000 0.000000 0.500000
#
# Coordination Sequence:
#
# PCOD8010796 Si02
#       7
#     2   2   2   2   2   2   2
#     4  11  21  34  58  94 142 171 199 251 316 396
#     4  11  24  40  66  95 131 171 206 260 332 383
#     4  11  20  35  59  94 137 168 205 253 315 391
#     4  10  21  38  63  95 132 176 212 256 323 383
#     4  12  19  32  63  98 132 170 201 247 321 396
#     4  10  25  48  69  89 124 173 227 274 314 370
#     4  11  24  40  63  98 129 168 213 264 318 384
#
# _framework density 22.786501999999999
#
# number of rings (size 3 to 8) (size 9 to 14) (size 15 to 20)
#    0.000    1.143    4.286    3.429    0.000    3.429 
#    0.000    4.286    0.000   27.429    0.000    0.000 
#    0.000    0.000    0.000    0.000    0.000    0.000 
#
# Total GULP energy -173508.782474 kJ/mol
# GULP energy per Si atom -12393.484462 kJ/mol
# Density = 2.273464 g / cm^3
# Si number density = 22.786502 Si / 1000 Ang^3
#
#
#
# Elastic Constant Matrix: (Units=GPa)
#
#
# Indices 1 2 3 4 5 6 
#
# 1 66.1232 18.6266 57.9313 -5.1332 -1.4996 11.5854
# 2 18.6266 98.7434 54.7558 -10.9696 3.9134 12.2208
# 3 57.9313 54.7558 137.3244 -28.4416 7.7739 14.8106
# 4 -5.1332 -10.9696 -28.4416 40.9889 -3.9063 8.7450
# 5 -1.4996 3.9134 7.7739 -3.9063 36.2432 -4.4322
# 6 11.5854 12.2208 14.8106 8.7450 -4.4322 19.1639
#
#
#
# Elastic Compliance Matrix: (Units=1/GPa)
#
#
# Indices 1 2 3 4 5 6 
#
# 1 0.025699 0.001964 -0.011733 -0.002927 0.002338 -0.005844
# 2 0.001964 0.013692 -0.005114 0.001762 -0.000966 -0.006993
# 3 -0.011733 -0.005114 0.017797 0.011153 -0.003691 -0.009343
# 4 -0.002927 0.001762 0.011153 0.037512 -0.001779 -0.025502
# 5 0.002338 -0.000966 -0.003691 -0.001779 0.029580 0.009708
# 6 -0.005844 -0.006993 -0.009343 -0.025502 0.009708 0.081277
#
#
# Mechanical properties :
#
#
# Convention : Reuss Voigt Hill
#
# Bulk Modulus (GPa) = 36.46665 62.75760 49.61213
# Shear Modulus (GPa) = 20.45289 30.67102 25.56196
#
# Velocity S-wave (km/s) = 2.99923 3.67279 3.35297
# Velocity P-wave (km/s) = 5.29454 6.75183 6.06710
#
# Compressibility (1/GPa) = 0.02742231
#
# Stress axis : x y z
#
# Youngs Moduli (GPa) = 38.91213 73.03374 56.18849
#
# Poissons Ratio (x) = -0.14342 0.65924
# Poissons Ratio (y) = -0.07641 0.28736
# Poissons Ratio (z) = 0.45654 0.37351
#
# Static dielectric constant tensor:
#      x y z
#    x 4.063040 0.125790 0.481320 
#    y 0.125790 4.619410 0.020400 
#    z 0.481320 0.020400 4.239590 
# 
# 
# High freq. dielectric constant tensor:
#      x y z
#    x 1.868120 -0.003690 0.025250 
#    y -0.003690 1.907790 -0.024520 
#    z 0.025250 -0.024520 1.891100 
# 
# From -- ./inp_files/447391.got.cif
#   From: 2010.06.25/outbox.cif.g09.slc.cpg/sg2_224_cif.got.tgz:447391.got - 2010.06.27 13:26:56.
