data_PCOD8010984
_publ_section_title
;
Structure prediction by ZEFSAII (Michael W. Deem and Ramdas Pophale) SiO2 
 PCOD8010984
Probable space group: P -1
;
_chemical_formula_sum "Si O2"
_cell_formula_units_Z 16
_cell_length_a 13.417657
_cell_length_b 10.771906
_cell_length_c 7.896808
_cell_angle_alpha 135.469245
_cell_angle_beta 93.720604
_cell_angle_gamma 94.368457
_cell_volume 786.418250
_symmetry_space_group_name_H-M "P -1"
_symmetry_group_IT_number 2
_symmetry_cell_setting 'triclinic'
loop_
_space_group_symop_operation_xyz
x,y,z
-x,-y,-z
loop_
_atom_site_type_symbol
_atom_site_label
_atom_site_fract_x
_atom_site_fract_y
_atom_site_fract_z
Si Si1 0.324933 0.724260 0.534310
Si Si2 0.477620 0.786800 0.305035
Si Si3 0.978794 0.899363 0.224725
Si Si4 0.787926 0.969060 0.120965
Si Si5 0.205876 0.378496 0.056892
Si Si6 0.338432 0.657182 0.855569
Si Si7 0.309547 0.304100 0.674171
Si Si8 0.201329 0.939886 0.167500
O O1 0.410059 0.722361 0.400492
O O2 0.275117 0.898393 0.664420
O O3 0.369168 0.717244 0.723956
O O4 0.230759 0.560239 0.343482
O O5 0.577584 0.703762 0.263477
O O6 0.500000 0.000000 0.500000
O O7 0.431564 0.710025 0.046667
O O8 0.908716 0.014792 0.222199
O O9 0.915733 0.695397 0.041833
O O10 0.000000 0.000000 0.500000
O O11 0.081742 0.884020 0.125828
O O12 0.740300 0.771126 0.989246
O O13 0.772078 0.973451 0.925697
O O14 0.254280 0.409615 0.908241
O O15 0.307266 0.438531 0.643634
O O16 0.249868 0.760372 0.015660
O O17 0.248778 0.100550 0.454211
#
# Coordination Sequence:
#
# PCOD8010984 Si02
#       8
#     2   2   2   2   2   2   2   2
#     4  11  24  46  64  96 132 166 213 265 314 382
#     4  12  25  44  69  94 131 168 213 266 319 381
#     4  10  21  38  65  94 123 170 210 258 320 378
#     4   9  22  40  64  91 130 164 210 263 315 374
#     4  10  22  40  65  93 126 167 211 259 316 373
#     4  11  26  43  67  95 129 171 213 262 322 376
#     4  12  23  42  66  95 128 171 212 262 320 373
#     4  11  21  44  62  93 132 165 213 265 311 380
#
# _framework density 20.345407999999999
#
# number of rings (size 3 to 8) (size 9 to 14) (size 15 to 20)
#    0.750    0.500    3.750    2.250    1.750    1.000 
#    4.500    2.500    0.000    0.000    0.000    0.000 
#    0.000    0.000    0.000    0.000    0.000    0.000 
#
# Total GULP energy -198299.538776 kJ/mol
# GULP energy per Si atom -12393.721174 kJ/mol
# Density = 2.029910 g / cm^3
# Si number density = 20.345408 Si / 1000 Ang^3
#
#
#
# Elastic Constant Matrix: (Units=GPa)
#
#
# Indices 1 2 3 4 5 6 
#
# 1 84.8740 13.5517 8.4170 -10.6766 12.8966 5.0728
# 2 13.5517 79.8602 12.5290 2.1092 7.5028 0.5364
# 3 8.4170 12.5290 67.7543 -6.6708 8.3134 9.3083
# 4 -10.6766 2.1092 -6.6708 30.5673 4.4106 2.9942
# 5 12.8966 7.5028 8.3134 4.4106 12.2373 0.9738
# 6 5.0728 0.5364 9.3083 2.9942 0.9738 32.5580
#
#
#
# Elastic Compliance Matrix: (Units=1/GPa)
#
#
# Indices 1 2 3 4 5 6 
#
# 1 0.016436 -0.001381 0.002250 0.009728 -0.021235 -0.003441
# 2 -0.001381 0.013572 -0.001926 -0.001167 -0.005201 0.000805
# 3 0.002250 -0.001926 0.018368 0.007808 -0.016021 -0.005809
# 4 0.009728 -0.001167 0.007808 0.042853 -0.029747 -0.006780
# 5 -0.021235 -0.005201 -0.016021 -0.029747 0.128344 0.006872
# 6 -0.003441 0.000805 -0.005809 -0.006780 0.006872 0.033316
#
#
# Mechanical properties :
#
#
# Convention : Reuss Voigt Hill
#
# Bulk Modulus (GPa) = 21.61555 33.49820 27.55688
# Shear Modulus (GPa) = 18.48948 28.27191 23.38069
#
# Velocity S-wave (km/s) = 3.01787 3.73177 3.39364
# Velocity P-wave (km/s) = 4.77396 5.92188 5.37863
#
# Compressibility (1/GPa) = 0.04626298
#
# Stress axis : x y z
#
# Youngs Moduli (GPa) = 60.84349 73.67914 54.44146
#
# Poissons Ratio (x) = 0.10173 -0.12247
# Poissons Ratio (y) = 0.08401 0.10483
# Poissons Ratio (z) = -0.13687 0.14187
#
# Static dielectric constant tensor:
#      x y z
#    x 3.880040 -0.073810 -0.003280 
#    y -0.073810 3.778850 0.062100 
#    z -0.003280 0.062100 3.670920 
# 
# 
# High freq. dielectric constant tensor:
#      x y z
#    x 1.785610 -0.001660 -0.000030 
#    y -0.001660 1.803800 -0.000210 
#    z -0.000030 -0.000210 1.799520 
# 
# From -- ./inp_files/261034.got.cif
#   From: 2010.06.25/outbox.cif.g09.slc.cpg/sg2_131_cif.got.tgz:261034.got - 2010.06.27 13:26:56.
