data_PCOD8010163
_publ_section_title
;
Structure prediction by ZEFSAII (Michael W. Deem and Ramdas Pophale) SiO2 
 PCOD8010163
Probable space group: P -1
;
_chemical_formula_sum "Si O2"
_cell_formula_units_Z 16
_cell_length_a 9.296073
_cell_length_b 14.815102
_cell_length_c 12.186082
_cell_angle_alpha 99.585202
_cell_angle_beta 89.749823
_cell_angle_gamma 152.123692
_cell_volume 735.690268
_symmetry_space_group_name_H-M "P -1"
_symmetry_group_IT_number 2
_symmetry_cell_setting 'triclinic'
loop_
_space_group_symop_operation_xyz
x,y,z
-x,-y,-z
loop_
_atom_site_type_symbol
_atom_site_label
_atom_site_fract_x
_atom_site_fract_y
_atom_site_fract_z
Si Si1 0.057390 0.261562 0.554395
Si Si2 0.056600 0.362940 0.796859
Si Si3 0.690117 0.497173 0.599972
Si Si4 0.777593 0.082645 0.912659
Si Si5 0.695582 0.882559 0.436606
Si Si6 0.881408 0.190050 0.163632
Si Si7 0.530380 0.837129 0.191723
Si Si8 0.372635 0.188608 0.045822
O O1 0.017284 0.310522 0.661360
O O2 0.377468 0.383327 0.589213
O O3 0.070915 0.331560 0.460013
O O4 0.740409 0.014574 0.497163
O O5 0.416204 0.608070 0.864667
O O6 0.007242 0.240258 0.841524
O O7 0.800581 0.296799 0.810414
O O8 0.601132 0.339488 0.547428
O O9 0.869408 0.599591 0.737905
O O10 0.477504 0.978086 0.882297
O O11 0.626310 0.894681 0.883320
O O12 0.997016 0.228315 0.049225
O O13 0.636088 0.837579 0.296661
O O14 0.000000 0.000000 0.500000
O O15 0.843652 0.079639 0.218844
O O16 0.478035 0.748788 0.062400
O O17 0.000000 0.000000 0.000000
#
# Coordination Sequence:
#
# PCOD8010163 Si02
#       8
#     2   2   2   2   2   2   2   2
#     4  10  23  41  59  94 129 162 223 255 315 378
#     4  11  25  42  67  94 131 173 206 265 320 383
#     4  10  21  37  67  89 124 174 206 267 316 368
#     4   9  22  40  60  95 127 162 213 255 314 386
#     4  10  22  39  63  93 121 170 216 264 310 375
#     4   9  18  39  67  88 125 171 207 259 317 373
#     4  10  22  43  66  92 132 167 214 263 319 378
#     4  11  26  41  67  98 130 165 210 268 317 383
#
# _framework density 21.748283000000001
#
# number of rings (size 3 to 8) (size 9 to 14) (size 15 to 20)
#    0.000    2.000    1.250    1.125    7.000    4.000 
#    0.000    0.625    0.000    0.000    0.000    0.000 
#    0.000    0.000    0.000    0.000    0.000    0.000 
#
# Total GULP energy -198247.005297 kJ/mol
# GULP energy per Si atom -12390.437831 kJ/mol
# Density = 2.169878 g / cm^3
# Si number density = 21.748283 Si / 1000 Ang^3
#
#
#
# Elastic Constant Matrix: (Units=GPa)
#
#
# Indices 1 2 3 4 5 6 
#
# 1 46.7340 27.6263 26.9961 -8.2115 3.3955 -18.2022
# 2 27.6263 92.3505 41.5870 15.7806 -1.2903 -30.3899
# 3 26.9961 41.5870 102.7861 11.3189 -0.5383 -17.8406
# 4 -8.2115 15.7806 11.3189 35.6085 -7.0702 -5.5853
# 5 3.3955 -1.2903 -0.5383 -7.0702 39.4388 -1.9949
# 6 -18.2022 -30.3899 -17.8406 -5.5853 -1.9949 39.1306
#
#
#
# Elastic Compliance Matrix: (Units=1/GPa)
#
#
# Indices 1 2 3 4 5 6 
#
# 1 0.036021 -0.006973 -0.006472 0.015070 -0.000184 0.010531
# 2 -0.006973 0.018502 -0.003359 -0.007343 0.000277 0.008560
# 3 -0.006472 -0.003359 0.013221 -0.004269 -0.000148 -0.000208
# 4 0.015070 -0.007343 -0.004269 0.038053 0.005483 0.005072
# 5 -0.000184 0.000277 -0.000148 0.005483 0.026472 0.002194
# 6 0.010531 0.008560 -0.000208 0.005072 0.002194 0.037843
#
#
# Mechanical properties :
#
#
# Convention : Reuss Voigt Hill
#
# Bulk Modulus (GPa) = 29.29409 48.25439 38.77424
# Shear Modulus (GPa) = 23.24495 32.54631 27.89563
#
# Velocity S-wave (km/s) = 3.27282 3.87266 3.58531
# Velocity P-wave (km/s) = 5.27074 6.49865 5.91664
#
# Compressibility (1/GPa) = 0.03413658
#
# Stress axis : x y z
#
# Youngs Moduli (GPa) = 27.76133 54.04724 75.63830
#
# Poissons Ratio (x) = 0.37689 0.48953
# Poissons Ratio (y) = 0.19359 0.25404
# Poissons Ratio (z) = 0.17967 0.18153
#
# Static dielectric constant tensor:
#      x y z
#    x 3.855380 -0.398190 0.027950 
#    y -0.398190 4.029750 0.139900 
#    z 0.027950 0.139900 3.902090 
# 
# 
# High freq. dielectric constant tensor:
#      x y z
#    x 1.836390 -0.022820 0.016740 
#    y -0.022820 1.857220 0.005960 
#    z 0.016740 0.005960 1.856890 
# 
# From -- ./inp_files/399291.got.cif
#   From: 2010.06.25/outbox.cif.g09.slc.cpg/sg2_200_cif.got.tgz:399291.got - 2010.06.27 13:26:56.
