data_PCOD8010503
_publ_section_title
;
Structure prediction by ZEFSAII (Michael W. Deem and Ramdas Pophale) SiO2 
 PCOD8010503
Probable space group: P -1
;
_chemical_formula_sum "Si O2"
_cell_formula_units_Z 16
_cell_length_a 11.968297
_cell_length_b 14.641341
_cell_length_c 17.314986
_cell_angle_alpha 49.299174
_cell_angle_beta 160.021296
_cell_angle_gamma 131.426364
_cell_volume 771.861652
_symmetry_space_group_name_H-M "P -1"
_symmetry_group_IT_number 2
_symmetry_cell_setting 'triclinic'
loop_
_space_group_symop_operation_xyz
x,y,z
-x,-y,-z
loop_
_atom_site_type_symbol
_atom_site_label
_atom_site_fract_x
_atom_site_fract_y
_atom_site_fract_z
Si Si1 0.036293 0.235846 0.009435
Si Si2 0.290575 0.811376 0.597358
Si Si3 0.243077 0.534643 0.254965
Si Si4 0.752391 0.871435 0.116870
Si Si5 0.075501 0.727383 0.785987
Si Si6 0.209670 0.874570 0.936042
Si Si7 0.688263 0.004610 0.845051
Si Si8 0.747485 0.723160 0.408766
O O1 0.968670 0.373046 0.893686
O O2 0.715523 0.147257 0.808720
O O3 0.377870 0.239019 0.181974
O O4 0.053652 0.178367 0.137739
O O5 0.104342 0.831981 0.385528
O O6 0.050710 0.715723 0.550991
O O7 0.365606 0.941766 0.621117
O O8 0.500000 0.500000 0.500000
O O9 0.461581 0.598519 0.289071
O O10 0.001916 0.406483 0.149211
O O11 0.702289 0.977633 0.086651
O O12 0.467372 0.751640 0.008028
O O13 0.730486 0.918369 0.991399
O O14 0.022068 0.827485 0.760375
O O15 0.869274 0.743546 0.565631
O O16 0.563161 0.831281 0.202101
O O17 0.000000 0.000000 0.000000
#
# Coordination Sequence:
#
# PCOD8010503 Si02
#       8
#     2   2   2   2   2   2   2   2
#     4   9  21  40  59  87 119 155 195 240 293 350
#     4  11  21  38  62  88 124 153 190 245 294 349
#     4   9  21  41  60  84 116 156 203 241 288 346
#     4  11  22  36  59  95 118 151 199 237 296 347
#     4  11  21  38  63  83 119 155 197 248 289 344
#     4  10  22  38  58  90 120 149 197 242 292 353
#     4   9  20  38  61  85 123 157 185 237 295 355
#     4  10  21  38  61  87 115 157 195 244 293 337
#
# _framework density 20.729104
#
# number of rings (size 3 to 8) (size 9 to 14) (size 15 to 20)
#    0.000    2.000    2.500    0.375    0.000   11.000 
#    0.000    6.875    0.000    0.000    0.000    0.000 
#    0.000    0.000    0.000    0.000    0.000    0.000 
#
# Total GULP energy -198216.570043 kJ/mol
# GULP energy per Si atom -12388.535628 kJ/mol
# Density = 2.068192 g / cm^3
# Si number density = 20.729104 Si / 1000 Ang^3
#
#
#
# Elastic Constant Matrix: (Units=GPa)
#
#
# Indices 1 2 3 4 5 6 
#
# 1 71.3341 16.8579 19.1694 23.8962 20.5795 5.8511
# 2 16.8579 121.1884 30.2225 19.7255 13.5129 15.7235
# 3 19.1694 30.2225 76.2226 11.4366 8.9043 9.6055
# 4 23.8962 19.7255 11.4366 22.9233 -2.3628 4.5069
# 5 20.5795 13.5129 8.9043 -2.3628 37.5913 9.4251
# 6 5.8511 15.7235 9.6055 4.5069 9.4251 24.8750
#
#
#
# Elastic Compliance Matrix: (Units=1/GPa)
#
#
# Indices 1 2 3 4 5 6 
#
# 1 0.033973 0.004428 -0.002035 -0.042007 -0.024032 0.006712
# 2 0.004428 0.011470 -0.002629 -0.013304 -0.006122 -0.002546
# 3 -0.002035 -0.002629 0.015612 -0.002938 -0.001085 -0.002945
# 4 -0.042007 -0.013304 -0.002938 0.107238 0.038913 -0.014749
# 5 -0.024032 -0.006122 -0.001085 0.038913 0.048549 -0.015504
# 6 0.006712 -0.002546 -0.002945 -0.014749 -0.015504 0.049915
#
#
# Mechanical properties :
#
#
# Convention : Reuss Voigt Hill
#
# Bulk Modulus (GPa) = 16.50655 44.58275 30.54465
# Shear Modulus (GPa) = 17.39582 30.57760 23.98671
#
# Velocity S-wave (km/s) = 2.90003 3.84488 3.40538
# Velocity P-wave (km/s) = 4.38108 6.42377 5.49812
#
# Compressibility (1/GPa) = 0.06058201
#
# Stress axis : x y z
#
# Youngs Moduli (GPa) = 29.43491 87.18530 64.05132
#
# Poissons Ratio (x) = -0.38603 0.13037
# Poissons Ratio (y) = -0.13033 0.16840
# Poissons Ratio (z) = 0.05991 0.22922
#
# Static dielectric constant tensor:
#      x y z
#    x 4.236680 -0.359990 -0.274380 
#    y -0.359990 5.546350 0.838470 
#    z -0.274380 0.838470 3.749770 
# 
# 
# High freq. dielectric constant tensor:
#      x y z
#    x 1.818420 0.018070 -0.007120 
#    y 0.018070 1.801770 0.021320 
#    z -0.007120 0.021320 1.800800 
# 
# From -- ./inp_files/257817.got.cif
#   From: 2010.06.25/outbox.cif.g09.slc.cpg/sg2_129_cif.got.tgz:257817.got - 2010.06.27 13:26:56.
