data_PCOD8010015
_publ_section_title
;
Structure prediction by ZEFSAII (Michael W. Deem and Ramdas Pophale) SiO2 
 PCOD8010015
Probable space group: P -1
;
_chemical_formula_sum "Si O2"
_cell_formula_units_Z 16
_cell_length_a 15.104785
_cell_length_b 12.438651
_cell_length_c 14.949515
_cell_angle_alpha 37.369712
_cell_angle_beta 43.826674
_cell_angle_gamma 27.219833
_cell_volume 778.687002
_symmetry_space_group_name_H-M "P -1"
_symmetry_group_IT_number 2
_symmetry_cell_setting 'triclinic'
loop_
_space_group_symop_operation_xyz
x,y,z
-x,-y,-z
loop_
_atom_site_type_symbol
_atom_site_label
_atom_site_fract_x
_atom_site_fract_y
_atom_site_fract_z
Si Si1 0.281119 0.212954 0.840530
Si Si2 0.731917 0.057935 0.117106
Si Si3 0.155333 0.304578 0.188606
Si Si4 0.293718 0.308045 0.447626
Si Si5 0.954870 0.474080 0.688362
Si Si6 0.560529 0.693320 0.082483
Si Si7 0.511201 0.296342 0.671220
Si Si8 0.557875 0.498261 0.823602
O O1 0.388666 0.289153 0.703777
O O2 0.054876 0.481860 0.844929
O O3 0.323829 0.063015 0.816837
O O4 0.366178 0.012427 0.995548
O O5 0.588495 0.231715 0.189513
O O6 0.717250 0.238829 0.941725
O O7 0.953428 0.807696 0.156489
O O8 0.144353 0.320374 0.293718
O O9 0.268838 0.005038 0.281525
O O10 0.257381 0.375215 0.030605
O O11 0.206126 0.388705 0.358654
O O12 0.325579 0.481955 0.335025
O O13 0.142954 0.386774 0.575514
O O14 0.500000 0.000000 0.500000
O O15 0.578119 0.609457 0.226576
O O16 0.562341 0.515698 0.137884
O O17 0.500000 0.500000 0.500000
#
# Coordination Sequence:
#
# PCOD8010015 Si02
#       8
#     2   2   2   2   2   2   2   2
#     4   9  20  41  66  91 119 160 211 255 315 366
#     4   9  19  38  60  95 118 159 210 251 309 363
#     4  10  22  42  68  89 122 162 207 268 303 373
#     4  11  23  39  58  86 132 171 201 254 304 377
#     4  10  23  39  60  94 120 167 216 243 323 367
#     4  10  23  41  61  95 121 164 214 252 316 361
#     4  11  25  42  63  93 125 164 205 261 315 375
#     4  10  21  37  64  89 127 166 203 260 306 365
#
# _framework density 20.547407
#
# number of rings (size 3 to 8) (size 9 to 14) (size 15 to 20)
#    0.000    2.000    1.250    1.500    7.000    6.000 
#    4.500    0.000    0.000    0.000    0.000    0.000 
#    0.000    0.000    0.000    0.000    0.000    0.000 
#
# Total GULP energy -198348.546885 kJ/mol
# GULP energy per Si atom -12396.784180 kJ/mol
# Density = 2.050064 g / cm^3
# Si number density = 20.547407 Si / 1000 Ang^3
#
#
#
# Elastic Constant Matrix: (Units=GPa)
#
#
# Indices 1 2 3 4 5 6 
#
# 1 85.6699 48.3538 53.7555 -9.1303 -5.4444 -8.6986
# 2 48.3538 107.8006 51.2098 -6.1736 -6.1838 -7.2156
# 3 53.7555 51.2098 122.6982 -4.2748 -13.7274 5.1242
# 4 -9.1303 -6.1736 -4.2748 26.5975 2.7020 7.5803
# 5 -5.4444 -6.1838 -13.7274 2.7020 38.2364 -1.0941
# 6 -8.6986 -7.2156 5.1242 7.5803 -1.0941 35.1905
#
#
#
# Elastic Compliance Matrix: (Units=1/GPa)
#
#
# Indices 1 2 3 4 5 6 
#
# 1 0.019358 -0.005215 -0.006409 0.003342 -0.000512 0.003913
# 2 -0.005215 0.013351 -0.003331 0.000206 0.000261 0.001897
# 3 -0.006409 -0.003331 0.012856 -0.000069 0.003054 -0.004029
# 4 0.003342 0.000206 -0.000069 0.041366 -0.002671 -0.008115
# 5 -0.000512 0.000261 0.003054 -0.002671 0.027433 0.000910
# 6 0.003913 0.001897 -0.004029 -0.008115 0.000910 0.032136
#
#
# Mechanical properties :
#
#
# Convention : Reuss Voigt Hill
#
# Bulk Modulus (GPa) = 63.87067 69.20076 66.53572
# Shear Modulus (GPa) = 27.52877 30.86152 29.19514
#
# Velocity S-wave (km/s) = 3.66426 3.87973 3.77353
# Velocity P-wave (km/s) = 7.00388 7.33631 7.17202
#
# Compressibility (1/GPa) = 0.01565664
#
# Stress axis : x y z
#
# Youngs Moduli (GPa) = 51.65714 74.89850 77.78737
#
# Poissons Ratio (x) = 0.39057 0.49854
# Poissons Ratio (y) = 0.26938 0.25908
# Poissons Ratio (z) = 0.33107 0.24946
#
# Static dielectric constant tensor:
#      x y z
#    x 3.791520 -0.074300 0.082040 
#    y -0.074300 3.738780 -0.113690 
#    z 0.082040 -0.113690 3.839040 
# 
# 
# High freq. dielectric constant tensor:
#      x y z
#    x 1.802470 -0.002570 0.007730 
#    y -0.002570 1.799550 -0.006510 
#    z 0.007730 -0.006510 1.805610 
# 
# From -- ./inp_files/531637.got.cif
#   From: 2010.06.25/outbox.cif.g09.slc.cpg/sg2_266_cif.got.tgz:531637.got - 2010.06.27 13:26:56.
