data_PCOD8010928
_publ_section_title
;
Structure prediction by ZEFSAII (Michael W. Deem and Ramdas Pophale) SiO2 
 PCOD8010928
Probable space group: P -1
;
_chemical_formula_sum "Si O2"
_cell_formula_units_Z 16
_cell_length_a 21.242217
_cell_length_b 9.036913
_cell_length_c 12.261606
_cell_angle_alpha 49.572842
_cell_angle_beta 27.205156
_cell_angle_gamma 43.334287
_cell_volume 738.468182
_symmetry_space_group_name_H-M "P -1"
_symmetry_group_IT_number 2
_symmetry_cell_setting 'triclinic'
loop_
_space_group_symop_operation_xyz
x,y,z
-x,-y,-z
loop_
_atom_site_type_symbol
_atom_site_label
_atom_site_fract_x
_atom_site_fract_y
_atom_site_fract_z
Si Si1 0.982576 0.723290 0.971204
Si Si2 0.691552 0.533777 0.402433
Si Si3 0.291111 0.260893 0.500734
Si Si4 0.858781 0.529448 0.583335
Si Si5 0.630451 0.949348 0.149019
Si Si6 0.200387 0.310759 0.174554
Si Si7 0.209624 0.856517 0.041401
Si Si8 0.418414 0.534160 0.722907
O O1 0.849690 0.801198 0.230115
O O2 0.000000 0.500000 0.000000
O O3 0.151595 0.669475 0.781672
O O4 0.934443 0.912480 0.864381
O O5 0.702779 0.581568 0.489340
O O6 0.667247 0.740140 0.267060
O O7 0.555704 0.460367 0.635230
O O8 0.258762 0.380052 0.377580
O O9 0.451247 0.050481 0.348445
O O10 0.815716 0.710625 0.659622
O O11 0.849998 0.314197 0.743252
O O12 0.033332 0.467477 0.308630
O O13 0.731233 0.902369 0.904507
O O14 0.670586 0.120401 0.070749
O O15 0.330444 0.389371 0.921485
O O16 0.298034 0.774790 0.828691
O O17 0.500000 0.500000 0.500000
#
# Coordination Sequence:
#
# PCOD8010928 Si02
#       8
#     2   2   2   2   2   2   2   2
#     4  10  21  38  65 101 134 168 223 282 331 385
#     4  11  21  39  65 103 133 170 219 286 331 390
#     4  11  22  38  68 100 133 171 223 282 330 394
#     4  10  25  47  66  94 140 181 221 271 340 410
#     4  12  21  39  70  98 133 174 227 282 336 391
#     4  10  24  45  66  91 138 185 218 271 342 402
#     4  11  23  43  68 101 133 179 226 273 336 402
#     4  11  22  40  70  96 136 177 221 270 341 396
#
# _framework density 21.666471999999999
#
# number of rings (size 3 to 8) (size 9 to 14) (size 15 to 20)
#    0.000    1.250    5.000    1.875    1.750    1.500 
#    0.000    4.375    0.000    0.000    0.000    0.000 
#    0.000    0.000    0.000    0.000    0.000    0.000 
#
# Total GULP energy -198229.197282 kJ/mol
# GULP energy per Si atom -12389.324830 kJ/mol
# Density = 2.161716 g / cm^3
# Si number density = 21.666472 Si / 1000 Ang^3
#
#
#
# Elastic Constant Matrix: (Units=GPa)
#
#
# Indices 1 2 3 4 5 6 
#
# 1 124.9720 45.7533 42.9744 13.2911 4.4591 -9.7566
# 2 45.7533 77.8415 32.5407 16.9055 4.7663 -18.5984
# 3 42.9744 32.5407 115.8418 28.0537 -6.8318 -7.0226
# 4 13.2911 16.9055 28.0537 38.5604 4.4708 -2.5200
# 5 4.4591 4.7663 -6.8318 4.4708 44.2256 9.6022
# 6 -9.7566 -18.5984 -7.0226 -2.5200 9.6022 40.5212
#
#
#
# Elastic Compliance Matrix: (Units=1/GPa)
#
#
# Indices 1 2 3 4 5 6 
#
# 1 0.010862 -0.005327 -0.002770 0.000723 -0.001017 -0.000024
# 2 -0.005327 0.019995 -0.002292 -0.004360 -0.003268 0.008000
# 3 -0.002770 -0.002292 0.012239 -0.007388 0.003349 -0.000851
# 4 0.000723 -0.004360 -0.007388 0.033445 -0.004114 -0.000053
# 5 -0.001017 -0.003268 0.003349 -0.004114 0.025626 -0.007493
# 6 -0.000024 0.008000 -0.000851 -0.000053 -0.007493 0.029970
#
#
# Mechanical properties :
#
#
# Convention : Reuss Voigt Hill
#
# Bulk Modulus (GPa) = 44.80687 62.35470 53.58078
# Shear Modulus (GPa) = 31.18129 37.82057 34.50093
#
# Velocity S-wave (km/s) = 3.79773 4.18255 3.99477
# Velocity P-wave (km/s) = 6.32104 7.22266 6.78683
#
# Compressibility (1/GPa) = 0.02231801
#
# Stress axis : x y z
#
# Youngs Moduli (GPa) = 92.06415 50.01363 81.70622
#
# Poissons Ratio (x) = 0.26642 0.22629
# Poissons Ratio (y) = 0.49043 0.18728
# Poissons Ratio (z) = 0.25498 0.11464
#
# Static dielectric constant tensor:
#      x y z
#    x 4.116430 -0.122770 2.034320 
#    y -0.122770 3.605560 2.207870 
#    z 2.034320 2.207870 -15.347670 
# 
# 
# High freq. dielectric constant tensor:
#      x y z
#    x 1.855970 0.009610 -0.013220 
#    y 0.009610 1.817640 0.029580 
#    z -0.013220 0.029580 1.866220 
# 
# From -- ./inp_files/382455.got.cif
#   From: 2010.06.25/outbox.cif.g09.slc.cpg/sg2_192_cif.got.tgz:382455.got - 2010.06.27 13:26:56.
