data_PCOD8010372
_publ_section_title
;
Structure prediction by ZEFSAII (Michael W. Deem and Ramdas Pophale) SiO2 
 PCOD8010372
Probable space group: P -1
;
_chemical_formula_sum "Si O2"
_cell_formula_units_Z 10
_cell_length_a 8.709967
_cell_length_b 9.199582
_cell_length_c 18.512928
_cell_angle_alpha 143.922300
_cell_angle_beta 139.119377
_cell_angle_gamma 65.025032
_cell_volume 498.387037
_symmetry_space_group_name_H-M "P -1"
_symmetry_group_IT_number 2
_symmetry_cell_setting 'triclinic'
loop_
_space_group_symop_operation_xyz
x,y,z
-x,-y,-z
loop_
_atom_site_type_symbol
_atom_site_label
_atom_site_fract_x
_atom_site_fract_y
_atom_site_fract_z
Si Si1 0.049789 0.688808 0.914135
Si Si2 0.635681 0.268599 0.103747
Si Si3 0.926367 0.308167 0.465840
Si Si4 0.252989 0.308922 0.885814
Si Si5 0.391693 0.291027 0.311166
O O1 0.231432 0.774153 0.939189
O O2 0.057515 0.445711 0.868050
O O3 0.736277 0.578388 0.738615
O O4 0.153912 0.970264 0.114243
O O5 0.868342 0.540468 0.335376
O O6 0.385808 0.321310 0.016047
O O7 0.500000 0.000000 0.000000
O O8 0.628718 0.244628 0.349094
O O9 0.000000 0.500000 0.500000
O O10 0.921935 0.013635 0.332583
O O11 0.500000 0.500000 0.000000
O O12 0.500000 0.500000 0.500000
#
# Coordination Sequence:
#
# PCOD8010372 Si02
#       5
#     2   2   2   2   2
#     4  10  22  38  59  91 124 153 201 253 295 355
#     4  11  20  36  62  87 120 159 197 247 297 351
#     4  12  22  38  65  90 119 160 205 245 303 357
#     4  10  21  38  59  93 121 151 207 252 290 354
#     4  11  21  37  61  89 121 160 199 243 306 360
#
# _framework density 20.064727000000001
#
# number of rings (size 3 to 8) (size 9 to 14) (size 15 to 20)
#    0.000    1.200    8.000    0.000    0.000    4.800 
#    0.000    1.000    0.000   12.000    0.000    0.000 
#    0.000    0.000    0.000    0.000    0.000    0.000 
#
# Total GULP energy -123885.550906 kJ/mol
# GULP energy per Si atom -12388.555091 kJ/mol
# Density = 2.001906 g / cm^3
# Si number density = 20.064727 Si / 1000 Ang^3
#
#
#
# Elastic Constant Matrix: (Units=GPa)
#
#
# Indices 1 2 3 4 5 6 
#
# 1 14.2450 18.4522 17.5104 -3.1131 -11.2662 -6.9478
# 2 18.4522 185.9466 74.7610 -14.2487 -8.4450 -26.1213
# 3 17.5104 74.7610 178.9944 -17.5098 -24.7675 -14.1505
# 4 -3.1131 -14.2487 -17.5098 44.4341 -3.2172 7.4987
# 5 -11.2662 -8.4450 -24.7675 -3.2172 25.9007 -0.2903
# 6 -6.9478 -26.1213 -14.1505 7.4987 -0.2903 37.4007
#
#
#
# Elastic Compliance Matrix: (Units=1/GPa)
#
#
# Indices 1 2 3 4 5 6 
#
# 1 0.137520 -0.007768 0.000233 0.008282 0.058750 0.019005
# 2 -0.007768 0.007424 -0.002583 0.000115 -0.003384 0.002715
# 3 0.000233 -0.002583 0.007970 0.002723 0.007227 0.000765
# 4 0.008282 0.000115 0.002723 0.025268 0.009356 -0.002344
# 5 0.058750 -0.003384 0.007227 0.009356 0.071246 0.009962
# 6 0.019005 0.002715 0.000765 -0.002344 0.009962 0.033001
#
#
# Mechanical properties :
#
#
# Convention : Reuss Voigt Hill
#
# Bulk Modulus (GPa) = 7.53701 66.73701 37.13701
# Shear Modulus (GPa) = 14.41378 39.44459 26.92919
#
# Velocity S-wave (km/s) = 2.68314 4.43862 3.66746
# Velocity P-wave (km/s) = 3.65561 7.72020 6.04008
#
# Compressibility (1/GPa) = 0.13267859
#
# Stress axis : x y z
#
# Youngs Moduli (GPa) = 7.27166 134.70082 125.47611
#
# Poissons Ratio (x) = 1.04632 -0.02927
# Poissons Ratio (y) = 0.05648 0.32412
# Poissons Ratio (z) = -0.00170 0.34795
#
# Static dielectric constant tensor:
#      x y z
#    x 3.358510 -0.338910 -0.132320 
#    y -0.338910 4.514740 -0.327410 
#    z -0.132320 -0.327410 4.009710 
# 
# 
# High freq. dielectric constant tensor:
#      x y z
#    x 1.740670 -0.019940 -0.005740 
#    y -0.019940 1.794900 -0.013340 
#    z -0.005740 -0.013340 1.807690 
# 
# From -- ./inp_files/16010.got.cif
#   From: 2010.06.25/outbox.cif.g09.slc.cpg/sg2_9_cif.got.tgz:16010.got - 2010.06.27 13:26:56.
