data_PCOD8010204
_publ_section_title
;
Structure prediction by ZEFSAII (Michael W. Deem and Ramdas Pophale) SiO2 
 PCOD8010204
Probable space group: P -1
;
_chemical_formula_sum "Si O2"
_cell_formula_units_Z 14
_cell_length_a 8.943885
_cell_length_b 4.999750
_cell_length_c 15.426444
_cell_angle_alpha 71.197528
_cell_angle_beta 109.909450
_cell_angle_gamma 103.366956
_cell_volume 608.244496
_symmetry_space_group_name_H-M "P -1"
_symmetry_group_IT_number 2
_symmetry_cell_setting 'triclinic'
loop_
_space_group_symop_operation_xyz
x,y,z
-x,-y,-z
loop_
_atom_site_type_symbol
_atom_site_label
_atom_site_fract_x
_atom_site_fract_y
_atom_site_fract_z
Si Si1 0.173699 0.693541 0.089344
Si Si2 0.991687 0.094107 0.118890
Si Si3 0.431542 0.878534 0.247185
Si Si4 0.478020 0.632038 0.578094
Si Si5 0.915684 0.833119 0.311964
Si Si6 0.274801 0.868936 0.387398
Si Si7 0.279883 0.773718 0.672203
O O1 0.140527 0.350699 0.121478
O O2 0.356449 0.791362 0.147895
O O3 0.045979 0.816060 0.114266
O O4 0.154733 0.806569 0.976329
O O5 0.928403 0.034715 0.209347
O O6 0.529772 0.644784 0.334813
O O7 0.282889 0.904177 0.280854
O O8 0.563585 0.161004 0.238893
O O9 0.389352 0.620909 0.464912
O O10 0.349628 0.810396 0.584161
O O11 0.650938 0.827297 0.589280
O O12 0.811322 0.539288 0.295067
O O13 0.091022 0.778306 0.386663
O O14 0.839648 0.994120 0.358195
#
# Coordination Sequence:
#
# PCOD8010204 Si02
#       7
#     2   2   2   2   2   2   2
#     4  10  21  37  69  93 124 154 207 258 316 349
#     4  10  21  39  62 102 120 153 206 267 298 368
#     4  11  21  43  64  92 125 170 201 263 305 375
#     4  10  22  44  60  96 123 167 208 264 298 381
#     4  12  23  43  62  94 126 167 204 260 304 374
#     4  10  23  37  70  92 119 163 221 257 308 353
#     4  11  26  41  62  87 137 167 204 246 320 368
#
# _framework density 23.017060000000001
#
# number of rings (size 3 to 8) (size 9 to 14) (size 15 to 20)
#    0.000    1.429    2.857    2.143    4.000    1.143 
#    0.000    1.429    0.000    0.000    0.000    0.000 
#    0.000    0.000    0.000    0.000    0.000    0.000 
#
# Total GULP energy -173550.380214 kJ/mol
# GULP energy per Si atom -12396.455730 kJ/mol
# Density = 2.296467 g / cm^3
# Si number density = 23.017060 Si / 1000 Ang^3
#
#
#
# Elastic Constant Matrix: (Units=GPa)
#
#
# Indices 1 2 3 4 5 6 
#
# 1 83.4047 26.9873 4.5059 5.6354 14.8103 23.3277
# 2 26.9873 122.0715 27.1327 7.2129 13.8091 22.2960
# 3 4.5059 27.1327 92.6905 11.3788 28.4853 25.7523
# 4 5.6354 7.2129 11.3788 30.7925 4.3943 6.4952
# 5 14.8103 13.8091 28.4853 4.3943 20.5391 7.9498
# 6 23.3277 22.2960 25.7523 6.4952 7.9498 41.2453
#
#
#
# Elastic Compliance Matrix: (Units=1/GPa)
#
#
# Indices 1 2 3 4 5 6 
#
# 1 0.019006 -0.001768 0.009267 -0.001126 -0.020711 -0.011411
# 2 -0.001768 0.009682 -0.001103 -0.000560 -0.002428 -0.002989
# 3 0.009267 -0.001103 0.025756 -0.003025 -0.035851 -0.013340
# 4 -0.001126 -0.000560 -0.003025 0.034594 -0.001084 -0.002410
# 5 -0.020711 -0.002428 -0.035851 -0.001084 0.109613 0.014454
# 6 -0.011411 -0.002989 -0.013340 -0.002410 0.014454 0.038237
#
#
# Mechanical properties :
#
#
# Convention : Reuss Voigt Hill
#
# Bulk Modulus (GPa) = 14.87287 46.15762 30.51524
# Shear Modulus (GPa) = 20.28333 34.48478 27.38405
#
# Velocity S-wave (km/s) = 2.97177 3.87489 3.45299
# Velocity P-wave (km/s) = 4.27211 6.33379 5.40222
#
# Compressibility (1/GPa) = 0.06723652
#
# Stress axis : x y z
#
# Youngs Moduli (GPa) = 52.61369 103.28880 38.82577
#
# Poissons Ratio (x) = 0.18262 -0.35980
# Poissons Ratio (y) = 0.09303 0.04281
# Poissons Ratio (z) = -0.48757 0.11389
#
# Static dielectric constant tensor:
#      x y z
#    x 4.132000 -0.221120 0.011230 
#    y -0.221120 4.369760 0.233060 
#    z 0.011230 0.233060 4.118300 
# 
# 
# High freq. dielectric constant tensor:
#      x y z
#    x 1.897860 -0.010720 0.011000 
#    y -0.010720 1.925770 0.015110 
#    z 0.011000 0.015110 1.897860 
# 
# From -- ./inp_files/35036.got.cif
#   From: 2010.06.25/outbox.cif.g09.slc.cpg/sg2_18_cif.got.tgz:35036.got - 2010.06.27 13:26:56.
