data_PCOD8010014
_publ_section_title
;
Structure prediction by ZEFSAII (Michael W. Deem and Ramdas Pophale) SiO2 
 PCOD8010014
Probable space group: P -1
;
_chemical_formula_sum "Si O2"
_cell_formula_units_Z 14
_cell_length_a 17.983572
_cell_length_b 10.903144
_cell_length_c 11.910587
_cell_angle_alpha 111.365117
_cell_angle_beta 126.234501
_cell_angle_gamma 25.383010
_cell_volume 703.527999
_symmetry_space_group_name_H-M "P -1"
_symmetry_group_IT_number 2
_symmetry_cell_setting 'triclinic'
loop_
_space_group_symop_operation_xyz
x,y,z
-x,-y,-z
loop_
_atom_site_type_symbol
_atom_site_label
_atom_site_fract_x
_atom_site_fract_y
_atom_site_fract_z
Si Si1 0.763431 0.796514 0.953914
Si Si2 0.901013 0.191206 0.586028
Si Si3 0.693756 0.320135 0.881298
Si Si4 0.447929 0.932064 0.372832
Si Si5 0.320316 0.820378 0.876000
Si Si6 0.938621 0.998280 0.777374
Si Si7 0.064764 0.238417 0.169678
O O1 0.569056 0.022264 0.761991
O O2 0.000000 0.500000 0.000000
O O3 0.811996 0.610906 0.020896
O O4 0.692803 0.015474 0.035250
O O5 0.650421 0.567911 0.459175
O O6 0.870657 0.118781 0.629969
O O7 0.000000 0.000000 0.500000
O O8 0.065646 0.092944 0.742801
O O9 0.424378 0.680444 0.794559
O O10 0.739819 0.310514 0.791334
O O11 0.798886 0.033580 0.889805
O O12 0.822641 0.244079 0.060401
O O13 0.500000 0.000000 0.500000
O O14 0.216555 0.171631 0.299610
O O15 0.500000 0.500000 0.000000
O O16 0.968252 0.800987 0.757038
#
# Coordination Sequence:
#
# PCOD8010014 Si02
#       7
#     2   2   2   2   2   2   2
#     4  10  21  37  64  88 119 165 208 256 303 360
#     4  12  24  38  62  95 131 158 202 259 315 374
#     4   9  19  37  66  95 114 157 216 259 300 354
#     4  11  24  36  59  92 127 165 201 250 318 369
#     4  12  21  37  66  90 123 160 221 258 293 368
#     4   9  21  37  68  89 126 158 211 252 320 357
#     4   9  19  41  63  87 120 161 216 247 302 371
#
# _framework density 19.899704
#
# number of rings (size 3 to 8) (size 9 to 14) (size 15 to 20)
#    0.857    0.857    1.429    5.143    2.000    0.571 
#    0.000    0.714    3.143    1.714    0.000    0.000 
#    0.000    0.000    0.000    0.000    0.000    0.000 
#
# Total GULP energy -173471.489065 kJ/mol
# GULP energy per Si atom -12390.820648 kJ/mol
# Density = 1.985441 g / cm^3
# Si number density = 19.899704 Si / 1000 Ang^3
#
#
#
# Elastic Constant Matrix: (Units=GPa)
#
#
# Indices 1 2 3 4 5 6 
#
# 1 115.6421 45.2137 61.5438 -2.7022 -20.0223 12.1914
# 2 45.2137 93.2913 33.7184 4.6588 -25.0729 19.2382
# 3 61.5438 33.7184 114.7875 -4.7433 -20.0634 19.1997
# 4 -2.7022 4.6588 -4.7433 35.7347 5.7930 1.7965
# 5 -20.0223 -25.0729 -20.0634 5.7930 41.0101 3.4384
# 6 12.1914 19.2382 19.1997 1.7965 3.4384 34.0837
#
#
#
# Elastic Compliance Matrix: (Units=1/GPa)
#
#
# Indices 1 2 3 4 5 6 
#
# 1 0.013631 -0.004424 -0.005977 0.000630 0.000864 0.000868
# 2 -0.004424 0.017545 0.000389 -0.003732 0.010069 -0.009359
# 3 -0.005977 0.000389 0.013656 0.000912 0.004398 -0.006266
# 4 0.000630 -0.003732 0.000912 0.029549 -0.005734 0.000388
# 5 0.000864 0.010069 0.004398 -0.005734 0.034904 -0.011689
# 6 0.000868 -0.009359 -0.006266 0.000388 -0.011689 0.039000
#
#
# Mechanical properties :
#
#
# Convention : Reuss Voigt Hill
#
# Bulk Modulus (GPa) = 40.30756 67.18589 53.74672
# Shear Modulus (GPa) = 28.31606 34.38203 31.34905
#
# Velocity S-wave (km/s) = 3.77628 4.16115 3.97338
# Velocity P-wave (km/s) = 6.27001 7.54470 6.93669
#
# Compressibility (1/GPa) = 0.02480924
#
# Stress axis : x y z
#
# Youngs Moduli (GPa) = 73.36367 56.99600 73.22648
#
# Poissons Ratio (x) = 0.25216 0.43765
# Poissons Ratio (y) = 0.32457 -0.02851
# Poissons Ratio (z) = 0.43847 -0.02219
#
# Static dielectric constant tensor:
#      x y z
#    x 3.870390 0.045690 -0.120070 
#    y 0.045690 3.550920 -0.192500 
#    z -0.120070 -0.192500 3.773900 
# 
# 
# High freq. dielectric constant tensor:
#      x y z
#    x 1.771310 0.007090 -0.000620 
#    y 0.007090 1.763010 -0.002420 
#    z -0.000620 -0.002420 1.766620 
# 
# From -- ./inp_files/471209.got.cif
#   From: 2010.06.25/outbox.cif.g09.slc.cpg/sg2_236_cif.got.tgz:471209.got - 2010.06.27 13:26:56.
