data_PCOD8010441
_publ_section_title
;
Structure prediction by ZEFSAII (Michael W. Deem and Ramdas Pophale) SiO2 
 PCOD8010441
Probable space group: P -1
;
_chemical_formula_sum "Si O2"
_cell_formula_units_Z 16
_cell_length_a 20.417248
_cell_length_b 8.646973
_cell_length_c 24.022939
_cell_angle_alpha 137.819390
_cell_angle_beta 21.886390
_cell_angle_gamma 148.758463
_cell_volume 789.357011
_symmetry_space_group_name_H-M "P -1"
_symmetry_group_IT_number 2
_symmetry_cell_setting 'triclinic'
loop_
_space_group_symop_operation_xyz
x,y,z
-x,-y,-z
loop_
_atom_site_type_symbol
_atom_site_label
_atom_site_fract_x
_atom_site_fract_y
_atom_site_fract_z
Si Si1 0.977306 0.077889 0.378199
Si Si2 0.870792 0.274713 0.802748
Si Si3 0.420994 0.177828 0.456757
Si Si4 0.439348 0.676510 0.130396
Si Si5 0.447482 0.069473 0.141056
Si Si6 0.277707 0.731226 0.858041
Si Si7 0.408489 0.317086 0.337056
Si Si8 0.337213 0.788951 0.523322
O O1 0.221469 0.433535 0.279229
O O2 0.838062 0.018961 0.416625
O O3 0.815536 0.996203 0.537802
O O4 0.020829 0.842657 0.280124
O O5 0.696905 0.026564 0.826790
O O6 0.067988 0.601086 0.704043
O O7 0.725351 0.297373 0.967787
O O8 0.500000 0.500000 0.500000
O O9 0.593561 0.197948 0.283321
O O10 0.403101 0.992344 0.472630
O O11 0.365717 0.788200 0.169907
O O12 0.639408 0.965926 0.091131
O O13 0.500000 0.500000 0.000000
O O14 0.400515 0.257850 0.262409
O O15 0.349085 0.570560 0.796673
O O16 0.000000 0.500000 0.000000
O O17 0.390888 0.570553 0.416155
O O18 0.500000 0.000000 0.500000
#
# Coordination Sequence:
#
# PCOD8010441 Si02
#       8
#     2   2   2   2   2   2   2   2
#     4  10  21  39  63  92 122 164 216 265 314 378
#     4  10  21  38  60  89 125 163 204 260 312 383
#     4  11  24  42  68  92 125 171 215 268 324 383
#     4  11  22  38  64  96 128 170 216 268 318 378
#     4  10  21  39  59  91 125 162 203 257 330 361
#     4  10  24  43  64  95 133 169 215 266 325 384
#     4   9  22  41  63  88 126 165 207 265 316 374
#     4  11  23  42  61  89 123 167 214 252 316 389
#
# _framework density 20.269662
#
# number of rings (size 3 to 8) (size 9 to 14) (size 15 to 20)
#    0.000    1.750    1.250    3.000    1.750   10.500 
#    2.250    1.250    0.000    0.000    0.000    0.000 
#    0.000    0.000    0.000    0.000    0.000    0.000 
#
# Total GULP energy -198239.513503 kJ/mol
# GULP energy per Si atom -12389.969594 kJ/mol
# Density = 2.022353 g / cm^3
# Si number density = 20.269662 Si / 1000 Ang^3
#
#
#
# Elastic Constant Matrix: (Units=GPa)
#
#
# Indices 1 2 3 4 5 6 
#
# 1 117.6684 49.3507 59.0757 -0.6115 11.6794 -4.3403
# 2 49.3507 116.0878 64.5491 1.4725 12.2347 1.1045
# 3 59.0757 64.5491 134.5806 -2.0319 8.8311 10.4831
# 4 -0.6115 1.4725 -2.0319 27.6274 10.6384 1.0359
# 5 11.6794 12.2347 8.8311 10.6384 34.4169 0.7076
# 6 -4.3403 1.1045 10.4831 1.0359 0.7076 36.2154
#
#
#
# Elastic Compliance Matrix: (Units=1/GPa)
#
#
# Indices 1 2 3 4 5 6 
#
# 1 0.011971 -0.002629 -0.004030 0.000948 -0.002443 0.002702
# 2 -0.002629 0.012654 -0.004825 -0.000224 -0.002314 0.000747
# 3 -0.004030 -0.004825 0.011847 0.001288 -0.000277 -0.003797
# 4 0.000948 -0.000224 0.001288 0.041521 -0.013383 -0.001179
# 5 -0.002443 -0.002314 -0.000277 -0.013383 0.034924 -0.000442
# 6 0.002702 0.000747 -0.003797 -0.001179 -0.000442 0.029055
#
#
# Mechanical properties :
#
#
# Convention : Reuss Voigt Hill
#
# Bulk Modulus (GPa) = 74.04709 79.36530 76.70620
# Shear Modulus (GPa) = 29.50862 32.67605 31.09233
#
# Velocity S-wave (km/s) = 3.81964 4.01941 3.92080
# Velocity P-wave (km/s) = 7.48753 7.79619 7.64342
#
# Compressibility (1/GPa) = 0.01350492
#
# Stress axis : x y z
#
# Youngs Moduli (GPa) = 83.53362 79.02446 84.40770
#
# Poissons Ratio (x) = 0.20773 0.34017
# Poissons Ratio (y) = 0.21958 0.40729
# Poissons Ratio (z) = 0.33664 0.38132
#
# Static dielectric constant tensor:
#      x y z
#    x 3.893260 0.028000 0.108270 
#    y 0.028000 3.686290 0.007560 
#    z 0.108270 0.007560 4.030940 
# 
# 
# High freq. dielectric constant tensor:
#      x y z
#    x 1.804260 -0.001880 0.005820 
#    y -0.001880 1.777830 0.005350 
#    z 0.005820 0.005350 1.805730 
# 
# From -- ./inp_files/204285.got.cif
#   From: 2010.06.25/outbox.cif.g09.slc.cpg/sg2_103_cif.got.tgz:204285.got - 2010.06.27 13:26:56.
