data_PCOD8010849
_publ_section_title
;
Structure prediction by ZEFSAII (Michael W. Deem and Ramdas Pophale) SiO2 
 PCOD8010849
Probable space group: P -1
;
_chemical_formula_sum "Si O2"
_cell_formula_units_Z 16
_cell_length_a 17.264915
_cell_length_b 15.147502
_cell_length_c 11.849686
_cell_angle_alpha 49.070072
_cell_angle_beta 159.967805
_cell_angle_gamma 130.394907
_cell_volume 795.631417
_symmetry_space_group_name_H-M "P -1"
_symmetry_group_IT_number 2
_symmetry_cell_setting 'triclinic'
loop_
_space_group_symop_operation_xyz
x,y,z
-x,-y,-z
loop_
_atom_site_type_symbol
_atom_site_label
_atom_site_fract_x
_atom_site_fract_y
_atom_site_fract_z
Si Si1 0.401419 0.476391 0.007927
Si Si2 0.278108 0.265585 0.544207
Si Si3 0.730181 0.477885 0.663077
Si Si4 0.160965 0.258237 0.759607
Si Si5 0.885673 0.079687 0.692212
Si Si6 0.443705 0.089835 0.756900
Si Si7 0.854905 0.264819 0.120609
Si Si8 0.577655 0.263241 0.164937
O O1 0.597993 0.448253 0.388337
O O2 0.500000 0.500000 0.000000
O O3 0.203089 0.365206 0.819530
O O4 0.311502 0.600160 0.812988
O O5 0.349885 0.403171 0.494631
O O6 0.293451 0.186907 0.520364
O O7 0.024745 0.249675 0.262558
O O8 0.451167 0.223581 0.908284
O O9 0.693316 0.367546 0.790187
O O10 0.000000 0.500000 0.000000
O O11 0.057051 0.138493 0.780668
O O12 0.988867 0.292387 0.398548
O O13 0.402602 0.240627 0.048773
O O14 0.779621 0.183877 0.525374
O O15 0.689811 0.983290 0.461083
O O16 0.000000 0.000000 0.000000
O O17 0.685810 0.145775 0.993334
O O18 0.500000 0.000000 0.000000
#
# Coordination Sequence:
#
# PCOD8010849 Si02
#       8
#     2   2   2   2   2   2   2   2
#     4   9  18  35  62  90 120 154 189 233 300 358
#     4   9  19  38  63  90 116 149 193 241 293 348
#     4   9  18  35  60  94 122 144 191 247 288 348
#     4  10  21  40  64  87 117 158 192 236 304 351
#     4  12  27  43  55  84 122 154 205 249 279 344
#     4  12  23  41  61  82 115 161 203 239 287 347
#     4  10  21  38  64  91 118 150 193 247 293 343
#     4   9  19  40  63  85 118 153 191 243 291 347
#
# _framework density 20.109814
#
# number of rings (size 3 to 8) (size 9 to 14) (size 15 to 20)
#    0.000    2.000    2.500    2.250    1.750    3.000 
#   11.250    0.000    0.000    0.000    0.000    0.000 
#    0.000    0.000    0.000    0.000    0.000    0.000 
#
# Total GULP energy -198271.927348 kJ/mol
# GULP energy per Si atom -12391.995459 kJ/mol
# Density = 2.006404 g / cm^3
# Si number density = 20.109814 Si / 1000 Ang^3
#
#
#
# Elastic Constant Matrix: (Units=GPa)
#
#
# Indices 1 2 3 4 5 6 
#
# 1 47.0490 15.4570 26.0031 -8.0074 0.4770 -1.7153
# 2 15.4570 92.9614 45.5121 1.6862 -4.4251 -4.4633
# 3 26.0031 45.5121 109.6704 -11.6821 -18.9219 -3.1946
# 4 -8.0074 1.6862 -11.6821 46.4586 1.1788 -3.5709
# 5 0.4770 -4.4251 -18.9219 1.1788 34.2089 -1.5408
# 6 -1.7153 -4.4633 -3.1946 -3.5709 -1.5408 34.7998
#
#
#
# Elastic Compliance Matrix: (Units=1/GPa)
#
#
# Indices 1 2 3 4 5 6 
#
# 1 0.025535 -0.001686 -0.005646 0.003191 -0.003777 0.000684
# 2 -0.001686 0.013892 -0.005787 -0.002149 -0.001266 0.000891
# 3 -0.005646 -0.005787 0.014430 0.002751 0.007258 0.000908
# 4 0.003191 -0.002149 0.002751 0.023025 0.000519 0.002520
# 5 -0.003777 -0.001266 0.007258 0.000519 0.033201 0.001841
# 6 0.000684 0.000891 0.000908 0.002520 0.001841 0.029307
#
#
# Mechanical properties :
#
#
# Convention : Reuss Voigt Hill
#
# Bulk Modulus (GPa) = 36.20719 47.06947 41.63833
# Shear Modulus (GPa) = 28.59832 33.94070 31.26951
#
# Velocity S-wave (km/s) = 3.77518 4.11270 3.94755
# Velocity P-wave (km/s) = 6.08658 6.78303 6.44422
#
# Compressibility (1/GPa) = 0.02761882
#
# Stress axis : x y z
#
# Youngs Moduli (GPa) = 39.16130 71.98348 69.29922
#
# Poissons Ratio (x) = 0.12138 0.39130
# Poissons Ratio (y) = 0.06604 0.40101
# Poissons Ratio (z) = 0.22112 0.41655
#
# Static dielectric constant tensor:
#      x y z
#    x 3.457790 -0.046400 0.015900 
#    y -0.046400 4.292130 -0.048340 
#    z 0.015900 -0.048340 3.534470 
# 
# 
# High freq. dielectric constant tensor:
#      x y z
#    x 1.766590 0.004760 -0.003080 
#    y 0.004760 1.801120 -0.000740 
#    z -0.003080 -0.000740 1.777940 
# 
# From -- ./inp_files/304549.got.cif
#   From: 2010.06.25/outbox.cif.g09.slc.cpg/sg2_153_cif.got.tgz:304549.got - 2010.06.27 13:26:56.
