data_PCOD8010869
_publ_section_title
;
Structure prediction by ZEFSAII (Michael W. Deem and Ramdas Pophale) SiO2 
 PCOD8010869
Probable space group: P -1
;
_chemical_formula_sum "Si O2"
_cell_formula_units_Z 16
_cell_length_a 13.551591
_cell_length_b 14.059828
_cell_length_c 7.049313
_cell_angle_alpha 126.793216
_cell_angle_beta 108.875169
_cell_angle_gamma 42.141814
_cell_volume 703.268932
_symmetry_space_group_name_H-M "P -1"
_symmetry_group_IT_number 2
_symmetry_cell_setting 'triclinic'
loop_
_space_group_symop_operation_xyz
x,y,z
-x,-y,-z
loop_
_atom_site_type_symbol
_atom_site_label
_atom_site_fract_x
_atom_site_fract_y
_atom_site_fract_z
Si Si1 0.340133 0.597967 0.925850
Si Si2 0.233592 0.877106 0.942729
Si Si3 0.154073 0.340830 0.805831
Si Si4 0.828583 0.944884 0.492880
Si Si5 0.377559 0.930749 0.821868
Si Si6 0.973925 0.157922 0.849213
Si Si7 0.822223 0.496982 0.313805
Si Si8 0.294439 0.255082 0.163417
O O1 0.312197 0.684920 0.807650
O O2 0.196257 0.756264 0.160283
O O3 0.500000 0.500000 0.000000
O O4 0.326982 0.466224 0.731877
O O5 0.190247 0.961183 0.222254
O O6 0.359603 0.852301 0.887508
O O7 0.085713 0.987626 0.847867
O O8 0.149448 0.205871 0.596195
O O9 0.195431 0.381589 0.697734
O O10 0.286024 0.268266 0.947737
O O11 0.000000 0.500000 0.000000
O O12 0.971069 0.875195 0.372945
O O13 0.684375 0.072271 0.416850
O O14 0.281838 0.126476 0.058139
O O15 0.549055 0.820844 0.758132
O O16 0.966515 0.295731 0.110952
O O17 0.836326 0.555845 0.593569
#
# Coordination Sequence:
#
# PCOD8010869 Si02
#       8
#     2   2   2   2   2   2   2   2
#     4  10  24  42  62  90 121 158 213 255 291 362
#     4  11  22  41  68  83 125 165 199 251 308 352
#     4  11  21  36  59  94 126 153 198 245 296 371
#     4  10  21  38  64  93 120 160 198 245 309 361
#     4   9  22  40  59  94 120 159 207 245 295 377
#     4   9  22  41  59  94 123 155 209 247 295 371
#     4  10  23  39  62  86 128 159 199 251 308 347
#     4  10  22  39  61  88 129 158 198 251 306 359
#
# _framework density 22.750897999999999
#
# number of rings (size 3 to 8) (size 9 to 14) (size 15 to 20)
#    0.750    1.250    1.250    1.125    5.250    1.000 
#    0.000    6.875    0.000    0.000    0.000    0.000 
#    0.000    0.000    0.000    0.000    0.000    0.000 
#
# Total GULP energy -198229.716457 kJ/mol
# GULP energy per Si atom -12389.357279 kJ/mol
# Density = 2.269912 g / cm^3
# Si number density = 22.750898 Si / 1000 Ang^3
#
#
#
# Elastic Constant Matrix: (Units=GPa)
#
#
# Indices 1 2 3 4 5 6 
#
# 1 119.1575 46.6459 17.7940 -23.3852 -4.4499 24.1438
# 2 46.6459 94.8687 5.2337 -15.4277 -3.4908 10.7943
# 3 17.7940 5.2337 76.2471 -4.3468 -8.8968 10.6418
# 4 -23.3852 -15.4277 -4.3468 18.6773 1.4038 -0.0766
# 5 -4.4499 -3.4908 -8.8968 1.4038 18.7201 -11.0847
# 6 24.1438 10.7943 10.6418 -0.0766 -11.0847 41.3391
#
#
#
# Elastic Compliance Matrix: (Units=1/GPa)
#
#
# Indices 1 2 3 4 5 6 
#
# 1 0.014579 -0.003870 -0.001612 0.014946 -0.003952 -0.008121
# 2 -0.003870 0.013636 0.000592 0.006500 0.000670 -0.001261
# 3 -0.001612 0.000592 0.014383 0.001389 0.005627 -0.001404
# 4 0.014946 0.006500 0.001389 0.078498 -0.008037 -0.012793
# 5 -0.003952 0.000670 0.005627 -0.008037 0.066900 0.018608
# 6 -0.008121 -0.001261 -0.001404 -0.012793 0.018608 0.034590
#
#
# Mechanical properties :
#
#
# Convention : Reuss Voigt Hill
#
# Bulk Modulus (GPa) = 30.47223 47.73561 39.10392
# Shear Modulus (GPa) = 20.55021 30.45393 25.50207
#
# Velocity S-wave (km/s) = 3.00871 3.66263 3.35166
# Velocity P-wave (km/s) = 5.04903 6.23810 5.67479
#
# Compressibility (1/GPa) = 0.03281676
#
# Stress axis : x y z
#
# Youngs Moduli (GPa) = 68.59054 73.33297 69.52844
#
# Poissons Ratio (x) = 0.28383 0.11210
# Poissons Ratio (y) = 0.26547 -0.04116
# Poissons Ratio (z) = 0.11059 -0.04341
#
# Static dielectric constant tensor:
#      x y z
#    x 4.395460 0.411710 0.021520 
#    y 0.411710 4.327930 -0.092240 
#    z 0.021520 -0.092240 3.978090 
# 
# 
# High freq. dielectric constant tensor:
#      x y z
#    x 1.909900 0.014580 0.004770 
#    y 0.014580 1.890180 0.000860 
#    z 0.004770 0.000860 1.884540 
# 
# From -- ./inp_files/98615.got.cif
#   From: 2010.06.25/outbox.cif.g09.slc.cpg/sg2_50_cif.got.tgz:98615.got - 2010.06.27 13:26:56.
