data_PCOD8010439
_publ_section_title
;
Structure prediction by ZEFSAII (Michael W. Deem and Ramdas Pophale) SiO2 
 PCOD8010439
Probable space group: P -1
;
_chemical_formula_sum "Si O2"
_cell_formula_units_Z 16
_cell_length_a 11.586687
_cell_length_b 17.721091
_cell_length_c 9.031208
_cell_angle_alpha 32.679302
_cell_angle_beta 57.247664
_cell_angle_gamma 52.487252
_cell_volume 792.445607
_symmetry_space_group_name_H-M "P -1"
_symmetry_group_IT_number 2
_symmetry_cell_setting 'triclinic'
loop_
_space_group_symop_operation_xyz
x,y,z
-x,-y,-z
loop_
_atom_site_type_symbol
_atom_site_label
_atom_site_fract_x
_atom_site_fract_y
_atom_site_fract_z
Si Si1 0.480239 0.709284 0.798204
Si Si2 0.910072 0.660419 0.865274
Si Si3 0.996230 0.930206 0.777578
Si Si4 0.012513 0.623804 0.174547
Si Si5 0.311882 0.615665 0.842442
Si Si6 0.355888 0.118486 0.473500
Si Si7 0.145192 0.797322 0.404937
Si Si8 0.747073 0.136084 0.074157
O O1 0.365132 0.734706 0.701048
O O2 0.590655 0.804844 0.549852
O O3 0.405776 0.753087 0.939451
O O4 0.560900 0.535407 0.026493
O O5 0.742879 0.740982 0.792232
O O6 0.992035 0.773025 0.574971
O O7 0.000000 0.500000 0.000000
O O8 0.908556 0.637780 0.081053
O O9 0.151873 0.903717 0.787079
O O10 0.872505 0.040784 0.784347
O O11 0.000000 0.000000 0.500000
O O12 0.959029 0.779708 0.040271
O O13 0.000000 0.500000 0.500000
O O14 0.179130 0.587125 0.067538
O O15 0.270677 0.676875 0.606265
O O16 0.500000 0.000000 0.500000
O O17 0.261939 0.013479 0.751998
O O18 0.188411 0.781551 0.229081
#
# Coordination Sequence:
#
# PCOD8010439 Si02
#       8
#     2   2   2   2   2   2   2   2
#     4  10  21  40  64  81 125 172 209 255 311 396
#     4  11  23  39  63  93 131 163 210 272 331 380
#     4  12  20  40  63  89 127 163 204 259 322 381
#     4  11  24  40  65  99 127 163 216 273 325 379
#     4  10  21  42  61  89 123 170 209 254 327 380
#     4  10  21  38  60  89 124 168 212 256 324 382
#     4  11  23  37  64  94 120 163 214 268 322 373
#     4  11  22  38  62  93 119 162 214 262 316 375
#
# _framework density 20.190660000000001
#
# number of rings (size 3 to 8) (size 9 to 14) (size 15 to 20)
#    0.000    1.250    5.000    1.875    1.750    2.500 
#    0.000    5.625    0.000    0.000    0.000    0.000 
#    0.000    0.000    0.000    0.000    0.000    0.000 
#
# Total GULP energy -198243.134292 kJ/mol
# GULP energy per Si atom -12390.195893 kJ/mol
# Density = 2.014470 g / cm^3
# Si number density = 20.190660 Si / 1000 Ang^3
#
#
#
# Elastic Constant Matrix: (Units=GPa)
#
#
# Indices 1 2 3 4 5 6 
#
# 1 125.9616 29.1266 50.4672 1.5427 2.8381 8.1442
# 2 29.1266 96.8436 36.1290 -14.4642 8.1139 7.5689
# 3 50.4672 36.1290 113.0172 -1.8378 7.7471 12.2560
# 4 1.5427 -14.4642 -1.8378 32.0763 9.2877 1.0793
# 5 2.8381 8.1139 7.7471 9.2877 22.2927 -13.2395
# 6 8.1442 7.5689 12.2560 1.0793 -13.2395 33.2553
#
#
#
# Elastic Compliance Matrix: (Units=1/GPa)
#
#
# Indices 1 2 3 4 5 6 
#
# 1 0.009977 -0.002031 -0.004021 -0.002222 0.002014 0.000375
# 2 -0.002031 0.015146 -0.001886 0.011200 -0.014171 -0.008260
# 3 -0.004021 -0.001886 0.012559 0.002645 -0.008156 -0.006548
# 4 -0.002222 0.011200 0.002645 0.047407 -0.035554 -0.018673
# 5 0.002014 -0.014171 -0.008156 -0.035554 0.093639 0.044171
# 6 0.000375 -0.008260 -0.006548 -0.018673 0.044171 0.052463
#
#
# Mechanical properties :
#
#
# Convention : Reuss Voigt Hill
#
# Bulk Modulus (GPa) = 45.85651 63.02979 54.44315
# Shear Modulus (GPa) = 19.65911 32.19815 25.92863
#
# Velocity S-wave (km/s) = 3.12376 3.99771 3.58745
# Velocity P-wave (km/s) = 5.98093 7.25217 6.64701
#
# Compressibility (1/GPa) = 0.02180716
#
# Stress axis : x y z
#
# Youngs Moduli (GPa) = 100.22999 66.02465 79.62580
#
# Poissons Ratio (x) = 0.13406 0.32017
# Poissons Ratio (y) = 0.20352 0.15016
# Poissons Ratio (z) = 0.40302 0.12451
#
# Static dielectric constant tensor:
#      x y z
#    x 4.184380 0.238900 -0.161560 
#    y 0.238900 3.884930 -0.393980 
#    z -0.161560 -0.393980 3.549750 
# 
# 
# High freq. dielectric constant tensor:
#      x y z
#    x 1.803390 0.005350 -0.001020 
#    y 0.005350 1.795840 -0.028000 
#    z -0.001020 -0.028000 1.762530 
# 
# From -- ./inp_files/254060.got.cif
#   From: 2010.06.25/outbox.cif.g09.slc.cpg/sg2_128_cif.got.tgz:254060.got - 2010.06.27 13:26:56.
