data_PCOD8010627
_publ_section_title
;
Structure prediction by ZEFSAII (Michael W. Deem and Ramdas Pophale) SiO2 
 PCOD8010627
Probable space group: P -1
;
_chemical_formula_sum "Si O2"
_cell_formula_units_Z 16
_cell_length_a 8.417517
_cell_length_b 8.921569
_cell_length_c 14.884990
_cell_angle_alpha 73.206103
_cell_angle_beta 90.585933
_cell_angle_gamma 47.270905
_cell_volume 751.523066
_symmetry_space_group_name_H-M "P -1"
_symmetry_group_IT_number 2
_symmetry_cell_setting 'triclinic'
loop_
_space_group_symop_operation_xyz
x,y,z
-x,-y,-z
loop_
_atom_site_type_symbol
_atom_site_label
_atom_site_fract_x
_atom_site_fract_y
_atom_site_fract_z
Si Si1 0.293133 0.211430 0.607589
Si Si2 0.030443 0.691881 0.546907
Si Si3 0.176762 0.871735 0.941014
Si Si4 0.274777 0.689330 0.409687
Si Si5 0.993343 0.743660 0.255267
Si Si6 0.056360 0.460597 0.145256
Si Si7 0.693512 0.569694 0.007586
Si Si8 0.215260 0.078273 0.319681
O O1 0.180226 0.256222 0.503355
O O2 0.209842 0.156977 0.696297
O O3 0.246881 0.424941 0.596609
O O4 0.557277 0.999663 0.630221
O O5 0.979318 0.781953 0.631017
O O6 0.079403 0.806791 0.463699
O O7 0.423922 0.765298 0.990054
O O8 0.074066 0.049854 0.831012
O O9 0.210709 0.673301 0.937301
O O10 0.000000 0.000000 0.000000
O O11 0.500000 0.500000 0.500000
O O12 0.222403 0.606958 0.340567
O O13 0.264043 0.865165 0.332499
O O14 0.030698 0.574531 0.217050
O O15 0.243043 0.419288 0.094293
O O16 0.137667 0.227038 0.205832
O O17 0.814401 0.608632 0.068755
#
# Coordination Sequence:
#
# PCOD8010627 Si02
#       8
#     2   2   2   2   2   2   2   2
#     4  10  21  38  62  88 126 161 214 269 309 379
#     4  10  21  39  60  88 123 165 213 265 318 375
#     4  11  22  45  70  99 129 174 209 270 335 389
#     4  11  24  42  62  94 134 171 215 270 318 381
#     4  11  23  43  65  96 131 172 217 260 329 385
#     4  11  23  43  66 100 129 175 218 274 318 398
#     4  10  24  45  67  97 138 163 221 269 329 389
#     4  12  22  39  65  93 121 170 217 258 326 377
#
# _framework density 21.290096999999999
#
# number of rings (size 3 to 8) (size 9 to 14) (size 15 to 20)
#    0.000    1.250    3.750    2.250    0.000    1.500 
#    6.750    1.250    0.000    0.000    0.000    0.000 
#    0.000    0.000    0.000    0.000    0.000    0.000 
#
# Total GULP energy -198335.178094 kJ/mol
# GULP energy per Si atom -12395.948631 kJ/mol
# Density = 2.124164 g / cm^3
# Si number density = 21.290097 Si / 1000 Ang^3
#
#
#
# Elastic Constant Matrix: (Units=GPa)
#
#
# Indices 1 2 3 4 5 6 
#
# 1 109.4203 37.0620 43.0076 -2.2424 -1.1444 -4.4720
# 2 37.0620 62.8008 28.8377 -3.9807 5.8002 -6.1793
# 3 43.0076 28.8377 95.0993 -11.6131 -5.4262 6.2961
# 4 -2.2424 -3.9807 -11.6131 31.9381 8.2063 -3.3103
# 5 -1.1444 5.8002 -5.4262 8.2063 47.0419 -6.9966
# 6 -4.4720 -6.1793 6.2961 -3.3103 -6.9966 35.5824
#
#
#
# Elastic Compliance Matrix: (Units=1/GPa)
#
#
# Indices 1 2 3 4 5 6 
#
# 1 0.012763 -0.005602 -0.004292 -0.001464 0.000977 0.001446
# 2 -0.005602 0.021954 -0.004293 0.001951 -0.003169 0.003427
# 3 -0.004292 -0.004293 0.014501 0.003854 0.000933 -0.003309
# 4 -0.001464 0.001951 0.003854 0.034456 -0.005608 0.001576
# 5 0.000977 -0.003169 0.000933 -0.005608 0.023273 0.003462
# 6 0.001446 0.003427 -0.003309 0.001576 0.003462 0.030293
#
#
# Mechanical properties :
#
#
# Convention : Reuss Voigt Hill
#
# Bulk Modulus (GPa) = 47.97563 53.90390 50.93976
# Shear Modulus (GPa) = 28.97486 33.47335 31.22411
#
# Velocity S-wave (km/s) = 3.69311 3.96946 3.83378
# Velocity P-wave (km/s) = 6.38503 6.81048 6.60118
#
# Compressibility (1/GPa) = 0.02084391
#
# Stress axis : x y z
#
# Youngs Moduli (GPa) = 78.35316 45.54908 68.96018
#
# Poissons Ratio (x) = 0.25516 0.29597
# Poissons Ratio (y) = 0.43892 0.29608
# Poissons Ratio (z) = 0.33628 0.19556
#
# Static dielectric constant tensor:
#      x y z
#    x 4.105660 0.018770 -0.185600 
#    y 0.018770 3.593390 -0.146890 
#    z -0.185600 -0.146890 3.873040 
# 
# 
# High freq. dielectric constant tensor:
#      x y z
#    x 1.851980 0.001580 -0.013720 
#    y 0.001580 1.812290 -0.008320 
#    z -0.013720 -0.008320 1.839770 
# 
# From -- ./inp_files/186451.got.cif
#   From: 2010.06.25/outbox.cif.g09.slc.cpg/sg2_94_cif.got.tgz:186451.got - 2010.06.27 13:26:56.
