data_PCOD8010823
_publ_section_title
;
Structure prediction by ZEFSAII (Michael W. Deem and Ramdas Pophale) SiO2 
 PCOD8010823
Probable space group: P -1
;
_chemical_formula_sum "Si O2"
_cell_formula_units_Z 16
_cell_length_a 24.277293
_cell_length_b 6.826231
_cell_length_c 9.538241
_cell_angle_alpha 133.415521
_cell_angle_beta 45.655188
_cell_angle_gamma 113.717276
_cell_volume 811.782540
_symmetry_space_group_name_H-M "P -1"
_symmetry_group_IT_number 2
_symmetry_cell_setting 'triclinic'
loop_
_space_group_symop_operation_xyz
x,y,z
-x,-y,-z
loop_
_atom_site_type_symbol
_atom_site_label
_atom_site_fract_x
_atom_site_fract_y
_atom_site_fract_z
Si Si1 0.723101 0.840252 0.031764
Si Si2 0.447943 0.226086 0.611586
Si Si3 0.047611 0.677656 0.097525
Si Si4 0.529815 0.175830 0.153732
Si Si5 0.300121 0.100083 0.219807
Si Si6 0.025934 0.736947 0.483518
Si Si7 0.226691 0.583617 0.771841
Si Si8 0.203262 0.638464 0.159202
O O1 0.746303 0.130413 0.173872
O O2 0.640985 0.810147 0.230824
O O3 0.723691 0.795985 0.842382
O O4 0.787890 0.609854 0.869307
O O5 0.466517 0.198039 0.400411
O O6 0.461520 0.529349 0.782360
O O7 0.500000 0.000000 0.500000
O O8 0.015780 0.661225 0.302975
O O9 0.139316 0.573673 0.868847
O O10 0.030423 0.991885 0.235723
O O11 0.000000 0.500000 0.000000
O O12 0.500000 0.000000 0.000000
O O13 0.609871 0.026056 0.002282
O O14 0.285433 0.350754 0.476209
O O15 0.250746 0.869459 0.244687
O O16 0.114123 0.776784 0.377725
O O17 0.000000 0.500000 0.500000
O O18 0.234112 0.530774 0.898813
#
# Coordination Sequence:
#
# PCOD8010823 Si02
#       8
#     2   2   2   2   2   2   2   2
#     4  11  23  41  63  87 124 159 203 248 299 353
#     4  11  24  44  63  89 122 159 200 250 297 350
#     4  10  21  40  61  90 122 160 196 249 300 352
#     4  11  26  40  65  91 121 159 203 245 300 359
#     4  11  23  41  60  91 121 160 199 246 300 357
#     4  10  21  38  64  88 118 157 205 244 296 358
#     4  10  24  38  62  91 123 157 201 246 301 356
#     4  10  22  41  60  87 122 160 197 249 301 352
#
# _framework density 19.709710999999999
#
# number of rings (size 3 to 8) (size 9 to 14) (size 15 to 20)
#    0.000    1.500    2.500    1.500    3.500    6.000 
#    0.000    0.000    0.000    0.000    0.000    0.000 
#    0.000    0.000    0.000    0.000    0.000    0.000 
#
# Total GULP energy -198488.060607 kJ/mol
# GULP energy per Si atom -12405.503788 kJ/mol
# Density = 1.966485 g / cm^3
# Si number density = 19.709711 Si / 1000 Ang^3
#
#
#
# Elastic Constant Matrix: (Units=GPa)
#
#
# Indices 1 2 3 4 5 6 
#
# 1 84.3617 34.8437 14.8462 14.8298 14.5265 1.1247
# 2 34.8437 127.1990 32.5034 14.7486 15.7139 -4.9538
# 3 14.8462 32.5034 80.1406 13.6654 9.2751 -0.6717
# 4 14.8298 14.7486 13.6654 27.3970 3.8037 -8.9381
# 5 14.5265 15.7139 9.2751 3.8037 27.2858 8.8550
# 6 1.1247 -4.9538 -0.6717 -8.9381 8.8550 36.7665
#
#
#
# Elastic Compliance Matrix: (Units=1/GPa)
#
#
# Indices 1 2 3 4 5 6 
#
# 1 0.015011 -0.002794 0.000009 -0.006277 -0.005146 -0.001122
# 2 -0.002794 0.010060 -0.002888 -0.001288 -0.003790 0.001988
# 3 0.000009 -0.002888 0.014907 -0.005901 -0.002260 -0.001007
# 4 -0.006277 -0.001288 -0.005901 0.048392 -0.004822 0.012836
# 5 -0.005146 -0.003790 -0.002260 -0.004822 0.047210 -0.012937
# 6 -0.001122 0.001988 -0.001007 0.012836 -0.012937 0.033719
#
#
# Mechanical properties :
#
#
# Convention : Reuss Voigt Hill
#
# Bulk Modulus (GPa) = 34.92607 50.67642 42.80124
# Shear Modulus (GPa) = 26.28973 32.25705 29.27339
#
# Velocity S-wave (km/s) = 3.65615 4.04989 3.85804
# Velocity P-wave (km/s) = 5.96506 6.90188 6.45050
#
# Compressibility (1/GPa) = 0.02863191
#
# Stress axis : x y z
#
# Youngs Moduli (GPa) = 66.61870 99.40381 67.08362
#
# Poissons Ratio (x) = 0.27777 -0.00061
# Poissons Ratio (y) = 0.18616 0.19371
# Poissons Ratio (z) = -0.00061 0.28703
#
# Static dielectric constant tensor:
#      x y z
#    x 0.881900 1.134420 -2.338920 
#    y 1.134420 3.202260 1.104320 
#    z -2.338920 1.104320 1.641300 
# 
# 
# High freq. dielectric constant tensor:
#      x y z
#    x 1.777060 0.001050 -0.009230 
#    y 0.001050 1.779630 0.003180 
#    z -0.009230 0.003180 1.769380 
# 
# From -- ./inp_files/10746.got.cif
#   From: 2010.06.25/outbox.cif.g09.slc.cpg/sg2_6_cif.got.tgz:10746.got - 2010.06.27 13:26:56.
