data_PCOD8010181
_publ_section_title
;
Structure prediction by ZEFSAII (Michael W. Deem and Ramdas Pophale) SiO2 
 PCOD8010181
Probable space group: P -1
;
_chemical_formula_sum "Si O2"
_cell_formula_units_Z 14
_cell_length_a 23.056393
_cell_length_b 5.054721
_cell_length_c 8.408741
_cell_angle_alpha 108.036260
_cell_angle_beta 139.708762
_cell_angle_gamma 63.125842
_cell_volume 564.236131
_symmetry_space_group_name_H-M "P -1"
_symmetry_group_IT_number 2
_symmetry_cell_setting 'triclinic'
loop_
_space_group_symop_operation_xyz
x,y,z
-x,-y,-z
loop_
_atom_site_type_symbol
_atom_site_label
_atom_site_fract_x
_atom_site_fract_y
_atom_site_fract_z
Si Si1 0.336015 0.310487 0.476750
Si Si2 0.356266 0.278806 0.881427
Si Si3 0.808682 0.868715 0.020234
Si Si4 0.471773 0.660687 0.136731
Si Si5 0.015978 0.750871 0.184746
Si Si6 0.166387 0.548540 0.715616
Si Si7 0.133370 0.699991 0.135390
O O1 0.363892 0.198211 0.694826
O O2 0.428259 0.332042 0.579551
O O3 0.248201 0.632787 0.355516
O O4 0.299254 0.079441 0.259540
O O5 0.246456 0.453077 0.728405
O O6 0.421093 0.476918 0.100783
O O7 0.394695 0.986385 0.013038
O O8 0.823060 0.727861 0.199973
O O9 0.824642 0.179899 0.111610
O O10 0.882228 0.614604 0.007707
O O11 0.500000 0.500000 0.000000
O O12 0.061943 0.648573 0.434323
O O13 0.094787 0.826215 0.252452
O O14 0.000000 0.500000 0.000000
O O15 0.921075 0.045690 0.059550
#
# Coordination Sequence:
#
# PCOD8010181 Si02
#       7
#     2   2   2   2   2   2   2
#     4   9  20  44  64  94 130 172 215 273 316 389
#     4  11  22  41  67  99 128 172 221 274 312 381
#     4  10  26  42  67  94 137 179 209 259 340 384
#     4  10  21  37  68 101 124 167 227 269 321 370
#     4  11  25  42  71  98 124 172 222 273 328 381
#     4  12  25  45  65  98 138 171 217 267 324 393
#     4   9  23  45  65  96 128 170 220 261 336 378
#
# _framework density 24.812304999999999
#
# number of rings (size 3 to 8) (size 9 to 14) (size 15 to 20)
#    0.857    0.857    1.429    2.571    6.000    6.857 
#    2.571    4.286    0.000    0.000    0.000    0.000 
#    0.000    0.000    0.000    0.000    0.000    0.000 
#
# Total GULP energy -173518.136814 kJ/mol
# GULP energy per Si atom -12394.152630 kJ/mol
# Density = 2.475583 g / cm^3
# Si number density = 24.812305 Si / 1000 Ang^3
#
#
#
# Elastic Constant Matrix: (Units=GPa)
#
#
# Indices 1 2 3 4 5 6 
#
# 1 41.9264 -2.0446 11.6105 -8.1611 -2.6546 -2.7220
# 2 -2.0446 99.4304 16.9136 -9.5207 14.1866 2.3113
# 3 11.6105 16.9136 121.5323 5.1296 21.4885 -7.3602
# 4 -8.1611 -9.5207 5.1296 39.1647 -5.6109 4.7067
# 5 -2.6546 14.1866 21.4885 -5.6109 35.0884 -3.3568
# 6 -2.7220 2.3113 -7.3602 4.7067 -3.3568 20.6741
#
#
#
# Elastic Compliance Matrix: (Units=1/GPa)
#
#
# Indices 1 2 3 4 5 6 
#
# 1 0.026723 0.001098 -0.003831 0.006920 0.005154 0.001293
# 2 0.001098 0.011143 -0.001352 0.002967 -0.003388 -0.002808
# 3 -0.003831 -0.001352 0.010247 -0.003750 -0.006320 0.003122
# 4 0.006920 0.002967 -0.003750 0.029806 0.005755 -0.006607
# 5 0.005154 -0.003388 -0.006320 0.005755 0.035360 0.003239
# 6 0.001293 -0.002808 0.003122 -0.006607 0.003239 0.051996
#
#
# Mechanical properties :
#
#
# Convention : Reuss Voigt Hill
#
# Bulk Modulus (GPa) = 25.03498 35.09423 30.06461
# Shear Modulus (GPa) = 26.77273 34.74608 30.75941
#
# Velocity S-wave (km/s) = 3.28839 3.74619 3.52473
# Velocity P-wave (km/s) = 4.95274 5.73468 5.35800
#
# Compressibility (1/GPa) = 0.03994411
#
# Stress axis : x y z
#
# Youngs Moduli (GPa) = 37.42086 89.74564 97.58833
#
# Poissons Ratio (x) = -0.09857 0.37385
# Poissons Ratio (y) = -0.04110 0.13192
# Poissons Ratio (z) = 0.14336 0.12132
#
# Static dielectric constant tensor:
#      x y z
#    x 5.363200 0.072950 0.527600 
#    y 0.072950 4.296570 0.026500 
#    z 0.527600 0.026500 4.576450 
# 
# 
# High freq. dielectric constant tensor:
#      x y z
#    x 1.992500 0.001060 0.014430 
#    y 0.001060 1.976930 -0.007990 
#    z 0.014430 -0.007990 1.979150 
# 
# From -- ./inp_files/358118.got.cif
#   From: 2010.06.25/outbox.cif.g09.slc.cpg/sg2_180_cif.got.tgz:358118.got - 2010.06.27 13:26:56.
