data_PCOD8010557
_publ_section_title
;
Structure prediction by ZEFSAII (Michael W. Deem and Ramdas Pophale) SiO2 
 PCOD8010557
Probable space group: P -1
;
_chemical_formula_sum "Si O2"
_cell_formula_units_Z 16
_cell_length_a 15.248963
_cell_length_b 12.925191
_cell_length_c 11.990741
_cell_angle_alpha 75.894186
_cell_angle_beta 79.529984
_cell_angle_gamma 18.752697
_cell_volume 727.684675
_symmetry_space_group_name_H-M "P -1"
_symmetry_group_IT_number 2
_symmetry_cell_setting 'triclinic'
loop_
_space_group_symop_operation_xyz
x,y,z
-x,-y,-z
loop_
_atom_site_type_symbol
_atom_site_label
_atom_site_fract_x
_atom_site_fract_y
_atom_site_fract_z
Si Si1 0.082702 0.932273 0.688959
Si Si2 0.804070 0.138304 0.067172
Si Si3 0.006206 0.756890 0.511735
Si Si4 0.989124 0.603656 0.377913
Si Si5 0.483422 0.954186 0.904390
Si Si6 0.907154 0.781427 0.114874
Si Si7 0.634483 0.281734 0.624125
Si Si8 0.395047 0.146577 0.641403
O O1 0.139724 0.918900 0.799077
O O2 0.368868 0.548302 0.688903
O O3 0.978426 0.142689 0.572297
O O4 0.840649 0.118644 0.696373
O O5 0.859440 0.958224 0.058287
O O6 0.500000 0.500000 0.000000
O O7 0.000000 0.000000 0.000000
O O8 0.308949 0.368017 0.582105
O O9 0.894215 0.799458 0.437411
O O10 0.804082 0.991428 0.605556
O O11 0.850009 0.810097 0.246344
O O12 0.837561 0.661320 0.422818
O O13 0.314580 0.216405 0.382271
O O14 0.784826 0.582246 0.897604
O O15 0.302481 0.054698 0.950302
O O16 0.358397 0.165974 0.776320
O O17 0.500000 0.000000 0.000000
O O18 0.500000 0.500000 0.500000
#
# Coordination Sequence:
#
# PCOD8010557 Si02
#       8
#     2   2   2   2   2   2   2   2
#     4  11  24  44  64  92 130 170 213 270 328 376
#     4  12  25  45  69  98 126 167 228 281 322 384
#     4  11  21  40  64  90 130 166 207 254 324 375
#     4  10  21  38  61  91 127 159 203 260 314 376
#     4  10  21  41  65  90 132 167 206 260 321 393
#     4  10  21  42  65  93 121 167 212 263 331 378
#     4  10  23  40  63  93 126 174 216 252 320 404
#     4  10  23  36  59  97 122 159 214 252 305 387
#
# _framework density 21.987546999999999
#
# number of rings (size 3 to 8) (size 9 to 14) (size 15 to 20)
#    0.000    1.500    1.250    4.125    0.000    6.000 
#    6.750    0.000    0.000    0.000    0.000    0.000 
#    0.000    0.000    0.000    0.000    0.000    0.000 
#
# Total GULP energy -198308.652435 kJ/mol
# GULP energy per Si atom -12394.290777 kJ/mol
# Density = 2.193750 g / cm^3
# Si number density = 21.987547 Si / 1000 Ang^3
#
#
#
# Elastic Constant Matrix: (Units=GPa)
#
#
# Indices 1 2 3 4 5 6 
#
# 1 132.9873 55.1723 48.8238 7.1318 11.5686 -5.7270
# 2 55.1723 103.7473 27.1558 -13.1530 -0.8210 5.8829
# 3 48.8238 27.1558 80.4243 7.0943 12.4943 6.0700
# 4 7.1318 -13.1530 7.0943 39.7510 -0.8142 3.1586
# 5 11.5686 -0.8210 12.4943 -0.8142 41.7782 0.3270
# 6 -5.7270 5.8829 6.0700 3.1586 0.3270 50.3334
#
#
#
# Elastic Compliance Matrix: (Units=1/GPa)
#
#
# Indices 1 2 3 4 5 6 
#
# 1 0.012306 -0.005841 -0.005085 -0.003509 -0.002093 0.002930
# 2 -0.005841 0.014255 -0.002055 0.006384 0.002656 -0.002501
# 3 -0.005085 -0.002055 0.017217 -0.002742 -0.003817 -0.002218
# 4 -0.003509 0.006384 -0.002742 0.028648 0.002496 -0.002629
# 5 -0.002093 0.002656 -0.003817 0.002496 0.025761 -0.000412
# 6 0.002930 -0.002501 -0.002218 -0.002629 -0.000412 0.020928
#
#
# Mechanical properties :
#
#
# Convention : Reuss Voigt Hill
#
# Bulk Modulus (GPa) = 56.12480 64.38475 60.25477
# Shear Modulus (GPa) = 33.10933 38.77298 35.94116
#
# Velocity S-wave (km/s) = 3.88470 4.20385 4.04742
# Velocity P-wave (km/s) = 6.76035 7.27386 7.02180
#
# Compressibility (1/GPa) = 0.01781744
#
# Stress axis : x y z
#
# Youngs Moduli (GPa) = 81.26181 70.15146 58.08188
#
# Poissons Ratio (x) = 0.40974 0.29534
# Poissons Ratio (y) = 0.47463 0.11933
# Poissons Ratio (z) = 0.41321 0.14413
#
# Static dielectric constant tensor:
#      x y z
#    x 4.030260 0.002030 0.118840 
#    y 0.002030 4.338150 0.021880 
#    z 0.118840 0.021880 3.704260 
# 
# 
# High freq. dielectric constant tensor:
#      x y z
#    x 1.865320 -0.003880 0.012300 
#    y -0.003880 1.876530 -0.000800 
#    z 0.012300 -0.000800 1.867220 
# 
# From -- ./inp_files/452280.got.cif
#   From: 2010.06.25/outbox.cif.g09.slc.cpg/sg2_227_cif.got.tgz:452280.got - 2010.06.27 13:26:56.
