data_PCOD8010241
_publ_section_title
;
Structure prediction by ZEFSAII (Michael W. Deem and Ramdas Pophale) SiO2 
 PCOD8010241
Probable space group: P -1
;
_chemical_formula_sum "Si O2"
_cell_formula_units_Z 14
_cell_length_a 8.361070
_cell_length_b 11.344326
_cell_length_c 22.264389
_cell_angle_alpha 149.846127
_cell_angle_beta 139.237102
_cell_angle_gamma 40.795253
_cell_volume 658.198657
_symmetry_space_group_name_H-M "P -1"
_symmetry_group_IT_number 2
_symmetry_cell_setting 'triclinic'
loop_
_space_group_symop_operation_xyz
x,y,z
-x,-y,-z
loop_
_atom_site_type_symbol
_atom_site_label
_atom_site_fract_x
_atom_site_fract_y
_atom_site_fract_z
Si Si1 0.482401 0.886296 0.542165
Si Si2 0.555396 0.356735 0.363388
Si Si3 0.877364 0.682415 0.165854
Si Si4 0.419808 0.992814 0.246724
Si Si5 0.109918 0.106672 0.434880
Si Si6 0.398705 0.049496 0.899528
Si Si7 0.902672 0.878386 0.033884
O O1 0.410913 0.641773 0.433627
O O2 0.710923 0.815448 0.527654
O O3 0.568218 0.005869 0.677423
O O4 0.233030 0.077149 0.523764
O O5 0.576284 0.200765 0.239745
O O6 0.842207 0.327465 0.457122
O O7 0.411184 0.254390 0.329685
O O8 0.673580 0.773841 0.202230
O O9 0.710402 0.715305 0.071397
O O10 0.068816 0.847719 0.289959
O O11 0.049113 0.401563 0.097593
O O12 0.162754 0.945131 0.129327
O O13 0.193271 0.076191 0.905483
O O14 0.677790 0.048902 0.002597
#
# Coordination Sequence:
#
# PCOD8010241 Si02
#       7
#     2   2   2   2   2   2   2
#     4  11  20  38  59  81 115 149 186 237 279 328
#     4  10  21  38  56  82 117 149 183 236 283 329
#     4  10  21  38  56  82 117 149 183 236 283 329
#     4  10  22  36  58  88 116 152 190 222 284 352
#     4   9  21  36  59  84 107 147 197 231 276 336
#     4   9  21  36  59  84 107 147 197 231 276 336
#     4  11  20  38  59  81 115 149 186 237 279 328
#
# _framework density 21.270174999999998
#
# number of rings (size 3 to 8) (size 9 to 14) (size 15 to 20)
#    0.000    2.286    0.000    4.286    0.000    4.571 
#    0.000   10.000    0.000    0.000    0.000    0.000 
#    0.000    0.000    0.000    0.000    0.000    0.000 
#
# Total GULP energy -173595.804707 kJ/mol
# GULP energy per Si atom -12399.700336 kJ/mol
# Density = 2.122176 g / cm^3
# Si number density = 21.270175 Si / 1000 Ang^3
#
#
#
# Elastic Constant Matrix: (Units=GPa)
#
#
# Indices 1 2 3 4 5 6 
#
# 1 66.2038 25.5273 18.0205 -7.3721 -0.9037 12.8246
# 2 25.5273 68.0465 15.8793 -7.4243 0.0210 11.1430
# 3 18.0205 15.8793 54.2875 -14.3867 4.3895 6.3999
# 4 -7.3721 -7.4243 -14.3867 18.8904 -2.7723 3.0088
# 5 -0.9037 0.0210 4.3895 -2.7723 24.5993 -3.0957
# 6 12.8246 11.1430 6.3999 3.0088 -3.0957 23.3800
#
#
#
# Elastic Compliance Matrix: (Units=1/GPa)
#
#
# Indices 1 2 3 4 5 6 
#
# 1 0.019989 -0.004886 -0.002929 0.005101 0.000780 -0.008388
# 2 -0.004886 0.018517 -0.001690 0.005078 -0.000121 -0.006352
# 3 -0.002929 -0.001690 0.026028 0.018697 -0.003599 -0.007595
# 4 0.005101 0.005078 0.018697 0.074692 0.002801 -0.019577
# 5 0.000780 -0.000121 -0.003599 0.002801 0.042376 0.005865
# 6 -0.008388 -0.006352 -0.007595 -0.019577 0.005865 0.055775
#
#
# Mechanical properties :
#
#
# Convention : Reuss Voigt Hill
#
# Bulk Modulus (GPa) = 21.96580 34.15468 28.06024
# Shear Modulus (GPa) = 18.41191 21.98131 20.19661
#
# Velocity S-wave (km/s) = 2.94534 3.21819 3.08478
# Velocity P-wave (km/s) = 4.68147 5.46822 5.09007
#
# Compressibility (1/GPa) = 0.04552533
#
# Stress axis : x y z
#
# Youngs Moduli (GPa) = 50.02657 54.00331 38.41946
#
# Poissons Ratio (x) = 0.26384 0.11253
# Poissons Ratio (y) = 0.24441 0.06494
# Poissons Ratio (z) = 0.14652 0.09129
#
# Static dielectric constant tensor:
#      x y z
#    x 3.769080 0.049020 -0.039990 
#    y 0.049020 3.940460 -0.247910 
#    z -0.039990 -0.247910 3.658380 
# 
# 
# High freq. dielectric constant tensor:
#      x y z
#    x 1.835940 0.003100 -0.003000 
#    y 0.003100 1.835920 -0.018950 
#    z -0.003000 -0.018950 1.822440 
# 
# From -- ./inp_files/430391.got.cif
#   From: 2010.06.25/outbox.cif.g09.slc.cpg/sg2_216_cif.got.tgz:430391.got - 2010.06.27 13:26:56.
