data_PCOD8010201
_publ_section_title
;
Structure prediction by ZEFSAII (Michael W. Deem and Ramdas Pophale) SiO2 
 PCOD8010201
Probable space group: P -1
;
_chemical_formula_sum "Si O2"
_cell_formula_units_Z 14
_cell_length_a 8.650919
_cell_length_b 7.918120
_cell_length_c 15.367620
_cell_angle_alpha 139.594646
_cell_angle_beta 118.232633
_cell_angle_gamma 72.145907
_cell_volume 598.499168
_symmetry_space_group_name_H-M "P -1"
_symmetry_group_IT_number 2
_symmetry_cell_setting 'triclinic'
loop_
_space_group_symop_operation_xyz
x,y,z
-x,-y,-z
loop_
_atom_site_type_symbol
_atom_site_label
_atom_site_fract_x
_atom_site_fract_y
_atom_site_fract_z
Si Si1 0.333750 0.670835 0.536433
Si Si2 0.339408 0.850575 0.802228
Si Si3 0.350004 0.346390 0.101577
Si Si4 0.519899 0.071587 0.633522
Si Si5 0.121849 0.905816 0.188038
Si Si6 0.028157 0.620221 0.735278
Si Si7 0.013297 0.479063 0.870759
O O1 0.500000 0.500000 0.500000
O O2 0.324352 0.794752 0.676053
O O3 0.140082 0.533969 0.413873
O O4 0.351687 0.919731 0.574438
O O5 0.540290 0.818038 0.868007
O O6 0.206492 0.630690 0.730100
O O7 0.305058 0.154668 0.931450
O O8 0.465492 0.620478 0.219551
O O9 0.175207 0.404066 0.128379
O O10 0.692826 0.952486 0.674165
O O11 0.500000 0.000000 0.500000
O O12 0.011729 0.816942 0.212798
O O13 0.019607 0.079207 0.162314
O O14 0.151981 0.643143 0.037004
O O15 0.072650 0.505679 0.796779
#
# Coordination Sequence:
#
# PCOD8010201 Si02
#       7
#     2   2   2   2   2   2   2
#     4  12  24  43  68  92 128 182 226 270 336 403
#     4  11  25  42  64 100 136 174 221 277 345 392
#     4  10  23  43  66  96 138 173 222 279 326 404
#     4  11  23  43  69 100 130 175 232 275 327 402
#     4  10  21  37  69 102 130 174 227 276 322 401
#     4  12  23  42  68 101 138 175 220 281 334 396
#     4  10  21  41  68 102 131 177 225 269 335 401
#
# _framework density 23.391846000000001
#
# number of rings (size 3 to 8) (size 9 to 14) (size 15 to 20)
#    0.000    1.143    2.857    4.286    0.000    1.714 
#    2.571    0.714    0.000    0.000    0.000    0.000 
#    0.000    0.000    0.000    0.000    0.000    0.000 
#
# Total GULP energy -173463.433293 kJ/mol
# GULP energy per Si atom -12390.245235 kJ/mol
# Density = 2.333861 g / cm^3
# Si number density = 23.391846 Si / 1000 Ang^3
#
#
#
# Elastic Constant Matrix: (Units=GPa)
#
#
# Indices 1 2 3 4 5 6 
#
# 1 77.9384 13.3754 46.3993 0.6924 1.4705 16.9688
# 2 13.3754 84.3127 34.4591 -3.2921 -8.2718 36.1935
# 3 46.3993 34.4591 139.4826 -7.4991 4.0092 29.0138
# 4 0.6924 -3.2921 -7.4991 43.3226 7.2684 3.3807
# 5 1.4705 -8.2718 4.0092 7.2684 36.3742 -11.3710
# 6 16.9688 36.1935 29.0138 3.3807 -11.3710 42.3458
#
#
#
# Elastic Compliance Matrix: (Units=1/GPa)
#
#
# Indices 1 2 3 4 5 6 
#
# 1 0.016531 0.001204 -0.004818 -0.000438 -0.001229 -0.004647
# 2 0.001204 0.019386 -0.001584 0.002659 -0.001151 -0.016488
# 3 -0.004818 -0.001584 0.010453 0.002733 -0.003432 -0.005017
# 4 -0.000438 0.002659 0.002733 0.025610 -0.007288 -0.007972
# 5 -0.001229 -0.001151 -0.003432 -0.007288 0.033287 0.013348
# 6 -0.004647 -0.016488 -0.005017 -0.007972 0.013348 0.047228
#
#
# Mechanical properties :
#
#
# Convention : Reuss Voigt Hill
#
# Bulk Modulus (GPa) = 27.79839 54.46680 41.13259
# Shear Modulus (GPa) = 28.59062 38.24185 33.41624
#
# Velocity S-wave (km/s) = 3.49986 4.04770 3.78371
# Velocity P-wave (km/s) = 5.31428 6.72162 6.05895
#
# Compressibility (1/GPa) = 0.03597331
#
# Stress axis : x y z
#
# Youngs Moduli (GPa) = 60.49119 51.58413 95.66950
#
# Poissons Ratio (x) = -0.06211 0.46096
# Poissons Ratio (y) = -0.07283 0.15154
# Poissons Ratio (z) = 0.29146 0.08171
#
# Static dielectric constant tensor:
#      x y z
#    x 4.297290 0.100260 0.464020 
#    y 0.100260 4.462710 0.163610 
#    z 0.464020 0.163610 4.368240 
# 
# 
# High freq. dielectric constant tensor:
#      x y z
#    x 1.910200 0.002820 0.032650 
#    y 0.002820 1.934110 -0.002100 
#    z 0.032650 -0.002100 1.928710 
# 
# From -- ./inp_files/157201.got.cif
#   From: 2010.06.25/outbox.cif.g09.slc.cpg/sg2_79_cif.got.tgz:157201.got - 2010.06.27 13:26:56.
