data_PCOD8010301
_publ_section_title
;
Structure prediction by ZEFSAII (Michael W. Deem and Ramdas Pophale) SiO2 
 PCOD8010301
Probable space group: P -1
;
_chemical_formula_sum "Si O2"
_cell_formula_units_Z 12
_cell_length_a 9.794108
_cell_length_b 12.386562
_cell_length_c 9.060347
_cell_angle_alpha 61.219474
_cell_angle_beta 92.262728
_cell_angle_gamma 47.566550
_cell_volume 587.535869
_symmetry_space_group_name_H-M "P -1"
_symmetry_group_IT_number 2
_symmetry_cell_setting 'triclinic'
loop_
_space_group_symop_operation_xyz
x,y,z
-x,-y,-z
loop_
_atom_site_type_symbol
_atom_site_label
_atom_site_fract_x
_atom_site_fract_y
_atom_site_fract_z
Si Si1 0.596814 0.102492 0.500262
Si Si2 0.863721 0.675540 0.759119
Si Si3 0.601878 0.379170 0.932371
Si Si4 0.806561 0.434460 0.373507
Si Si5 0.101339 0.998822 0.641091
Si Si6 0.423523 0.434599 0.448107
O O1 0.335544 0.257068 0.370661
O O2 0.678413 0.088130 0.352154
O O3 0.614896 0.198344 0.562052
O O4 0.755864 0.873532 0.703565
O O5 0.031720 0.588541 0.690024
O O6 0.000000 0.500000 0.000000
O O7 0.422072 0.417375 0.824814
O O8 0.676124 0.441022 0.791602
O O9 0.500000 0.500000 0.000000
O O10 0.827315 0.141855 0.130672
O O11 0.748736 0.518064 0.484386
O O12 0.915528 0.223437 0.544018
O O13 0.000000 0.000000 0.500000
O O14 0.500000 0.500000 0.500000
#
# Coordination Sequence:
#
# PCOD8010301 Si02
#       6
#     2   2   2   2   2   2
#     4  10  21  38  59  84 120 152 197 242 290 340
#     4  10  22  39  62  85 108 160 211 241 278 345
#     4  11  19  34  60  86 116 156 194 236 291 354
#     4  10  22  37  55  86 122 148 197 247 292 344
#     4  11  19  33  59  87 113 153 198 239 288 347
#     4  10  21  38  58  89 127 153 181 246 308 346
#
# _framework density 20.424285000000001
#
# number of rings (size 3 to 8) (size 9 to 14) (size 15 to 20)
#    0.000    1.667    3.333    2.000    0.000    1.333 
#    0.000    4.167    0.000    0.000    0.000    0.000 
#    0.000    0.000    0.000    0.000    0.000    0.000 
#
# Total GULP energy -148691.666592 kJ/mol
# GULP energy per Si atom -12390.972216 kJ/mol
# Density = 2.037780 g / cm^3
# Si number density = 20.424285 Si / 1000 Ang^3
#
#
#
# Elastic Constant Matrix: (Units=GPa)
#
#
# Indices 1 2 3 4 5 6 
#
# 1 66.4674 12.3018 32.4266 3.8630 -5.2096 -8.8980
# 2 12.3018 107.1323 54.0242 4.8495 -13.1250 6.1776
# 3 32.4266 54.0242 157.0332 -9.6055 -18.9284 -8.5640
# 4 3.8630 4.8495 -9.6055 36.9124 -3.7510 -10.4303
# 5 -5.2096 -13.1250 -18.9284 -3.7510 29.5337 -2.3916
# 6 -8.8980 6.1776 -8.5640 -10.4303 -2.3916 36.6021
#
#
#
# Elastic Compliance Matrix: (Units=1/GPa)
#
#
# Indices 1 2 3 4 5 6 
#
# 1 0.017284 -0.000323 -0.003293 -0.001673 0.000830 0.003063
# 2 -0.000323 0.012190 -0.004362 -0.003679 0.001766 -0.004090
# 3 -0.003293 -0.004362 0.009622 0.004994 0.004598 0.003910
# 4 -0.001673 -0.003679 0.004994 0.032847 0.006346 0.011157
# 5 0.000830 0.001766 0.004598 0.006346 0.038976 0.005335
# 6 0.003063 -0.004090 0.003910 0.011157 0.005335 0.033199
#
#
# Mechanical properties :
#
#
# Convention : Reuss Voigt Hill
#
# Bulk Modulus (GPa) = 43.21804 58.68201 50.95002
# Shear Modulus (GPa) = 29.79988 36.06833 32.93410
#
# Velocity S-wave (km/s) = 3.82388 4.20688 4.01995
# Velocity P-wave (km/s) = 6.37983 7.23816 6.82251
#
# Compressibility (1/GPa) = 0.02313849
#
# Stress axis : x y z
#
# Youngs Moduli (GPa) = 57.85792 82.03605 103.93151
#
# Poissons Ratio (x) = 0.02652 0.34225
# Poissons Ratio (y) = 0.01870 0.45336
# Poissons Ratio (z) = 0.19053 0.35785
#
# Static dielectric constant tensor:
#      x y z
#    x 3.874730 -0.280830 -0.340620 
#    y -0.280830 4.091770 0.080970 
#    z -0.340620 0.080970 3.957590 
# 
# 
# High freq. dielectric constant tensor:
#      x y z
#    x 1.791210 -0.012650 -0.017040 
#    y -0.012650 1.801980 -0.007490 
#    z -0.017040 -0.007490 1.789400 
# 
# From -- ./inp_files/29012.got.cif
#   From: 2010.06.25/outbox.cif.g09.slc.cpg/sg2_15_cif.got.tgz:29012.got - 2010.06.27 13:26:56.
