data_PCOD8010333
_publ_section_title
;
Structure prediction by ZEFSAII (Michael W. Deem and Ramdas Pophale) SiO2 
 PCOD8010333
Probable space group: P -1
;
_chemical_formula_sum "Si O2"
_cell_formula_units_Z 16
_cell_length_a 10.352746
_cell_length_b 9.248959
_cell_length_c 13.612157
_cell_angle_alpha 95.216134
_cell_angle_beta 130.305241
_cell_angle_gamma 60.893734
_cell_volume 818.033034
_symmetry_space_group_name_H-M "P -1"
_symmetry_group_IT_number 2
_symmetry_cell_setting 'triclinic'
loop_
_space_group_symop_operation_xyz
x,y,z
-x,-y,-z
loop_
_atom_site_type_symbol
_atom_site_label
_atom_site_fract_x
_atom_site_fract_y
_atom_site_fract_z
Si Si1 0.541592 0.993710 0.406293
Si Si2 0.561202 0.933715 0.135253
Si Si3 0.233107 0.930494 0.622393
Si Si4 0.368103 0.559095 0.728108
Si Si5 0.830419 0.527425 0.214129
Si Si6 0.218662 0.524709 0.039695
Si Si7 0.183935 0.412199 0.508182
Si Si8 0.224360 0.210303 0.113350
O O1 0.657307 0.795198 0.411144
O O2 0.500000 0.000000 0.500000
O O3 0.682744 0.060257 0.443021
O O4 0.315939 0.128714 0.259983
O O5 0.664812 0.726883 0.177345
O O6 0.722191 0.966239 0.268162
O O7 0.341796 0.041860 0.088928
O O8 0.500000 0.000000 0.000000
O O9 0.346640 0.736976 0.706359
O O10 0.000000 0.000000 0.500000
O O11 0.227885 0.583213 0.754112
O O12 0.609223 0.433314 0.865518
O O13 0.313941 0.495016 0.598652
O O14 0.067061 0.463296 0.348499
O O15 0.820801 0.497137 0.093780
O O16 0.275538 0.351051 0.116035
O O17 0.018330 0.696517 0.999141
O O18 0.000000 0.500000 0.500000
#
# Coordination Sequence:
#
# PCOD8010333 Si02
#       8
#     2   2   2   2   2   2   2   2
#     4  11  22  42  64  87 122 170 205 243 308 377
#     4  11  20  39  60  89 118 163 200 244 297 369
#     4  11  21  37  61  91 123 155 204 258 301 350
#     4  11  20  37  59  92 122 154 199 260 298 348
#     4  11  21  37  62  92 120 157 204 243 308 369
#     4  11  21  37  61  87 119 161 200 247 297 362
#     4  10  21  38  62  89 121 161 197 249 306 363
#     4  10  21  38  59  84 120 160 202 240 307 356
#
# _framework density 19.559111999999999
#
# number of rings (size 3 to 8) (size 9 to 14) (size 15 to 20)
#    0.000    1.250    3.750    6.375    0.000    0.000 
#    0.000    4.375    0.000    0.000    0.000    0.000 
#    0.000    0.000    0.000    0.000    0.000    0.000 
#
# Total GULP energy -198253.264588 kJ/mol
# GULP energy per Si atom -12390.829037 kJ/mol
# Density = 1.951459 g / cm^3
# Si number density = 19.559112 Si / 1000 Ang^3
#
#
#
# Elastic Constant Matrix: (Units=GPa)
#
#
# Indices 1 2 3 4 5 6 
#
# 1 89.9712 29.7065 54.2059 10.3970 -12.8131 -0.6584
# 2 29.7065 78.6597 28.3628 -5.5013 1.6800 -6.0884
# 3 54.2059 28.3628 144.2322 11.6987 2.0950 -4.7680
# 4 10.3970 -5.5013 11.6987 35.2937 3.4278 0.2665
# 5 -12.8131 1.6800 2.0950 3.4278 41.6028 -4.7825
# 6 -0.6584 -6.0884 -4.7680 0.2665 -4.7825 22.6882
#
#
#
# Elastic Compliance Matrix: (Units=1/GPa)
#
#
# Indices 1 2 3 4 5 6 
#
# 1 0.017420 -0.005204 -0.005245 -0.004798 0.006161 -0.000638
# 2 -0.005204 0.015805 -0.001388 0.004643 -0.002176 0.003285
# 3 -0.005245 -0.001388 0.009370 -0.001613 -0.001773 0.001090
# 4 -0.004798 0.004643 -0.001613 0.031420 -0.004229 -0.000493
# 5 0.006161 -0.002176 -0.001773 -0.004229 0.027031 0.004970
# 6 -0.000638 0.003285 0.001090 -0.000493 0.004970 0.046221
#
#
# Mechanical properties :
#
#
# Convention : Reuss Voigt Hill
#
# Bulk Modulus (GPa) = 52.85530 59.71260 56.28395
# Shear Modulus (GPa) = 28.20884 33.28948 30.74916
#
# Velocity S-wave (km/s) = 3.80180 4.13000 3.96929
# Velocity P-wave (km/s) = 6.80835 7.30329 7.06016
#
# Compressibility (1/GPa) = 0.01891958
#
# Stress axis : x y z
#
# Youngs Moduli (GPa) = 57.40454 63.27289 106.72244
#
# Poissons Ratio (x) = 0.32929 0.55975
# Poissons Ratio (y) = 0.29875 0.14818
# Poissons Ratio (z) = 0.30108 0.08785
#
# Static dielectric constant tensor:
#      x y z
#    x 3.458420 -0.021580 0.194940 
#    y -0.021580 3.740120 -0.154500 
#    z 0.194940 -0.154500 4.268050 
# 
# 
# High freq. dielectric constant tensor:
#      x y z
#    x 1.748270 -0.002510 -0.000850 
#    y -0.002510 1.756160 -0.020540 
#    z -0.000850 -0.020540 1.782490 
# 
# From -- ./inp_files/515785.got.cif
#   From: 2010.06.25/outbox.cif.g09.slc.cpg/sg2_258_cif.got.tgz:515785.got - 2010.06.27 13:26:56.
