data_PCOD8010583
_publ_section_title
;
Structure prediction by ZEFSAII (Michael W. Deem and Ramdas Pophale) SiO2 
 PCOD8010583
Probable space group: P -1
;
_chemical_formula_sum "Si O2"
_cell_formula_units_Z 14
_cell_length_a 5.312652
_cell_length_b 11.021282
_cell_length_c 11.622240
_cell_angle_alpha 129.367485
_cell_angle_beta 90.314753
_cell_angle_gamma 85.947789
_cell_volume 524.098401
_symmetry_space_group_name_H-M "P -1"
_symmetry_group_IT_number 2
_symmetry_cell_setting 'triclinic'
loop_
_space_group_symop_operation_xyz
x,y,z
-x,-y,-z
loop_
_atom_site_type_symbol
_atom_site_label
_atom_site_fract_x
_atom_site_fract_y
_atom_site_fract_z
Si Si1 0.919215 0.199178 0.431148
Si Si2 0.420430 0.303581 0.764234
Si Si3 0.567938 0.961230 0.620739
Si Si4 0.388091 0.758429 0.860383
Si Si5 0.285248 0.416152 0.063607
Si Si6 0.103261 0.489318 0.697523
Si Si7 0.775389 0.939603 0.843302
O O1 0.153533 0.119253 0.460509
O O2 0.930102 0.390291 0.554132
O O3 0.961583 0.137071 0.260379
O O4 0.654237 0.157878 0.457574
O O5 0.662477 0.400975 0.848954
O O6 0.301626 0.359754 0.677458
O O7 0.498810 0.116208 0.634790
O O8 0.230910 0.333251 0.891298
O O9 0.586951 0.012341 0.785769
O O10 0.471786 0.677356 0.932834
O O11 0.242264 0.625318 0.711799
O O12 0.636420 0.798421 0.816119
O O13 0.196505 0.916342 0.980326
O O14 0.046803 0.412460 0.143168
#
# Coordination Sequence:
#
# PCOD8010583 Si02
#       7
#     2   2   2   2   2   2   2
#     4  10  25  43  65  97 135 173 215 263 326 387
#     4  10  22  39  62  91 130 170 215 269 321 382
#     4  10  23  43  67  92 133 172 218 264 321 383
#     4  10  21  42  66  98 123 169 220 273 323 381
#     4  10  21  38  61  95 127 167 214 270 327 384
#     4  11  25  37  65  93 132 171 216 265 328 391
#     4   9  22  42  68  94 130 167 221 270 324 382
#
# _framework density 26.712541000000002
#
# number of rings (size 3 to 8) (size 9 to 14) (size 15 to 20)
#    0.857    1.143    1.429    0.429    8.000    2.857 
#    0.000    4.286    0.000    0.000    0.000    0.000 
#    0.000    0.000    0.000    0.000    0.000    0.000 
#
# Total GULP energy -173509.114605 kJ/mol
# GULP energy per Si atom -12393.508186 kJ/mol
# Density = 2.665174 g / cm^3
# Si number density = 26.712541 Si / 1000 Ang^3
#
#
#
# Elastic Constant Matrix: (Units=GPa)
#
#
# Indices 1 2 3 4 5 6 
#
# 1 49.7137 -3.0445 15.3747 8.5339 -11.7598 12.0309
# 2 -3.0445 85.5086 20.1029 22.8749 0.9192 14.5713
# 3 15.3747 20.1029 105.2308 23.5486 4.7554 17.1035
# 4 8.5339 22.8749 23.5486 42.5414 8.8029 2.3655
# 5 -11.7598 0.9192 4.7554 8.8029 30.4456 0.4625
# 6 12.0309 14.5713 17.1035 2.3655 0.4625 34.9241
#
#
#
# Elastic Compliance Matrix: (Units=1/GPa)
#
#
# Indices 1 2 3 4 5 6 
#
# 1 0.028926 0.005963 -0.001919 -0.010323 0.014445 -0.011005
# 2 0.005963 0.016023 -0.000637 -0.010047 0.004943 -0.007812
# 3 -0.001919 -0.000637 0.011892 -0.005408 -0.000947 -0.004518
# 4 -0.010323 -0.010047 -0.005408 0.036307 -0.013460 0.008116
# 5 0.014445 0.004943 -0.000947 -0.013460 0.042410 -0.006224
# 6 -0.011005 -0.007812 -0.004518 0.008116 -0.006224 0.037429
#
#
# Mechanical properties :
#
#
# Convention : Reuss Voigt Hill
#
# Bulk Modulus (GPa) = 15.71007 33.92438 24.81723
# Shear Modulus (GPa) = 26.68179 35.45022 31.06601
#
# Velocity S-wave (km/s) = 3.16389 3.64689 3.41394
# Velocity P-wave (km/s) = 4.38644 5.51910 4.98504
#
# Compressibility (1/GPa) = 0.06365345
#
# Stress axis : x y z
#
# Youngs Moduli (GPa) = 34.57091 62.41120 84.08679
#
# Poissons Ratio (x) = -0.37214 0.16139
# Poissons Ratio (y) = -0.20614 0.05360
# Poissons Ratio (z) = 0.06635 0.03978
#
# Static dielectric constant tensor:
#      x y z
#    x 4.363620 -0.081660 0.116600 
#    y -0.081660 4.733560 0.037000 
#    z 0.116600 0.037000 4.804430 
# 
# 
# High freq. dielectric constant tensor:
#      x y z
#    x 2.052870 -0.004100 0.005580 
#    y -0.004100 2.070550 0.004960 
#    z 0.005580 0.004960 2.084340 
# 
# From -- ./inp_files/65493.got.cif
#   From: 2010.06.25/outbox.cif.g09.slc.cpg/sg2_33_cif.got.tgz:65493.got - 2010.06.27 13:26:56.
