data_PCOD8010892
_publ_section_title
;
Structure prediction by ZEFSAII (Michael W. Deem and Ramdas Pophale) SiO2 
 PCOD8010892
Probable space group: P -1
;
_chemical_formula_sum "Si O2"
_cell_formula_units_Z 16
_cell_length_a 19.629106
_cell_length_b 8.776054
_cell_length_c 10.985692
_cell_angle_alpha 138.999588
_cell_angle_beta 136.546601
_cell_angle_gamma 41.351244
_cell_volume 762.797361
_symmetry_space_group_name_H-M "P -1"
_symmetry_group_IT_number 2
_symmetry_cell_setting 'triclinic'
loop_
_space_group_symop_operation_xyz
x,y,z
-x,-y,-z
loop_
_atom_site_type_symbol
_atom_site_label
_atom_site_fract_x
_atom_site_fract_y
_atom_site_fract_z
Si Si1 0.370335 0.128813 0.172639
Si Si2 0.533041 0.764289 0.991553
Si Si3 0.481949 0.634797 0.427783
Si Si4 0.975772 0.145663 0.685958
Si Si5 0.247572 0.419812 0.947419
Si Si6 0.901025 0.766207 0.491031
Si Si7 0.160684 0.249612 0.119014
Si Si8 0.775325 0.041893 0.727598
O O1 0.428781 0.258352 0.410185
O O2 0.281015 0.094952 0.119725
O O3 0.313005 0.299942 0.083565
O O4 0.472184 0.855276 0.097271
O O5 0.487978 0.571462 0.764785
O O6 0.667696 0.631238 0.088073
O O7 0.500000 0.000000 0.000000
O O8 0.500000 0.500000 0.500000
O O9 0.356536 0.853980 0.381727
O O10 0.877371 0.440738 0.735502
O O11 0.942788 0.973358 0.629099
O O12 0.000000 0.000000 0.500000
O O13 0.082643 0.168304 0.887616
O O14 0.162091 0.302071 0.741015
O O15 0.186039 0.729888 0.074679
O O16 0.000000 0.500000 0.500000
O O17 0.817112 0.885415 0.563885
O O18 0.166141 0.154572 0.205547
#
# Coordination Sequence:
#
# PCOD8010892 Si02
#       8
#     2   2   2   2   2   2   2   2
#     4  11  21  37  63  90 124 164 213 254 313 383
#     4   9  18  32  58  91 119 152 203 256 303 366
#     4  11  20  37  63  95 126 165 211 258 314 375
#     4  11  25  46  67  90 127 170 217 264 317 386
#     4  10  21  38  64  95 119 163 211 264 316 363
#     4  12  25  40  68  96 121 165 217 267 321 372
#     4  11  26  43  62  93 131 173 209 259 325 377
#     4  11  24  42  63  94 136 162 208 270 314 378
#
# _framework density 20.975427
#
# number of rings (size 3 to 8) (size 9 to 14) (size 15 to 20)
#    0.000    1.250    3.750    3.750    1.750    5.500 
#    0.000    2.500    0.000    0.000    0.000    0.000 
#    0.000    0.000    0.000    0.000    0.000    0.000 
#
# Total GULP energy -198346.614416 kJ/mol
# GULP energy per Si atom -12396.663401 kJ/mol
# Density = 2.092769 g / cm^3
# Si number density = 20.975427 Si / 1000 Ang^3
#
#
#
# Elastic Constant Matrix: (Units=GPa)
#
#
# Indices 1 2 3 4 5 6 
#
# 1 72.7739 10.2444 36.5363 5.8887 0.6191 -3.1762
# 2 10.2444 79.7114 39.9355 12.1927 -3.5130 3.6540
# 3 36.5363 39.9355 152.3358 11.8209 12.2807 -9.2635
# 4 5.8887 12.1927 11.8209 26.1971 0.3744 0.6771
# 5 0.6191 -3.5130 12.2807 0.3744 26.7489 -0.1881
# 6 -3.1762 3.6540 -9.2635 0.6771 -0.1881 31.8648
#
#
#
# Elastic Compliance Matrix: (Units=1/GPa)
#
#
# Indices 1 2 3 4 5 6 
#
# 1 0.015774 0.000201 -0.003767 -0.001973 0.001422 0.000504
# 2 0.000201 0.015809 -0.004275 -0.005458 0.004090 -0.002895
# 3 -0.003767 -0.004275 0.009240 -0.001339 -0.004678 0.002802
# 4 -0.001973 -0.005458 -0.001339 0.041791 -0.000647 -0.000852
# 5 0.001422 0.004090 -0.004678 -0.000647 0.040036 -0.001437
# 6 0.000504 -0.002895 0.002802 -0.000852 -0.001437 0.032589
#
#
# Mechanical properties :
#
#
# Convention : Reuss Voigt Hill
#
# Bulk Modulus (GPa) = 39.77479 53.13928 46.45703
# Shear Modulus (GPa) = 27.88628 31.50248 29.69438
#
# Velocity S-wave (km/s) = 3.65015 3.87961 3.76663
# Velocity P-wave (km/s) = 6.06371 6.74222 6.41194
#
# Compressibility (1/GPa) = 0.02514155
#
# Stress axis : x y z
#
# Youngs Moduli (GPa) = 63.39734 63.25525 108.22586
#
# Poissons Ratio (x) = -0.01273 0.40766
# Poissons Ratio (y) = -0.01276 0.46266
# Poissons Ratio (z) = 0.23880 0.27041
#
# Static dielectric constant tensor:
#      x y z
#    x 2.757260 -0.070080 -1.005300 
#    y -0.070080 3.806260 0.399520 
#    z -1.005300 0.399520 3.354360 
# 
# 
# High freq. dielectric constant tensor:
#      x y z
#    x 1.810200 -0.017490 -0.000200 
#    y -0.017490 1.819710 0.007400 
#    z -0.000200 0.007400 1.838510 
# 
# From -- ./inp_files/274189.got.cif
#   From: 2010.06.25/outbox.cif.g09.slc.cpg/sg2_138_cif.got.tgz:274189.got - 2010.06.27 13:26:56.
