data_PCOD8010237
_publ_section_title
;
Structure prediction by ZEFSAII (Michael W. Deem and Ramdas Pophale) SiO2 
 PCOD8010237
Probable space group: P -1
;
_chemical_formula_sum "Si O2"
_cell_formula_units_Z 16
_cell_length_a 21.303227
_cell_length_b 8.220830
_cell_length_c 5.230805
_cell_angle_alpha 89.999988
_cell_angle_beta 122.513623
_cell_angle_gamma 101.124883
_cell_volume 751.996712
_symmetry_space_group_name_H-M "P -1"
_symmetry_group_IT_number 2
_symmetry_cell_setting 'triclinic'
loop_
_space_group_symop_operation_xyz
x,y,z
-x,-y,-z
loop_
_atom_site_type_symbol
_atom_site_label
_atom_site_fract_x
_atom_site_fract_y
_atom_site_fract_z
Si Si1 0.085799 0.479476 0.659929
Si Si2 0.860113 0.834454 0.287827
Si Si3 0.565789 0.168659 0.144027
Si Si4 0.434211 0.602869 0.355973
Si Si5 0.860113 0.025657 0.787828
Si Si6 0.085798 0.606326 0.159928
Si Si7 0.318529 0.055849 0.602576
Si Si8 0.681471 0.737321 0.897424
O O1 0.086102 0.293825 0.583414
O O2 0.128581 0.598738 0.523935
O O3 0.000000 0.500000 0.500000
O O4 0.128582 0.529849 0.023937
O O5 0.883672 0.946019 0.585068
O O6 0.883671 0.937649 0.085066
O O7 0.771080 0.744277 0.093769
O O8 0.560445 0.280207 0.382347
O O9 0.643927 0.104032 0.315045
O O10 0.560445 0.280238 0.882347
O O11 0.500000 0.000000 0.000000
O O12 0.500000 0.500000 0.500000
O O13 0.356073 0.460104 0.184957
O O14 0.771081 0.026804 0.593767
O O15 0.913900 0.207720 0.916590
O O16 0.000000 0.500000 0.000000
O O17 0.343146 0.171444 0.406326
O O18 0.343146 0.171701 0.906327
#
# Coordination Sequence:
#
# PCOD8010237 Si02
#       8
#     2   2   2   2   2   2   2   2
#     4  10  21  38  56  81 114 147 183 233 287 336
#     4  10  21  38  61  85 113 150 192 236 287 344
#     4  12  24  39  60  87 119 157 195 236 284 338
#     4  12  24  39  60  87 119 157 195 236 284 338
#     4  10  21  38  61  85 113 150 192 236 287 344
#     4  10  21  38  56  81 114 147 183 233 287 336
#     4  10  21  39  60  85 116 150 191 241 288 338
#     4  10  21  39  60  85 116 150 191 241 288 338
#
# _framework density 21.276688
#
# number of rings (size 3 to 8) (size 9 to 14) (size 15 to 20)
#    0.000    1.500    0.000    5.250    0.000    2.000 
#    0.000   15.000    0.000    0.000    0.000    0.000 
#    0.000    0.000    0.000    0.000    0.000    0.000 
#
# Total GULP energy -198329.146176 kJ/mol
# GULP energy per Si atom -12395.571636 kJ/mol
# Density = 2.122826 g / cm^3
# Si number density = 21.276688 Si / 1000 Ang^3
#
#
#
# Elastic Constant Matrix: (Units=GPa)
#
#
# Indices 1 2 3 4 5 6 
#
# 1 90.6629 78.6637 58.8889 -4.7107 -35.4261 -12.8547
# 2 78.6637 169.6935 54.9858 -3.1906 -24.2453 2.2643
# 3 58.8889 54.9858 112.2058 -7.9931 -59.5560 1.7156
# 4 -4.7107 -3.1906 -7.9931 47.2032 1.5313 -0.3863
# 5 -35.4261 -24.2453 -59.5560 1.5313 52.9409 -1.6701
# 6 -12.8547 2.2643 1.7156 -0.3863 -1.6701 49.3428
#
#
#
# Elastic Compliance Matrix: (Units=1/GPa)
#
#
# Indices 1 2 3 4 5 6 
#
# 1 0.027453 -0.009944 -0.005301 0.000974 0.008080 0.008074
# 2 -0.009944 0.010668 -0.002441 -0.000561 -0.004598 -0.003155
# 3 -0.005301 -0.002441 0.026251 0.002938 0.024740 -0.001321
# 4 0.000974 -0.000561 0.002938 0.021645 0.003088 0.000451
# 5 0.008080 -0.004598 0.024740 0.003088 0.050032 0.003173
# 6 0.008074 -0.003155 -0.001321 0.000451 0.003173 0.022671
#
#
# Mechanical properties :
#
#
# Convention : Reuss Voigt Hill
#
# Bulk Modulus (GPa) = 34.48144 84.18211 59.33178
# Shear Modulus (GPa) = 24.53876 41.89897 33.21886
#
# Velocity S-wave (km/s) = 3.39974 4.44243 3.95559
# Velocity P-wave (km/s) = 5.62604 8.12188 6.98632
#
# Compressibility (1/GPa) = 0.02900111
#
# Stress axis : x y z
#
# Youngs Moduli (GPa) = 36.42579 93.73685 38.09359
#
# Poissons Ratio (x) = 0.93208 0.20192
# Poissons Ratio (y) = 0.36220 0.09300
# Poissons Ratio (z) = 0.19308 0.22885
#
# Static dielectric constant tensor:
#      x y z
#    x 4.039790 0.020250 -0.634110 
#    y 0.020250 3.985600 -0.103710 
#    z -0.634110 -0.103710 4.607380 
# 
# 
# High freq. dielectric constant tensor:
#      x y z
#    x 1.834870 -0.000850 -0.026740 
#    y -0.000850 1.844060 -0.004010 
#    z -0.026740 -0.004010 1.850970 
# 
# From -- ./inp_files/14972.got.cif
#   From: 2010.06.25/outbox.cif.g09.slc.cpg/sg2_8_cif.got.tgz:14972.got - 2010.06.27 13:26:56.
