data_PCOD8010631
_publ_section_title
;
Structure prediction by ZEFSAII (Michael W. Deem and Ramdas Pophale) SiO2 
 PCOD8010631
Probable space group: P -1
;
_chemical_formula_sum "Si O2"
_cell_formula_units_Z 14
_cell_length_a 9.116139
_cell_length_b 6.383932
_cell_length_c 13.043192
_cell_angle_alpha 106.388608
_cell_angle_beta 60.268283
_cell_angle_gamma 88.386190
_cell_volume 619.358418
_symmetry_space_group_name_H-M "P -1"
_symmetry_group_IT_number 2
_symmetry_cell_setting 'triclinic'
loop_
_space_group_symop_operation_xyz
x,y,z
-x,-y,-z
loop_
_atom_site_type_symbol
_atom_site_label
_atom_site_fract_x
_atom_site_fract_y
_atom_site_fract_z
Si Si1 0.101794 0.760593 0.398780
Si Si2 0.400590 0.678171 0.419971
Si Si3 0.312285 0.522469 0.019138
Si Si4 0.570527 0.868900 0.208609
Si Si5 0.270432 0.947776 0.183788
Si Si6 0.686156 0.261527 0.312394
Si Si7 0.958847 0.616803 0.753755
O O1 0.217369 0.637441 0.435001
O O2 0.226732 0.789683 0.266984
O O3 0.984338 0.593778 0.372417
O O4 0.000000 0.000000 0.500000
O O5 0.459902 0.858402 0.349061
O O6 0.537456 0.447913 0.340535
O O7 0.364341 0.781978 0.559341
O O8 0.258828 0.794264 0.064307
O O9 0.175292 0.420485 0.118613
O O10 0.500000 0.500000 0.000000
O O11 0.326760 0.382890 0.888755
O O12 0.460691 0.975380 0.159838
O O13 0.700340 0.032291 0.212621
O O14 0.136376 0.177527 0.254119
O O15 0.868418 0.335730 0.248876
#
# Coordination Sequence:
#
# PCOD8010631 Si02
#       7
#     2   2   2   2   2   2   2
#     4  10  21  38  62  89 117 154 200 248 295 348
#     4  10  23  41  59  84 123 162 201 241 294 360
#     4   9  21  40  62  89 118 157 202 247 299 350
#     4  10  21  39  62  85 117 162 202 240 297 359
#     4   9  20  38  62  88 115 153 200 248 294 345
#     4  11  24  38  59  90 123 161 197 243 303 355
#     4  11  23  39  61  93 123 149 199 254 296 354
#
# _framework density 22.604036000000001
#
# number of rings (size 3 to 8) (size 9 to 14) (size 15 to 20)
#    0.000    2.000    0.000    3.000    0.000   14.286 
#    0.000    1.429    0.000    0.000    0.000    0.000 
#    0.000    0.000    0.000    0.000    0.000    0.000 
#
# Total GULP energy -173455.492679 kJ/mol
# GULP energy per Si atom -12389.678049 kJ/mol
# Density = 2.255259 g / cm^3
# Si number density = 22.604036 Si / 1000 Ang^3
#
#
#
# Elastic Constant Matrix: (Units=GPa)
#
#
# Indices 1 2 3 4 5 6 
#
# 1 137.7533 57.5814 58.0420 14.5959 3.3254 27.6251
# 2 57.5814 80.5736 46.0245 22.3179 6.6140 21.1520
# 3 58.0420 46.0245 102.8465 30.3141 2.6322 19.9155
# 4 14.5959 22.3179 30.3141 41.3779 9.2742 10.9741
# 5 3.3254 6.6140 2.6322 9.2742 29.5314 8.5017
# 6 27.6251 21.1520 19.9155 10.9741 8.5017 44.6458
#
#
#
# Elastic Compliance Matrix: (Units=1/GPa)
#
#
# Indices 1 2 3 4 5 6 
#
# 1 0.011953 -0.006073 -0.004254 0.002989 0.000445 -0.003440
# 2 -0.006073 0.021402 -0.003917 -0.005456 -0.001162 -0.003072
# 3 -0.004254 -0.003917 0.016697 -0.008949 0.003066 -0.001344
# 4 0.002989 -0.005456 -0.008949 0.035163 -0.008710 -0.002257
# 5 0.000445 -0.001162 0.003066 -0.008710 0.038334 -0.006251
# 6 -0.003440 -0.003072 -0.001344 -0.002257 -0.006251 0.028327
#
#
# Mechanical properties :
#
#
# Convention : Reuss Voigt Hill
#
# Bulk Modulus (GPa) = 46.37671 71.60770 58.99220
# Shear Modulus (GPa) = 26.65913 33.74605 30.20259
#
# Velocity S-wave (km/s) = 3.43796 3.86803 3.65932
# Velocity P-wave (km/s) = 6.02669 7.19005 6.63392
#
# Compressibility (1/GPa) = 0.02156255
#
# Stress axis : x y z
#
# Youngs Moduli (GPa) = 83.66127 46.72459 59.89267
#
# Poissons Ratio (x) = 0.28378 0.25478
# Poissons Ratio (y) = 0.50811 0.23461
# Poissons Ratio (z) = 0.35589 0.18303
#
# Static dielectric constant tensor:
#      x y z
#    x 4.059130 0.189950 0.212170 
#    y 0.189950 3.974060 0.169760 
#    z 0.212170 0.169760 4.357120 
# 
# 
# High freq. dielectric constant tensor:
#      x y z
#    x 1.879670 0.015500 0.005910 
#    y 0.015500 1.884550 0.011610 
#    z 0.005910 0.011610 1.894530 
# 
# From -- ./inp_files/28271.got.cif
#   From: 2010.06.25/outbox.cif.g09.slc.cpg/sg2_15_cif.got.tgz:28271.got - 2010.06.27 13:26:56.
