data_PCOD8010941
_publ_section_title
;
Structure prediction by ZEFSAII (Michael W. Deem and Ramdas Pophale) SiO2 
 PCOD8010941
Probable space group: P -1
;
_chemical_formula_sum "Si O2"
_cell_formula_units_Z 16
_cell_length_a 9.660532
_cell_length_b 5.291728
_cell_length_c 14.678279
_cell_angle_alpha 68.862536
_cell_angle_beta 93.735349
_cell_angle_gamma 90.005528
_cell_volume 698.173210
_symmetry_space_group_name_H-M "P -1"
_symmetry_group_IT_number 2
_symmetry_cell_setting 'triclinic'
loop_
_space_group_symop_operation_xyz
x,y,z
-x,-y,-z
loop_
_atom_site_type_symbol
_atom_site_label
_atom_site_fract_x
_atom_site_fract_y
_atom_site_fract_z
Si Si1 0.618501 0.415795 0.584351
Si Si2 0.045673 0.885271 0.614780
Si Si3 0.473874 0.214104 0.785961
Si Si4 0.744949 0.865250 0.634905
Si Si5 0.114242 0.080781 0.919238
Si Si6 0.607976 0.667094 0.832981
Si Si7 0.166399 0.503938 0.996070
Si Si8 0.155820 0.289242 0.710803
O O1 0.500000 0.500000 0.500000
O O2 0.556223 0.311273 0.688846
O O3 0.712631 0.678083 0.570369
O O4 0.712751 0.181585 0.570422
O O5 0.132395 0.106722 0.644461
O O6 0.132417 0.604497 0.644489
O O7 0.000000 0.000000 0.500000
O O8 0.906174 0.827233 0.672794
O O9 0.517488 0.398742 0.850238
O O10 0.311074 0.241017 0.759007
O O11 0.517503 0.900901 0.850243
O O12 0.647008 0.777664 0.722461
O O13 0.057509 0.195885 0.804111
O O14 0.208459 0.313034 0.937268
O O15 0.208476 0.812495 0.937297
O O16 0.000000 0.000000 0.000000
O O17 0.752060 0.601404 0.898660
O O18 0.000000 0.500000 0.000000
#
# Coordination Sequence:
#
# PCOD8010941 Si02
#       8
#     2   2   2   2   2   2   2   2
#     4  10  21  38  65  88 124 168 218 272 314 392
#     4  12  28  43  68  99 135 178 218 277 336 388
#     4  10  23  41  63  91 128 181 213 260 333 382
#     4  10  23  38  61  96 124 164 221 262 333 365
#     4  10  23  39  65  98 124 170 220 265 328 386
#     4  10  21  41  65  95 130 168 215 272 311 393
#     4  10  21  38  65  97 130 159 217 269 326 381
#     4  12  26  46  68  94 141 174 222 271 330 405
#
# _framework density 22.91695
#
# number of rings (size 3 to 8) (size 9 to 14) (size 15 to 20)
#    0.000    1.500    0.000    3.750   10.500    0.000 
#    0.000    3.750    0.000    0.000    0.000    0.000 
#    0.000    0.000    0.000    0.000    0.000    0.000 
#
# Total GULP energy -198321.067326 kJ/mol
# GULP energy per Si atom -12395.066708 kJ/mol
# Density = 2.286479 g / cm^3
# Si number density = 22.916950 Si / 1000 Ang^3
#
#
#
# Elastic Constant Matrix: (Units=GPa)
#
#
# Indices 1 2 3 4 5 6 
#
# 1 98.1459 46.2940 20.3953 0.6069 33.7691 -1.3934
# 2 46.2940 266.3128 66.7251 -5.0347 35.4748 16.0698
# 3 20.3953 66.7251 107.8274 -2.0793 25.1119 4.5784
# 4 0.6069 -5.0347 -2.0793 31.7266 -1.1530 18.0996
# 5 33.7691 35.4748 25.1119 -1.1530 47.7520 1.5718
# 6 -1.3934 16.0698 4.5784 18.0996 1.5718 22.7388
#
#
#
# Elastic Compliance Matrix: (Units=1/GPa)
#
#
# Indices 1 2 3 4 5 6 
#
# 1 0.014258 -0.001762 0.000181 -0.004441 -0.009182 0.006252
# 2 -0.001762 0.005303 -0.002291 0.004717 -0.001142 -0.007070
# 3 0.000181 -0.002291 0.011786 0.000885 -0.004565 -0.001132
# 4 -0.004441 0.004717 0.000885 0.063673 0.002507 -0.054640
# 5 -0.009182 -0.001142 -0.004565 0.002507 0.030842 -0.002963
# 6 0.006252 -0.007070 -0.001132 -0.054640 -0.002963 0.093283
#
#
# Mechanical properties :
#
#
# Convention : Reuss Voigt Hill
#
# Bulk Modulus (GPa) = 42.36868 82.12388 62.24628
# Shear Modulus (GPa) = 21.29854 43.03492 32.16673
#
# Velocity S-wave (km/s) = 3.05188 4.33813 3.75056
# Velocity P-wave (km/s) = 5.56297 7.81062 6.78058
#
# Compressibility (1/GPa) = 0.02360234
#
# Stress axis : x y z
#
# Youngs Moduli (GPa) = 70.13662 188.56110 84.84590
#
# Poissons Ratio (x) = 0.33222 -0.01533
# Poissons Ratio (y) = 0.12357 0.19441
# Poissons Ratio (z) = -0.01268 0.43205
#
# Static dielectric constant tensor:
#      x y z
#    x 3.625320 0.240530 -0.031900 
#    y 0.240530 6.183960 0.031040 
#    z -0.031900 0.031040 3.976360 
# 
# 
# High freq. dielectric constant tensor:
#      x y z
#    x 1.886890 0.005050 0.007000 
#    y 0.005050 1.940550 -0.000050 
#    z 0.007000 -0.000050 1.894840 
# 
# From -- ./inp_files/488201.got.cif
#   From: 2010.06.25/outbox.cif.g09.slc.cpg/sg2_245_cif.got.tgz:488201.got - 2010.06.27 13:26:56.
