data_PCOD8010726
_publ_section_title
;
Structure prediction by ZEFSAII (Michael W. Deem and Ramdas Pophale) SiO2 
 PCOD8010726
Probable space group: P -1
;
_chemical_formula_sum "Si O2"
_cell_formula_units_Z 16
_cell_length_a 12.239753
_cell_length_b 8.739262
_cell_length_c 14.481276
_cell_angle_alpha 57.810891
_cell_angle_beta 138.438678
_cell_angle_gamma 99.084162
_cell_volume 785.702522
_symmetry_space_group_name_H-M "P -1"
_symmetry_group_IT_number 2
_symmetry_cell_setting 'triclinic'
loop_
_space_group_symop_operation_xyz
x,y,z
-x,-y,-z
loop_
_atom_site_type_symbol
_atom_site_label
_atom_site_fract_x
_atom_site_fract_y
_atom_site_fract_z
Si Si1 0.432795 0.733641 0.382695
Si Si2 0.791979 0.026179 0.001160
Si Si3 0.511600 0.084554 0.131262
Si Si4 0.206921 0.765659 0.393860
Si Si5 0.355593 0.714309 0.998416
Si Si6 0.077753 0.769236 0.653416
Si Si7 0.260559 0.320258 0.530303
Si Si8 0.654575 0.290666 0.304715
O O1 0.500000 0.500000 0.500000
O O2 0.353690 0.808485 0.411116
O O3 0.612853 0.760686 0.456500
O O4 0.263451 0.850003 0.168956
O O5 0.708391 0.189307 0.974973
O O6 0.007314 0.905976 0.184840
O O7 0.699362 0.870101 0.999637
O O8 0.529784 0.190362 0.015940
O O9 0.591559 0.147686 0.251736
O O10 0.630793 0.844441 0.269663
O O11 0.239332 0.534926 0.481962
O O12 0.229803 0.821907 0.495613
O O13 0.176326 0.741449 0.821681
O O14 0.479859 0.481253 0.167505
O O15 0.219393 0.643180 0.703175
O O16 0.933827 0.679113 0.607956
O O17 0.000000 0.000000 0.500000
#
# Coordination Sequence:
#
# PCOD8010726 Si02
#       8
#     2   2   2   2   2   2   2   2
#     4   9  20  43  64  84 119 157 200 254 301 346
#     4  11  23  38  64  91 115 159 207 246 293 359
#     4  10  21  39  58  87 128 160 194 243 304 360
#     4  11  24  39  65  89 119 157 210 249 292 355
#     4  11  22  37  59  85 130 163 195 241 305 362
#     4  11  20  37  61  90 130 154 197 251 300 356
#     4  10  21  38  63  87 119 161 200 240 307 350
#     4  11  23  38  60  90 128 163 192 245 310 355
#
# _framework density 20.363939999999999
#
# number of rings (size 3 to 8) (size 9 to 14) (size 15 to 20)
#    0.000    1.500    2.500    5.250    3.500    0.500 
#    0.000    2.500    2.750    2.250    0.000    0.000 
#    0.000    0.000    0.000    0.000    0.000    0.000 
#
# Total GULP energy -198306.007073 kJ/mol
# GULP energy per Si atom -12394.125442 kJ/mol
# Density = 2.031759 g / cm^3
# Si number density = 20.363940 Si / 1000 Ang^3
#
#
#
# Elastic Constant Matrix: (Units=GPa)
#
#
# Indices 1 2 3 4 5 6 
#
# 1 74.4826 29.6903 9.4743 14.6818 6.4142 -6.5714
# 2 29.6903 45.7575 14.2025 -3.4292 2.9474 -13.3921
# 3 9.4743 14.2025 80.4961 -0.3923 6.2071 -2.1630
# 4 14.6818 -3.4292 -0.3923 35.4845 0.5232 0.2480
# 5 6.4142 2.9474 6.2071 0.5232 38.8964 1.7565
# 6 -6.5714 -13.3921 -2.1630 0.2480 1.7565 22.5169
#
#
#
# Elastic Compliance Matrix: (Units=1/GPa)
#
#
# Indices 1 2 3 4 5 6 
#
# 1 0.021557 -0.015458 0.000237 -0.010361 -0.002165 -0.002597
# 2 -0.015458 0.039507 -0.004552 0.010044 -0.000688 0.018491
# 3 0.000237 -0.004552 0.013299 -0.000356 -0.001757 -0.001220
# 4 -0.010361 0.010044 -0.000356 0.033411 0.000441 0.002514
# 5 -0.002165 -0.000688 -0.001757 0.000441 0.026541 -0.003285
# 6 -0.002597 0.018491 -0.001220 0.002514 -0.003285 0.054762
#
#
# Mechanical properties :
#
#
# Convention : Reuss Voigt Hill
#
# Bulk Modulus (GPa) = 28.72251 34.16336 31.44294
# Shear Modulus (GPa) = 20.81338 29.20417 25.00877
#
# Velocity S-wave (km/s) = 3.20045 3.79108 3.50821
# Velocity P-wave (km/s) = 5.27185 5.99798 5.64660
#
# Compressibility (1/GPa) = 0.03481589
#
# Stress axis : x y z
#
# Youngs Moduli (GPa) = 46.38774 25.31224 75.19260
#
# Poissons Ratio (x) = 0.39129 -0.01781
# Poissons Ratio (y) = 0.71708 0.34229
# Poissons Ratio (z) = -0.01099 0.11522
#
# Static dielectric constant tensor:
#      x y z
#    x 4.378560 0.039480 0.191430 
#    y 0.039480 3.616330 -0.009140 
#    z 0.191430 -0.009140 3.908400 
# 
# 
# High freq. dielectric constant tensor:
#      x y z
#    x 1.797080 -0.000990 0.006280 
#    y -0.000990 1.777200 -0.005530 
#    z 0.006280 -0.005530 1.809800 
# 
# From -- ./inp_files/187394.got.cif
#   From: 2010.06.25/outbox.cif.g09.slc.cpg/sg2_94_cif.got.tgz:187394.got - 2010.06.27 13:26:56.
