data_PCOD8010877
_publ_section_title
;
Structure prediction by ZEFSAII (Michael W. Deem and Ramdas Pophale) SiO2 
 PCOD8010877
Probable space group: P -1
;
_chemical_formula_sum "Si O2"
_cell_formula_units_Z 16
_cell_length_a 11.838956
_cell_length_b 9.722082
_cell_length_c 17.959720
_cell_angle_alpha 64.025583
_cell_angle_beta 151.042684
_cell_angle_gamma 129.775497
_cell_volume 726.800024
_symmetry_space_group_name_H-M "P -1"
_symmetry_group_IT_number 2
_symmetry_cell_setting 'triclinic'
loop_
_space_group_symop_operation_xyz
x,y,z
-x,-y,-z
loop_
_atom_site_type_symbol
_atom_site_label
_atom_site_fract_x
_atom_site_fract_y
_atom_site_fract_z
Si Si1 0.062053 0.407570 0.781503
Si Si2 0.055164 0.294711 0.328071
Si Si3 0.901176 0.635463 0.827718
Si Si4 0.609105 0.597450 0.157916
Si Si5 0.718586 0.733868 0.842767
Si Si6 0.412539 0.120516 0.830966
Si Si7 0.730854 0.082831 0.778917
Si Si8 0.558320 0.779700 0.336560
O O1 0.128805 0.374213 0.744591
O O2 0.949182 0.536954 0.680814
O O3 0.826013 0.203307 0.729323
O O4 0.340713 0.514799 0.968522
O O5 0.193823 0.346203 0.313610
O O6 0.244712 0.266381 0.498194
O O7 0.730450 0.098758 0.181220
O O8 0.766597 0.698117 0.794817
O O9 0.767319 0.414564 0.815331
O O10 0.244132 0.758685 0.000769
O O11 0.533124 0.459481 0.216546
O O12 0.698470 0.798459 0.192351
O O13 0.616095 0.869492 0.745453
O O14 0.013133 0.829848 0.034734
O O15 0.301777 0.130067 0.683709
O O16 0.467173 0.074408 0.665423
#
# Coordination Sequence:
#
# PCOD8010877 Si02
#       8
#     2   2   2   2   2   2   2   2
#     4  10  22  38  62  93 135 164 207 266 329 373
#     4  12  27  41  64  99 137 169 205 266 339 376
#     4  12  22  42  71  95 123 167 229 267 302 376
#     4  10  21  39  62  95 126 166 215 268 312 374
#     4  10  21  38  65  97 120 167 221 270 304 373
#     4  12  24  42  68  97 127 170 224 265 307 381
#     4  10  21  38  64  93 127 166 215 263 322 372
#     4  12  24  45  66  93 134 173 211 266 325 383
#
# _framework density 22.014309000000001
#
# number of rings (size 3 to 8) (size 9 to 14) (size 15 to 20)
#    0.000    1.000    5.000    2.250    3.500    1.000 
#    0.000    2.500    0.000    0.000    0.000    0.000 
#    0.000    0.000    0.000    0.000    0.000    0.000 
#
# Total GULP energy -198464.323014 kJ/mol
# GULP energy per Si atom -12404.020188 kJ/mol
# Density = 2.196420 g / cm^3
# Si number density = 22.014309 Si / 1000 Ang^3
#
#
#
# Elastic Constant Matrix: (Units=GPa)
#
#
# Indices 1 2 3 4 5 6 
#
# 1 177.6832 43.9299 19.1167 -19.8800 -7.4069 -18.8773
# 2 43.9299 117.9953 10.4476 -23.3231 8.0769 -13.1673
# 3 19.1167 10.4476 31.0277 -16.7272 5.1404 -14.4735
# 4 -19.8800 -23.3231 -16.7272 31.3295 -0.5825 6.7980
# 5 -7.4069 8.0769 5.1404 -0.5825 22.5664 -7.7396
# 6 -18.8773 -13.1673 -14.4735 6.7980 -7.7396 36.3033
#
#
#
# Elastic Compliance Matrix: (Units=1/GPa)
#
#
# Indices 1 2 3 4 5 6 
#
# 1 0.007036 -0.002230 -0.002639 0.000914 0.004629 0.002613
# 2 -0.002230 0.011165 0.003799 0.008444 -0.004755 0.001809
# 3 -0.002639 0.003799 0.056085 0.027617 -0.009053 0.015264
# 4 0.000914 0.008444 0.027617 0.052695 -0.006524 0.003290
# 5 0.004629 -0.004755 -0.009053 -0.006524 0.052697 0.009529
# 6 0.002613 0.001809 0.015264 0.003290 0.009529 0.037062
#
#
# Mechanical properties :
#
#
# Convention : Reuss Voigt Hill
#
# Bulk Modulus (GPa) = 13.86105 52.63273 33.24689
# Shear Modulus (GPa) = 20.58207 34.92066 27.75137
#
# Velocity S-wave (km/s) = 3.06100 3.98712 3.55435
# Velocity P-wave (km/s) = 4.33624 6.71986 5.65506
#
# Compressibility (1/GPa) = 0.07214461
#
# Stress axis : x y z
#
# Youngs Moduli (GPa) = 142.12076 89.56244 17.83015
#
# Poissons Ratio (x) = 0.19976 0.04705
# Poissons Ratio (y) = 0.31699 -0.06773
# Poissons Ratio (z) = 0.37506 -0.34021
#
# Static dielectric constant tensor:
#      x y z
#    x 4.369160 0.031640 -0.105180 
#    y 0.031640 4.299000 -0.048020 
#    z -0.105180 -0.048020 3.579210 
# 
# 
# High freq. dielectric constant tensor:
#      x y z
#    x 1.879660 0.002800 -0.007900 
#    y 0.002800 1.875040 -0.011320 
#    z -0.007900 -0.011320 1.836810 
# 
# From -- ./inp_files/190903.got.cif
#   From: 2010.06.25/outbox.cif.g09.slc.cpg/sg2_96_cif.got.tgz:190903.got - 2010.06.27 13:26:56.
