data_PCOD8010518
_publ_section_title
;
Structure prediction by ZEFSAII (Michael W. Deem and Ramdas Pophale) SiO2 
 PCOD8010518
Probable space group: P -1
;
_chemical_formula_sum "Si O2"
_cell_formula_units_Z 16
_cell_length_a 9.208898
_cell_length_b 13.047691
_cell_length_c 7.814328
_cell_angle_alpha 63.015648
_cell_angle_beta 48.268053
_cell_angle_gamma 81.582910
_cell_volume 607.062964
_symmetry_space_group_name_H-M "P -1"
_symmetry_group_IT_number 2
_symmetry_cell_setting 'triclinic'
loop_
_space_group_symop_operation_xyz
x,y,z
-x,-y,-z
loop_
_atom_site_type_symbol
_atom_site_label
_atom_site_fract_x
_atom_site_fract_y
_atom_site_fract_z
Si Si1 0.896386 0.503913 0.316814
Si Si2 0.453737 0.577349 0.134547
Si Si3 0.364094 0.829580 0.637396
Si Si4 0.304014 0.571330 0.801714
Si Si5 0.581622 0.854255 0.786268
Si Si6 0.017557 0.091927 0.760358
Si Si7 0.646233 0.933763 0.049124
Si Si8 0.911768 0.765521 0.095176
O O1 0.785141 0.443894 0.621750
O O2 0.808497 0.416116 0.295986
O O3 0.837345 0.627171 0.228525
O O4 0.136638 0.522800 0.119695
O O5 0.552450 0.519816 0.258531
O O6 0.500000 0.500000 0.000000
O O7 0.555064 0.714665 0.938499
O O8 0.424047 0.702841 0.663992
O O9 0.429467 0.877129 0.741318
O O10 0.130015 0.816911 0.803113
O O11 0.475855 0.922328 0.337601
O O12 0.806508 0.913250 0.505831
O O13 0.545343 0.917043 0.949451
O O14 0.071241 0.217017 0.723409
O O15 0.807598 0.060478 0.845893
O O16 0.000000 0.000000 0.000000
O O17 0.760873 0.829094 0.067386
#
# Coordination Sequence:
#
# PCOD8010518 Si02
#       8
#     2   2   2   2   2   2   2   2
#     4  10  21  38  61  88 123 164 205 242 301 361
#     4  12  22  35  58  90 123 159 200 242 303 359
#     4  11  22  42  64  95 129 162 211 251 310 366
#     4  10  21  39  60  88 125 164 202 248 293 366
#     4  12  23  42  65  95 125 163 209 260 309 370
#     4  10  21  44  68  87 122 167 204 259 322 369
#     4  11  23  43  67  90 126 163 208 262 313 366
#     4  10  21  41  67  92 125 171 204 256 308 369
#
# _framework density 26.35641
#
# number of rings (size 3 to 8) (size 9 to 14) (size 15 to 20)
#    0.000    1.250    3.750    3.750    0.000    1.000 
#    4.500    0.625    0.000    0.000    0.000    0.000 
#    0.000    0.000    0.000    0.000    0.000    0.000 
#
# Total GULP energy -198382.549365 kJ/mol
# GULP energy per Si atom -12398.909335 kJ/mol
# Density = 2.629642 g / cm^3
# Si number density = 26.356410 Si / 1000 Ang^3
#
#
#
# Elastic Constant Matrix: (Units=GPa)
#
#
# Indices 1 2 3 4 5 6 
#
# 1 91.5750 13.7588 22.7905 -6.2708 12.8873 22.5245
# 2 13.7588 100.7789 26.5172 5.8209 14.4729 31.2775
# 3 22.7905 26.5172 160.9155 6.6337 -1.8738 21.3893
# 4 -6.2708 5.8209 6.6337 37.9184 5.3676 1.1749
# 5 12.8873 14.4729 -1.8738 5.3676 31.2473 4.8958
# 6 22.5245 31.2775 21.3893 1.1749 4.8958 46.6770
#
#
#
# Elastic Compliance Matrix: (Units=1/GPa)
#
#
# Indices 1 2 3 4 5 6 
#
# 1 0.013693 0.001068 -0.001512 0.003383 -0.005858 -0.006101
# 2 0.001068 0.013537 -0.001299 -0.000655 -0.005358 -0.008412
# 3 -0.001512 -0.001299 0.006968 -0.001524 0.002184 -0.001784
# 4 0.003383 -0.000655 -0.001524 0.028156 -0.005929 -0.000582
# 5 -0.005858 -0.005358 0.002184 -0.005929 0.037799 0.001600
# 6 -0.006101 -0.008412 -0.001784 -0.000582 0.001600 0.030669
#
#
# Mechanical properties :
#
#
# Convention : Reuss Voigt Hill
#
# Bulk Modulus (GPa) = 32.56207 53.26695 42.91451
# Shear Modulus (GPa) = 34.59128 42.51539 38.55333
#
# Velocity S-wave (km/s) = 3.62670 4.02069 3.82877
# Velocity P-wave (km/s) = 5.46979 6.46597 5.98863
#
# Compressibility (1/GPa) = 0.03071057
#
# Stress axis : x y z
#
# Youngs Moduli (GPa) = 73.03258 73.87248 143.51324
#
# Poissons Ratio (x) = -0.07888 0.21699
# Poissons Ratio (y) = -0.07798 0.18645
# Poissons Ratio (z) = 0.11042 0.09597
#
# Static dielectric constant tensor:
#      x y z
#    x 4.925540 0.167080 -0.177810 
#    y 0.167080 5.281060 0.140360 
#    z -0.177810 0.140360 4.886870 
# 
# 
# High freq. dielectric constant tensor:
#      x y z
#    x 2.047060 0.008320 -0.014240 
#    y 0.008320 2.075450 0.006460 
#    z -0.014240 0.006460 2.064610 
# 
# From -- ./inp_files/272345.got.cif
#   From: 2010.06.25/outbox.cif.g09.slc.cpg/sg2_137_cif.got.tgz:272345.got - 2010.06.27 13:26:56.
