data_PCOD8010019
_publ_section_title
;
Structure prediction by ZEFSAII (Michael W. Deem and Ramdas Pophale) SiO2 
 PCOD8010019
Probable space group: P -1
;
_chemical_formula_sum "Si O2"
_cell_formula_units_Z 16
_cell_length_a 11.850852
_cell_length_b 7.521780
_cell_length_c 12.524646
_cell_angle_alpha 118.592305
_cell_angle_beta 49.512226
_cell_angle_gamma 93.315572
_cell_volume 690.022266
_symmetry_space_group_name_H-M "P -1"
_symmetry_group_IT_number 2
_symmetry_cell_setting 'triclinic'
loop_
_space_group_symop_operation_xyz
x,y,z
-x,-y,-z
loop_
_atom_site_type_symbol
_atom_site_label
_atom_site_fract_x
_atom_site_fract_y
_atom_site_fract_z
Si Si1 0.525027 0.713030 0.583464
Si Si2 0.965339 0.506708 0.752961
Si Si3 0.215020 0.193209 0.670703
Si Si4 0.751582 0.600542 0.610067
Si Si5 0.179245 0.839794 0.465549
Si Si6 0.804956 0.007981 0.734198
Si Si7 0.263998 0.177464 0.877583
Si Si8 0.346108 0.531807 0.032867
O O1 0.500000 0.500000 0.500000
O O2 0.625284 0.768336 0.445438
O O3 0.611622 0.666920 0.629865
O O4 0.360090 0.920847 0.758760
O O5 0.819694 0.429094 0.784386
O O6 0.063743 0.347916 0.740732
O O7 0.073230 0.502539 0.584074
O O8 0.882847 0.749764 0.925406
O O9 0.185717 0.235606 0.826110
O O10 0.243129 0.943237 0.554114
O O11 0.732339 0.422882 0.651184
O O12 0.739012 0.817004 0.746111
O O13 0.228758 0.929119 0.352615
O O14 0.990518 0.915835 0.618756
O O15 0.702407 0.229691 0.927535
O O16 0.371753 0.327372 0.878678
O O17 0.500000 0.500000 0.000000
#
# Coordination Sequence:
#
# PCOD8010019 Si02
#       8
#     2   2   2   2   2   2   2   2
#     4  11  23  42  62  92 134 167 214 274 325 387
#     4   9  20  38  62  93 130 165 212 273 322 376
#     4  11  20  42  67  95 123 169 230 264 318 394
#     4  11  22  40  65  97 129 168 226 267 314 385
#     4  11  21  36  70  94 122 168 220 276 310 368
#     4  11  20  40  63  96 129 167 224 262 314 384
#     4  10  22  39  65  92 129 173 213 265 334 381
#     4  10  21  37  64  90 132 173 205 264 338 379
#
# _framework density 23.187657999999999
#
# number of rings (size 3 to 8) (size 9 to 14) (size 15 to 20)
#    0.750    0.750    3.750    3.375    0.000    0.000 
#    0.000    8.125    0.000    2.250    0.000    0.000 
#    0.000    0.000    0.000    0.000    0.000    0.000 
#
# Total GULP energy -198283.729499 kJ/mol
# GULP energy per Si atom -12392.733094 kJ/mol
# Density = 2.313488 g / cm^3
# Si number density = 23.187658 Si / 1000 Ang^3
#
#
#
# Elastic Constant Matrix: (Units=GPa)
#
#
# Indices 1 2 3 4 5 6 
#
# 1 92.3059 31.2771 18.0754 8.9200 9.6619 11.9985
# 2 31.2771 95.9967 30.7797 40.4393 8.4908 11.8458
# 3 18.0754 30.7797 89.6501 41.4691 3.0734 1.6052
# 4 8.9200 40.4393 41.4691 46.5780 5.1563 9.6567
# 5 9.6619 8.4908 3.0734 5.1563 40.5661 10.6698
# 6 11.9985 11.8458 1.6052 9.6567 10.6698 31.4979
#
#
#
# Elastic Compliance Matrix: (Units=1/GPa)
#
#
# Indices 1 2 3 4 5 6 
#
# 1 0.013431 -0.005162 -0.003721 0.006301 -0.001476 -0.004417
# 2 -0.005162 0.018688 0.002890 -0.017832 -0.000771 0.000519
# 3 -0.003721 0.002890 0.020745 -0.021476 -0.000111 0.005895
# 4 0.006301 -0.017832 -0.021476 0.057404 -0.000252 -0.012113
# 5 -0.001476 -0.000771 -0.000111 -0.000252 0.027400 -0.008347
# 6 -0.004417 0.000519 0.005895 -0.012113 -0.008347 0.039476
#
#
# Mechanical properties :
#
#
# Convention : Reuss Voigt Hill
#
# Bulk Modulus (GPa) = 24.46263 48.69079 36.57671
# Shear Modulus (GPa) = 24.66030 36.91642 30.78836
#
# Velocity S-wave (km/s) = 3.26469 3.99441 3.64784
# Velocity P-wave (km/s) = 4.97832 6.50522 5.79230
#
# Compressibility (1/GPa) = 0.04087868
#
# Stress axis : x y z
#
# Youngs Moduli (GPa) = 74.45503 53.50973 48.20523
#
# Poissons Ratio (x) = 0.27621 0.17936
# Poissons Ratio (y) = 0.38432 -0.13932
# Poissons Ratio (z) = 0.27703 -0.15465
#
# Static dielectric constant tensor:
#      x y z
#    x 4.241720 0.179100 0.030300 
#    y 0.179100 4.081820 0.420280 
#    z 0.030300 0.420280 4.364820 
# 
# 
# High freq. dielectric constant tensor:
#      x y z
#    x 1.927690 0.003390 0.000440 
#    y 0.003390 1.896800 0.031460 
#    z 0.000440 0.031460 1.911950 
# 
# From -- ./inp_files/513669.got.cif
#   From: 2010.06.25/outbox.cif.g09.slc.cpg/sg2_257_cif.got.tgz:513669.got - 2010.06.27 13:26:56.
