data_PCOD8010050
_publ_section_title
;
Structure prediction by ZEFSAII (Michael W. Deem and Ramdas Pophale) SiO2 
 PCOD8010050
Probable space group: P -1
;
_chemical_formula_sum "Si O2"
_cell_formula_units_Z 16
_cell_length_a 18.932881
_cell_length_b 9.177976
_cell_length_c 10.700946
_cell_angle_alpha 88.451421
_cell_angle_beta 24.318312
_cell_angle_gamma 85.038797
_cell_volume 756.764235
_symmetry_space_group_name_H-M "P -1"
_symmetry_group_IT_number 2
_symmetry_cell_setting 'triclinic'
loop_
_space_group_symop_operation_xyz
x,y,z
-x,-y,-z
loop_
_atom_site_type_symbol
_atom_site_label
_atom_site_fract_x
_atom_site_fract_y
_atom_site_fract_z
Si Si1 0.958360 0.401366 0.409576
Si Si2 0.059246 0.875230 0.807984
Si Si3 0.721618 0.591295 0.967561
Si Si4 0.621423 0.919836 0.127868
Si Si5 0.687141 0.868824 0.306830
Si Si6 0.156852 0.563066 0.686488
Si Si7 0.478042 0.370843 0.294191
Si Si8 0.231166 0.854093 0.278554
O O1 0.867822 0.540044 0.631035
O O2 0.872039 0.431112 0.414337
O O3 0.917003 0.240962 0.528257
O O4 0.168335 0.397226 0.080136
O O5 0.153519 0.731954 0.733907
O O6 0.188101 0.914045 0.488638
O O7 0.886163 0.832323 0.025258
O O8 0.000000 0.000000 0.000000
O O9 0.625242 0.752550 0.079425
O O10 0.586804 0.475978 0.195490
O O11 0.679797 0.925518 0.176493
O O12 0.422884 0.002767 0.433297
O O13 0.754712 0.003311 0.831999
O O14 0.602428 0.720370 0.466285
O O15 0.337315 0.467183 0.432659
O O16 0.000000 0.500000 0.000000
O O17 0.590755 0.262123 0.016601
#
# Coordination Sequence:
#
# PCOD8010050 Si02
#       8
#     2   2   2   2   2   2   2   2
#     4   9  21  40  61  93 126 155 208 260 310 368
#     4  11  24  40  62  93 126 161 210 258 303 371
#     4  10  21  37  64  95 121 154 214 265 298 363
#     4  10  21  39  64  91 120 165 205 256 313 368
#     4  10  22  42  59  89 130 162 203 252 319 374
#     4  11  22  41  65  88 127 174 199 250 323 376
#     4  10  22  42  65  94 124 169 209 251 320 371
#     4   9  21  42  65  88 126 168 202 258 314 372
#
# _framework density 21.142648999999999
#
# number of rings (size 3 to 8) (size 9 to 14) (size 15 to 20)
#    0.000    2.000    1.250    1.500    1.750    8.000 
#    0.000    5.000    0.000    0.000    0.000    0.000 
#    0.000    0.000    0.000    0.000    0.000    0.000 
#
# Total GULP energy -198287.170192 kJ/mol
# GULP energy per Si atom -12392.948137 kJ/mol
# Density = 2.109453 g / cm^3
# Si number density = 21.142649 Si / 1000 Ang^3
#
#
#
# Elastic Constant Matrix: (Units=GPa)
#
#
# Indices 1 2 3 4 5 6 
#
# 1 67.5744 45.1908 40.6425 -6.1371 1.7488 -8.1312
# 2 45.1908 150.3095 57.4381 1.1274 15.2919 -9.0023
# 3 40.6425 57.4381 117.2168 -6.3851 6.3203 -8.9391
# 4 -6.1371 1.1274 -6.3851 38.5673 -4.1106 4.4458
# 5 1.7488 15.2919 6.3203 -4.1106 38.5865 6.1812
# 6 -8.1312 -9.0023 -8.9391 4.4458 6.1812 28.8599
#
#
#
# Elastic Compliance Matrix: (Units=1/GPa)
#
#
# Indices 1 2 3 4 5 6 
#
# 1 0.021275 -0.004560 -0.004907 0.002605 0.001553 0.002318
# 2 -0.004560 0.009642 -0.002913 -0.002104 -0.003671 0.001931
# 3 -0.004907 -0.002913 0.011857 0.001038 -0.000673 0.001366
# 4 0.002605 -0.002104 0.001038 0.027578 0.004246 -0.004758
# 5 0.001553 -0.003671 -0.000673 0.004246 0.029113 -0.007806
# 6 0.002318 0.001931 0.001366 -0.004758 -0.007806 0.038733
#
#
# Mechanical properties :
#
#
# Convention : Reuss Voigt Hill
#
# Bulk Modulus (GPa) = 55.51396 69.07150 62.29273
# Shear Modulus (GPa) = 29.59242 33.99136 31.79189
#
# Velocity S-wave (km/s) = 3.74526 4.01398 3.88194
# Velocity P-wave (km/s) = 6.70943 7.36362 7.04412
#
# Compressibility (1/GPa) = 0.01801349
#
# Stress axis : x y z
#
# Youngs Moduli (GPa) = 47.00445 103.71433 84.33711
#
# Poissons Ratio (x) = 0.47291 0.41386
# Poissons Ratio (y) = 0.21433 0.24568
# Poissons Ratio (z) = 0.23066 0.30213
#
# Static dielectric constant tensor:
#      x y z
#    x 3.855120 0.106890 -0.168630 
#    y 0.106890 3.925810 0.311090 
#    z -0.168630 0.311090 4.088190 
# 
# 
# High freq. dielectric constant tensor:
#      x y z
#    x 1.799560 -0.000900 0.005210 
#    y -0.000900 1.841550 0.015460 
#    z 0.005210 0.015460 1.846850 
# 
# From -- ./inp_files/469971.got.cif
#   From: 2010.06.25/outbox.cif.g09.slc.cpg/sg2_235_cif.got.tgz:469971.got - 2010.06.27 13:26:56.
