data_PCOD8010491
_publ_section_title
;
Structure prediction by ZEFSAII (Michael W. Deem and Ramdas Pophale) SiO2 
 PCOD8010491
Probable space group: P -1
;
_chemical_formula_sum "Si O2"
_cell_formula_units_Z 12
_cell_length_a 11.840369
_cell_length_b 8.847455
_cell_length_c 11.860699
_cell_angle_alpha 122.790561
_cell_angle_beta 130.068626
_cell_angle_gamma 96.833434
_cell_volume 548.995775
_symmetry_space_group_name_H-M "P -1"
_symmetry_group_IT_number 2
_symmetry_cell_setting 'triclinic'
loop_
_space_group_symop_operation_xyz
x,y,z
-x,-y,-z
loop_
_atom_site_type_symbol
_atom_site_label
_atom_site_fract_x
_atom_site_fract_y
_atom_site_fract_z
Si Si1 0.900294 0.857995 0.575653
Si Si2 0.672685 0.364669 0.366907
Si Si3 0.852256 0.572807 0.026403
Si Si4 0.535852 0.758551 0.208437
Si Si5 0.699943 0.993221 0.172931
Si Si6 0.748657 0.299416 0.629944
O O1 0.826208 0.664686 0.551725
O O2 0.693788 0.728716 0.315885
O O3 0.074544 0.909737 0.631265
O O4 0.005922 0.132558 0.804129
O O5 0.682919 0.364332 0.508195
O O6 0.754958 0.253623 0.316528
O O7 0.425675 0.175089 0.090038
O O8 0.700171 0.501285 0.002990
O O9 0.712615 0.383905 0.753443
O O10 0.002556 0.543719 0.156147
O O11 0.539358 0.805907 0.097546
O O12 0.602229 0.992776 0.417163
#
# Coordination Sequence:
#
# PCOD8010491 Si02
#       6
#     2   2   2   2   2   2
#     4  11  22  36  56  87 118 147 185 231 283 333
#     4  10  22  38  58  84 113 150 187 231 284 333
#     4  10  21  39  61  85 111 147 192 233 278 331
#     4  10  21  38  61  84 112 150 190 232 275 332
#     4  10  22  39  58  83 115 151 189 228 279 337
#     4   9  21  40  61  83 111 149 191 232 277 333
#
# _framework density 21.858091000000002
#
# number of rings (size 3 to 8) (size 9 to 14) (size 15 to 20)
#    0.000    2.000    0.000    2.500    0.000   11.333 
#    0.000    3.333    0.000    0.000    0.000    0.000 
#    0.000    0.000    0.000    0.000    0.000    0.000 
#
# Total GULP energy -148808.785282 kJ/mol
# GULP energy per Si atom -12400.732107 kJ/mol
# Density = 2.180834 g / cm^3
# Si number density = 21.858091 Si / 1000 Ang^3
#
#
#
# Elastic Constant Matrix: (Units=GPa)
#
#
# Indices 1 2 3 4 5 6 
#
# 1 59.2469 30.5046 13.3797 -10.0232 20.6317 -1.1758
# 2 30.5046 141.2746 40.8548 0.4546 4.3833 4.7784
# 3 13.3797 40.8548 63.5918 -13.0790 5.1176 5.7460
# 4 -10.0232 0.4546 -13.0790 37.1363 -0.4304 -2.9513
# 5 20.6317 4.3833 5.1176 -0.4304 33.8993 0.1905
# 6 -1.1758 4.7784 5.7460 -2.9513 0.1905 27.7621
#
#
#
# Elastic Compliance Matrix: (Units=1/GPa)
#
#
# Indices 1 2 3 4 5 6 
#
# 1 0.026167 -0.005431 0.000462 0.007341 -0.015216 0.002832
# 2 -0.005431 0.010005 -0.006208 -0.003828 0.002906 -0.001094
# 3 0.000462 -0.006208 0.021619 0.007580 -0.002631 -0.002563
# 4 0.007341 -0.003828 0.007580 0.031794 -0.004729 0.002813
# 5 -0.015216 0.002906 -0.002631 -0.004729 0.038729 -0.001368
# 6 0.002832 -0.001094 -0.002563 0.002813 -0.001368 0.037168
#
#
# Mechanical properties :
#
#
# Convention : Reuss Voigt Hill
#
# Bulk Modulus (GPa) = 28.21846 48.17684 38.19765
# Shear Modulus (GPa) = 25.04406 31.71782 28.38094
#
# Velocity S-wave (km/s) = 3.38858 3.81344 3.60727
# Velocity P-wave (km/s) = 5.31487 6.44037 5.90449
#
# Compressibility (1/GPa) = 0.03543779
#
# Stress axis : x y z
#
# Youngs Moduli (GPa) = 38.21576 99.94578 46.25648
#
# Poissons Ratio (x) = 0.54281 -0.02137
# Poissons Ratio (y) = 0.20755 0.28714
# Poissons Ratio (z) = -0.01765 0.62043
#
# Static dielectric constant tensor:
#      x y z
#    x 3.635090 -0.260140 0.024110 
#    y -0.260140 3.996050 0.008970 
#    z 0.024110 0.008970 3.953940 
# 
# 
# High freq. dielectric constant tensor:
#      x y z
#    x 1.836440 -0.014490 -0.000150 
#    y -0.014490 1.864280 0.004970 
#    z -0.000150 0.004970 1.862160 
# 
# From -- ./inp_files/18882.got.cif
#   From: 2010.06.25/outbox.cif.g09.slc.cpg/sg2_10_cif.got.tgz:18882.got - 2010.06.27 13:26:56.
