data_PCOD8010783
_publ_section_title
;
Structure prediction by ZEFSAII (Michael W. Deem and Ramdas Pophale) SiO2 
 PCOD8010783
Probable space group: P -1
;
_chemical_formula_sum "Si O2"
_cell_formula_units_Z 14
_cell_length_a 11.924345
_cell_length_b 13.383704
_cell_length_c 8.907440
_cell_angle_alpha 70.528296
_cell_angle_beta 120.489722
_cell_angle_gamma 148.636458
_cell_volume 621.543393
_symmetry_space_group_name_H-M "P -1"
_symmetry_group_IT_number 2
_symmetry_cell_setting 'triclinic'
loop_
_space_group_symop_operation_xyz
x,y,z
-x,-y,-z
loop_
_atom_site_type_symbol
_atom_site_label
_atom_site_fract_x
_atom_site_fract_y
_atom_site_fract_z
Si Si1 0.683888 0.854105 0.795496
Si Si2 0.970519 0.307351 0.512420
Si Si3 0.751519 0.271401 0.911383
Si Si4 0.314078 0.735320 0.463791
Si Si5 0.092371 0.197408 0.119071
Si Si6 0.671957 0.518425 0.091015
Si Si7 0.767764 0.067245 0.201517
O O1 0.586190 0.881307 0.608674
O O2 0.486586 0.695581 0.875108
O O3 0.723891 0.776409 0.757716
O O4 0.927034 0.058888 0.933062
O O5 0.747769 0.218458 0.478167
O O6 0.872108 0.163377 0.388078
O O7 0.145789 0.516204 0.457420
O O8 0.109343 0.329965 0.716041
O O9 0.714901 0.227699 0.732695
O O10 0.509182 0.166503 0.859055
O O11 0.764753 0.166632 0.045167
O O12 0.000000 0.500000 0.000000
O O13 0.948050 0.108036 0.221894
O O14 0.225414 0.398593 0.052910
O O15 0.500000 0.500000 0.000000
#
# Coordination Sequence:
#
# PCOD8010783 Si02
#       7
#     2   2   2   2   2   2   2
#     4   9  21  39  64  88 118 164 210 248 302 366
#     4  10  21  38  63  94 119 156 209 252 304 370
#     4  11  24  42  60  90 128 161 196 255 320 362
#     4  10  21  39  64  85 123 162 203 251 308 366
#     4  10  21  40  63  87 124 160 206 254 303 362
#     4   9  19  39  64  88 119 163 205 246 301 367
#     4  11  25  38  62  94 123 157 208 255 306 368
#
# _framework density 22.524574000000001
#
# number of rings (size 3 to 8) (size 9 to 14) (size 15 to 20)
#    0.000    2.000    1.429    0.857    6.000    2.857 
#    0.000    7.143    0.000    0.000    0.000    0.000 
#    0.000    0.000    0.000    0.000    0.000    0.000 
#
# Total GULP energy -173496.742391 kJ/mol
# GULP energy per Si atom -12392.624456 kJ/mol
# Density = 2.247331 g / cm^3
# Si number density = 22.524574 Si / 1000 Ang^3
#
#
#
# Elastic Constant Matrix: (Units=GPa)
#
#
# Indices 1 2 3 4 5 6 
#
# 1 108.6792 30.6517 44.8630 9.2184 0.7114 24.8156
# 2 30.6517 67.4401 11.1135 5.8367 -5.5683 19.4562
# 3 44.8630 11.1135 101.5256 2.9452 18.2503 7.3728
# 4 9.2184 5.8367 2.9452 23.5273 6.9798 2.0387
# 5 0.7114 -5.5683 18.2503 6.9798 36.8013 -2.1075
# 6 24.8156 19.4562 7.3728 2.0387 -2.1075 31.4840
#
#
#
# Elastic Compliance Matrix: (Units=1/GPa)
#
#
# Indices 1 2 3 4 5 6 
#
# 1 0.014590 -0.002772 -0.005908 -0.004373 0.002603 -0.007946
# 2 -0.002772 0.019506 -0.000778 -0.003930 0.003610 -0.009191
# 3 -0.005908 -0.000778 0.013675 0.002837 -0.007251 0.001266
# 4 -0.004373 -0.003930 0.002837 0.047962 -0.010935 0.001373
# 5 0.002603 0.003610 -0.007251 -0.010935 0.033359 0.000357
# 6 -0.007946 -0.009191 0.001266 0.001373 0.000357 0.043343
#
#
# Mechanical properties :
#
#
# Convention : Reuss Voigt Hill
#
# Bulk Modulus (GPa) = 34.65529 50.10014 42.37771
# Shear Modulus (GPa) = 24.87952 31.09697 27.98825
#
# Velocity S-wave (km/s) = 3.32708 3.71965 3.52883
# Velocity P-wave (km/s) = 5.49347 6.38266 5.95469
#
# Compressibility (1/GPa) = 0.02885562
#
# Stress axis : x y z
#
# Youngs Moduli (GPa) = 68.53894 51.26707 73.12843
#
# Poissons Ratio (x) = 0.14211 0.43203
# Poissons Ratio (y) = 0.18999 0.05687
# Poissons Ratio (z) = 0.40491 0.03987
#
# Static dielectric constant tensor:
#      x y z
#    x 5.764830 -0.814740 -0.016090 
#    y -0.814740 5.442140 0.004160 
#    z -0.016090 0.004160 4.066870 
# 
# 
# High freq. dielectric constant tensor:
#      x y z
#    x 1.866580 0.021270 0.021430 
#    y 0.021270 1.908190 -0.007220 
#    z 0.021430 -0.007220 1.878910 
# 
# From -- ./inp_files/251337.got.cif
#   From: 2010.06.25/outbox.cif.g09.slc.cpg/sg2_126_cif.got.tgz:251337.got - 2010.06.27 13:26:56.
