data_PCOD8010731
_publ_section_title
;
Structure prediction by ZEFSAII (Michael W. Deem and Ramdas Pophale) SiO2 
 PCOD8010731
Probable space group: P -1
;
_chemical_formula_sum "Si O2"
_cell_formula_units_Z 14
_cell_length_a 12.725687
_cell_length_b 11.381220
_cell_length_c 8.954394
_cell_angle_alpha 33.490736
_cell_angle_beta 47.693587
_cell_angle_gamma 55.472883
_cell_volume 529.202410
_symmetry_space_group_name_H-M "P -1"
_symmetry_group_IT_number 2
_symmetry_cell_setting 'triclinic'
loop_
_space_group_symop_operation_xyz
x,y,z
-x,-y,-z
loop_
_atom_site_type_symbol
_atom_site_label
_atom_site_fract_x
_atom_site_fract_y
_atom_site_fract_z
Si Si1 0.221795 0.847436 0.692359
Si Si2 0.524280 0.875563 0.344449
Si Si3 0.409372 0.358725 0.938339
Si Si4 0.299986 0.531286 0.562526
Si Si5 0.927697 0.701893 0.148608
Si Si6 0.734575 0.799996 0.488772
Si Si7 0.232003 0.004127 0.202849
O O1 0.378150 0.730810 0.636924
O O2 0.190016 0.005727 0.414323
O O3 0.219672 0.985057 0.699075
O O4 0.098503 0.670362 0.013555
O O5 0.606903 0.859623 0.436410
O O6 0.451563 0.108328 0.153372
O O7 0.636400 0.832270 0.144375
O O8 0.304719 0.413970 0.842126
O O9 0.554789 0.502789 0.641003
O O10 0.321544 0.382510 0.152104
O O11 0.154617 0.480230 0.669265
O O12 0.294554 0.780307 0.331575
O O13 0.871934 0.710454 0.363083
O O14 0.899236 0.925660 0.850571
#
# Coordination Sequence:
#
# PCOD8010731 Si02
#       7
#     2   2   2   2   2   2   2
#     4  11  20  36  62  91 120 156 197 242 301 353
#     4   9  19  37  64  90 114 155 205 246 291 348
#     4   9  18  37  61  88 121 151 200 254 285 344
#     4  10  22  39  61  93 119 152 203 246 295 350
#     4  11  23  39  61  89 126 158 190 244 302 358
#     4  10  21  38  63  88 118 161 201 241 295 353
#     4  10  22  40  65  88 117 157 200 249 290 348
#
# _framework density 26.454903999999999
#
# number of rings (size 3 to 8) (size 9 to 14) (size 15 to 20)
#    0.000    2.000    0.000    4.714    0.000    6.857 
#    0.000    4.286    0.000   15.429    0.000    0.000 
#    0.000    0.000    0.000    0.000    0.000    0.000 
#
# Total GULP energy -173561.366229 kJ/mol
# GULP energy per Si atom -12397.240445 kJ/mol
# Density = 2.639469 g / cm^3
# Si number density = 26.454904 Si / 1000 Ang^3
#
#
#
# Elastic Constant Matrix: (Units=GPa)
#
#
# Indices 1 2 3 4 5 6 
#
# 1 123.1314 36.4669 55.2907 28.6351 -28.6915 13.9804
# 2 36.4669 54.8073 22.0994 24.7878 -4.9254 -5.9261
# 3 55.2907 22.0994 96.3500 23.3790 -11.2181 -2.0621
# 4 28.6351 24.7878 23.3790 36.9839 -1.2699 2.7397
# 5 -28.6915 -4.9254 -11.2181 -1.2699 58.9189 12.8624
# 6 13.9804 -5.9261 -2.0621 2.7397 12.8624 37.6251
#
#
#
# Elastic Compliance Matrix: (Units=1/GPa)
#
#
# Indices 1 2 3 4 5 6 
#
# 1 0.017489 -0.008061 -0.006712 -0.002776 0.008901 -0.010977
# 2 -0.008061 0.031355 0.001217 -0.016445 -0.003712 0.010467
# 3 -0.006712 0.001217 0.015256 -0.005634 -0.001342 0.004391
# 4 -0.002776 -0.016445 -0.005634 0.044036 -0.001883 -0.004430
# 5 0.008901 -0.003712 -0.001342 -0.001883 0.023273 -0.011785
# 6 -0.010977 0.010467 0.004391 -0.004430 -0.011785 0.036897
#
#
# Mechanical properties :
#
#
# Convention : Reuss Voigt Hill
#
# Bulk Modulus (GPa) = 27.03695 55.77806 41.40751
# Shear Modulus (GPa) = 24.06762 37.40103 30.73433
#
# Velocity S-wave (km/s) = 3.01950 3.76409 3.41216
# Velocity P-wave (km/s) = 4.73272 6.32622 5.58658
#
# Compressibility (1/GPa) = 0.03698642
#
# Stress axis : x y z
#
# Youngs Moduli (GPa) = 57.17967 31.89291 65.54691
#
# Poissons Ratio (x) = 0.25710 0.43994
# Poissons Ratio (y) = 0.46095 -0.07974
# Poissons Ratio (z) = 0.38378 -0.03880
#
# Static dielectric constant tensor:
#      x y z
#    x 4.647420 -0.029700 -0.105830 
#    y -0.029700 4.827960 0.037680 
#    z -0.105830 0.037680 5.413790 
# 
# 
# High freq. dielectric constant tensor:
#      x y z
#    x 2.054370 0.004970 -0.006290 
#    y 0.004970 2.072560 -0.004310 
#    z -0.006290 -0.004310 2.086590 
# 
# From -- ./inp_files/271306.got.cif
#   From: 2010.06.25/outbox.cif.g09.slc.cpg/sg2_136_cif.got.tgz:271306.got - 2010.06.27 13:26:56.
