data_PCOD8010008
_publ_section_title
;
Structure prediction by ZEFSAII (Michael W. Deem and Ramdas Pophale) SiO2 
 PCOD8010008
Probable space group: P -1
;
_chemical_formula_sum "Si O2"
_cell_formula_units_Z 16
_cell_length_a 20.538748
_cell_length_b 10.781403
_cell_length_c 13.298533
_cell_angle_alpha 147.403635
_cell_angle_beta 38.920222
_cell_angle_gamma 117.791363
_cell_volume 826.321393
_symmetry_space_group_name_H-M "P -1"
_symmetry_group_IT_number 2
_symmetry_cell_setting 'triclinic'
loop_
_space_group_symop_operation_xyz
x,y,z
-x,-y,-z
loop_
_atom_site_type_symbol
_atom_site_label
_atom_site_fract_x
_atom_site_fract_y
_atom_site_fract_z
Si Si1 0.706713 0.033559 0.677468
Si Si2 0.910585 0.212738 0.168743
Si Si3 0.489275 0.371520 0.025088
Si Si4 0.632233 0.265154 0.135428
Si Si5 0.226602 0.580664 0.810888
Si Si6 0.694053 0.805221 0.899027
Si Si7 0.292552 0.801667 0.704526
Si Si8 0.018600 0.233097 0.848345
O O1 0.740464 0.726209 0.439858
O O2 0.835987 0.019955 0.508139
O O3 0.628331 0.162877 0.758686
O O4 0.622232 0.226857 0.003297
O O5 0.816908 0.499208 0.533814
O O6 0.836446 0.089171 0.124797
O O7 0.983274 0.268463 0.033540
O O8 0.000000 0.000000 0.000000
O O9 0.429194 0.199279 0.954104
O O10 0.409469 0.621831 0.368965
O O11 0.500000 0.500000 0.000000
O O12 0.500000 0.500000 0.500000
O O13 0.731369 0.351405 0.089577
O O14 0.686118 0.972736 0.924534
O O15 0.307757 0.601222 0.640064
O O16 0.078457 0.811396 0.125906
O O17 0.704643 0.941537 0.081318
O O18 0.000000 0.500000 0.000000
#
# Coordination Sequence:
#
# PCOD8010008 Si02
#       8
#     2   2   2   2   2   2   2   2
#     4  11  21  35  58  84 119 151 190 241 298 347
#     4  10  21  37  64  86 115 159 207 241 291 362
#     4  11  24  37  56  81 117 160 197 240 296 346
#     4  11  21  35  63  91 116 149 196 240 298 360
#     4   9  19  37  59  88 114 146 190 240 297 355
#     4  10  21  39  61  83 116 151 193 250 295 344
#     4   9  20  39  60  85 113 149 198 243 292 353
#     4   9  19  36  58  85 119 152 190 243 301 351
#
# _framework density 19.362926000000002
#
# number of rings (size 3 to 8) (size 9 to 14) (size 15 to 20)
#    0.000    2.000    0.000    5.250    3.500    3.000 
#    0.000    3.750    0.000    0.000    0.000    0.000 
#    0.000    0.000    0.000    0.000    0.000    0.000 
#
# Total GULP energy -198344.087248 kJ/mol
# GULP energy per Si atom -12396.505453 kJ/mol
# Density = 1.931886 g / cm^3
# Si number density = 19.362926 Si / 1000 Ang^3
#
#
#
# Elastic Constant Matrix: (Units=GPa)
#
#
# Indices 1 2 3 4 5 6 
#
# 1 147.7975 56.6046 66.6092 7.0903 -5.0579 5.2998
# 2 56.6046 80.6724 44.3740 -7.8255 -3.8777 -5.6342
# 3 66.6092 44.3740 109.0368 -1.4123 -14.2546 3.8983
# 4 7.0903 -7.8255 -1.4123 23.9729 1.4267 -6.5100
# 5 -5.0579 -3.8777 -14.2546 1.4267 37.5728 5.9867
# 6 5.2998 -5.6342 3.8983 -6.5100 5.9867 30.0444
#
#
#
# Elastic Compliance Matrix: (Units=1/GPa)
#
#
# Indices 1 2 3 4 5 6 
#
# 1 0.011913 -0.006978 -0.004343 -0.007284 0.000225 -0.004470
# 2 -0.006978 0.021685 -0.005057 0.011414 -0.002474 0.008920
# 3 -0.004343 -0.005057 0.014640 -0.000675 0.004987 -0.003222
# 4 -0.007284 0.011414 -0.000675 0.052089 -0.004539 0.015704
# 5 0.000225 -0.002474 0.004987 -0.004539 0.029738 -0.008060
# 6 -0.004470 0.008920 -0.003222 0.015704 -0.008060 0.041172
#
#
# Mechanical properties :
#
#
# Convention : Reuss Voigt Hill
#
# Bulk Modulus (GPa) = 64.58671 74.74247 69.66459
# Shear Modulus (GPa) = 23.90576 29.64596 26.77586
#
# Velocity S-wave (km/s) = 3.51752 3.91713 3.72269
# Velocity P-wave (km/s) = 7.06580 7.69046 7.38474
#
# Compressibility (1/GPa) = 0.01548306
#
# Stress axis : x y z
#
# Youngs Moduli (GPa) = 83.93980 46.11535 68.30372
#
# Poissons Ratio (x) = 0.32180 0.29664
# Poissons Ratio (y) = 0.58575 0.34538
# Poissons Ratio (z) = 0.36455 0.23318
#
# Static dielectric constant tensor:
#      x y z
#    x 3.823380 0.153840 -0.151080 
#    y 0.153840 3.483190 -0.155260 
#    z -0.151080 -0.155260 3.524010 
# 
# 
# High freq. dielectric constant tensor:
#      x y z
#    x 1.769710 0.003220 -0.012780 
#    y 0.003220 1.740300 -0.007720 
#    z -0.012780 -0.007720 1.744050 
# 
# From -- ./inp_files/470195.got.cif
#   From: 2010.06.25/outbox.cif.g09.slc.cpg/sg2_236_cif.got.tgz:470195.got - 2010.06.27 13:26:56.
