data_PCOD8010153
_publ_section_title
;
Structure prediction by ZEFSAII (Michael W. Deem and Ramdas Pophale) SiO2 
 PCOD8010153
Probable space group: P -1
;
_chemical_formula_sum "Si O2"
_cell_formula_units_Z 16
_cell_length_a 7.489550
_cell_length_b 11.201872
_cell_length_c 8.835689
_cell_angle_alpha 72.694917
_cell_angle_beta 109.710200
_cell_angle_gamma 102.415618
_cell_volume 660.821520
_symmetry_space_group_name_H-M "P -1"
_symmetry_group_IT_number 2
_symmetry_cell_setting 'triclinic'
loop_
_space_group_symop_operation_xyz
x,y,z
-x,-y,-z
loop_
_atom_site_type_symbol
_atom_site_label
_atom_site_fract_x
_atom_site_fract_y
_atom_site_fract_z
Si Si1 0.990326 0.383295 0.375896
Si Si2 0.376704 0.452403 0.295727
Si Si3 0.933732 0.107162 0.341077
Si Si4 0.475084 0.704136 0.364452
Si Si5 0.951725 0.281425 0.721490
Si Si6 0.466357 0.021532 0.807112
Si Si7 0.119853 0.994420 0.184292
Si Si8 0.847778 0.547448 0.053343
O O1 0.984059 0.240311 0.380992
O O2 0.815500 0.443505 0.220403
O O3 0.184965 0.461969 0.338106
O O4 0.986368 0.385708 0.557598
O O5 0.513209 0.585620 0.312408
O O6 0.473581 0.333247 0.433728
O O7 0.337500 0.437164 0.109399
O O8 0.707356 0.080348 0.256359
O O9 0.000000 0.000000 0.500000
O O10 0.063553 0.108202 0.227238
O O11 0.592305 0.837178 0.294824
O O12 0.259768 0.726785 0.271728
O O13 0.086357 0.320472 0.891068
O O14 0.967655 0.141294 0.716845
O O15 0.652202 0.994121 0.776163
O O16 0.500000 0.000000 0.000000
O O17 0.000000 0.000000 0.000000
O O18 0.000000 0.500000 0.000000
#
# Coordination Sequence:
#
# PCOD8010153 Si02
#       8
#     2   2   2   2   2   2   2   2
#     4  11  23  40  70  96 136 176 229 282 343 418
#     4  10  22  40  67  97 131 181 217 281 350 413
#     4  12  25  46  69 104 140 185 237 280 353 417
#     4  10  22  41  66  96 140 170 225 280 356 400
#     4  11  22  43  66  97 133 173 228 281 343 415
#     4  11  25  44  72 103 141 186 233 294 341 419
#     4  11  25  43  71 102 137 189 231 286 349 411
#     4  10  21  37  66  98 124 176 223 273 338 409
#
# _framework density 24.212288000000001
#
# number of rings (size 3 to 8) (size 9 to 14) (size 15 to 20)
#    0.000    1.250    5.000    1.125    5.250    0.500 
#    2.250    0.625    0.000    0.000    0.000    0.000 
#    0.000    0.000    0.000    0.000    0.000    0.000 
#
# Total GULP energy -198272.687955 kJ/mol
# GULP energy per Si atom -12392.042997 kJ/mol
# Density = 2.415718 g / cm^3
# Si number density = 24.212288 Si / 1000 Ang^3
#
#
#
# Elastic Constant Matrix: (Units=GPa)
#
#
# Indices 1 2 3 4 5 6 
#
# 1 63.3498 3.2106 4.7892 7.1806 2.4069 3.2067
# 2 3.2106 55.4395 1.0887 -4.8281 0.7043 3.9808
# 3 4.7892 1.0887 146.1165 3.9120 13.2673 0.6179
# 4 7.1806 -4.8281 3.9120 45.3639 -0.2209 0.0264
# 5 2.4069 0.7043 13.2673 -0.2209 38.5613 -3.0636
# 6 3.2067 3.9808 0.6179 0.0264 -3.0636 14.4699
#
#
#
# Elastic Compliance Matrix: (Units=1/GPa)
#
#
# Indices 1 2 3 4 5 6 
#
# 1 0.016387 -0.000900 -0.000335 -0.002664 -0.001194 -0.003618
# 2 -0.000900 0.018649 -0.000087 0.002135 -0.000645 -0.005068
# 3 -0.000335 -0.000087 0.007099 -0.000580 -0.002481 -0.000729
# 4 -0.002664 0.002135 -0.000580 0.022745 0.000464 0.000085
# 5 -0.001194 -0.000645 -0.002481 0.000464 0.027379 0.006344
# 6 -0.003618 -0.005068 -0.000729 0.000085 0.006344 0.072679
#
#
# Mechanical properties :
#
#
# Convention : Reuss Voigt Hill
#
# Bulk Modulus (GPa) = 25.32119 31.45367 28.38743
# Shear Modulus (GPa) = 27.66303 36.73349 32.19826
#
# Velocity S-wave (km/s) = 3.38379 3.89928 3.65064
# Velocity P-wave (km/s) = 5.07419 5.76988 5.43318
#
# Compressibility (1/GPa) = 0.03949261
#
# Stress axis : x y z
#
# Youngs Moduli (GPa) = 61.02483 53.62086 140.85677
#
# Poissons Ratio (x) = 0.04823 0.04724
# Poissons Ratio (y) = 0.05489 0.01220
# Poissons Ratio (z) = 0.02047 0.00464
#
# Static dielectric constant tensor:
#      x y z
#    x 3.984880 0.290830 0.207640 
#    y 0.290830 3.898950 0.133470 
#    z 0.207640 0.133470 4.937650 
# 
# 
# High freq. dielectric constant tensor:
#      x y z
#    x 1.931130 0.002420 0.009500 
#    y 0.002420 1.969000 -0.006260 
#    z 0.009500 -0.006260 1.981520 
# 
# From -- ./inp_files/186101.got.cif
#   From: 2010.06.25/outbox.cif.g09.slc.cpg/sg2_94_cif.got.tgz:186101.got - 2010.06.27 13:26:56.
