data_PCOD8010305
_publ_section_title
;
Structure prediction by ZEFSAII (Michael W. Deem and Ramdas Pophale) SiO2 
 PCOD8010305
Probable space group: P -1
;
_chemical_formula_sum "Si O2"
_cell_formula_units_Z 16
_cell_length_a 15.669695
_cell_length_b 10.922195
_cell_length_c 9.293625
_cell_angle_alpha 108.550686
_cell_angle_beta 41.511655
_cell_angle_gamma 79.157486
_cell_volume 734.150061
_symmetry_space_group_name_H-M "P -1"
_symmetry_group_IT_number 2
_symmetry_cell_setting 'triclinic'
loop_
_space_group_symop_operation_xyz
x,y,z
-x,-y,-z
loop_
_atom_site_type_symbol
_atom_site_label
_atom_site_fract_x
_atom_site_fract_y
_atom_site_fract_z
Si Si1 0.178043 0.300877 0.701946
Si Si2 0.654228 0.793727 0.244138
Si Si3 0.087545 0.934154 0.164568
Si Si4 0.307455 0.466372 0.092212
Si Si5 0.281670 0.760231 0.133335
Si Si6 0.942650 0.772615 0.760002
Si Si7 0.067016 0.734093 0.902003
Si Si8 0.369367 0.348949 0.295957
O O1 0.297487 0.258752 0.671137
O O2 0.297822 0.252080 0.391146
O O3 0.000000 0.500000 0.000000
O O4 0.106061 0.202780 0.769800
O O5 0.500000 0.000000 0.500000
O O6 0.610190 0.685577 0.187664
O O7 0.817204 0.738219 0.928344
O O8 0.203222 0.783807 0.083112
O O9 0.155521 0.036481 0.112555
O O10 0.116428 0.839510 0.943300
O O11 0.878930 0.076412 0.509145
O O12 0.370024 0.570005 0.017508
O O13 0.367517 0.375051 0.137960
O O14 0.095883 0.615027 0.404377
O O15 0.433189 0.765155 0.940237
O O16 0.024699 0.774349 0.803007
O O17 0.239823 0.528015 0.619068
#
# Coordination Sequence:
#
# PCOD8010305 Si02
#       8
#     2   2   2   2   2   2   2   2
#     4   9  21  40  61  90 126 159 202 247 304 368
#     4  11  24  39  62  95 125 154 205 261 299 353
#     4  10  21  38  58  90 123 158 200 250 300 355
#     4  10  22  42  62  84 120 167 199 243 309 367
#     4  10  23  38  59  88 123 159 201 250 300 361
#     4   9  20  39  61  86 121 163 201 238 306 371
#     4   9  19  37  61  87 118 161 199 248 298 359
#     4  10  21  39  62  89 116 158 209 244 298 364
#
# _framework density 21.793907000000001
#
# number of rings (size 3 to 8) (size 9 to 14) (size 15 to 20)
#    0.000    2.250    0.000    1.875    5.250    3.500 
#    4.500    1.250    0.000    0.000    0.000    0.000 
#    0.000    0.000    0.000    0.000    0.000    0.000 
#
# Total GULP energy -198300.092745 kJ/mol
# GULP energy per Si atom -12393.755797 kJ/mol
# Density = 2.174430 g / cm^3
# Si number density = 21.793907 Si / 1000 Ang^3
#
#
#
# Elastic Constant Matrix: (Units=GPa)
#
#
# Indices 1 2 3 4 5 6 
#
# 1 64.0828 17.2105 15.6794 17.3053 3.5620 -11.9236
# 2 17.2105 93.0236 17.3692 -3.1307 -3.6089 -13.2223
# 3 15.6794 17.3692 32.8224 11.8162 -2.9471 -9.5083
# 4 17.3053 -3.1307 11.8162 29.7376 9.2287 -4.3761
# 5 3.5620 -3.6089 -2.9471 9.2287 31.2855 1.5732
# 6 -11.9236 -13.2223 -9.5083 -4.3761 1.5732 27.5626
#
#
#
# Elastic Compliance Matrix: (Units=1/GPa)
#
#
# Indices 1 2 3 4 5 6 
#
# 1 0.020922 -0.002915 -0.003324 -0.010378 -0.000215 0.004870
# 2 -0.002915 0.013349 -0.007097 0.006794 -0.000993 0.003830
# 3 -0.003324 -0.007097 0.045429 -0.018554 0.008942 0.007373
# 4 -0.010378 0.006794 -0.018554 0.052784 -0.015435 0.001631
# 5 -0.000215 -0.000993 0.008942 -0.015435 0.037373 -0.002069
# 6 0.004870 0.003830 0.007373 0.001631 -0.002069 0.043145
#
#
# Mechanical properties :
#
#
# Convention : Reuss Voigt Hill
#
# Bulk Modulus (GPa) = 18.85852 32.27188 25.56520
# Shear Modulus (GPa) = 19.42878 27.02846 23.22862
#
# Velocity S-wave (km/s) = 2.98900 3.52545 3.26825
# Velocity P-wave (km/s) = 4.53697 5.60460 5.09881
#
# Compressibility (1/GPa) = 0.05302643
#
# Stress axis : x y z
#
# Youngs Moduli (GPa) = 47.79731 74.91239 22.01251
#
# Poissons Ratio (x) = 0.21841 0.07317
# Poissons Ratio (y) = 0.13935 0.15622
# Poissons Ratio (z) = 0.15888 0.53165
#
# Static dielectric constant tensor:
#      x y z
#    x 3.608500 0.013080 -0.171520 
#    y 0.013080 4.194260 -0.170950 
#    z -0.171520 -0.170950 3.789530 
# 
# 
# High freq. dielectric constant tensor:
#      x y z
#    x 1.835310 -0.004530 -0.009520 
#    y -0.004530 1.868440 -0.005670 
#    z -0.009520 -0.005670 1.841340 
# 
# From -- ./inp_files/242684.got.cif
#   From: 2010.06.25/outbox.cif.g09.slc.cpg/sg2_122_cif.got.tgz:242684.got - 2010.06.27 13:26:56.
