data_PCOD8010111
_publ_section_title
;
Structure prediction by ZEFSAII (Michael W. Deem and Ramdas Pophale) SiO2 
 PCOD8010111
Probable space group: P -1
;
_chemical_formula_sum "Si O2"
_cell_formula_units_Z 16
_cell_length_a 11.139628
_cell_length_b 11.379794
_cell_length_c 11.389039
_cell_angle_alpha 139.447545
_cell_angle_beta 130.526649
_cell_angle_gamma 58.153557
_cell_volume 711.785669
_symmetry_space_group_name_H-M "P -1"
_symmetry_group_IT_number 2
_symmetry_cell_setting 'triclinic'
loop_
_space_group_symop_operation_xyz
x,y,z
-x,-y,-z
loop_
_atom_site_type_symbol
_atom_site_label
_atom_site_fract_x
_atom_site_fract_y
_atom_site_fract_z
Si Si1 0.082994 0.044829 0.204668
Si Si2 0.580102 0.737999 0.252317
Si Si3 0.661507 0.140625 0.626462
Si Si4 0.213403 0.954909 0.830599
Si Si5 0.316497 0.723019 0.506662
Si Si6 0.820935 0.581362 0.440880
Si Si7 0.352720 0.326252 0.210610
Si Si8 0.566433 0.327719 0.133394
O O1 0.182556 0.213746 0.358273
O O2 0.953532 0.093910 0.259625
O O3 0.201254 0.883076 0.205443
O O4 0.000000 0.000000 0.000000
O O5 0.477985 0.732867 0.304808
O O6 0.743002 0.612024 0.283381
O O7 0.608758 0.946160 0.402041
O O8 0.488847 0.654798 0.022837
O O9 0.725014 0.234547 0.622607
O O10 0.219981 0.867622 0.638470
O O11 0.358626 0.873496 0.941538
O O12 0.228190 0.171985 0.002844
O O13 0.268163 0.517304 0.347182
O O14 0.503830 0.736828 0.659094
O O15 0.707614 0.459104 0.350517
O O16 0.000000 0.500000 0.500000
O O17 0.419531 0.372698 0.159429
#
# Coordination Sequence:
#
# PCOD8010111 Si02
#       8
#     2   2   2   2   2   2   2   2
#     4  11  25  43  64  92 134 174 215 270 332 400
#     4  10  21  37  65  97 129 170 217 277 323 391
#     4  10  21  39  63  94 129 172 224 267 329 385
#     4  11  22  40  64  92 131 174 218 266 331 387
#     4  10  21  39  61  90 126 164 221 276 315 386
#     4  11  23  40  61  98 134 169 210 263 341 396
#     4  10  22  38  65  96 124 170 225 269 323 387
#     4  11  20  39  67  96 131 169 223 273 326 390
#
# _framework density 22.478676
#
# number of rings (size 3 to 8) (size 9 to 14) (size 15 to 20)
#    0.000    1.500    1.250    4.875    0.000    5.500 
#    0.000    0.625    0.000    0.000    0.000    0.000 
#    0.000    0.000    0.000    0.000    0.000    0.000 
#
# Total GULP energy -198331.839146 kJ/mol
# GULP energy per Si atom -12395.739947 kJ/mol
# Density = 2.242751 g / cm^3
# Si number density = 22.478676 Si / 1000 Ang^3
#
#
#
# Elastic Constant Matrix: (Units=GPa)
#
#
# Indices 1 2 3 4 5 6 
#
# 1 76.1329 33.2676 39.5605 -5.9610 -0.8500 5.4888
# 2 33.2676 108.5536 52.8981 -16.5672 -9.1835 2.1845
# 3 39.5605 52.8981 123.9634 1.8355 6.0780 10.2245
# 4 -5.9610 -16.5672 1.8355 48.0896 7.6992 1.6428
# 5 -0.8500 -9.1835 6.0780 7.6992 25.2741 0.3250
# 6 5.4888 2.1845 10.2245 1.6428 0.3250 33.9135
#
#
#
# Elastic Compliance Matrix: (Units=1/GPa)
#
#
# Indices 1 2 3 4 5 6 
#
# 1 0.016688 -0.002954 -0.003974 0.001236 0.000085 -0.001373
# 2 -0.002954 0.013648 -0.005259 0.003706 0.004983 0.000957
# 3 -0.003974 -0.005259 0.012026 -0.001990 -0.004298 -0.002506
# 4 0.001236 0.003706 -0.001990 0.023160 -0.005177 -0.000911
# 5 0.000085 0.004983 -0.004298 -0.005177 0.043980 0.000791
# 6 -0.001373 0.000957 -0.002506 -0.000911 0.000791 0.030440
#
#
# Mechanical properties :
#
#
# Convention : Reuss Voigt Hill
#
# Bulk Modulus (GPa) = 55.59624 62.23357 58.91490
# Shear Modulus (GPa) = 29.35765 33.65033 31.50399
#
# Velocity S-wave (km/s) = 3.61781 3.87329 3.74773
# Velocity P-wave (km/s) = 6.49908 6.91006 6.70772
#
# Compressibility (1/GPa) = 0.01798683
#
# Stress axis : x y z
#
# Youngs Moduli (GPa) = 59.92504 73.26984 83.15030
#
# Poissons Ratio (x) = 0.21645 0.33045
# Poissons Ratio (y) = 0.17702 0.43732
# Poissons Ratio (z) = 0.23815 0.38536
#
# Static dielectric constant tensor:
#      x y z
#    x 4.065340 0.005240 0.186360 
#    y 0.005240 4.213730 0.101810 
#    z 0.186360 0.101810 4.143920 
# 
# 
# High freq. dielectric constant tensor:
#      x y z
#    x 1.858970 0.010540 -0.000030 
#    y 0.010540 1.897640 0.010950 
#    z -0.000030 0.010950 1.884990 
# 
# From -- ./inp_files/429130.got.cif
#   From: 2010.06.25/outbox.cif.g09.slc.cpg/sg2_215_cif.got.tgz:429130.got - 2010.06.27 13:26:56.
