data_PCOD8010597
_publ_section_title
;
Structure prediction by ZEFSAII (Michael W. Deem and Ramdas Pophale) SiO2 
 PCOD8010597
Probable space group: P -1
;
_chemical_formula_sum "Si O2"
_cell_formula_units_Z 16
_cell_length_a 9.503233
_cell_length_b 14.703567
_cell_length_c 8.976012
_cell_angle_alpha 61.211614
_cell_angle_beta 107.071492
_cell_angle_gamma 63.182699
_cell_volume 742.871072
_symmetry_space_group_name_H-M "P -1"
_symmetry_group_IT_number 2
_symmetry_cell_setting 'triclinic'
loop_
_space_group_symop_operation_xyz
x,y,z
-x,-y,-z
loop_
_atom_site_type_symbol
_atom_site_label
_atom_site_fract_x
_atom_site_fract_y
_atom_site_fract_z
Si Si1 0.005664 0.370445 0.958597
Si Si2 0.066130 0.367265 0.328348
Si Si3 0.935340 0.132758 0.290105
Si Si4 0.183902 0.701660 0.603496
Si Si5 0.456078 0.450383 0.384396
Si Si6 0.107651 0.984891 0.894423
Si Si7 0.297109 0.058067 0.316176
Si Si8 0.476018 0.823409 0.320245
O O1 0.008010 0.477422 0.785009
O O2 0.784165 0.421762 0.840707
O O3 0.072069 0.352293 0.164809
O O4 0.180831 0.207879 0.068268
O O5 0.297984 0.236422 0.571152
O O6 0.915547 0.363521 0.369524
O O7 0.774496 0.276606 0.232104
O O8 0.850790 0.137592 0.099700
O O9 0.138103 0.104233 0.360446
O O10 0.000000 0.000000 0.500000
O O11 0.402824 0.581484 0.683684
O O12 0.027487 0.857641 0.347184
O O13 0.500000 0.500000 0.500000
O O14 0.510933 0.305284 0.550726
O O15 0.338734 0.914281 0.058462
O O16 0.000000 0.000000 0.000000
O O17 0.500000 0.000000 0.500000
O O18 0.346215 0.933846 0.331010
#
# Coordination Sequence:
#
# PCOD8010597 Si02
#       8
#     2   2   2   2   2   2   2   2
#     4  10  23  42  66  93 137 180 226 263 344 406
#     4  10  22  44  64  96 138 177 222 280 326 406
#     4  10  21  38  62 101 137 160 219 286 326 385
#     4  11  22  43  68  99 134 171 231 283 326 396
#     4  11  26  43  69  96 134 184 223 275 341 411
#     4  11  21  37  70 101 137 176 220 279 339 391
#     4  12  21  39  71  98 129 176 222 268 332 397
#     4  11  22  41  68  99 132 179 224 268 336 407
#
# _framework density 21.538057999999999
#
# number of rings (size 3 to 8) (size 9 to 14) (size 15 to 20)
#    0.000    1.250    5.000    0.750    3.500    1.000 
#    0.000    2.500    2.750    0.000    0.000    0.000 
#    0.000    0.000    0.000    0.000    0.000    0.000 
#
# Total GULP energy -198338.894867 kJ/mol
# GULP energy per Si atom -12396.180929 kJ/mol
# Density = 2.148904 g / cm^3
# Si number density = 21.538058 Si / 1000 Ang^3
#
#
#
# Elastic Constant Matrix: (Units=GPa)
#
#
# Indices 1 2 3 4 5 6 
#
# 1 123.7897 56.7977 44.6715 1.7074 10.1699 9.0477
# 2 56.7977 152.1987 42.4744 1.6753 11.7302 6.3455
# 3 44.6715 42.4744 105.9931 -4.5312 27.3647 6.2274
# 4 1.7074 1.6753 -4.5312 40.0678 5.4590 0.1068
# 5 10.1699 11.7302 27.3647 5.4590 42.8428 1.3955
# 6 9.0477 6.3455 6.2274 0.1068 1.3955 26.9605
#
#
#
# Elastic Compliance Matrix: (Units=1/GPa)
#
#
# Indices 1 2 3 4 5 6 
#
# 1 0.010819 -0.003035 -0.003409 -0.000797 0.000612 -0.002158
# 2 -0.003035 0.008296 -0.001979 -0.000410 -0.000220 -0.000464
# 3 -0.003409 -0.001979 0.013882 0.002870 -0.007842 -0.001202
# 4 -0.000797 -0.000410 0.002870 0.025993 -0.004838 -0.000151
# 5 0.000612 -0.000220 -0.007842 -0.004838 0.028876 0.000182
# 6 -0.002158 -0.000464 -0.001202 -0.000151 0.000182 0.038193
#
#
# Mechanical properties :
#
#
# Convention : Reuss Voigt Hill
#
# Bulk Modulus (GPa) = 61.91131 74.42987 68.17059
# Shear Modulus (GPa) = 33.71792 37.84340 35.78066
#
# Velocity S-wave (km/s) = 3.96094 4.19626 4.08030
# Velocity P-wave (km/s) = 7.05168 7.62303 7.34291
#
# Compressibility (1/GPa) = 0.01615214
#
# Stress axis : x y z
#
# Youngs Moduli (GPa) = 92.42824 120.54169 72.03346
#
# Poissons Ratio (x) = 0.36579 0.24557
# Poissons Ratio (y) = 0.28048 0.14256
# Poissons Ratio (z) = 0.31510 0.23856
#
# Static dielectric constant tensor:
#      x y z
#    x 3.968530 0.318640 0.225710 
#    y 0.318640 4.451550 0.129190 
#    z 0.225710 0.129190 4.288130 
# 
# 
# High freq. dielectric constant tensor:
#      x y z
#    x 1.845360 0.024110 0.007890 
#    y 0.024110 1.849320 -0.011460 
#    z 0.007890 -0.011460 1.843500 
# 
# From -- ./inp_files/205976.got.cif
#   From: 2010.06.25/outbox.cif.g09.slc.cpg/sg2_103_cif.got.tgz:205976.got - 2010.06.27 13:26:56.
