data_PCOD8010345
_publ_section_title
;
Structure prediction by ZEFSAII (Michael W. Deem and Ramdas Pophale) SiO2 
 PCOD8010345
Probable space group: P -1
;
_chemical_formula_sum "Si O2"
_cell_formula_units_Z 14
_cell_length_a 6.535774
_cell_length_b 20.395637
_cell_length_c 9.575335
_cell_angle_alpha 52.443711
_cell_angle_beta 48.703299
_cell_angle_gamma 42.446606
_cell_volume 628.020161
_symmetry_space_group_name_H-M "P -1"
_symmetry_group_IT_number 2
_symmetry_cell_setting 'triclinic'
loop_
_space_group_symop_operation_xyz
x,y,z
-x,-y,-z
loop_
_atom_site_type_symbol
_atom_site_label
_atom_site_fract_x
_atom_site_fract_y
_atom_site_fract_z
Si Si1 0.847913 0.039579 0.365935
Si Si2 0.788697 0.927037 0.313164
Si Si3 0.774573 0.638413 0.799178
Si Si4 0.885692 0.288005 0.641921
Si Si5 0.659663 0.918570 0.915419
Si Si6 0.055540 0.703855 0.076747
Si Si7 0.861458 0.587564 0.143124
O O1 0.455975 0.093147 0.466432
O O2 0.959087 0.114433 0.197295
O O3 0.995357 0.950668 0.295954
O O4 0.000000 0.000000 0.500000
O O5 0.032219 0.825010 0.252277
O O6 0.557467 0.027292 0.194562
O O7 0.382774 0.694842 0.888954
O O8 0.900154 0.699527 0.585493
O O9 0.957126 0.530731 0.784316
O O10 0.860820 0.628756 0.936660
O O11 0.498909 0.365122 0.689502
O O12 0.965159 0.307870 0.733720
O O13 0.718182 0.810878 0.046622
O O14 0.500000 0.000000 0.000000
O O15 0.060469 0.613790 0.120772
#
# Coordination Sequence:
#
# PCOD8010345 Si02
#       7
#     2   2   2   2   2   2   2
#     4   9  21  37  57  82 118 161 210 250 304 361
#     4  10  21  38  59  86 122 165 204 254 306 369
#     4  10  23  45  65  91 129 163 207 268 320 377
#     4  11  23  39  66  95 124 163 212 258 318 379
#     4  11  22  37  56  86 126 160 202 252 300 367
#     4  11  24  41  64  95 125 168 213 256 317 378
#     4  10  24  42  66  95 125 161 212 264 321 378
#
# _framework density 22.292279000000001
#
# number of rings (size 3 to 8) (size 9 to 14) (size 15 to 20)
#    0.000    1.714    1.429    1.714    2.000    8.000 
#    0.000    0.000    0.000    0.000    0.000    0.000 
#    0.000    0.000    0.000    0.000    0.000    0.000 
#
# Total GULP energy -173454.929125 kJ/mol
# GULP energy per Si atom -12389.637795 kJ/mol
# Density = 2.224154 g / cm^3
# Si number density = 22.292279 Si / 1000 Ang^3
#
#
#
# Elastic Constant Matrix: (Units=GPa)
#
#
# Indices 1 2 3 4 5 6 
#
# 1 108.4741 34.3012 20.8557 -0.9860 19.7516 24.6313
# 2 34.3012 101.8944 4.0218 -3.2881 12.4155 0.5297
# 3 20.8557 4.0218 78.9658 2.5754 2.8893 -5.1764
# 4 -0.9860 -3.2881 2.5754 27.3029 4.1423 5.0339
# 5 19.7516 12.4155 2.8893 4.1423 17.1934 5.5699
# 6 24.6313 0.5297 -5.1764 5.0339 5.5699 35.8006
#
#
#
# Elastic Compliance Matrix: (Units=1/GPa)
#
#
# Indices 1 2 3 4 5 6 
#
# 1 0.015762 -0.003392 -0.004325 0.004352 -0.012723 -0.010052
# 2 -0.003392 0.011697 0.000663 0.001588 -0.006005 0.002968
# 3 -0.004325 0.000663 0.014158 -0.002529 0.001033 0.005208
# 4 0.004352 0.001588 -0.002529 0.040512 -0.013206 -0.007025
# 5 -0.012723 -0.006005 0.001033 -0.013206 0.080673 -0.001703
# 6 -0.010052 0.002968 0.005208 -0.007025 -0.001703 0.036810
#
#
# Mechanical properties :
#
#
# Convention : Reuss Voigt Hill
#
# Bulk Modulus (GPa) = 36.35384 45.29908 40.82646
# Shear Modulus (GPa) = 22.43230 31.40306 26.91768
#
# Velocity S-wave (km/s) = 3.17563 3.75733 3.47866
# Velocity P-wave (km/s) = 5.45797 6.26004 5.87271
#
# Compressibility (1/GPa) = 0.02750741
#
# Stress axis : x y z
#
# Youngs Moduli (GPa) = 63.44434 85.48907 70.62924
#
# Poissons Ratio (x) = 0.29001 0.30550
# Poissons Ratio (y) = 0.21522 -0.04680
# Poissons Ratio (z) = 0.27443 -0.05665
#
# Static dielectric constant tensor:
#      x y z
#    x -3.305030 0.230280 1.738310 
#    y 0.230280 4.054940 0.144640 
#    z 1.738310 0.144640 3.283520 
# 
# 
# High freq. dielectric constant tensor:
#      x y z
#    x 1.879580 0.007440 -0.006810 
#    y 0.007440 1.887420 0.013590 
#    z -0.006810 0.013590 1.870700 
# 
# From -- ./inp_files/134453.got.cif
#   From: 2010.06.25/outbox.cif.g09.slc.cpg/sg2_68_cif.got.tgz:134453.got - 2010.06.27 13:26:56.
