data_PCOD8010848
_publ_section_title
;
Structure prediction by ZEFSAII (Michael W. Deem and Ramdas Pophale) SiO2 
 PCOD8010848
Probable space group: P -1
;
_chemical_formula_sum "Si O2"
_cell_formula_units_Z 12
_cell_length_a 14.107001
_cell_length_b 5.161854
_cell_length_c 13.803973
_cell_angle_alpha 109.259872
_cell_angle_beta 30.819047
_cell_angle_gamma 108.078182
_cell_volume 485.400203
_symmetry_space_group_name_H-M "P -1"
_symmetry_group_IT_number 2
_symmetry_cell_setting 'triclinic'
loop_
_space_group_symop_operation_xyz
x,y,z
-x,-y,-z
loop_
_atom_site_type_symbol
_atom_site_label
_atom_site_fract_x
_atom_site_fract_y
_atom_site_fract_z
Si Si1 0.735179 0.612310 0.590995
Si Si2 0.267848 0.296755 0.096783
Si Si3 0.982738 0.178284 0.773999
Si Si4 0.346834 0.471179 0.842333
Si Si5 0.329881 0.790533 0.225985
Si Si6 0.108790 0.227201 0.870042
O O1 0.916759 0.607868 0.363090
O O2 0.556919 0.596730 0.674465
O O3 0.729343 0.361400 0.639968
O O4 0.742537 0.904851 0.676618
O O5 0.237014 0.610415 0.197065
O O6 0.310793 0.277284 0.942956
O O7 0.447253 0.191843 0.983380
O O8 0.081655 0.107279 0.258575
O O9 0.125384 0.125426 0.731454
O O10 0.795700 0.288697 0.995872
O O11 0.308297 0.295737 0.755597
O O12 0.000000 0.500000 0.000000
O O13 0.000000 0.000000 0.000000
#
# Coordination Sequence:
#
# PCOD8010848 Si02
#       6
#     2   2   2   2   2   2
#     4  11  25  40  62  92 127 155 206 248 302 358
#     4  10  21  39  68  82 126 164 204 244 310 352
#     4  11  23  39  65  91 120 163 203 249 304 361
#     4  10  22  42  63  88 126 160 199 254 304 354
#     4  10  24  41  60  94 121 163 204 250 296 364
#     4  10  21  38  64  91 117 156 205 244 300 362
#
# _framework density 24.721868000000001
#
# number of rings (size 3 to 8) (size 9 to 14) (size 15 to 20)
#    0.000    1.667    3.333    0.000    4.667    4.000 
#    0.000    0.000    0.000    7.000    0.000    0.000 
#    0.000    0.000    0.000    0.000    0.000    0.000 
#
# Total GULP energy -148768.597873 kJ/mol
# GULP energy per Si atom -12397.383156 kJ/mol
# Density = 2.466560 g / cm^3
# Si number density = 24.721868 Si / 1000 Ang^3
#
#
#
# Elastic Constant Matrix: (Units=GPa)
#
#
# Indices 1 2 3 4 5 6 
#
# 1 87.5550 16.8150 17.4151 -16.3778 0.9168 33.6928
# 2 16.8150 97.5954 20.3294 -20.6197 -5.2418 19.8351
# 3 17.4151 20.3294 56.0527 -29.9011 5.1769 16.0885
# 4 -16.3778 -20.6197 -29.9011 36.2191 -4.5545 -5.8248
# 5 0.9168 -5.2418 5.1769 -4.5545 21.8843 -5.2561
# 6 33.6928 19.8351 16.0885 -5.8248 -5.2561 52.8801
#
#
#
# Elastic Compliance Matrix: (Units=1/GPa)
#
#
# Indices 1 2 3 4 5 6 
#
# 1 0.016419 0.000339 0.001817 0.007158 -0.002083 -0.010560
# 2 0.000339 0.012683 -0.000185 0.007071 0.003632 -0.003777
# 3 0.001817 -0.000185 0.035219 0.027689 -0.004909 -0.009242
# 4 0.007158 0.007071 0.027689 0.056866 0.004536 -0.008922
# 5 -0.002083 0.003632 -0.004909 0.004536 0.050431 0.006971
# 6 -0.010560 -0.003777 -0.009242 -0.008922 0.006971 0.029578
#
#
# Mechanical properties :
#
#
# Convention : Reuss Voigt Hill
#
# Bulk Modulus (GPa) = 14.64871 38.92467 26.78669
# Shear Modulus (GPa) = 22.72642 34.63963 28.68302
#
# Velocity S-wave (km/s) = 3.03526 3.74729 3.40991
# Velocity P-wave (km/s) = 4.26872 5.87385 5.13440
#
# Compressibility (1/GPa) = 0.06826539
#
# Stress axis : x y z
#
# Youngs Moduli (GPa) = 60.90381 78.84534 28.39364
#
# Poissons Ratio (x) = -0.02674 -0.05160
# Poissons Ratio (y) = -0.02066 0.00524
# Poissons Ratio (z) = -0.11069 0.01456
#
# Static dielectric constant tensor:
#      x y z
#    x 5.050870 0.551750 0.024110 
#    y 0.551750 4.538520 -0.173180 
#    z 0.024110 -0.173180 4.009380 
# 
# 
# High freq. dielectric constant tensor:
#      x y z
#    x 1.998870 0.011670 -0.002350 
#    y 0.011670 1.992110 -0.018450 
#    z -0.002350 -0.018450 1.938400 
# 
# From -- ./inp_files/22105.got.cif
#   From: 2010.06.25/outbox.cif.g09.slc.cpg/sg2_12_cif.got.tgz:22105.got - 2010.06.27 13:26:56.
