data_PCOD8010949
_publ_section_title
;
Structure prediction by ZEFSAII (Michael W. Deem and Ramdas Pophale) SiO2 
 PCOD8010949
Probable space group: P -1
;
_chemical_formula_sum "Si O2"
_cell_formula_units_Z 14
_cell_length_a 7.333061
_cell_length_b 16.342898
_cell_length_c 11.752844
_cell_angle_alpha 142.723426
_cell_angle_beta 79.907787
_cell_angle_gamma 124.107288
_cell_volume 594.353523
_symmetry_space_group_name_H-M "P -1"
_symmetry_group_IT_number 2
_symmetry_cell_setting 'triclinic'
loop_
_space_group_symop_operation_xyz
x,y,z
-x,-y,-z
loop_
_atom_site_type_symbol
_atom_site_label
_atom_site_fract_x
_atom_site_fract_y
_atom_site_fract_z
Si Si1 0.617118 0.920778 0.998400
Si Si2 0.379222 0.779033 0.640249
Si Si3 0.414558 0.644019 0.085454
Si Si4 0.829173 0.841316 0.073623
Si Si5 0.975985 0.352310 0.163187
Si Si6 0.273399 0.094948 0.467723
Si Si7 0.080742 0.720554 0.165633
O O1 0.791334 0.908199 0.037928
O O2 0.743498 0.135686 0.229316
O O3 0.602602 0.864217 0.805931
O O4 0.324298 0.778363 0.920862
O O5 0.150550 0.552374 0.429832
O O6 0.500090 0.838789 0.567845
O O7 0.555043 0.679377 0.990985
O O8 0.617731 0.733785 0.269294
O O9 0.317529 0.749594 0.216553
O O10 0.168153 0.416414 0.873792
O O11 0.941007 0.755065 0.926246
O O12 0.029619 0.021737 0.337228
O O13 0.019317 0.390310 0.066090
O O14 0.176510 0.922502 0.367326
#
# Coordination Sequence:
#
# PCOD8010949 Si02
#       7
#     2   2   2   2   2   2   2
#     4  11  24  47  66  95 130 168 219 265 317 386
#     4  11  23  44  71  91 131 173 209 270 324 370
#     4  11  21  40  64  93 127 173 210 262 317 380
#     4  11  24  43  67  95 135 167 213 266 320 379
#     4  11  22  45  64  97 132 164 216 269 315 382
#     4  11  22  40  61  96 129 169 212 263 314 386
#     4  10  21  38  65  90 131 167 215 259 317 376
#
# _framework density 23.555004
#
# number of rings (size 3 to 8) (size 9 to 14) (size 15 to 20)
#    0.000    1.143    5.714    1.286    0.000    3.429 
#    5.143    0.000    0.000    0.000    0.000    0.000 
#    0.000    0.000    0.000    0.000    0.000    0.000 
#
# Total GULP energy -173619.982347 kJ/mol
# GULP energy per Si atom -12401.427310 kJ/mol
# Density = 2.350139 g / cm^3
# Si number density = 23.555004 Si / 1000 Ang^3
#
#
#
# Elastic Constant Matrix: (Units=GPa)
#
#
# Indices 1 2 3 4 5 6 
#
# 1 98.0610 6.6065 23.0404 9.2399 17.8237 -30.8548
# 2 6.6065 39.8154 -1.8341 -5.0234 2.1342 -17.7149
# 3 23.0404 -1.8341 86.4386 4.6428 6.5302 -10.2777
# 4 9.2399 -5.0234 4.6428 28.8681 3.7333 6.5316
# 5 17.8237 2.1342 6.5302 3.7333 15.6378 -6.9262
# 6 -30.8548 -17.7149 -10.2777 6.5316 -6.9262 39.0351
#
#
#
# Elastic Compliance Matrix: (Units=1/GPa)
#
#
# Indices 1 2 3 4 5 6 
#
# 1 0.017475 0.002921 -0.001728 -0.006325 -0.012060 0.013602
# 2 0.002921 0.032569 0.002021 0.000630 -0.001097 0.017322
# 3 -0.001728 0.002021 0.012633 -0.001497 -0.001996 0.002774
# 4 -0.006325 0.000630 -0.001497 0.041081 -0.007995 -0.013400
# 5 -0.012060 -0.001097 -0.001996 -0.007995 0.083027 0.005514
# 6 0.013602 0.017322 0.002774 -0.013400 0.005514 0.048181
#
#
# Mechanical properties :
#
#
# Convention : Reuss Voigt Hill
#
# Bulk Modulus (GPa) = 14.47052 31.10451 22.78752
# Shear Modulus (GPa) = 19.87494 29.80835 24.84164
#
# Velocity S-wave (km/s) = 2.90792 3.56122 3.25102
# Velocity P-wave (km/s) = 4.17508 5.49030 4.87723
#
# Compressibility (1/GPa) = 0.06910601
#
# Stress axis : x y z
#
# Youngs Moduli (GPa) = 57.22563 30.70363 79.15545
#
# Poissons Ratio (x) = -0.08969 0.13677
# Poissons Ratio (y) = -0.16716 -0.15998
# Poissons Ratio (z) = 0.09888 -0.06205
#
# Static dielectric constant tensor:
#      x y z
#    x 4.136590 -0.100590 0.188620 
#    y -0.100590 4.387770 -0.041340 
#    z 0.188620 -0.041340 4.110310 
# 
# 
# High freq. dielectric constant tensor:
#      x y z
#    x 1.919970 0.001600 0.009610 
#    y 0.001600 1.948200 0.004110 
#    z 0.009610 0.004110 1.921060 
# 
# From -- ./inp_files/403368.got.cif
#   From: 2010.06.25/outbox.cif.g09.slc.cpg/sg2_202_cif.got.tgz:403368.got - 2010.06.27 13:26:56.
