data_PCOD8010143
_publ_section_title
;
Structure prediction by ZEFSAII (Michael W. Deem and Ramdas Pophale) SiO2 
 PCOD8010143
Probable space group: P -1
;
_chemical_formula_sum "Si O2"
_cell_formula_units_Z 14
_cell_length_a 12.013451
_cell_length_b 18.039161
_cell_length_c 5.145882
_cell_angle_alpha 67.816560
_cell_angle_beta 97.884929
_cell_angle_gamma 139.932828
_cell_volume 642.780760
_symmetry_space_group_name_H-M "P -1"
_symmetry_group_IT_number 2
_symmetry_cell_setting 'triclinic'
loop_
_space_group_symop_operation_xyz
x,y,z
-x,-y,-z
loop_
_atom_site_type_symbol
_atom_site_label
_atom_site_fract_x
_atom_site_fract_y
_atom_site_fract_z
Si Si1 0.619645 0.066952 0.201632
Si Si2 0.558604 0.602697 0.572817
Si Si3 0.962196 0.161616 0.214675
Si Si4 0.114194 0.473970 0.294616
Si Si5 0.886914 0.350849 0.869185
Si Si6 0.262540 0.436222 0.061040
Si Si7 0.079073 0.131144 0.793194
O O1 0.752361 0.064514 0.250363
O O2 0.500000 0.000000 0.500000
O O3 0.717492 0.205388 0.072308
O O4 0.500000 0.000000 0.000000
O O5 0.500000 0.500000 0.500000
O O6 0.666759 0.615196 0.815265
O O7 0.701063 0.746811 0.315832
O O8 0.383436 0.546312 0.729240
O O9 0.056464 0.302161 0.091677
O O10 0.991124 0.116261 0.521484
O O11 0.029099 0.161545 0.969492
O O12 0.973222 0.366072 0.606854
O O13 0.189242 0.600427 0.250804
O O14 0.268749 0.492513 0.258452
O O15 0.034777 0.436088 0.028351
O O16 0.000000 0.000000 0.000000
#
# Coordination Sequence:
#
# PCOD8010143 Si02
#       7
#     2   2   2   2   2   2   2
#     4  12  25  42  66  94 133 172 225 278 312 397
#     4  10  21  38  61  99 128 162 217 276 314 387
#     4  11  23  42  70  92 124 181 224 260 339 394
#     4  10  21  38  66  91 124 165 208 274 324 393
#     4  10  22  40  62  94 124 162 219 263 334 377
#     4  10  21  37  66  94 128 165 217 271 327 389
#     4  11  24  44  68  96 136 175 215 271 332 402
#
# _framework density 21.780367999999999
#
# number of rings (size 3 to 8) (size 9 to 14) (size 15 to 20)
#    0.000    1.429    2.857    2.143    6.000    0.000 
#    2.571    1.429    0.000    0.000    0.000    0.000 
#    0.000    0.000    0.000    0.000    0.000    0.000 
#
# Total GULP energy -173503.505013 kJ/mol
# GULP energy per Si atom -12393.107501 kJ/mol
# Density = 2.173079 g / cm^3
# Si number density = 21.780368 Si / 1000 Ang^3
#
#
#
# Elastic Constant Matrix: (Units=GPa)
#
#
# Indices 1 2 3 4 5 6 
#
# 1 86.7230 31.3315 58.5780 -14.9401 -29.5927 -9.2176
# 2 31.3315 87.8705 50.4129 -21.6576 -12.7607 0.0243
# 3 58.5780 50.4129 154.8531 -18.6645 -34.7107 -0.5569
# 4 -14.9401 -21.6576 -18.6645 51.1454 -3.7483 3.8929
# 5 -29.5927 -12.7607 -34.7107 -3.7483 46.8511 6.7296
# 6 -9.2176 0.0243 -0.5569 3.8929 6.7296 32.9184
#
#
#
# Elastic Compliance Matrix: (Units=1/GPa)
#
#
# Indices 1 2 3 4 5 6 
#
# 1 0.018819 -0.002349 -0.004152 0.003330 0.007981 0.003176
# 2 -0.002349 0.015463 -0.003392 0.004794 0.000808 -0.001459
# 3 -0.004152 -0.003392 0.010339 0.001617 0.004545 -0.002106
# 4 0.003330 0.004794 0.001617 0.023909 0.006994 -0.003301
# 5 0.007981 0.000808 0.004545 0.006994 0.031236 -0.004902
# 6 0.003176 -0.001459 -0.002106 -0.003301 -0.004902 0.032625
#
#
# Mechanical properties :
#
#
# Convention : Reuss Voigt Hill
#
# Bulk Modulus (GPa) = 40.26599 67.78793 54.02696
# Shear Modulus (GPa) = 31.16116 38.79125 34.97621
#
# Velocity S-wave (km/s) = 3.78656 4.22479 4.01166
# Velocity P-wave (km/s) = 6.13554 7.41549 6.80567
#
# Compressibility (1/GPa) = 0.02483486
#
# Stress axis : x y z
#
# Youngs Moduli (GPa) = 53.13788 64.66932 96.72278
#
# Poissons Ratio (x) = 0.15190 0.40163
# Poissons Ratio (y) = 0.12482 0.32806
# Poissons Ratio (z) = 0.22065 0.21934
#
# Static dielectric constant tensor:
#      x y z
#    x 4.430220 -0.202880 -0.143460 
#    y -0.202880 3.633910 -0.133870 
#    z -0.143460 -0.133870 4.195190 
# 
# 
# High freq. dielectric constant tensor:
#      x y z
#    x 1.856580 0.000420 -0.009190 
#    y 0.000420 1.844650 0.011720 
#    z -0.009190 0.011720 1.874860 
# 
# From -- ./inp_files/80358.got.cif
#   From: 2010.06.25/outbox.cif.g09.slc.cpg/sg2_41_cif.got.tgz:80358.got - 2010.06.27 13:26:56.
