data_PCOD8010701
_publ_section_title
;
Structure prediction by ZEFSAII (Michael W. Deem and Ramdas Pophale) SiO2 
 PCOD8010701
Probable space group: P -1
;
_chemical_formula_sum "Si O2"
_cell_formula_units_Z 16
_cell_length_a 15.259119
_cell_length_b 8.672800
_cell_length_c 8.624506
_cell_angle_alpha 68.689032
_cell_angle_beta 54.916891
_cell_angle_gamma 103.607606
_cell_volume 707.204549
_symmetry_space_group_name_H-M "P -1"
_symmetry_group_IT_number 2
_symmetry_cell_setting 'triclinic'
loop_
_space_group_symop_operation_xyz
x,y,z
-x,-y,-z
loop_
_atom_site_type_symbol
_atom_site_label
_atom_site_fract_x
_atom_site_fract_y
_atom_site_fract_z
Si Si1 0.409752 0.840483 0.966897
Si Si2 0.038778 0.533209 0.769795
Si Si3 0.174886 0.454030 0.181218
Si Si4 0.791461 0.877449 0.213927
Si Si5 0.056118 0.212618 0.695134
Si Si6 0.434723 0.104956 0.601722
Si Si7 0.316189 0.825382 0.399676
Si Si8 0.684837 0.492378 0.273742
O O1 0.397366 0.018076 0.848931
O O2 0.568806 0.940022 0.751193
O O3 0.316444 0.642047 0.030721
O O4 0.369157 0.785174 0.205140
O O5 0.082510 0.390055 0.719674
O O6 0.170333 0.769223 0.534513
O O7 0.923055 0.485790 0.789996
O O8 0.000000 0.500000 0.000000
O O9 0.100042 0.280355 0.449480
O O10 0.208295 0.381920 0.018472
O O11 0.860673 0.870607 0.300129
O O12 0.699721 0.953209 0.323599
O O13 0.696184 0.654852 0.318416
O O14 0.901707 0.031114 0.921353
O O15 0.536626 0.349701 0.409075
O O16 0.500000 0.000000 0.500000
O O17 0.289680 0.662251 0.615965
#
# Coordination Sequence:
#
# PCOD8010701 Si02
#       8
#     2   2   2   2   2   2   2   2
#     4  10  21  38  64  97 128 170 216 282 325 389
#     4  12  22  39  65 103 135 174 221 282 335 394
#     4  12  22  39  71  98 136 170 234 278 329 396
#     4  11  24  45  64  93 139 178 218 270 343 403
#     4  11  25  41  67  94 134 184 220 273 338 405
#     4  11  23  40  71  99 126 171 227 276 328 398
#     4  10  21  38  62  95 136 170 218 272 339 390
#     4  11  22  43  66  96 134 177 216 275 340 397
#
# _framework density 22.624286999999999
#
# number of rings (size 3 to 8) (size 9 to 14) (size 15 to 20)
#    0.000    1.000    5.000    1.500    1.750    0.500 
#    0.000    0.625   11.000    0.000    0.000    0.000 
#    0.000    0.000    0.000    0.000    0.000    0.000 
#
# Total GULP energy -198240.200104 kJ/mol
# GULP energy per Si atom -12390.012506 kJ/mol
# Density = 2.257279 g / cm^3
# Si number density = 22.624287 Si / 1000 Ang^3
#
#
#
# Elastic Constant Matrix: (Units=GPa)
#
#
# Indices 1 2 3 4 5 6 
#
# 1 119.1725 34.9526 45.3631 -0.1114 -18.1418 0.7881
# 2 34.9526 45.6369 24.9035 -3.2718 -10.3993 0.7547
# 3 45.3631 24.9035 147.2225 4.2802 9.0372 1.7764
# 4 -0.1114 -3.2718 4.2802 34.4268 16.1920 -8.3144
# 5 -18.1418 -10.3993 9.0372 16.1920 44.4302 -3.2184
# 6 0.7881 0.7547 1.7764 -8.3144 -3.2184 30.0295
#
#
#
# Elastic Compliance Matrix: (Units=1/GPa)
#
#
# Indices 1 2 3 4 5 6 
#
# 1 0.012233 -0.006896 -0.002825 -0.002609 0.004893 -0.000179
# 2 -0.006896 0.030085 -0.003280 0.001250 0.004470 0.000444
# 3 -0.002825 -0.003280 0.008451 0.000240 -0.003777 -0.000682
# 4 -0.002609 0.001250 0.000240 0.037876 -0.013972 0.009012
# 5 0.004893 0.004470 -0.003777 -0.013972 0.031374 -0.000523
# 6 -0.000179 0.000444 -0.000682 0.009012 -0.000523 0.035774
#
#
# Mechanical properties :
#
#
# Convention : Reuss Voigt Hill
#
# Bulk Modulus (GPa) = 40.37921 58.05227 49.21574
# Shear Modulus (GPa) = 26.30890 35.56480 30.93685
#
# Velocity S-wave (km/s) = 3.41377 3.96911 3.70187
# Velocity P-wave (km/s) = 5.78143 6.83521 6.33029
#
# Compressibility (1/GPa) = 0.02476522
#
# Stress axis : x y z
#
# Youngs Moduli (GPa) = 81.74655 33.23959 118.33130
#
# Poissons Ratio (x) = 0.22924 0.33429
# Poissons Ratio (y) = 0.56376 0.38813
# Poissons Ratio (z) = 0.23094 0.10903
#
# Static dielectric constant tensor:
#      x y z
#    x 4.415780 0.331890 -0.206200 
#    y 0.331890 3.671820 -0.096130 
#    z -0.206200 -0.096130 4.588390 
# 
# 
# High freq. dielectric constant tensor:
#      x y z
#    x 1.897120 0.032660 -0.017090 
#    y 0.032660 1.850530 0.001410 
#    z -0.017090 0.001410 1.913810 
# 
# From -- ./inp_files/297612.got.cif
#   From: 2010.06.25/outbox.cif.g09.slc.cpg/sg2_149_cif.got.tgz:297612.got - 2010.06.27 13:26:56.
