data_PCOD8010662
_publ_section_title
;
Structure prediction by ZEFSAII (Michael W. Deem and Ramdas Pophale) SiO2 
 PCOD8010662
Probable space group: P -1
;
_chemical_formula_sum "Si O2"
_cell_formula_units_Z 16
_cell_length_a 12.253743
_cell_length_b 15.466566
_cell_length_c 15.642435
_cell_angle_alpha 24.854368
_cell_angle_beta 143.716168
_cell_angle_gamma 134.077459
_cell_volume 729.723200
_symmetry_space_group_name_H-M "P -1"
_symmetry_group_IT_number 2
_symmetry_cell_setting 'triclinic'
loop_
_space_group_symop_operation_xyz
x,y,z
-x,-y,-z
loop_
_atom_site_type_symbol
_atom_site_label
_atom_site_fract_x
_atom_site_fract_y
_atom_site_fract_z
Si Si1 0.618030 0.278800 0.777058
Si Si2 0.714100 0.626445 0.280102
Si Si3 0.535432 0.223164 0.499964
Si Si4 0.849569 0.594908 0.937216
Si Si5 0.846698 0.863522 0.998367
Si Si6 0.063056 0.595697 0.236860
Si Si7 0.583882 0.982645 0.227104
Si Si8 0.140410 0.771836 0.861350
O O1 0.500000 0.500000 0.500000
O O2 0.785431 0.263080 0.827355
O O3 0.486671 0.105690 0.826808
O O4 0.687521 0.258884 0.935547
O O5 0.667538 0.398666 0.432696
O O6 0.832939 0.697579 0.213298
O O7 0.841633 0.598796 0.471247
O O8 0.530774 0.791022 0.029437
O O9 0.356649 0.299920 0.258474
O O10 0.447142 0.185067 0.570623
O O11 0.651201 0.012556 0.724919
O O12 0.949836 0.771684 0.793436
O O13 0.836240 0.404773 0.036693
O O14 0.964930 0.506388 0.172901
O O15 0.904802 0.743252 0.056013
O O16 0.000000 0.000000 0.000000
O O17 0.808391 0.010278 0.342773
#
# Coordination Sequence:
#
# PCOD8010662 Si02
#       8
#     2   2   2   2   2   2   2   2
#     4  11  21  38  66  99 131 165 220 275 321 373
#     4  11  21  41  71  95 129 166 214 275 326 371
#     4  11  22  41  68  92 134 173 210 272 324 388
#     4  10  23  42  62  93 139 177 214 261 334 388
#     4  11  23  40  70 103 121 163 225 270 326 383
#     4  11  22  41  65  98 132 171 212 271 324 388
#     4  11  21  38  69 101 124 170 231 261 326 380
#     4  10  21  38  62  91 133 176 217 265 316 393
#
# _framework density 21.926120999999998
#
# number of rings (size 3 to 8) (size 9 to 14) (size 15 to 20)
#    0.000    1.250    3.750    3.000    0.000    1.000 
#    0.000    4.375    0.000    0.000    0.000    0.000 
#    0.000    0.000    0.000    0.000    0.000    0.000 
#
# Total GULP energy -198339.987450 kJ/mol
# GULP energy per Si atom -12396.249216 kJ/mol
# Density = 2.187622 g / cm^3
# Si number density = 21.926121 Si / 1000 Ang^3
#
#
#
# Elastic Constant Matrix: (Units=GPa)
#
#
# Indices 1 2 3 4 5 6 
#
# 1 117.6793 51.7947 14.1990 -4.3021 -11.2886 13.3177
# 2 51.7947 125.2635 14.0529 0.2284 -12.0886 14.3102
# 3 14.1990 14.0529 49.6414 -2.0027 -5.9293 10.3756
# 4 -4.3021 0.2284 -2.0027 31.1891 5.8397 0.1256
# 5 -11.2886 -12.0886 -5.9293 5.8397 34.5024 -5.2093
# 6 13.3177 14.3102 10.3756 0.1256 -5.2093 33.6655
#
#
#
# Elastic Compliance Matrix: (Units=1/GPa)
#
#
# Indices 1 2 3 4 5 6 
#
# 1 0.010803 -0.003957 -0.001342 0.001174 0.001422 -0.001962
# 2 -0.003957 0.010175 -0.001118 -0.001046 0.001936 -0.002112
# 3 -0.001342 -0.001118 0.022282 0.000900 0.002007 -0.005554
# 4 0.001174 -0.001046 0.000900 0.033357 -0.005670 -0.001299
# 5 0.001422 0.001936 0.002007 -0.005670 0.031877 0.002949
# 6 -0.001962 -0.002112 -0.005554 -0.001299 0.002949 0.033550
#
#
# Mechanical properties :
#
#
# Convention : Reuss Voigt Hill
#
# Bulk Modulus (GPa) = 32.86839 50.29746 41.58292
# Shear Modulus (GPa) = 30.29940 34.04058 32.16999
#
# Velocity S-wave (km/s) = 3.72141 3.94447 3.83456
# Velocity P-wave (km/s) = 5.78690 6.61320 6.21380
#
# Compressibility (1/GPa) = 0.03042437
#
# Stress axis : x y z
#
# Youngs Moduli (GPa) = 92.57020 98.28276 44.87967
#
# Poissons Ratio (x) = 0.38889 0.06025
# Poissons Ratio (y) = 0.36629 0.05018
# Poissons Ratio (z) = 0.12427 0.10989
#
# Static dielectric constant tensor:
#      x y z
#    x 4.651100 0.338690 -0.000120 
#    y 0.338690 4.276100 -0.029210 
#    z -0.000120 -0.029210 4.074380 
# 
# 
# High freq. dielectric constant tensor:
#      x y z
#    x 1.869360 0.016360 -0.004030 
#    y 0.016360 1.857160 0.005650 
#    z -0.004030 0.005650 1.859970 
# 
# From -- ./inp_files/521359.got.cif
#   From: 2010.06.25/outbox.cif.g09.slc.cpg/sg2_261_cif.got.tgz:521359.got - 2010.06.27 13:26:56.
