data_PCOD8010192
_publ_section_title
;
Structure prediction by ZEFSAII (Michael W. Deem and Ramdas Pophale) SiO2 
 PCOD8010192
Probable space group: P -1
;
_chemical_formula_sum "Si O2"
_cell_formula_units_Z 16
_cell_length_a 13.321251
_cell_length_b 7.616670
_cell_length_c 9.194952
_cell_angle_alpha 105.363106
_cell_angle_beta 89.753691
_cell_angle_gamma 52.171181
_cell_volume 693.310970
_symmetry_space_group_name_H-M "P -1"
_symmetry_group_IT_number 2
_symmetry_cell_setting 'triclinic'
loop_
_space_group_symop_operation_xyz
x,y,z
-x,-y,-z
loop_
_atom_site_type_symbol
_atom_site_label
_atom_site_fract_x
_atom_site_fract_y
_atom_site_fract_z
Si Si1 0.117142 0.499838 0.665189
Si Si2 0.390284 0.316292 0.678323
Si Si3 0.094350 0.522637 0.341764
Si Si4 0.475635 0.206568 0.953346
Si Si5 0.143845 0.083013 0.155505
Si Si6 0.254880 0.618008 0.211908
Si Si7 0.661303 0.209126 0.133668
Si Si8 0.523019 0.663145 0.609401
O O1 0.259488 0.347522 0.699280
O O2 0.124897 0.556530 0.510722
O O3 0.059141 0.359263 0.643087
O O4 0.014172 0.751741 0.805105
O O5 0.488067 0.140054 0.767365
O O6 0.356040 0.566063 0.764108
O O7 0.455877 0.215585 0.495342
O O8 0.127512 0.645281 0.256732
O O9 0.183194 0.242115 0.241730
O O10 0.328344 0.447227 0.035091
O O11 0.575180 0.255337 0.001569
O O12 0.500000 0.000000 0.000000
O O13 0.207312 0.873047 0.225960
O O14 0.191546 0.996313 0.968503
O O15 0.351829 0.500804 0.323333
O O16 0.606303 0.141589 0.249581
O O17 0.500000 0.500000 0.500000
#
# Coordination Sequence:
#
# PCOD8010192 Si02
#       8
#     2   2   2   2   2   2   2   2
#     4   9  21  41  64  95 133 175 217 281 329 393
#     4  11  20  42  67  93 134 173 219 278 329 391
#     4   9  20  42  61  93 138 171 224 267 331 394
#     4  11  24  40  65  96 130 179 221 267 342 400
#     4  10  21  37  68  96 130 181 219 263 337 398
#     4  11  20  40  65  93 130 178 223 267 334 401
#     4  10  21  40  63  95 131 171 216 271 331 396
#     4   9  21  35  63  93 131 167 215 279 320 389
#
# _framework density 23.077667999999999
#
# number of rings (size 3 to 8) (size 9 to 14) (size 15 to 20)
#    0.750    1.250    2.500    1.125    3.500    1.000 
#    0.000    8.125    0.000    0.000    0.000    0.000 
#    0.000    0.000    0.000    0.000    0.000    0.000 
#
# Total GULP energy -198215.866358 kJ/mol
# GULP energy per Si atom -12388.491647 kJ/mol
# Density = 2.302514 g / cm^3
# Si number density = 23.077668 Si / 1000 Ang^3
#
#
#
# Elastic Constant Matrix: (Units=GPa)
#
#
# Indices 1 2 3 4 5 6 
#
# 1 98.8989 9.6814 28.3507 -13.7252 -8.5864 6.6610
# 2 9.6814 51.7616 25.5588 -9.9224 -11.1939 10.4641
# 3 28.3507 25.5588 132.2706 -14.7227 -23.6181 1.9965
# 4 -13.7252 -9.9224 -14.7227 27.0205 -3.8289 5.4810
# 5 -8.5864 -11.1939 -23.6181 -3.8289 39.1174 -3.4064
# 6 6.6610 10.4641 1.9965 5.4810 -3.4064 17.9732
#
#
#
# Elastic Compliance Matrix: (Units=1/GPa)
#
#
# Indices 1 2 3 4 5 6 
#
# 1 0.012183 0.002072 -0.001577 0.007959 0.002440 -0.007511
# 2 0.002072 0.028873 -0.002814 0.015261 0.006714 -0.020646
# 3 -0.001577 -0.002814 0.009821 0.004083 0.005255 0.000883
# 4 0.007959 0.015261 0.004083 0.056049 0.011700 -0.027163
# 5 0.002440 0.006714 0.005255 0.011700 0.032088 -0.002883
# 6 -0.007511 -0.020646 0.000883 -0.027163 -0.002883 0.078082
#
#
# Mechanical properties :
#
#
# Convention : Reuss Voigt Hill
#
# Bulk Modulus (GPa) = 21.62681 45.56813 33.59747
# Shear Modulus (GPa) = 21.08410 31.44490 26.26450
#
# Velocity S-wave (km/s) = 3.02589 3.69530 3.37722
# Velocity P-wave (km/s) = 4.64754 6.16404 5.45871
#
# Compressibility (1/GPa) = 0.04623890
#
# Stress axis : x y z
#
# Youngs Moduli (GPa) = 82.08304 34.63496 101.81836
#
# Poissons Ratio (x) = -0.07175 0.16052
# Poissons Ratio (y) = -0.17005 0.28652
# Poissons Ratio (z) = 0.12941 0.09746
#
# Static dielectric constant tensor:
#      x y z
#    x 4.314700 0.135510 -0.278220 
#    y 0.135510 3.667550 -0.101790 
#    z -0.278220 -0.101790 4.968680 
# 
# 
# High freq. dielectric constant tensor:
#      x y z
#    x 1.917960 0.015710 -0.014470 
#    y 0.015710 1.863070 0.004990 
#    z -0.014470 0.004990 1.930400 
# 
# From -- ./inp_files/296099.got.cif
#   From: 2010.06.25/outbox.cif.g09.slc.cpg/sg2_149_cif.got.tgz:296099.got - 2010.06.27 13:26:56.
