data_PCOD8010800
_publ_section_title
;
Structure prediction by ZEFSAII (Michael W. Deem and Ramdas Pophale) SiO2 
 PCOD8010800
Probable space group: P -1
;
_chemical_formula_sum "Si O2"
_cell_formula_units_Z 16
_cell_length_a 8.765550
_cell_length_b 19.080087
_cell_length_c 22.704522
_cell_angle_alpha 21.697796
_cell_angle_beta 30.266588
_cell_angle_gamma 33.281003
_cell_volume 696.071373
_symmetry_space_group_name_H-M "P -1"
_symmetry_group_IT_number 2
_symmetry_cell_setting 'triclinic'
loop_
_space_group_symop_operation_xyz
x,y,z
-x,-y,-z
loop_
_atom_site_type_symbol
_atom_site_label
_atom_site_fract_x
_atom_site_fract_y
_atom_site_fract_z
Si Si1 0.851268 0.086607 0.629447
Si Si2 0.338957 0.901271 0.980595
Si Si3 0.379199 0.639955 0.065715
Si Si4 0.352243 0.368909 0.825000
Si Si5 0.737536 0.214590 0.440241
Si Si6 0.225884 0.492220 0.642010
Si Si7 0.571748 0.861442 0.728120
Si Si8 0.758226 0.273514 0.163961
O O1 0.770955 0.082687 0.590711
O O2 0.939687 0.291815 0.454794
O O3 0.545370 0.066665 0.783751
O O4 0.126632 0.912955 0.688851
O O5 0.492877 0.736954 0.010471
O O6 0.369532 0.797968 0.115052
O O7 0.000000 0.000000 0.000000
O O8 0.611943 0.446324 0.121082
O O9 0.038965 0.604401 0.223394
O O10 0.341208 0.793541 0.904988
O O11 0.444359 0.569856 0.659356
O O12 0.347976 0.370493 0.754605
O O13 0.028701 0.333861 0.987144
O O14 0.083871 0.230932 0.293072
O O15 0.551981 0.095456 0.550530
O O16 0.500000 0.500000 0.500000
O O17 0.503508 0.781681 0.749051
#
# Coordination Sequence:
#
# PCOD8010800 Si02
#       8
#     2   2   2   2   2   2   2   2
#     4  10  23  42  63  96 137 169 216 286 327 394
#     4  11  25  46  66  95 132 182 228 272 328 400
#     4  12  23  41  70  96 135 174 221 275 337 405
#     4  10  22  43  71  93 134 175 220 282 336 396
#     4  10  21  38  63  96 135 170 209 270 338 390
#     4  11  24  45  68  97 134 181 229 275 324 393
#     4  11  21  37  63 100 139 167 212 268 334 407
#     4  11  22  40  67 103 133 173 218 273 354 393
#
# _framework density 22.986149000000001
#
# number of rings (size 3 to 8) (size 9 to 14) (size 15 to 20)
#    0.000    1.250    3.750    2.625    0.000    7.000 
#    2.250    7.500    0.000    0.000    0.000    0.000 
#    0.000    0.000    0.000    0.000    0.000    0.000 
#
# Total GULP energy -198351.353911 kJ/mol
# GULP energy per Si atom -12396.959619 kJ/mol
# Density = 2.293383 g / cm^3
# Si number density = 22.986149 Si / 1000 Ang^3
#
#
#
# Elastic Constant Matrix: (Units=GPa)
#
#
# Indices 1 2 3 4 5 6 
#
# 1 66.6618 20.3232 37.5862 -14.1937 9.0321 -3.0434
# 2 20.3232 70.1943 27.5919 5.6601 11.2977 -11.7047
# 3 37.5862 27.5919 109.9540 0.4038 11.6395 -12.5461
# 4 -14.1937 5.6601 0.4038 33.8132 4.7761 0.9342
# 5 9.0321 11.2977 11.6395 4.7761 39.9672 1.2843
# 6 -3.0434 -11.7047 -12.5461 0.9342 1.2843 30.3768
#
#
#
# Elastic Compliance Matrix: (Units=1/GPa)
#
#
# Indices 1 2 3 4 5 6 
#
# 1 0.022832 -0.004821 -0.006591 0.010978 -0.003109 -0.002499
# 2 -0.004821 0.018292 -0.001900 -0.004785 -0.003151 0.006061
# 3 -0.006591 -0.001900 0.012426 -0.002504 -0.001418 0.003877
# 4 0.010978 -0.004785 -0.002504 0.035735 -0.004583 -0.002684
# 5 -0.003109 -0.003151 -0.001418 -0.004583 0.027675 -0.003140
# 6 -0.002499 0.006061 0.003877 -0.002684 -0.003140 0.036821
#
#
# Mechanical properties :
#
#
# Convention : Reuss Voigt Hill
#
# Bulk Modulus (GPa) = 37.13786 46.42363 41.78074
# Shear Modulus (GPa) = 26.40173 31.58536 28.99354
#
# Velocity S-wave (km/s) = 3.39277 3.71091 3.55540
# Velocity P-wave (km/s) = 5.61601 6.21300 5.92203
#
# Compressibility (1/GPa) = 0.02692670
#
# Stress axis : x y z
#
# Youngs Moduli (GPa) = 43.79834 54.66753 80.47542
#
# Poissons Ratio (x) = 0.26355 0.53044
# Poissons Ratio (y) = 0.21115 0.15287
# Poissons Ratio (z) = 0.28869 0.10384
#
# Static dielectric constant tensor:
#      x y z
#    x 4.075950 0.141780 -0.118330 
#    y 0.141780 3.779000 -0.136630 
#    z -0.118330 -0.136630 4.465780 
# 
# 
# High freq. dielectric constant tensor:
#      x y z
#    x 1.899700 0.009600 -0.009070 
#    y 0.009600 1.879520 -0.005240 
#    z -0.009070 -0.005240 1.934470 
# 
# From -- ./inp_files/608620.got.cif
#   From: 2010.06.25/outbox.cif.g09.slc.cpg/sg2_305_cif.got.tgz:608620.got - 2010.06.27 13:26:56.
