data_PCOD8010831
_publ_section_title
;
Structure prediction by ZEFSAII (Michael W. Deem and Ramdas Pophale) SiO2 
 PCOD8010831
Probable space group: P -1
;
_chemical_formula_sum "Si O2"
_cell_formula_units_Z 14
_cell_length_a 7.657115
_cell_length_b 18.609532
_cell_length_c 15.278775
_cell_angle_alpha 153.548853
_cell_angle_beta 57.474748
_cell_angle_gamma 107.231867
_cell_volume 711.413529
_symmetry_space_group_name_H-M "P -1"
_symmetry_group_IT_number 2
_symmetry_cell_setting 'triclinic'
loop_
_space_group_symop_operation_xyz
x,y,z
-x,-y,-z
loop_
_atom_site_type_symbol
_atom_site_label
_atom_site_fract_x
_atom_site_fract_y
_atom_site_fract_z
Si Si1 0.834653 0.384548 0.711566
Si Si2 0.471329 0.770072 0.303884
Si Si3 0.630832 0.712062 0.839323
Si Si4 0.965249 0.504018 0.370856
Si Si5 0.168604 0.718778 0.971775
Si Si6 0.791567 0.925664 0.430068
Si Si7 0.810155 0.946691 0.648304
O O1 0.662953 0.294866 0.662160
O O2 0.929029 0.384355 0.588690
O O3 0.699796 0.592464 0.009132
O O4 0.067914 0.261319 0.575064
O O5 0.565944 0.890835 0.460925
O O6 0.295564 0.886441 0.398520
O O7 0.834068 0.646068 0.784706
O O8 0.453693 0.626645 0.813600
O O9 0.741456 0.652757 0.648525
O O10 0.476764 0.938199 0.132669
O O11 0.877979 0.396085 0.213428
O O12 0.085034 0.933114 0.198652
O O13 0.012913 0.743233 0.127527
O O14 0.864532 0.953885 0.538101
#
# Coordination Sequence:
#
# PCOD8010831 Si02
#       7
#     2   2   2   2   2   2   2
#     4  11  22  36  54  92 124 151 189 256 295 343
#     4  10  22  35  59  85 116 164 194 239 293 349
#     4   9  23  39  67  84 112 161 205 241 279 372
#     4  11  21  43  64  85 118 154 206 241 301 333
#     4  10  21  38  64  90 111 161 196 247 275 370
#     4  11  20  39  61  83 118 165 196 232 290 365
#     4  10  23  36  57  89 124 150 198 241 295 349
#
# _framework density 19.679133
#
# number of rings (size 3 to 8) (size 9 to 14) (size 15 to 20)
#    0.857    0.857    2.857    1.714    2.000    2.286 
#    2.571    0.000    0.000    2.571    0.000    0.000 
#    0.000    0.000    0.000    0.000    0.000    0.000 
#
# Total GULP energy -173451.073681 kJ/mol
# GULP energy per Si atom -12389.362406 kJ/mol
# Density = 1.963434 g / cm^3
# Si number density = 19.679133 Si / 1000 Ang^3
#
#
#
# Elastic Constant Matrix: (Units=GPa)
#
#
# Indices 1 2 3 4 5 6 
#
# 1 55.5146 10.7244 16.0358 -13.7648 -4.2081 7.9611
# 2 10.7244 87.9663 45.5115 -16.4864 -4.2354 5.7012
# 3 16.0358 45.5115 101.5110 -24.3297 -22.8536 -6.0927
# 4 -13.7648 -16.4864 -24.3297 31.5046 3.3518 1.2256
# 5 -4.2081 -4.2354 -22.8536 3.3518 32.0807 -0.6140
# 6 7.9611 5.7012 -6.0927 1.2256 -0.6140 26.3328
#
#
#
# Elastic Compliance Matrix: (Units=1/GPa)
#
#
# Indices 1 2 3 4 5 6 
#
# 1 0.021694 0.000454 -0.001942 0.008455 0.000496 -0.007488
# 2 0.000454 0.016086 -0.007669 0.003310 -0.003734 -0.005636
# 3 -0.001942 -0.007669 0.018377 0.007898 0.011121 0.006391
# 4 0.008455 0.003310 0.007898 0.043122 0.002602 -0.003392
# 5 0.000496 -0.003734 0.011121 0.002602 0.038471 0.004008
# 6 -0.007488 -0.005636 0.006391 -0.003392 0.004008 0.043190
#
#
# Mechanical properties :
#
#
# Convention : Reuss Voigt Hill
#
# Bulk Modulus (GPa) = 26.42566 43.28171 34.85368
# Shear Modulus (GPa) = 23.59947 29.49830 26.54888
#
# Velocity S-wave (km/s) = 3.46672 3.87585 3.67698
# Velocity P-wave (km/s) = 5.42970 6.48622 5.98133
#
# Compressibility (1/GPa) = 0.03784201
#
# Stress axis : x y z
#
# Youngs Moduli (GPa) = 46.09493 62.16395 54.41668
#
# Poissons Ratio (x) = -0.02820 0.10567
# Poissons Ratio (y) = -0.02091 0.41735
# Poissons Ratio (z) = 0.08951 0.47676
#
# Static dielectric constant tensor:
#      x y z
#    x 3.510470 0.156680 -0.254530 
#    y 0.156680 3.443430 -0.173630 
#    z -0.254530 -0.173630 3.695730 
# 
# 
# High freq. dielectric constant tensor:
#      x y z
#    x 1.766630 0.013810 -0.016230 
#    y 0.013810 1.741560 -0.012680 
#    z -0.016230 -0.012680 1.770610 
# 
# From -- ./inp_files/507081.got.cif
#   From: 2010.06.25/outbox.cif.g09.slc.cpg/sg2_254_cif.got.tgz:507081.got - 2010.06.27 13:26:56.
