data_PCOD8010785
_publ_section_title
;
Structure prediction by ZEFSAII (Michael W. Deem and Ramdas Pophale) SiO2 
 PCOD8010785
Probable space group: P -1
;
_chemical_formula_sum "Si O2"
_cell_formula_units_Z 16
_cell_length_a 20.981211
_cell_length_b 6.490580
_cell_length_c 17.792125
_cell_angle_alpha 76.471610
_cell_angle_beta 161.519852
_cell_angle_gamma 104.610051
_cell_volume 743.067699
_symmetry_space_group_name_H-M "P -1"
_symmetry_group_IT_number 2
_symmetry_cell_setting 'triclinic'
loop_
_space_group_symop_operation_xyz
x,y,z
-x,-y,-z
loop_
_atom_site_type_symbol
_atom_site_label
_atom_site_fract_x
_atom_site_fract_y
_atom_site_fract_z
Si Si1 0.016161 0.771905 0.345626
Si Si2 0.678528 0.823672 0.361683
Si Si3 0.389390 0.122617 0.068616
Si Si4 0.634679 0.485150 0.224523
Si Si5 0.822208 0.593641 0.992566
Si Si6 0.213089 0.496180 0.363770
Si Si7 0.526120 0.891593 0.664026
Si Si8 0.467226 0.345224 0.546442
O O1 0.163518 0.621312 0.565177
O O2 0.846581 0.837574 0.209094
O O3 0.921821 0.625110 0.183586
O O4 0.141230 0.989612 0.438277
O O5 0.684743 0.723050 0.293790
O O6 0.705790 0.631788 0.465028
O O7 0.463193 0.923902 0.121248
O O8 0.520486 0.339925 0.173658
O O9 0.411931 0.060945 0.185280
O O10 0.500000 0.500000 0.000000
O O11 0.982093 0.541237 0.112838
O O12 0.713792 0.807600 0.835410
O O13 0.640032 0.403161 0.799265
O O14 0.331326 0.725184 0.463313
O O15 0.247906 0.362169 0.338334
O O16 0.475871 0.105640 0.548295
O O17 0.500000 0.500000 0.500000
#
# Coordination Sequence:
#
# PCOD8010785 Si02
#       8
#     2   2   2   2   2   2   2   2
#     4  10  23  38  64  98 124 161 223 261 304 379
#     4  11  21  38  65  92 122 164 213 261 310 373
#     4  10  21  38  63  94 121 166 215 258 310 371
#     4  11  24  42  62  93 136 167 206 267 320 366
#     4  10  23  38  64  96 122 161 217 259 307 374
#     4  11  21  38  66  92 121 167 212 257 310 374
#     4  10  21  39  63  89 124 160 210 263 306 376
#     4  11  26  43  63  95 132 165 204 263 326 369
#
# _framework density 21.532359
#
# number of rings (size 3 to 8) (size 9 to 14) (size 15 to 20)
#    0.000    1.500    3.750    0.750    3.500    6.000 
#    0.000    2.500    0.000    0.000    0.000    0.000 
#    0.000    0.000    0.000    0.000    0.000    0.000 
#
# Total GULP energy -198271.710528 kJ/mol
# GULP energy per Si atom -12391.981908 kJ/mol
# Density = 2.148335 g / cm^3
# Si number density = 21.532359 Si / 1000 Ang^3
#
#
#
# Elastic Constant Matrix: (Units=GPa)
#
#
# Indices 1 2 3 4 5 6 
#
# 1 52.5673 22.0745 29.3956 -13.2130 24.2301 -16.8318
# 2 22.0745 111.7465 46.5388 -26.8899 17.7569 -10.7858
# 3 29.3956 46.5388 83.8411 -14.0926 31.1763 -7.0901
# 4 -13.2130 -26.8899 -14.0926 29.5816 -15.8978 8.0793
# 5 24.2301 17.7569 31.1763 -15.8978 44.6876 -12.9945
# 6 -16.8318 -10.7858 -7.0901 8.0793 -12.9945 27.1481
#
#
#
# Elastic Compliance Matrix: (Units=1/GPa)
#
#
# Indices 1 2 3 4 5 6 
#
# 1 0.031053 -0.000340 -0.006330 0.002995 -0.007437 0.013014
# 2 -0.000340 0.014251 -0.007314 0.010941 0.004181 0.002286
# 3 -0.006330 -0.007314 0.021387 -0.004008 -0.011644 -0.005625
# 4 0.002995 0.010941 -0.004008 0.051771 0.014245 -0.003432
# 5 -0.007437 0.004181 -0.011644 0.014245 0.040618 0.009212
# 6 0.013014 0.002286 -0.005625 -0.003432 0.009212 0.049774
#
#
# Mechanical properties :
#
#
# Convention : Reuss Voigt Hill
#
# Bulk Modulus (GPa) = 25.82341 49.35252 37.58797
# Shear Modulus (GPa) = 20.02181 30.29319 25.15750
#
# Velocity S-wave (km/s) = 3.05265 3.75489 3.42183
# Velocity P-wave (km/s) = 4.94406 6.46289 5.75381
#
# Compressibility (1/GPa) = 0.03872455
#
# Stress axis : x y z
#
# Youngs Moduli (GPa) = 32.20289 70.17144 46.75814
#
# Poissons Ratio (x) = 0.02383 0.29597
# Poissons Ratio (y) = 0.01094 0.34197
# Poissons Ratio (z) = 0.20384 0.51321
#
# Static dielectric constant tensor:
#      x y z
#    x 3.768950 -0.357960 0.365340 
#    y -0.357960 4.125740 -0.187100 
#    z 0.365340 -0.187100 4.017040 
# 
# 
# High freq. dielectric constant tensor:
#      x y z
#    x 1.824240 -0.018290 0.023740 
#    y -0.018290 1.855860 -0.013760 
#    z 0.023740 -0.013760 1.836080 
# 
# From -- ./inp_files/44882.got.cif
#   From: 2010.06.25/outbox.cif.g09.slc.cpg/sg2_23_cif.got.tgz:44882.got - 2010.06.27 13:26:56.
