data_PCOD8010119
_publ_section_title
;
Structure prediction by ZEFSAII (Michael W. Deem and Ramdas Pophale) SiO2 
 PCOD8010119
Probable space group: P -1
;
_chemical_formula_sum "Si O2"
_cell_formula_units_Z 16
_cell_length_a 8.273374
_cell_length_b 11.572107
_cell_length_c 9.341441
_cell_angle_alpha 78.460896
_cell_angle_beta 70.418604
_cell_angle_gamma 54.523477
_cell_volume 686.180207
_symmetry_space_group_name_H-M "P -1"
_symmetry_group_IT_number 2
_symmetry_cell_setting 'triclinic'
loop_
_space_group_symop_operation_xyz
x,y,z
-x,-y,-z
loop_
_atom_site_type_symbol
_atom_site_label
_atom_site_fract_x
_atom_site_fract_y
_atom_site_fract_z
Si Si1 0.802344 0.010316 0.627448
Si Si2 0.003941 0.012792 0.826844
Si Si3 0.122849 0.273337 0.427933
Si Si4 0.342946 0.451262 0.813234
Si Si5 0.398508 0.291401 0.568759
Si Si6 0.364013 0.704735 0.749162
Si Si7 0.255169 0.425339 0.150974
Si Si8 0.178168 0.679242 0.278881
O O1 0.588118 0.148791 0.613985
O O2 0.822433 0.014553 0.793703
O O3 0.786888 0.880229 0.625040
O O4 0.000000 0.000000 0.500000
O O5 0.987241 0.157000 0.757438
O O6 0.214428 0.873981 0.739626
O O7 0.000000 0.000000 0.000000
O O8 0.249576 0.260581 0.535505
O O9 0.129410 0.367947 0.277491
O O10 0.889204 0.343821 0.537980
O O11 0.274102 0.407174 0.702595
O O12 0.251870 0.620083 0.801707
O O13 0.591606 0.358984 0.769365
O O14 0.244037 0.418902 0.984399
O O15 0.480940 0.356850 0.416022
O O16 0.500923 0.669260 0.859652
O O17 0.159212 0.585990 0.188458
#
# Coordination Sequence:
#
# PCOD8010119 Si02
#       8
#     2   2   2   2   2   2   2   2
#     4  12  22  44  68  98 129 177 227 275 321 400
#     4  12  23  39  68 102 128 163 226 280 325 377
#     4  11  24  43  66  98 136 176 219 272 334 397
#     4  11  21  42  69  98 133 175 228 274 323 390
#     4  11  22  40  65  98 134 177 220 273 334 390
#     4  10  21  37  65  99 129 175 225 269 320 398
#     4  10  23  42  66  99 137 175 213 282 338 377
#     4  11  21  43  72  94 132 178 228 264 325 401
#
# _framework density 23.317488999999998
#
# number of rings (size 3 to 8) (size 9 to 14) (size 15 to 20)
#    0.000    1.000    3.750    4.125    0.000    1.000 
#    4.500    1.250    0.000    0.000    0.000    0.000 
#    0.000    0.000    0.000    0.000    0.000    0.000 
#
# Total GULP energy -198367.236846 kJ/mol
# GULP energy per Si atom -12397.952303 kJ/mol
# Density = 2.326442 g / cm^3
# Si number density = 23.317489 Si / 1000 Ang^3
#
#
#
# Elastic Constant Matrix: (Units=GPa)
#
#
# Indices 1 2 3 4 5 6 
#
# 1 61.4460 38.5210 40.9076 -3.9595 1.6490 21.9211
# 2 38.5210 130.7534 14.9875 0.6254 -6.4707 17.7152
# 3 40.9076 14.9875 141.8131 -1.0736 9.5905 28.0659
# 4 -3.9595 0.6254 -1.0736 26.1204 3.4645 2.0981
# 5 1.6490 -6.4707 9.5905 3.4645 30.9018 7.0154
# 6 21.9211 17.7152 28.0659 2.0981 7.0154 37.4471
#
#
#
# Elastic Compliance Matrix: (Units=1/GPa)
#
#
# Indices 1 2 3 4 5 6 
#
# 1 0.027385 -0.006168 -0.005377 0.004767 0.000527 -0.009449
# 2 -0.006168 0.009790 0.000985 -0.001313 0.002719 -0.002195
# 3 -0.005377 0.000985 0.009411 0.000077 -0.001507 -0.004094
# 4 0.004767 -0.001313 0.000077 0.039893 -0.004191 -0.003677
# 5 0.000527 0.002719 -0.001507 -0.004191 0.035397 -0.006862
# 6 -0.009449 -0.002195 -0.004094 -0.003677 -0.006862 0.037834
#
#
# Mechanical properties :
#
#
# Convention : Reuss Voigt Hill
#
# Bulk Modulus (GPa) = 39.26745 58.09385 48.68065
# Shear Modulus (GPa) = 26.41038 34.86693 30.63866
#
# Velocity S-wave (km/s) = 3.36913 3.87112 3.62882
# Velocity P-wave (km/s) = 5.65788 6.70441 6.20325
#
# Compressibility (1/GPa) = 0.02546638
#
# Stress axis : x y z
#
# Youngs Moduli (GPa) = 36.51623 102.14009 106.25613
#
# Poissons Ratio (x) = 0.63001 0.57136
# Poissons Ratio (y) = 0.22524 -0.10468
# Poissons Ratio (z) = 0.19636 -0.10062
#
# Static dielectric constant tensor:
#      x y z
#    x 4.098170 0.095510 0.179520 
#    y 0.095510 4.442220 0.047250 
#    z 0.179520 0.047250 4.407840 
# 
# 
# High freq. dielectric constant tensor:
#      x y z
#    x 1.903350 -0.000250 0.013590 
#    y -0.000250 1.937550 0.003220 
#    z 0.013590 0.003220 1.927170 
# 
# From -- ./inp_files/178928.got.cif
#   From: 2010.06.25/outbox.cif.g09.slc.cpg/sg2_90_cif.got.tgz:178928.got - 2010.06.27 13:26:56.
