data_PCOD8010776
_publ_section_title
;
Structure prediction by ZEFSAII (Michael W. Deem and Ramdas Pophale) SiO2 
 PCOD8010776
Probable space group: P -1
;
_chemical_formula_sum "Si O2"
_cell_formula_units_Z 16
_cell_length_a 22.125747
_cell_length_b 11.846467
_cell_length_c 12.055814
_cell_angle_alpha 41.591911
_cell_angle_beta 151.370870
_cell_angle_gamma 150.425851
_cell_volume 745.659712
_symmetry_space_group_name_H-M "P -1"
_symmetry_group_IT_number 2
_symmetry_cell_setting 'triclinic'
loop_
_space_group_symop_operation_xyz
x,y,z
-x,-y,-z
loop_
_atom_site_type_symbol
_atom_site_label
_atom_site_fract_x
_atom_site_fract_y
_atom_site_fract_z
Si Si1 0.063252 0.568385 0.924341
Si Si2 0.103037 0.327057 0.989762
Si Si3 0.149828 0.979379 0.385058
Si Si4 0.515211 0.314293 0.660005
Si Si5 0.745759 0.785398 0.188456
Si Si6 0.553862 0.285040 0.306670
Si Si7 0.435878 0.846481 0.351282
Si Si8 0.059629 0.891594 0.550998
O O1 0.025766 0.366523 0.938539
O O2 0.984025 0.662725 0.667357
O O3 0.264540 0.781899 0.082765
O O4 0.000000 0.500000 0.000000
O O5 0.970057 0.220271 0.752689
O O6 0.292666 0.563550 0.079841
O O7 0.128999 0.161818 0.200682
O O8 0.090068 0.865421 0.493300
O O9 0.348276 0.097068 0.616700
O O10 0.500000 0.500000 0.500000
O O11 0.484262 0.211393 0.563916
O O12 0.655581 0.520922 0.232969
O O13 0.924296 0.923335 0.312669
O O14 0.771525 0.878514 0.287308
O O15 0.642521 0.832027 0.918609
O O16 0.617217 0.317069 0.509507
O O17 0.571485 0.118006 0.396844
#
# Coordination Sequence:
#
# PCOD8010776 Si02
#       8
#     2   2   2   2   2   2   2   2
#     4  11  23  40  65  93 130 166 206 266 322 377
#     4   9  22  41  63  94 123 169 218 255 315 380
#     4  10  22  41  64  89 126 169 215 261 311 382
#     4   9  20  38  61  90 122 163 209 259 308 370
#     4  10  23  39  58  92 130 161 206 257 324 381
#     4  10  21  39  62  91 125 163 202 262 317 380
#     4  10  21  38  63  93 124 161 214 256 313 380
#     4  11  24  40  61  93 127 169 209 258 322 381
#
# _framework density 21.457508000000001
#
# number of rings (size 3 to 8) (size 9 to 14) (size 15 to 20)
#    0.000    2.000    1.250    0.750    8.750    6.500 
#    2.250    2.500    0.000    0.000    0.000    0.000 
#    0.000    0.000    0.000    0.000    0.000    0.000 
#
# Total GULP energy -198243.444631 kJ/mol
# GULP energy per Si atom -12390.215289 kJ/mol
# Density = 2.140867 g / cm^3
# Si number density = 21.457508 Si / 1000 Ang^3
#
#
#
# Elastic Constant Matrix: (Units=GPa)
#
#
# Indices 1 2 3 4 5 6 
#
# 1 157.6763 50.3387 32.4905 2.2972 -3.9581 -14.8801
# 2 50.3387 78.5949 19.5217 4.6358 -5.4234 -13.8832
# 3 32.4905 19.5217 73.7175 10.8708 3.1824 -0.4101
# 4 2.2972 4.6358 10.8708 31.1729 -0.0105 1.8400
# 5 -3.9581 -5.4234 3.1824 -0.0105 29.8470 -1.8327
# 6 -14.8801 -13.8832 -0.4101 1.8400 -1.8327 32.8641
#
#
#
# Elastic Compliance Matrix: (Units=1/GPa)
#
#
# Indices 1 2 3 4 5 6 
#
# 1 0.008506 -0.004430 -0.002725 0.000868 0.000733 0.001939
# 2 -0.004430 0.017509 -0.002537 -0.001724 0.003210 0.005635
# 3 -0.002725 -0.002537 0.016278 -0.004983 -0.002681 -0.001973
# 4 0.000868 -0.001724 -0.004983 0.034145 0.000204 -0.002298
# 5 0.000733 0.003210 -0.002681 0.000204 0.034690 0.003578
# 6 0.001939 0.005635 -0.001973 -0.002298 0.003578 0.033990
#
#
# Mechanical properties :
#
#
# Convention : Reuss Voigt Hill
#
# Bulk Modulus (GPa) = 43.64983 57.18783 50.41883
# Shear Modulus (GPa) = 29.04617 32.61932 30.83274
#
# Velocity S-wave (km/s) = 3.68320 3.90318 3.79479
# Velocity P-wave (km/s) = 6.20279 6.85730 6.53824
#
# Compressibility (1/GPa) = 0.02290959
#
# Stress axis : x y z
#
# Youngs Moduli (GPa) = 117.55756 57.11218 61.43319
#
# Poissons Ratio (x) = 0.25298 0.16740
# Poissons Ratio (y) = 0.52073 0.15589
# Poissons Ratio (z) = 0.32034 0.14492
#
# Static dielectric constant tensor:
#      x y z
#    x 3.831170 -0.213500 0.218180 
#    y -0.213500 3.871450 0.332540 
#    z 0.218180 0.332540 4.035830 
# 
# 
# High freq. dielectric constant tensor:
#      x y z
#    x 1.833600 -0.022650 0.015670 
#    y -0.022650 1.838240 0.013610 
#    z 0.015670 0.013610 1.841610 
# 
# From -- ./inp_files/238967.got.cif
#   From: 2010.06.25/outbox.cif.g09.slc.cpg/sg2_120_cif.got.tgz:238967.got - 2010.06.27 13:26:56.
