data_PCOD8010010
_publ_section_title
;
Structure prediction by ZEFSAII (Michael W. Deem and Ramdas Pophale) SiO2 
 PCOD8010010
Probable space group: P -1
;
_chemical_formula_sum "Si O2"
_cell_formula_units_Z 16
_cell_length_a 9.939132
_cell_length_b 15.331695
_cell_length_c 15.443592
_cell_angle_alpha 42.236881
_cell_angle_beta 100.529182
_cell_angle_gamma 134.585486
_cell_volume 800.260219
_symmetry_space_group_name_H-M "P -1"
_symmetry_group_IT_number 2
_symmetry_cell_setting 'triclinic'
loop_
_space_group_symop_operation_xyz
x,y,z
-x,-y,-z
loop_
_atom_site_type_symbol
_atom_site_label
_atom_site_fract_x
_atom_site_fract_y
_atom_site_fract_z
Si Si1 0.408064 0.589128 0.651897
Si Si2 0.681046 0.490113 0.975040
Si Si3 0.962887 0.247097 0.479045
Si Si4 0.416541 0.863754 0.751364
Si Si5 0.213389 0.276292 0.017229
Si Si6 0.280649 0.274809 0.573424
Si Si7 0.136339 0.865909 0.636228
Si Si8 0.857938 0.388216 0.474136
O O1 0.574838 0.656768 0.546188
O O2 0.185033 0.501165 0.647105
O O3 0.608369 0.832624 0.558024
O O4 0.251428 0.358410 0.863047
O O5 0.697290 0.538010 0.042905
O O6 0.932644 0.762394 0.757864
O O7 0.735750 0.380932 0.043420
O O8 0.404724 0.308875 0.032435
O O9 0.098233 0.249423 0.551421
O O10 0.039685 0.287918 0.358525
O O11 0.030195 0.444433 0.382818
O O12 0.641629 0.971107 0.642576
O O13 0.224833 0.790925 0.722052
O O14 0.566638 0.082293 0.676337
O O15 0.906655 0.986309 0.211370
O O16 0.500000 0.500000 0.500000
O O17 0.000000 0.500000 0.500000
#
# Coordination Sequence:
#
# PCOD8010010 Si02
#       8
#     2   2   2   2   2   2   2   2
#     4  11  24  39  66  95 127 165 209 265 312 380
#     4  11  21  37  59  93 136 157 204 263 320 381
#     4  10  21  37  64  87 121 165 211 259 312 367
#     4   9  20  35  60  89 123 165 200 259 314 372
#     4  11  24  39  62  94 127 167 204 262 322 367
#     4  12  25  45  65  90 127 174 217 253 309 379
#     4  11  21  36  62  97 126 160 212 257 329 371
#     4   9  20  40  62  88 122 171 212 253 311 370
#
# _framework density 19.993497000000001
#
# number of rings (size 3 to 8) (size 9 to 14) (size 15 to 20)
#    0.750    0.750    2.500    3.000    3.500    1.500 
#    0.000    1.250    0.000    2.250    0.000    0.000 
#    0.000    0.000    0.000    0.000    0.000    0.000 
#
# Total GULP energy -198271.533645 kJ/mol
# GULP energy per Si atom -12391.970853 kJ/mol
# Density = 1.994799 g / cm^3
# Si number density = 19.993497 Si / 1000 Ang^3
#
#
#
# Elastic Constant Matrix: (Units=GPa)
#
#
# Indices 1 2 3 4 5 6 
#
# 1 91.7768 28.8872 36.3801 7.9036 1.2185 0.7366
# 2 28.8872 116.1061 47.7403 9.8325 7.1741 2.8337
# 3 36.3801 47.7403 114.6229 9.4160 -0.7992 4.2903
# 4 7.9036 9.8325 9.4160 22.0241 -5.8143 -2.3064
# 5 1.2185 7.1741 -0.7992 -5.8143 28.4064 4.0979
# 6 0.7366 2.8337 4.2903 -2.3064 4.0979 23.9814
#
#
#
# Elastic Compliance Matrix: (Units=1/GPa)
#
#
# Indices 1 2 3 4 5 6 
#
# 1 0.012925 -0.001615 -0.003220 -0.002735 -0.000833 0.000249
# 2 -0.001615 0.011134 -0.003831 -0.003729 -0.003566 -0.000330
# 3 -0.003220 -0.003831 0.011583 -0.001942 0.001313 -0.001932
# 4 -0.002735 -0.003729 -0.001942 0.052235 0.011120 0.003996
# 5 -0.000833 -0.003566 0.001313 0.011120 0.039235 -0.005423
# 6 0.000249 -0.000330 -0.001932 0.003996 -0.005423 0.043387
#
#
# Mechanical properties :
#
#
# Convention : Reuss Voigt Hill
#
# Bulk Modulus (GPa) = 54.61438 60.94678 57.78058
# Shear Modulus (GPa) = 25.78187 28.84893 27.31540
#
# Velocity S-wave (km/s) = 3.59487 3.80269 3.70024
# Velocity P-wave (km/s) = 6.67879 7.05905 6.87155
#
# Compressibility (1/GPa) = 0.01831020
#
# Stress axis : x y z
#
# Youngs Moduli (GPa) = 77.36753 89.81514 86.33406
#
# Poissons Ratio (x) = 0.14503 0.27802
# Poissons Ratio (y) = 0.12493 0.33074
# Poissons Ratio (z) = 0.24915 0.34408
#
# Static dielectric constant tensor:
#      x y z
#    x 3.714530 0.063180 0.034170 
#    y 0.063180 3.384520 -0.007020 
#    z 0.034170 -0.007020 3.532670 
# 
# 
# High freq. dielectric constant tensor:
#      x y z
#    x 1.793820 0.004250 0.002080 
#    y 0.004250 1.764410 0.003780 
#    z 0.002080 0.003780 1.762370 
# 
# From -- ./inp_files/505287.got.cif
#   From: 2010.06.25/outbox.cif.g09.slc.cpg/sg2_253_cif.got.tgz:505287.got - 2010.06.27 13:26:56.
