data_PCOD8010515
_publ_section_title
;
Structure prediction by ZEFSAII (Michael W. Deem and Ramdas Pophale) SiO2 
 PCOD8010515
Probable space group: P -1
;
_chemical_formula_sum "Si O2"
_cell_formula_units_Z 16
_cell_length_a 16.651794
_cell_length_b 8.694048
_cell_length_c 8.720898
_cell_angle_alpha 49.009438
_cell_angle_beta 65.737051
_cell_angle_gamma 92.409723
_cell_volume 774.643508
_symmetry_space_group_name_H-M "P -1"
_symmetry_group_IT_number 2
_symmetry_cell_setting 'triclinic'
loop_
_space_group_symop_operation_xyz
x,y,z
-x,-y,-z
loop_
_atom_site_type_symbol
_atom_site_label
_atom_site_fract_x
_atom_site_fract_y
_atom_site_fract_z
Si Si1 0.530960 0.306783 0.261729
Si Si2 0.650016 0.084733 0.210477
Si Si3 0.153983 0.561590 0.683157
Si Si4 0.003914 0.941965 0.859216
Si Si5 0.466190 0.236715 0.014631
Si Si6 0.996204 0.624436 0.574986
Si Si7 0.346777 0.795273 0.210834
Si Si8 0.837602 0.228928 0.146625
O O1 0.631828 0.283266 0.180312
O O2 0.472204 0.228346 0.198483
O O3 0.454681 0.142176 0.555394
O O4 0.561800 0.560177 0.131640
O O5 0.738772 0.062851 0.241063
O O6 0.679420 0.134080 0.978102
O O7 0.090654 0.666587 0.575517
O O8 0.247434 0.590424 0.489045
O O9 0.193420 0.703032 0.714432
O O10 0.090887 0.295719 0.947586
O O11 0.102525 0.914614 0.773398
O O12 0.004587 0.136108 0.618635
O O13 0.000000 0.000000 0.000000
O O14 0.381241 0.004441 0.166382
O O15 0.570622 0.292153 0.816467
O O16 0.000000 0.500000 0.500000
O O17 0.897928 0.459352 0.851151
#
# Coordination Sequence:
#
# PCOD8010515 Si02
#       8
#     2   2   2   2   2   2   2   2
#     4   9  19  39  62  87 121 157 200 250 304 357
#     4  10  21  38  61  88 123 159 199 253 301 357
#     4  11  24  41  62  92 128 160 204 253 302 364
#     4  11  23  41  68  90 118 166 201 252 313 358
#     4   9  19  39  62  87 119 160 201 246 305 360
#     4  11  21  43  66  89 124 156 205 257 301 366
#     4  10  21  38  61  88 124 160 199 253 298 357
#     4  11  24  41  62  93 127 160 203 255 304 361
#
# _framework density 20.654662999999999
#
# number of rings (size 3 to 8) (size 9 to 14) (size 15 to 20)
#    0.000    1.750    2.500    3.000    0.000    4.500 
#    9.000    0.000    0.000    0.000    0.000    0.000 
#    0.000    0.000    0.000    0.000    0.000    0.000 
#
# Total GULP energy -198402.568626 kJ/mol
# GULP energy per Si atom -12400.160539 kJ/mol
# Density = 2.060765 g / cm^3
# Si number density = 20.654663 Si / 1000 Ang^3
#
#
#
# Elastic Constant Matrix: (Units=GPa)
#
#
# Indices 1 2 3 4 5 6 
#
# 1 80.9472 18.9316 35.2521 -11.6242 -1.5911 -2.9377
# 2 18.9316 85.1227 19.8427 -3.3106 5.8774 -7.3064
# 3 35.2521 19.8427 88.8696 6.4679 6.6056 -19.4060
# 4 -11.6242 -3.3106 6.4679 37.1689 -8.7053 11.8275
# 5 -1.5911 5.8774 6.6056 -8.7053 33.4715 -3.5862
# 6 -2.9377 -7.3064 -19.4060 11.8275 -3.5862 32.8439
#
#
#
# Elastic Compliance Matrix: (Units=1/GPa)
#
#
# Indices 1 2 3 4 5 6 
#
# 1 0.018607 -0.002482 -0.009798 0.011118 0.005277 -0.008105
# 2 -0.002482 0.012884 -0.001312 -0.000455 -0.002046 0.001810
# 3 -0.009798 -0.001312 0.019971 -0.012671 -0.005913 0.014549
# 4 0.011118 -0.000455 -0.012671 0.041785 0.011796 -0.020353
# 5 0.005277 -0.002046 -0.005913 0.011796 0.034295 -0.003980
# 6 -0.008105 0.001810 0.014549 -0.020353 -0.003980 0.045616
#
#
# Mechanical properties :
#
#
# Convention : Reuss Voigt Hill
#
# Bulk Modulus (GPa) = 41.18853 44.77692 42.98272
# Shear Modulus (GPa) = 23.98839 32.75772 28.37306
#
# Velocity S-wave (km/s) = 3.41163 3.98675 3.71035
# Velocity P-wave (km/s) = 5.95851 6.55119 6.26187
#
# Compressibility (1/GPa) = 0.02427860
#
# Stress axis : x y z
#
# Youngs Moduli (GPa) = 53.74206 77.61291 50.07353
#
# Poissons Ratio (x) = 0.19263 0.49062
# Poissons Ratio (y) = 0.13339 0.06569
# Poissons Ratio (z) = 0.52657 0.10182
#
# Static dielectric constant tensor:
#      x y z
#    x 4.104810 -0.408630 0.599300 
#    y -0.408630 4.031770 -0.301450 
#    z 0.599300 -0.301450 4.398680 
# 
# 
# High freq. dielectric constant tensor:
#      x y z
#    x 1.803350 -0.001430 0.001450 
#    y -0.001430 1.809300 0.013670 
#    z 0.001450 0.013670 1.809180 
# 
# From -- ./inp_files/202293.got.cif
#   From: 2010.06.25/outbox.cif.g09.slc.cpg/sg2_102_cif.got.tgz:202293.got - 2010.06.27 13:26:56.
