data_PCOD8010324
_publ_section_title
;
Structure prediction by ZEFSAII (Michael W. Deem and Ramdas Pophale) SiO2 
 PCOD8010324
Probable space group: P -1
;
_chemical_formula_sum "Si O2"
_cell_formula_units_Z 14
_cell_length_a 14.001643
_cell_length_b 11.790955
_cell_length_c 12.303869
_cell_angle_alpha 40.212033
_cell_angle_beta 50.248906
_cell_angle_gamma 31.280221
_cell_volume 680.398392
_symmetry_space_group_name_H-M "P -1"
_symmetry_group_IT_number 2
_symmetry_cell_setting 'triclinic'
loop_
_space_group_symop_operation_xyz
x,y,z
-x,-y,-z
loop_
_atom_site_type_symbol
_atom_site_label
_atom_site_fract_x
_atom_site_fract_y
_atom_site_fract_z
Si Si1 0.216458 0.979589 0.055690
Si Si2 0.331685 0.674689 0.629568
Si Si3 0.027354 0.224952 0.537998
Si Si4 0.254443 0.705566 0.423034
Si Si5 0.145477 0.465612 0.182380
Si Si6 0.441391 0.191430 0.997482
Si Si7 0.142037 0.739348 0.154202
O O1 0.187605 0.943196 0.227183
O O2 0.382563 0.944443 0.957004
O O3 0.272118 0.746510 0.115123
O O4 0.031524 0.263166 0.943252
O O5 0.225138 0.784349 0.512146
O O6 0.529850 0.561935 0.558521
O O7 0.351618 0.456715 0.816741
O O8 0.205679 0.913839 0.628722
O O9 0.865888 0.338252 0.488841
O O10 0.958429 0.280572 0.670604
O O11 0.083406 0.363830 0.370626
O O12 0.241070 0.505107 0.167728
O O13 0.292277 0.255686 0.137725
O O14 0.500000 0.000000 0.000000
O O15 0.000000 0.000000 0.000000
#
# Coordination Sequence:
#
# PCOD8010324 Si02
#       7
#     2   2   2   2   2   2   2
#     4   9  21  41  63  88 118 161 205 240 299 356
#     4  10  21  38  59  83 122 162 199 242 296 352
#     4  11  22  36  63  91 119 155 197 247 303 352
#     4   9  20  37  59  83 119 161 201 236 290 361
#     4  11  24  38  62  91 124 156 196 254 299 347
#     4  11  25  40  61  90 124 159 202 246 296 360
#     4   9  19  42  65  85 117 157 206 244 294 358
#
# _framework density 20.576180000000001
#
# number of rings (size 3 to 8) (size 9 to 14) (size 15 to 20)
#    0.000    2.000    0.000    3.429    8.000    1.143 
#    0.000    4.286    0.000   12.857    0.000    0.000 
#    0.000    0.000    0.000    0.000    0.000    0.000 
#
# Total GULP energy -173567.919965 kJ/mol
# GULP energy per Si atom -12397.708569 kJ/mol
# Density = 2.052935 g / cm^3
# Si number density = 20.576180 Si / 1000 Ang^3
#
#
#
# Elastic Constant Matrix: (Units=GPa)
#
#
# Indices 1 2 3 4 5 6 
#
# 1 114.2129 48.9891 40.6477 2.1539 -10.1106 2.2610
# 2 48.9891 98.1977 25.2056 4.1516 -0.2707 15.0163
# 3 40.6477 25.2056 78.7088 8.1896 1.0242 4.7012
# 4 2.1539 4.1516 8.1896 23.4816 1.2308 -2.0405
# 5 -10.1106 -0.2707 1.0242 1.2308 33.4630 3.3707
# 6 2.2610 15.0163 4.7012 -2.0405 3.3707 28.2414
#
#
#
# Elastic Compliance Matrix: (Units=1/GPa)
#
#
# Indices 1 2 3 4 5 6 
#
# 1 0.013427 -0.005746 -0.005475 0.001714 0.003858 0.002555
# 2 -0.005746 0.014494 -0.001001 -0.002267 -0.000785 -0.007150
# 3 -0.005475 -0.001001 0.016529 -0.005161 -0.001783 -0.001941
# 4 0.001714 -0.002267 -0.005161 0.045178 -0.001546 0.005376
# 5 0.003858 -0.000785 -0.001783 -0.001546 0.031504 -0.003467
# 6 0.002555 -0.007150 -0.001941 0.005376 -0.003467 0.040132
#
#
# Mechanical properties :
#
#
# Convention : Reuss Voigt Hill
#
# Bulk Modulus (GPa) = 49.98440 57.86714 53.92577
# Shear Modulus (GPa) = 25.99057 28.78901 27.38979
#
# Velocity S-wave (km/s) = 3.55792 3.74457 3.65244
# Velocity P-wave (km/s) = 6.42055 6.84691 6.63716
#
# Compressibility (1/GPa) = 0.02000624
#
# Stress axis : x y z
#
# Youngs Moduli (GPa) = 74.47474 68.99395 60.49802
#
# Poissons Ratio (x) = 0.39642 0.33125
# Poissons Ratio (y) = 0.42791 0.06057
# Poissons Ratio (z) = 0.40778 0.06907
#
# Static dielectric constant tensor:
#      x y z
#    x 4.205810 0.094960 0.079400 
#    y 0.094960 3.636730 0.124500 
#    z 0.079400 0.124500 3.770820 
# 
# 
# High freq. dielectric constant tensor:
#      x y z
#    x 1.810490 0.002090 0.005140 
#    y 0.002090 1.788140 0.007850 
#    z 0.005140 0.007850 1.811340 
# 
# From -- ./inp_files/250141.got.cif
#   From: 2010.06.25/outbox.cif.g09.slc.cpg/sg2_126_cif.got.tgz:250141.got - 2010.06.27 13:26:56.
