data_PCOD8010703
_publ_section_title
;
Structure prediction by ZEFSAII (Michael W. Deem and Ramdas Pophale) SiO2 
 PCOD8010703
Probable space group: P -1
;
_chemical_formula_sum "Si O2"
_cell_formula_units_Z 16
_cell_length_a 11.681450
_cell_length_b 8.670464
_cell_length_c 16.904124
_cell_angle_alpha 56.038536
_cell_angle_beta 31.067824
_cell_angle_gamma 65.859455
_cell_volume 723.086206
_symmetry_space_group_name_H-M "P -1"
_symmetry_group_IT_number 2
_symmetry_cell_setting 'triclinic'
loop_
_space_group_symop_operation_xyz
x,y,z
-x,-y,-z
loop_
_atom_site_type_symbol
_atom_site_label
_atom_site_fract_x
_atom_site_fract_y
_atom_site_fract_z
Si Si1 0.711366 0.605905 0.799039
Si Si2 0.957643 0.116642 0.680584
Si Si3 0.447841 0.049064 0.273331
Si Si4 0.278553 0.073735 0.993452
Si Si5 0.930953 0.240112 0.344379
Si Si6 0.904285 0.317394 0.160497
Si Si7 0.454456 0.260697 0.360258
Si Si8 0.669992 0.378595 0.729849
O O1 0.701829 0.826249 0.723706
O O2 0.719297 0.486286 0.750896
O O3 0.937448 0.607230 0.716656
O O4 0.500000 0.500000 0.000000
O O5 0.898924 0.283811 0.609200
O O6 0.215452 0.129413 0.553593
O O7 0.910461 0.918495 0.719308
O O8 0.794258 0.111176 0.855392
O O9 0.556815 0.192070 0.237257
O O10 0.639312 0.985247 0.123385
O O11 0.303816 0.858003 0.449144
O O12 0.463168 0.208943 0.896541
O O13 0.053733 0.163732 0.089458
O O14 0.907060 0.350272 0.244223
O O15 0.640568 0.245205 0.320117
O O16 0.000000 0.500000 0.000000
O O17 0.390293 0.471307 0.340806
#
# Coordination Sequence:
#
# PCOD8010703 Si02
#       8
#     2   2   2   2   2   2   2   2
#     4  11  21  36  63  97 132 167 204 265 319 377
#     4  10  21  38  62  96 121 162 208 260 312 379
#     4  10  23  40  61  99 129 161 207 267 320 372
#     4  11  22  39  66  92 128 167 206 259 316 373
#     4  10  23  41  66  89 128 173 208 259 321 371
#     4  11  23  45  68  88 123 173 220 257 307 385
#     4  10  23  41  65  89 128 165 214 255 314 370
#     4  11  21  37  64  96 127 164 206 260 315 376
#
# _framework density 22.127375000000001
#
# number of rings (size 3 to 8) (size 9 to 14) (size 15 to 20)
#    0.000    1.500    1.250    4.125    1.750    8.000 
#    0.000    0.625    0.000    0.000    0.000    0.000 
#    0.000    0.000    0.000    0.000    0.000    0.000 
#
# Total GULP energy -198227.441991 kJ/mol
# GULP energy per Si atom -12389.215124 kJ/mol
# Density = 2.207701 g / cm^3
# Si number density = 22.127375 Si / 1000 Ang^3
#
#
#
# Elastic Constant Matrix: (Units=GPa)
#
#
# Indices 1 2 3 4 5 6 
#
# 1 126.8331 33.6714 29.9427 0.7103 -14.8417 -4.1873
# 2 33.6714 75.2534 24.9035 4.7592 -3.7329 -6.6234
# 3 29.9427 24.9035 81.2948 5.9354 2.8623 5.9324
# 4 0.7103 4.7592 5.9354 33.5909 -1.9172 -2.9911
# 5 -14.8417 -3.7329 2.8623 -1.9172 43.6448 1.8345
# 6 -4.1873 -6.6234 5.9324 -2.9911 1.8345 23.6041
#
#
#
# Elastic Compliance Matrix: (Units=1/GPa)
#
#
# Indices 1 2 3 4 5 6 
#
# 1 0.009857 -0.003212 -0.002948 0.001084 0.003256 0.001472
# 2 -0.003212 0.016646 -0.004214 -0.001081 0.000350 0.004996
# 3 -0.002948 -0.004214 0.015372 -0.002696 -0.002248 -0.005736
# 4 0.001084 -0.001081 -0.002696 0.030857 0.001626 0.004350
# 5 0.003256 0.000350 -0.002248 0.001626 0.024287 -0.000441
# 6 0.001472 0.004996 -0.005736 0.004350 -0.000441 0.046056
#
#
# Mechanical properties :
#
#
# Convention : Reuss Voigt Hill
#
# Bulk Modulus (GPa) = 47.33384 51.15739 49.24561
# Shear Modulus (GPa) = 29.26312 33.15887 31.21100
#
# Velocity S-wave (km/s) = 3.64054 3.87530 3.75976
# Velocity P-wave (km/s) = 6.25375 6.57219 6.41495
#
# Compressibility (1/GPa) = 0.02112653
#
# Stress axis : x y z
#
# Youngs Moduli (GPa) = 101.45488 60.07554 65.05320
#
# Poissons Ratio (x) = 0.19298 0.19175
# Poissons Ratio (y) = 0.32590 0.27413
# Poissons Ratio (z) = 0.29905 0.25316
#
# Static dielectric constant tensor:
#      x y z
#    x 4.082960 -0.012800 0.078460 
#    y -0.012800 4.240280 -0.058400 
#    z 0.078460 -0.058400 4.004860 
# 
# 
# High freq. dielectric constant tensor:
#      x y z
#    x 1.860860 0.000260 0.000150 
#    y 0.000260 1.863850 -0.010840 
#    z 0.000150 -0.010840 1.876490 
# 
# From -- ./inp_files/181788.got.cif
#   From: 2010.06.25/outbox.cif.g09.slc.cpg/sg2_91_cif.got.tgz:181788.got - 2010.06.27 13:26:56.
