data_PCOD8010103
_publ_section_title
;
Structure prediction by ZEFSAII (Michael W. Deem and Ramdas Pophale) SiO2 
 PCOD8010103
Probable space group: P -1
;
_chemical_formula_sum "Si O2"
_cell_formula_units_Z 14
_cell_length_a 14.784899
_cell_length_b 9.793454
_cell_length_c 12.327226
_cell_angle_alpha 127.487152
_cell_angle_beta 30.317144
_cell_angle_gamma 135.435415
_cell_volume 632.141637
_symmetry_space_group_name_H-M "P -1"
_symmetry_group_IT_number 2
_symmetry_cell_setting 'triclinic'
loop_
_space_group_symop_operation_xyz
x,y,z
-x,-y,-z
loop_
_atom_site_type_symbol
_atom_site_label
_atom_site_fract_x
_atom_site_fract_y
_atom_site_fract_z
Si Si1 0.417452 0.379132 0.134997
Si Si2 0.910997 0.181601 0.946754
Si Si3 0.522188 0.114409 0.775015
Si Si4 0.975676 0.510549 0.190306
Si Si5 0.690438 0.820416 0.467103
Si Si6 0.883245 0.490862 0.506869
Si Si7 0.535187 0.467463 0.611818
O O1 0.180337 0.335517 0.359555
O O2 0.529799 0.497744 0.184231
O O3 0.500000 0.500000 0.000000
O O4 0.455514 0.191571 0.990138
O O5 0.886537 0.281430 0.908851
O O6 0.067871 0.094981 0.725156
O O7 0.012706 0.346046 0.013410
O O8 0.688936 0.017300 0.133193
O O9 0.672334 0.288155 0.624733
O O10 0.639253 0.994748 0.629613
O O11 0.026441 0.508829 0.264782
O O12 0.742306 0.455524 0.392534
O O13 0.557552 0.648716 0.604398
O O14 0.631544 0.736181 0.364725
O O15 0.000000 0.500000 0.500000
#
# Coordination Sequence:
#
# PCOD8010103 Si02
#       7
#     2   2   2   2   2   2   2
#     4   9  21  41  59  84 125 168 196 252 312 359
#     4  10  21  38  65  95 124 156 207 258 308 359
#     4  11  23  41  63  95 127 157 212 262 294 369
#     4   9  19  41  63  89 128 166 196 256 317 360
#     4  10  21  37  65  95 122 159 205 257 304 370
#     4  10  23  43  64  85 125 173 205 246 318 374
#     4   9  18  39  62  88 127 163 199 248 319 363
#
# _framework density 22.146934000000002
#
# number of rings (size 3 to 8) (size 9 to 14) (size 15 to 20)
#    0.000    2.286    1.429    0.000    4.000    3.429 
#    5.143    2.857    0.000    0.000    0.000    0.000 
#    0.000    0.000    0.000    0.000    0.000    0.000 
#
# Total GULP energy -173483.054115 kJ/mol
# GULP energy per Si atom -12391.646722 kJ/mol
# Density = 2.209653 g / cm^3
# Si number density = 22.146934 Si / 1000 Ang^3
#
#
#
# Elastic Constant Matrix: (Units=GPa)
#
#
# Indices 1 2 3 4 5 6 
#
# 1 113.4079 30.9564 42.1526 14.8245 26.4772 -1.5984
# 2 30.9564 88.5799 46.1337 26.5235 -4.7663 -3.3582
# 3 42.1526 46.1337 96.6989 23.1989 7.2547 -5.9080
# 4 14.8245 26.5235 23.1989 41.2846 -2.3084 -8.5878
# 5 26.4772 -4.7663 7.2547 -2.3084 49.7849 2.0889
# 6 -1.5984 -3.3582 -5.9080 -8.5878 2.0889 19.4702
#
#
#
# Elastic Compliance Matrix: (Units=1/GPa)
#
#
# Indices 1 2 3 4 5 6 
#
# 1 0.012452 -0.002509 -0.003447 -0.001357 -0.006408 -0.000368
# 2 -0.002509 0.017576 -0.005954 -0.007389 0.003652 -0.002632
# 3 -0.003447 -0.005954 0.015726 -0.003409 -0.001274 0.002095
# 4 -0.001357 -0.007389 -0.003409 0.034045 0.001568 0.012428
# 5 -0.006408 0.003652 -0.001274 0.001568 0.024194 -0.002187
# 6 -0.000368 -0.002632 0.002095 0.012428 -0.002187 0.057228
#
#
# Mechanical properties :
#
#
# Convention : Reuss Voigt Hill
#
# Bulk Modulus (GPa) = 45.59034 59.68579 52.63806
# Shear Modulus (GPa) = 25.99391 34.07087 30.03239
#
# Velocity S-wave (km/s) = 3.42965 3.92650 3.68646
# Velocity P-wave (km/s) = 6.02606 6.89674 6.47605
#
# Compressibility (1/GPa) = 0.02193447
#
# Stress axis : x y z
#
# Youngs Moduli (GPa) = 80.30786 56.89613 63.58807
#
# Poissons Ratio (x) = 0.14273 0.21921
# Poissons Ratio (y) = 0.20146 0.37860
# Poissons Ratio (z) = 0.27685 0.33876
#
# Static dielectric constant tensor:
#      x y z
#    x 3.900380 -0.068950 0.104100 
#    y -0.068950 4.149910 0.450460 
#    z 0.104100 0.450460 4.540570 
# 
# 
# High freq. dielectric constant tensor:
#      x y z
#    x 1.856370 -0.006580 -0.003580 
#    y -0.006580 1.849920 0.022440 
#    z -0.003580 0.022440 1.881500 
# 
# From -- ./inp_files/402503.got.cif
#   From: 2010.06.25/outbox.cif.g09.slc.cpg/sg2_202_cif.got.tgz:402503.got - 2010.06.27 13:26:56.
