data_PCOD8010124
_publ_section_title
;
Structure prediction by ZEFSAII (Michael W. Deem and Ramdas Pophale) SiO2 
 PCOD8010124
Probable space group: P -1
;
_chemical_formula_sum "Si O2"
_cell_formula_units_Z 14
_cell_length_a 5.278681
_cell_length_b 21.289288
_cell_length_c 21.603035
_cell_angle_alpha 19.244835
_cell_angle_beta 114.582152
_cell_angle_gamma 122.891971
_cell_volume 629.563073
_symmetry_space_group_name_H-M "P -1"
_symmetry_group_IT_number 2
_symmetry_cell_setting 'triclinic'
loop_
_space_group_symop_operation_xyz
x,y,z
-x,-y,-z
loop_
_atom_site_type_symbol
_atom_site_label
_atom_site_fract_x
_atom_site_fract_y
_atom_site_fract_z
Si Si1 0.209761 0.587269 0.715002
Si Si2 0.456841 0.896385 0.761464
Si Si3 0.538214 0.671862 0.095628
Si Si4 0.681573 0.901909 0.019029
Si Si5 0.687302 0.521395 0.562397
Si Si6 0.733983 0.319689 0.595302
Si Si7 0.709808 0.636852 0.951158
O O1 0.306571 0.470204 0.780626
O O2 0.826894 0.487178 0.770348
O O3 0.380281 0.845399 0.477111
O O4 0.320189 0.540507 0.835732
O O5 0.566100 0.786075 0.822442
O O6 0.072970 0.792751 0.819522
O O7 0.563110 0.848460 0.883112
O O8 0.744013 0.812613 0.044419
O O9 0.570784 0.079732 0.831560
O O10 0.388265 0.715147 0.202045
O O11 0.000000 0.000000 0.000000
O O12 0.500000 0.500000 0.500000
O O13 0.550170 0.629360 0.497218
O O14 0.072225 0.672630 0.454334
O O15 0.000000 0.500000 0.500000
O O16 0.500000 0.500000 0.000000
#
# Coordination Sequence:
#
# PCOD8010124 Si02
#       7
#     2   2   2   2   2   2   2
#     4  10  22  45  63  87 130 168 208 245 301 373
#     4  10  21  41  64  88 135 173 201 247 302 363
#     4  10  25  41  59  90 116 167 215 256 307 378
#     4  12  24  42  65  87 119 155 206 277 329 366
#     4  10  22  39  56  82 111 141 181 243 314 380
#     4  10  22  40  57  82 113 142 182 245 321 383
#     4  10  21  37  66 105 132 159 207 250 290 356
#
# _framework density 22.237645000000001
#
# number of rings (size 3 to 8) (size 9 to 14) (size 15 to 20)
#    0.000    1.714    2.857    1.286    0.000    9.143 
#    0.000    0.000    0.000    0.000    0.000    0.000 
#    0.000    0.000    0.000    0.000    0.000    0.000 
#
# Total GULP energy -173549.032392 kJ/mol
# GULP energy per Si atom -12396.359457 kJ/mol
# Density = 2.218703 g / cm^3
# Si number density = 22.237645 Si / 1000 Ang^3
#
#
#
# Elastic Constant Matrix: (Units=GPa)
#
#
# Indices 1 2 3 4 5 6 
#
# 1 187.5135 35.8032 68.3631 -3.1395 -3.5676 -18.8761
# 2 35.8032 133.6685 38.7886 -9.0362 2.0442 -12.5850
# 3 68.3631 38.7886 215.6382 0.6107 3.2278 -7.9577
# 4 -3.1395 -9.0362 0.6107 13.9774 -8.2822 4.9077
# 5 -3.5676 2.0442 3.2278 -8.2822 25.4464 -1.7186
# 6 -18.8761 -12.5850 -7.9577 4.9077 -1.7186 17.3893
#
#
#
# Elastic Compliance Matrix: (Units=1/GPa)
#
#
# Indices 1 2 3 4 5 6 
#
# 1 0.006788 -0.000739 -0.001815 -0.000078 0.001634 0.006187
# 2 -0.000739 0.008695 -0.001227 0.004942 0.001209 0.003653
# 3 -0.001815 -0.001227 0.005472 -0.002478 -0.001644 0.000183
# 4 -0.000078 0.004942 -0.002478 0.101587 0.031403 -0.023209
# 5 0.001634 0.001209 -0.001644 0.031403 0.049721 -0.002053
# 6 0.006187 0.003653 0.000183 -0.023209 -0.002053 0.073297
#
#
# Mechanical properties :
#
#
# Convention : Reuss Voigt Hill
#
# Bulk Modulus (GPa) = 74.66848 91.41444 83.04146
# Shear Modulus (GPa) = 19.41095 37.62031 28.51563
#
# Velocity S-wave (km/s) = 2.95767 4.11754 3.58483
# Velocity P-wave (km/s) = 6.73158 7.98766 7.38637
#
# Compressibility (1/GPa) = 0.01339253
#
# Stress axis : x y z
#
# Youngs Moduli (GPa) = 147.31017 115.01094 182.75245
#
# Poissons Ratio (x) = 0.08504 0.33170
# Poissons Ratio (y) = 0.10892 0.22422
# Poissons Ratio (z) = 0.26737 0.14110
#
# Static dielectric constant tensor:
#      x y z
#    x 2.640140 -0.569800 -0.432550 
#    y -0.569800 3.870610 0.201130 
#    z -0.432550 0.201130 4.179490 
# 
# 
# High freq. dielectric constant tensor:
#      x y z
#    x 1.896410 -0.011870 0.000000 
#    y -0.011870 1.851300 0.011060 
#    z 0.000000 0.011060 1.890980 
# 
# From -- ./inp_files/111996.got.cif
#   From: 2010.06.25/outbox.cif.g09.slc.cpg/sg2_56_cif.got.tgz:111996.got - 2010.06.27 13:26:56.
