data_PCOD8010393
_publ_section_title
;
Structure prediction by ZEFSAII (Michael W. Deem and Ramdas Pophale) SiO2 
 PCOD8010393
Probable space group: P -1
;
_chemical_formula_sum "Si O2"
_cell_formula_units_Z 16
_cell_length_a 8.611782
_cell_length_b 17.219787
_cell_length_c 6.664395
_cell_angle_alpha 91.302702
_cell_angle_beta 87.782397
_cell_angle_gamma 50.242703
_cell_volume 757.732594
_symmetry_space_group_name_H-M "P -1"
_symmetry_group_IT_number 2
_symmetry_cell_setting 'triclinic'
loop_
_space_group_symop_operation_xyz
x,y,z
-x,-y,-z
loop_
_atom_site_type_symbol
_atom_site_label
_atom_site_fract_x
_atom_site_fract_y
_atom_site_fract_z
Si Si1 0.070408 0.062393 0.060838
Si Si2 0.507882 0.126268 0.856391
Si Si3 0.853119 0.236984 0.389598
Si Si4 0.901476 0.812333 0.240468
Si Si5 0.108988 0.641558 0.903089
Si Si6 0.766778 0.558761 0.056220
Si Si7 0.692063 0.714052 0.797128
Si Si8 0.477960 0.278266 0.601779
O O1 0.925075 0.141100 0.247149
O O2 0.297924 0.990354 0.131748
O O3 0.059912 0.118542 0.867309
O O4 0.000000 0.000000 0.000000
O O5 0.335709 0.133042 0.748931
O O6 0.571941 0.182614 0.734895
O O7 0.429035 0.178066 0.081368
O O8 0.795160 0.326093 0.249228
O O9 0.655198 0.278840 0.526478
O O10 0.029964 0.204545 0.533231
O O11 0.029768 0.704318 0.116774
O O12 0.272002 0.522025 0.946903
O O13 0.928794 0.656993 0.793550
O O14 0.696964 0.615799 0.276187
O O15 0.642878 0.645011 0.895086
O O16 0.000000 0.500000 0.000000
O O17 0.625927 0.734150 0.573892
#
# Coordination Sequence:
#
# PCOD8010393 Si02
#       8
#     2   2   2   2   2   2   2   2
#     4  11  23  39  60  85 116 151 189 236 288 340
#     4  10  21  38  60  85 114 153 195 235 279 331
#     4  11  24  38  56  86 118 151 188 232 290 343
#     4  10  22  40  59  82 115 150 192 239 280 334
#     4   9  20  38  58  82 114 149 187 236 286 333
#     4   9  20  37  59  87 113 148 194 235 281 335
#     4   9  19  37  60  85 113 148 192 237 279 330
#     4  11  22  36  58  87 117 150 190 234 284 340
#
# _framework density 21.115628999999998
#
# number of rings (size 3 to 8) (size 9 to 14) (size 15 to 20)
#    0.000    2.000    0.000    3.375    0.000   10.000 
#    0.000    1.250    0.000    0.000    0.000    0.000 
#    0.000    0.000    0.000    0.000    0.000    0.000 
#
# Total GULP energy -198412.680409 kJ/mol
# GULP energy per Si atom -12400.792526 kJ/mol
# Density = 2.106757 g / cm^3
# Si number density = 21.115629 Si / 1000 Ang^3
#
#
#
# Elastic Constant Matrix: (Units=GPa)
#
#
# Indices 1 2 3 4 5 6 
#
# 1 80.0226 11.0145 21.6999 15.3166 -5.7188 8.8938
# 2 11.0145 83.9548 22.4816 14.8154 -4.1395 16.7284
# 3 21.6999 22.4816 84.1930 13.1708 -1.7729 3.1010
# 4 15.3166 14.8154 13.1708 17.1338 -1.0875 -2.8241
# 5 -5.7188 -4.1395 -1.7729 -1.0875 35.7948 3.9758
# 6 8.8938 16.7284 3.1010 -2.8241 3.9758 30.3924
#
#
#
# Elastic Compliance Matrix: (Units=1/GPa)
#
#
# Indices 1 2 3 4 5 6 
#
# 1 0.017286 0.003419 -0.002155 -0.017989 0.003487 -0.008848
# 2 0.003419 0.018158 -0.002211 -0.018981 0.003401 -0.012978
# 3 -0.002155 -0.002211 0.014137 -0.007075 -0.000088 -0.000241
# 4 -0.017989 -0.018981 -0.007075 0.100319 -0.005310 0.026449
# 5 0.003487 0.003401 -0.000088 -0.005310 0.029526 -0.007239
# 6 -0.008848 -0.012978 -0.000241 0.026449 -0.007239 0.046064
#
#
# Mechanical properties :
#
#
# Convention : Reuss Voigt Hill
#
# Bulk Modulus (GPa) = 20.97015 39.84027 30.40521
# Shear Modulus (GPa) = 20.55256 29.52918 25.04087
#
# Velocity S-wave (km/s) = 3.12321 3.74364 3.44742
# Velocity P-wave (km/s) = 4.79152 6.13149 5.50244
#
# Compressibility (1/GPa) = 0.04768683
#
# Stress axis : x y z
#
# Youngs Moduli (GPa) = 57.85048 55.07297 70.73692
#
# Poissons Ratio (x) = -0.18827 0.15241
# Poissons Ratio (y) = -0.19777 0.15639
# Poissons Ratio (z) = 0.12465 0.12176
#
# Static dielectric constant tensor:
#      x y z
#    x 3.705520 0.209940 -0.112520 
#    y 0.209940 4.095230 -0.086550 
#    z -0.112520 -0.086550 3.751130 
# 
# 
# High freq. dielectric constant tensor:
#      x y z
#    x 1.823030 0.012860 -0.007840 
#    y 0.012860 1.829330 -0.001890 
#    z -0.007840 -0.001890 1.826990 
# 
# From -- ./inp_files/37227.got.cif
#   From: 2010.06.25/outbox.cif.g09.slc.cpg/sg2_19_cif.got.tgz:37227.got - 2010.06.27 13:26:56.
