data_PCOD8010720
_publ_section_title
;
Structure prediction by ZEFSAII (Michael W. Deem and Ramdas Pophale) SiO2 
 PCOD8010720
Probable space group: P -1
;
_chemical_formula_sum "Si O2"
_cell_formula_units_Z 14
_cell_length_a 11.853687
_cell_length_b 16.048770
_cell_length_c 18.824297
_cell_angle_alpha 21.905206
_cell_angle_beta 147.966630
_cell_angle_gamma 135.855561
_cell_volume 664.225648
_symmetry_space_group_name_H-M "P -1"
_symmetry_group_IT_number 2
_symmetry_cell_setting 'triclinic'
loop_
_space_group_symop_operation_xyz
x,y,z
-x,-y,-z
loop_
_atom_site_type_symbol
_atom_site_label
_atom_site_fract_x
_atom_site_fract_y
_atom_site_fract_z
Si Si1 0.331751 0.853544 0.372225
Si Si2 0.058700 0.971260 0.751987
Si Si3 0.743429 0.677054 0.813676
Si Si4 0.127027 0.853996 0.040059
Si Si5 0.953569 0.599597 0.688690
Si Si6 0.473532 0.063578 0.731400
Si Si7 0.409975 0.643820 0.103385
O O1 0.473056 0.838508 0.534095
O O2 0.453724 0.955135 0.296557
O O3 0.362561 0.582463 0.577490
O O4 0.071106 0.011326 0.116673
O O5 0.070055 0.995811 0.823048
O O6 0.882224 0.846617 0.732702
O O7 0.992531 0.229319 0.475572
O O8 0.308243 0.800905 0.994246
O O9 0.778157 0.459342 0.948418
O O10 0.813615 0.562627 0.019817
O O11 0.149062 0.579143 0.263734
O O12 0.360860 0.860650 0.188767
O O13 0.778612 0.746522 0.539768
O O14 0.480349 0.800006 0.959776
#
# Coordination Sequence:
#
# PCOD8010720 Si02
#       7
#     2   2   2   2   2   2   2
#     4  10  23  39  60  85 121 156 190 242 285 345
#     4  10  21  38  63  85 121 151 187 252 286 340
#     4   9  21  38  61  90 116 147 198 239 293 343
#     4  11  24  41  56  88 122 156 196 230 291 352
#     4  10  23  38  63  91 112 155 192 244 294 338
#     4  11  23  39  63  86 116 156 198 239 285 342
#     4   9  22  37  61  92 109 153 195 238 295 336
#
# _framework density 21.077176000000001
#
# number of rings (size 3 to 8) (size 9 to 14) (size 15 to 20)
#    0.857    1.143    0.000    3.000    4.000    8.571 
#    0.000    1.429    0.000    0.000    0.000    0.000 
#    0.000    0.000    0.000    0.000    0.000    0.000 
#
# Total GULP energy -173486.630770 kJ/mol
# GULP energy per Si atom -12391.902198 kJ/mol
# Density = 2.102920 g / cm^3
# Si number density = 21.077176 Si / 1000 Ang^3
#
#
#
# Elastic Constant Matrix: (Units=GPa)
#
#
# Indices 1 2 3 4 5 6 
#
# 1 86.9888 19.4542 38.9124 -7.2747 -20.2069 9.7054
# 2 19.4542 88.8698 17.6790 -4.4189 -21.7327 8.7239
# 3 38.9124 17.6790 69.6251 -8.7927 -9.4717 18.9409
# 4 -7.2747 -4.4189 -8.7927 49.9810 7.0051 -14.4903
# 5 -20.2069 -21.7327 -9.4717 7.0051 32.6953 -6.6455
# 6 9.7054 8.7239 18.9409 -14.4903 -6.6455 23.6884
#
#
#
# Elastic Compliance Matrix: (Units=1/GPa)
#
#
# Indices 1 2 3 4 5 6 
#
# 1 0.017341 -0.000166 -0.009271 0.000596 0.008423 0.003096
# 2 -0.000166 0.013843 -0.001945 -0.000781 0.008377 -0.001602
# 3 -0.009271 -0.001945 0.023887 -0.001660 -0.003094 -0.016469
# 4 0.000596 -0.000781 -0.001660 0.024665 -0.002727 0.015694
# 5 0.008423 0.008377 -0.003094 -0.002727 0.042294 0.006135
# 6 0.003096 -0.001602 -0.016469 0.015694 0.006135 0.066026
#
#
# Mechanical properties :
#
#
# Convention : Reuss Voigt Hill
#
# Bulk Modulus (GPa) = 30.95327 44.17499 37.56413
# Shear Modulus (GPa) = 22.56435 32.56882 27.56659
#
# Velocity S-wave (km/s) = 3.27549 3.93519 3.62040
# Velocity P-wave (km/s) = 5.38727 6.45382 5.94451
#
# Compressibility (1/GPa) = 0.03230677
#
# Stress axis : x y z
#
# Youngs Moduli (GPa) = 57.66745 72.24022 41.86324
#
# Poissons Ratio (x) = 0.01202 0.38810
# Poissons Ratio (y) = 0.00960 0.08143
# Poissons Ratio (z) = 0.53461 0.14051
#
# Static dielectric constant tensor:
#      x y z
#    x 3.566450 0.102310 -0.165560 
#    y 0.102310 3.699940 -0.129600 
#    z -0.165560 -0.129600 3.792290 
# 
# 
# High freq. dielectric constant tensor:
#      x y z
#    x 1.812670 0.005040 -0.013540 
#    y 0.005040 1.819580 -0.010090 
#    z -0.013540 -0.010090 1.826250 
# 
# From -- ./inp_files/447200.got.cif
#   From: 2010.06.25/outbox.cif.g09.slc.cpg/sg2_224_cif.got.tgz:447200.got - 2010.06.27 13:26:56.
