data_PCOD8010904
_publ_section_title
;
Structure prediction by ZEFSAII (Michael W. Deem and Ramdas Pophale) SiO2 
 PCOD8010904
Probable space group: P -1
;
_chemical_formula_sum "Si O2"
_cell_formula_units_Z 14
_cell_length_a 11.787436
_cell_length_b 11.120323
_cell_length_c 8.112888
_cell_angle_alpha 42.998734
_cell_angle_beta 128.294987
_cell_angle_gamma 123.754007
_cell_volume 558.683025
_symmetry_space_group_name_H-M "P -1"
_symmetry_group_IT_number 2
_symmetry_cell_setting 'triclinic'
loop_
_space_group_symop_operation_xyz
x,y,z
-x,-y,-z
loop_
_atom_site_type_symbol
_atom_site_label
_atom_site_fract_x
_atom_site_fract_y
_atom_site_fract_z
Si Si1 0.938079 0.618019 0.962292
Si Si2 0.349877 0.552570 0.254726
Si Si3 0.053589 0.013995 0.300030
Si Si4 0.807288 0.419640 0.576337
Si Si5 0.330737 0.932531 0.787499
Si Si6 0.805673 0.796639 0.085295
Si Si7 0.369203 0.956103 0.173771
O O1 0.757656 0.576328 0.842334
O O2 0.985905 0.836369 0.755215
O O3 0.000000 0.500000 0.000000
O O4 0.015861 0.576055 0.248382
O O5 0.500000 0.500000 0.500000
O O6 0.250830 0.555480 0.320461
O O7 0.389513 0.746865 0.014143
O O8 0.174240 0.908874 0.583249
O O9 0.121621 0.139934 0.084247
O O10 0.914546 0.867575 0.265586
O O11 0.772446 0.579429 0.270086
O O12 0.723425 0.221981 0.640473
O O13 0.459312 0.064643 0.667718
O O14 0.315091 0.989500 0.905535
O O15 0.657662 0.876283 0.906226
#
# Coordination Sequence:
#
# PCOD8010904 Si02
#       7
#     2   2   2   2   2   2   2
#     4  10  22  39  63  96 127 163 221 272 319 385
#     4  10  21  38  64  97 126 161 218 271 325 380
#     4  11  25  43  64  98 132 172 223 262 330 387
#     4  10  21  40  63  93 125 172 212 263 325 377
#     4  10  23  40  66  97 129 170 214 277 319 382
#     4  11  24  44  67  93 135 177 213 269 321 395
#     4  10  22  42  66  96 129 170 219 268 326 384
#
# _framework density 25.05893
#
# number of rings (size 3 to 8) (size 9 to 14) (size 15 to 20)
#    0.000    1.714    1.429    1.714   10.000    2.857 
#    2.571    0.714    0.000    0.000    0.000    0.000 
#    0.000    0.000    0.000    0.000    0.000    0.000 
#
# Total GULP energy -173457.371765 kJ/mol
# GULP energy per Si atom -12389.812269 kJ/mol
# Density = 2.500190 g / cm^3
# Si number density = 25.058930 Si / 1000 Ang^3
#
#
#
# Elastic Constant Matrix: (Units=GPa)
#
#
# Indices 1 2 3 4 5 6 
#
# 1 61.7229 17.1042 18.7395 -3.9732 17.3521 10.9541
# 2 17.1042 59.7176 33.2697 -6.2426 12.3073 13.0022
# 3 18.7395 33.2697 108.4930 -25.2364 25.7544 1.9946
# 4 -3.9732 -6.2426 -25.2364 38.3986 4.0219 4.0332
# 5 17.3521 12.3073 25.7544 4.0219 31.5129 -7.7938
# 6 10.9541 13.0022 1.9946 4.0332 -7.7938 23.3694
#
#
#
# Elastic Compliance Matrix: (Units=1/GPa)
#
#
# Indices 1 2 3 4 5 6 
#
# 1 0.027050 0.002100 0.004102 0.011264 -0.026700 -0.025047
# 2 0.002100 0.026247 -0.002933 0.006400 -0.015142 -0.021492
# 3 0.004102 -0.002933 0.018016 0.015128 -0.020562 -0.011297
# 4 0.011264 0.006400 0.015128 0.044822 -0.034011 -0.029210
# 5 -0.026700 -0.015142 -0.020562 -0.034011 0.087801 0.057847
# 6 -0.025047 -0.021492 -0.011297 -0.029210 0.057847 0.091787
#
#
# Mechanical properties :
#
#
# Convention : Reuss Voigt Hill
#
# Bulk Modulus (GPa) = 12.84482 40.90669 26.87576
# Shear Modulus (GPa) = 15.86627 29.37751 22.62189
#
# Velocity S-wave (km/s) = 2.51899 3.42766 3.00784
# Velocity P-wave (km/s) = 3.68747 5.65904 4.77609
#
# Compressibility (1/GPa) = 0.07785241
#
# Stress axis : x y z
#
# Youngs Moduli (GPa) = 36.96822 38.09921 55.50706
#
# Poissons Ratio (x) = -0.08002 -0.22771
# Poissons Ratio (y) = -0.07765 0.16281
# Poissons Ratio (z) = -0.15166 0.11175
#
# Static dielectric constant tensor:
#      x y z
#    x 4.203450 0.169920 -0.110990 
#    y 0.169920 4.942960 -0.225720 
#    z -0.110990 -0.225720 3.982030 
# 
# 
# High freq. dielectric constant tensor:
#      x y z
#    x 1.990120 0.009270 0.018670 
#    y 0.009270 1.992720 -0.010480 
#    z 0.018670 -0.010480 1.989840 
# 
# From -- ./inp_files/261369.got.cif
#   From: 2010.06.25/outbox.cif.g09.slc.cpg/sg2_131_cif.got.tgz:261369.got - 2010.06.27 13:26:56.
