data_PCOD8010164
_publ_section_title
;
Structure prediction by ZEFSAII (Michael W. Deem and Ramdas Pophale) SiO2 
 PCOD8010164
Probable space group: P -1
;
_chemical_formula_sum "Si O2"
_cell_formula_units_Z 16
_cell_length_a 9.833932
_cell_length_b 11.534450
_cell_length_c 18.089564
_cell_angle_alpha 31.533345
_cell_angle_beta 47.578259
_cell_angle_gamma 56.679665
_cell_volume 790.428246
_symmetry_space_group_name_H-M "P -1"
_symmetry_group_IT_number 2
_symmetry_cell_setting 'triclinic'
loop_
_space_group_symop_operation_xyz
x,y,z
-x,-y,-z
loop_
_atom_site_type_symbol
_atom_site_label
_atom_site_fract_x
_atom_site_fract_y
_atom_site_fract_z
Si Si1 0.655618 0.124615 0.327713
Si Si2 0.423318 0.850482 0.322259
Si Si3 0.969911 0.264381 0.944702
Si Si4 0.152489 0.469586 0.900780
Si Si5 0.442099 0.736822 0.869314
Si Si6 0.329491 0.011399 0.110311
Si Si7 0.210575 0.399543 0.647784
Si Si8 0.957659 0.869283 0.267408
O O1 0.720695 0.305435 0.266621
O O2 0.572625 0.250520 0.220378
O O3 0.500000 0.000000 0.500000
O O4 0.816608 0.972929 0.321270
O O5 0.255707 0.663700 0.498348
O O6 0.613077 0.734850 0.325939
O O7 0.416945 0.056907 0.269216
O O8 0.410672 0.953924 0.190389
O O9 0.056263 0.455670 0.863577
O O10 0.049412 0.309837 0.810051
O O11 0.750893 0.249153 0.026063
O O12 0.018676 0.032241 0.088653
O O13 0.263652 0.259084 0.996528
O O14 0.000000 0.500000 0.000000
O O15 0.500000 0.500000 0.000000
O O16 0.153709 0.833831 0.254414
O O17 0.500000 0.000000 0.000000
O O18 0.140402 0.351399 0.614897
#
# Coordination Sequence:
#
# PCOD8010164 Si02
#       8
#     2   2   2   2   2   2   2   2
#     4  11  23  40  67  96 126 180 222 272 335 401
#     4  11  24  39  64  94 135 164 212 277 330 381
#     4  10  21  37  67  90 116 178 215 257 326 398
#     4  11  20  42  65  89 130 172 225 267 321 401
#     4  11  23  42  61  94 130 168 223 272 321 396
#     4  11  24  40  66  99 129 173 226 277 332 392
#     4  11  23  42  65  94 133 170 214 268 336 399
#     4  10  21  42  65  91 132 169 225 266 323 407
#
# _framework density 20.242191999999999
#
# number of rings (size 3 to 8) (size 9 to 14) (size 15 to 20)
#    0.000    1.250    6.250    2.625    3.500    1.500 
#    2.250    0.625    0.000    0.000    0.000    0.000 
#    0.000    0.000    0.000    0.000    0.000    0.000 
#
# Total GULP energy -198293.205241 kJ/mol
# GULP energy per Si atom -12393.325328 kJ/mol
# Density = 2.019612 g / cm^3
# Si number density = 20.242192 Si / 1000 Ang^3
#
#
#
# Elastic Constant Matrix: (Units=GPa)
#
#
# Indices 1 2 3 4 5 6 
#
# 1 87.4237 29.4070 13.9278 -6.5891 -26.2352 12.5073
# 2 29.4070 85.2132 39.8332 -5.1571 -10.9083 8.9755
# 3 13.9278 39.8332 100.5208 0.1710 -26.2127 1.9168
# 4 -6.5891 -5.1571 0.1710 40.1201 11.2847 -9.4421
# 5 -26.2352 -10.9083 -26.2127 11.2847 33.3816 -9.2764
# 6 12.5073 8.9755 1.9168 -9.4421 -9.2764 29.8444
#
#
#
# Elastic Compliance Matrix: (Units=1/GPa)
#
#
# Indices 1 2 3 4 5 6 
#
# 1 0.017424 -0.005855 0.003915 -0.002634 0.015218 -0.001896
# 2 -0.005855 0.016961 -0.007625 0.002337 -0.006819 -0.003538
# 3 0.003915 -0.007625 0.016498 -0.004101 0.015819 0.003212
# 4 -0.002634 0.002337 -0.004101 0.029884 -0.012935 0.006099
# 5 0.015218 -0.006819 0.015819 -0.012935 0.058953 0.008889
# 6 -0.001896 -0.003538 0.003212 0.006099 0.008889 0.039852
#
#
# Mechanical properties :
#
#
# Convention : Reuss Voigt Hill
#
# Bulk Modulus (GPa) = 31.49183 48.83264 40.16224
# Shear Modulus (GPa) = 23.89087 33.33521 28.61304
#
# Velocity S-wave (km/s) = 3.43921 4.06250 3.76378
# Velocity P-wave (km/s) = 5.60019 6.79572 6.22671
#
# Compressibility (1/GPa) = 0.03175427
#
# Stress axis : x y z
#
# Youngs Moduli (GPa) = 57.39287 58.95891 60.61332
#
# Poissons Ratio (x) = 0.34518 -0.23730
# Poissons Ratio (y) = 0.33601 0.46215
# Poissons Ratio (z) = -0.22469 0.44954
#
# Static dielectric constant tensor:
#      x y z
#    x 3.632460 0.332910 -0.246190 
#    y 0.332910 2.086790 0.278200 
#    z -0.246190 0.278200 3.520080 
# 
# 
# High freq. dielectric constant tensor:
#      x y z
#    x 1.802980 0.014740 -0.017400 
#    y 0.014740 1.781440 -0.004410 
#    z -0.017400 -0.004410 1.787420 
# 
# From -- ./inp_files/516208.got.cif
#   From: 2010.06.25/outbox.cif.g09.slc.cpg/sg2_259_cif.got.tgz:516208.got - 2010.06.27 13:26:56.
