data_PCOD8010279
_publ_section_title
;
Structure prediction by ZEFSAII (Michael W. Deem and Ramdas Pophale) SiO2 
 PCOD8010279
Probable space group: P -1
;
_chemical_formula_sum "Si O2"
_cell_formula_units_Z 12
_cell_length_a 8.966023
_cell_length_b 9.779752
_cell_length_c 10.459763
_cell_angle_alpha 100.722771
_cell_angle_beta 41.322678
_cell_angle_gamma 111.448911
_cell_volume 557.780742
_symmetry_space_group_name_H-M "P -1"
_symmetry_group_IT_number 2
_symmetry_cell_setting 'triclinic'
loop_
_space_group_symop_operation_xyz
x,y,z
-x,-y,-z
loop_
_atom_site_type_symbol
_atom_site_label
_atom_site_fract_x
_atom_site_fract_y
_atom_site_fract_z
Si Si1 0.116923 0.892742 0.469194
Si Si2 0.624617 0.405117 0.633298
Si Si3 0.389222 0.072571 0.758093
Si Si4 0.121753 0.611062 0.280947
Si Si5 0.819548 0.524886 0.019554
Si Si6 0.984568 0.840191 0.830789
O O1 0.402074 0.978700 0.323564
O O2 0.082676 0.763125 0.365770
O O3 0.981982 0.824343 0.676473
O O4 0.000000 0.000000 0.500000
O O5 0.518260 0.231628 0.633103
O O6 0.706737 0.425123 0.732144
O O7 0.859206 0.483310 0.411532
O O8 0.426009 0.482321 0.752743
O O9 0.246214 0.952559 0.724818
O O10 0.215544 0.089745 0.986195
O O11 0.244113 0.610811 0.064736
O O12 0.931215 0.682311 0.903720
O O13 0.000000 0.500000 0.000000
#
# Coordination Sequence:
#
# PCOD8010279 Si02
#       6
#     2   2   2   2   2   2
#     4  11  24  38  60  88 114 151 194 237 286 338
#     4   9  19  38  62  85 113 154 189 233 288 337
#     4   9  20  38  62  85 117 154 189 233 284 341
#     4  10  21  38  58  83 117 151 192 237 283 339
#     4  11  23  37  60  89 115 150 192 236 287 339
#     4  10  21  40  60  84 118 154 190 232 285 340
#
# _framework density 21.513829999999999
#
# number of rings (size 3 to 8) (size 9 to 14) (size 15 to 20)
#    0.000    2.000    0.000    4.000    0.000    9.333 
#    0.000    0.000    0.000    0.000    0.000    0.000 
#    0.000    0.000    0.000    0.000    0.000    0.000 
#
# Total GULP energy -148795.428339 kJ/mol
# GULP energy per Si atom -12399.619028 kJ/mol
# Density = 2.146486 g / cm^3
# Si number density = 21.513830 Si / 1000 Ang^3
#
#
#
# Elastic Constant Matrix: (Units=GPa)
#
#
# Indices 1 2 3 4 5 6 
#
# 1 96.8110 37.7100 29.9121 16.9955 -18.9077 -25.2287
# 2 37.7100 84.9980 23.9104 14.6406 -5.8989 3.4392
# 3 29.9121 23.9104 43.6184 6.8358 -17.0506 -10.7479
# 4 16.9955 14.6406 6.8358 38.4147 2.0245 -7.6394
# 5 -18.9077 -5.8989 -17.0506 2.0245 41.2708 7.7272
# 6 -25.2287 3.4392 -10.7479 -7.6394 7.7272 42.0357
#
#
#
# Elastic Compliance Matrix: (Units=1/GPa)
#
#
# Indices 1 2 3 4 5 6 
#
# 1 0.017700 -0.006073 -0.004680 -0.003168 0.003845 0.008641
# 2 -0.006073 0.017350 -0.007187 -0.004012 -0.001705 -0.007318
# 3 -0.004680 -0.007187 0.035603 -0.001155 0.010714 0.004703
# 4 -0.003168 -0.004012 -0.001155 0.030324 -0.004838 0.004532
# 5 0.003845 -0.001705 0.010714 -0.004838 0.030660 -0.001329
# 6 0.008641 -0.007318 0.004703 0.004532 -0.001329 0.031844
#
#
# Mechanical properties :
#
#
# Convention : Reuss Voigt Hill
#
# Bulk Modulus (GPa) = 28.75836 45.38806 37.07321
# Shear Modulus (GPa) = 23.70195 33.27058 28.48627
#
# Velocity S-wave (km/s) = 3.32280 3.93679 3.64275
# Velocity P-wave (km/s) = 5.30261 6.46586 5.91291
#
# Compressibility (1/GPa) = 0.03477250
#
# Stress axis : x y z
#
# Youngs Moduli (GPa) = 56.49735 57.63705 28.08741
#
# Poissons Ratio (x) = 0.35005 0.13146
# Poissons Ratio (y) = 0.34313 0.20186
# Poissons Ratio (z) = 0.26442 0.41422
#
# Static dielectric constant tensor:
#      x y z
#    x 3.696650 0.203220 -0.302340 
#    y 0.203220 3.870280 0.146420 
#    z -0.302340 0.146420 4.123920 
# 
# 
# High freq. dielectric constant tensor:
#      x y z
#    x 1.826560 0.017560 -0.021460 
#    y 0.017560 1.840490 0.020840 
#    z -0.021460 0.020840 1.856640 
# 
# From -- ./inp_files/174350.got.cif
#   From: 2010.06.25/outbox.cif.g09.slc.cpg/sg2_88_cif.got.tgz:174350.got - 2010.06.27 13:26:56.
