data_PCOD8010426
_publ_section_title
;
Structure prediction by ZEFSAII (Michael W. Deem and Ramdas Pophale) SiO2 
 PCOD8010426
Probable space group: P -1
;
_chemical_formula_sum "Si O2"
_cell_formula_units_Z 14
_cell_length_a 9.016777
_cell_length_b 10.171728
_cell_length_c 7.986366
_cell_angle_alpha 83.242206
_cell_angle_beta 74.209840
_cell_angle_gamma 62.653390
_cell_volume 626.045760
_symmetry_space_group_name_H-M "P -1"
_symmetry_group_IT_number 2
_symmetry_cell_setting 'triclinic'
loop_
_space_group_symop_operation_xyz
x,y,z
-x,-y,-z
loop_
_atom_site_type_symbol
_atom_site_label
_atom_site_fract_x
_atom_site_fract_y
_atom_site_fract_z
Si Si1 0.244100 0.484916 0.066602
Si Si2 0.630466 0.267752 0.031236
Si Si3 0.789588 0.110174 0.674224
Si Si4 0.725876 0.781033 0.476364
Si Si5 0.888023 0.515272 0.245147
Si Si6 0.657182 0.081080 0.356015
Si Si7 0.004012 0.782455 0.602612
O O1 0.423279 0.358678 0.104875
O O2 0.194878 0.428880 0.918584
O O3 0.270975 0.631158 0.018122
O O4 0.073448 0.516329 0.223607
O O5 0.662943 0.177342 0.859938
O O6 0.716252 0.156692 0.178165
O O7 0.692744 0.119477 0.527309
O O8 0.891176 0.207724 0.594346
O O9 0.925854 0.940153 0.700558
O O10 0.752236 0.633783 0.394662
O O11 0.544976 0.856491 0.612481
O O12 0.856956 0.739384 0.594993
O O13 0.746485 0.903044 0.331063
O O14 0.884171 0.356851 0.293024
#
# Coordination Sequence:
#
# PCOD8010426 Si02
#       7
#     2   2   2   2   2   2   2
#     4  10  24  37  56  93 119 148 212 237 281 377
#     4  11  22  42  62  85 122 158 190 251 298 334
#     4  10  22  40  62  90 118 153 201 242 289 355
#     4  10  21  38  60  88 119 155 200 240 290 356
#     4  11  21  39  59  84 123 161 189 248 299 337
#     4  10  22  40  62  90 118 153 201 242 289 355
#     4  10  21  38  60  88 119 155 200 240 290 356
#
# _framework density 22.362583000000001
#
# number of rings (size 3 to 8) (size 9 to 14) (size 15 to 20)
#    0.000    1.714    0.000    3.857    0.000    4.571 
#    0.000   20.714    0.000    0.000    0.000    0.000 
#    0.000    0.000    0.000    0.000    0.000    0.000 
#
# Total GULP energy -173494.203866 kJ/mol
# GULP energy per Si atom -12392.443133 kJ/mol
# Density = 2.231168 g / cm^3
# Si number density = 22.362583 Si / 1000 Ang^3
#
#
#
# Elastic Constant Matrix: (Units=GPa)
#
#
# Indices 1 2 3 4 5 6 
#
# 1 65.8487 14.6711 1.8738 -2.1265 2.5838 6.4365
# 2 14.6711 118.7392 32.2108 -15.3269 2.7519 3.0695
# 3 1.8738 32.2108 72.8042 -1.2567 8.7572 -0.8395
# 4 -2.1265 -15.3269 -1.2567 30.6778 2.0151 0.1469
# 5 2.5838 2.7519 8.7572 2.0151 23.0446 -0.0352
# 6 6.4365 3.0695 -0.8395 0.1469 -0.0352 26.2551
#
#
#
# Elastic Compliance Matrix: (Units=1/GPa)
#
#
# Indices 1 2 3 4 5 6 
#
# 1 0.016052 -0.001984 0.000649 0.000286 -0.001840 -0.003686
# 2 -0.001984 0.010565 -0.004581 0.004940 0.000268 -0.000922
# 3 0.000649 -0.004581 0.016416 -0.001204 -0.005657 0.000901
# 4 0.000286 0.004940 -0.001204 0.035253 -0.003249 -0.000888
# 5 -0.001840 0.000268 -0.005657 -0.003249 0.046003 0.000319
# 6 -0.003686 -0.000922 0.000901 -0.000888 0.000319 0.039134
#
#
# Mechanical properties :
#
#
# Convention : Reuss Voigt Hill
#
# Bulk Modulus (GPa) = 32.05230 39.43373 35.74301
# Shear Modulus (GPa) = 26.93176 29.90460 28.41818
#
# Velocity S-wave (km/s) = 3.47410 3.66082 3.56868
# Velocity P-wave (km/s) = 5.51875 5.96162 5.74446
#
# Compressibility (1/GPa) = 0.03119901
#
# Stress axis : x y z
#
# Youngs Moduli (GPa) = 62.29845 94.65285 60.91791
#
# Poissons Ratio (x) = 0.18782 -0.03951
# Poissons Ratio (y) = 0.12362 0.27905
# Poissons Ratio (z) = -0.04040 0.43359
#
# Static dielectric constant tensor:
#      x y z
#    x 4.096000 -0.067640 -0.123200 
#    y -0.067640 4.137590 -0.162610 
#    z -0.123200 -0.162610 3.703880 
# 
# 
# High freq. dielectric constant tensor:
#      x y z
#    x 1.888480 -0.000690 -0.000160 
#    y -0.000690 1.889800 -0.011120 
#    z -0.000160 -0.011120 1.856560 
# 
# From -- ./inp_files/158476.got.cif
#   From: 2010.06.25/outbox.cif.g09.slc.cpg/sg2_80_cif.got.tgz:158476.got - 2010.06.27 13:26:56.
