data_PCOD8010433
_publ_section_title
;
Structure prediction by ZEFSAII (Michael W. Deem and Ramdas Pophale) SiO2 
 PCOD8010433
Probable space group: P -1
;
_chemical_formula_sum "Si O2"
_cell_formula_units_Z 16
_cell_length_a 17.971582
_cell_length_b 12.846482
_cell_length_c 21.847456
_cell_angle_alpha 160.283002
_cell_angle_beta 149.824039
_cell_angle_gamma 30.701318
_cell_volume 823.248241
_symmetry_space_group_name_H-M "P -1"
_symmetry_group_IT_number 2
_symmetry_cell_setting 'triclinic'
loop_
_space_group_symop_operation_xyz
x,y,z
-x,-y,-z
loop_
_atom_site_type_symbol
_atom_site_label
_atom_site_fract_x
_atom_site_fract_y
_atom_site_fract_z
Si Si1 0.142224 0.816785 0.039143
Si Si2 0.525245 0.492766 0.941655
Si Si3 0.964805 0.548351 0.930641
Si Si4 0.597574 0.114793 0.296482
Si Si5 0.231060 0.280635 0.589540
Si Si6 0.049317 0.163202 0.282696
Si Si7 0.315575 0.682652 0.404400
Si Si8 0.104869 0.174108 0.709383
O O1 0.306351 0.746896 0.083482
O O2 0.150267 0.037230 0.225194
O O3 0.097593 0.498719 0.848935
O O4 0.000000 0.000000 0.000000
O O5 0.392376 0.366127 0.745832
O O6 0.500000 0.500000 0.000000
O O7 0.510704 0.840437 0.094184
O O8 0.787950 0.563346 0.802270
O O9 0.060670 0.250326 0.791531
O O10 0.000000 0.500000 0.000000
O O11 0.987881 0.885293 0.115034
O O12 0.486845 0.459878 0.391524
O O13 0.692795 0.127939 0.433371
O O14 0.717727 0.036955 0.282764
O O15 0.165621 0.273766 0.471240
O O16 0.100568 0.546759 0.680901
O O17 0.259252 0.935830 0.450379
O O18 0.000000 0.000000 0.500000
#
# Coordination Sequence:
#
# PCOD8010433 Si02
#       8
#     2   2   2   2   2   2   2   2
#     4  10  23  38  61  90 121 152 196 251 301 353
#     4  11  21  37  61  85 121 159 195 247 300 351
#     4  11  21  39  64  88 121 158 196 245 303 355
#     4  10  22  38  58  91 118 154 200 251 298 349
#     4  11  22  39  62  85 120 163 203 242 294 364
#     4  10  23  40  61  88 120 158 203 245 299 355
#     4  11  21  36  63  87 120 154 201 247 298 354
#     4  10  21  38  60  89 118 151 196 248 291 353
#
# _framework density 19.435206999999998
#
# number of rings (size 3 to 8) (size 9 to 14) (size 15 to 20)
#    0.000    1.500    3.750    1.500    1.750    2.500 
#    0.000    0.625    2.750    0.000    0.000    0.000 
#    0.000    0.000    0.000    0.000    0.000    0.000 
#
# Total GULP energy -198372.366413 kJ/mol
# GULP energy per Si atom -12398.272901 kJ/mol
# Density = 1.939097 g / cm^3
# Si number density = 19.435207 Si / 1000 Ang^3
#
#
#
# Elastic Constant Matrix: (Units=GPa)
#
#
# Indices 1 2 3 4 5 6 
#
# 1 128.0461 55.8301 44.8898 -2.9739 -16.8645 -16.3185
# 2 55.8301 117.3944 36.3395 1.7342 -6.0918 -16.0256
# 3 44.8898 36.3395 108.6991 -16.2689 -1.6829 -15.0418
# 4 -2.9739 1.7342 -16.2689 34.7830 -7.5738 0.3671
# 5 -16.8645 -6.0918 -1.6829 -7.5738 28.2108 3.1812
# 6 -16.3185 -16.0256 -15.0418 0.3671 3.1812 21.4101
#
#
#
# Elastic Compliance Matrix: (Units=1/GPa)
#
#
# Indices 1 2 3 4 5 6 
#
# 1 0.011746 -0.004001 -0.002825 0.001146 0.005951 0.003070
# 2 -0.004001 0.011608 -0.001942 -0.002110 -0.001071 0.004470
# 3 -0.002825 -0.001942 0.012562 0.005579 -0.000446 0.005189
# 4 0.001146 -0.002110 0.005579 0.033606 0.009445 0.001234
# 5 0.005951 -0.001071 -0.000446 0.009445 0.041613 -0.002925
# 6 0.003070 0.004470 0.005189 0.001234 -0.002925 0.056452
#
#
# Mechanical properties :
#
#
# Convention : Reuss Voigt Hill
#
# Bulk Modulus (GPa) = 54.40711 69.80648 62.10680
# Shear Modulus (GPa) = 26.14405 31.35278 28.74842
#
# Velocity S-wave (km/s) = 3.67166 4.02082 3.85020
# Velocity P-wave (km/s) = 6.78452 7.58627 7.19657
#
# Compressibility (1/GPa) = 0.01837995
#
# Stress axis : x y z
#
# Youngs Moduli (GPa) = 85.13537 86.14755 79.60662
#
# Poissons Ratio (x) = 0.34466 0.22488
# Poissons Ratio (y) = 0.34061 0.15462
# Poissons Ratio (z) = 0.24050 0.16732
#
# Static dielectric constant tensor:
#      x y z
#    x 3.534670 -0.202710 0.043150 
#    y -0.202710 3.503800 0.034400 
#    z 0.043150 0.034400 3.628550 
# 
# 
# High freq. dielectric constant tensor:
#      x y z
#    x 1.752080 -0.012970 -0.002660 
#    y -0.012970 1.753880 0.001120 
#    z -0.002660 0.001120 1.772830 
# 
# From -- ./inp_files/201470.got.cif
#   From: 2010.06.25/outbox.cif.g09.slc.cpg/sg2_101_cif.got.tgz:201470.got - 2010.06.27 13:26:56.
