data_PCOD8010974
_publ_section_title
;
Structure prediction by ZEFSAII (Michael W. Deem and Ramdas Pophale) SiO2 
 PCOD8010974
Probable space group: P -1
;
_chemical_formula_sum "Si O2"
_cell_formula_units_Z 14
_cell_length_a 9.217368
_cell_length_b 5.225696
_cell_length_c 25.674044
_cell_angle_alpha 76.501397
_cell_angle_beta 145.143116
_cell_angle_gamma 92.314159
_cell_volume 661.342168
_symmetry_space_group_name_H-M "P -1"
_symmetry_group_IT_number 2
_symmetry_cell_setting 'triclinic'
loop_
_space_group_symop_operation_xyz
x,y,z
-x,-y,-z
loop_
_atom_site_type_symbol
_atom_site_label
_atom_site_fract_x
_atom_site_fract_y
_atom_site_fract_z
Si Si1 0.601041 0.282910 0.187845
Si Si2 0.832245 0.008937 0.088148
Si Si3 0.710192 0.118823 0.929907
Si Si4 0.221170 0.265203 0.550482
Si Si5 0.351954 0.603234 0.275433
Si Si6 0.211056 0.768955 0.642164
Si Si7 0.859000 0.442644 0.156559
O O1 0.478581 0.047411 0.142466
O O2 0.769907 0.169238 0.294395
O O3 0.795848 0.352572 0.199267
O O4 0.381462 0.559703 0.126010
O O5 0.714445 0.766897 0.088428
O O6 0.151294 0.888658 0.183093
O O7 0.759102 0.270954 0.091436
O O8 0.704744 0.097657 0.991092
O O9 0.000000 0.000000 0.000000
O O10 0.496561 0.349697 0.628694
O O11 0.000000 0.500000 0.500000
O O12 0.095892 0.232803 0.458409
O O13 0.275524 0.995314 0.613872
O O14 0.565293 0.505256 0.296623
O O15 0.177102 0.394611 0.248124
#
# Coordination Sequence:
#
# PCOD8010974 Si02
#       7
#     2   2   2   2   2   2   2
#     4  12  27  41  64  94 135 157 211 263 309 362
#     4  10  22  41  65  85 130 169 215 241 310 370
#     4  12  27  42  64  97 126 168 210 260 311 360
#     4   9  19  37  64  95 117 166 207 253 318 376
#     4   9  20  37  67  89 125 161 214 254 300 375
#     4  10  21  38  65  93 126 160 208 263 314 366
#     4  10  23  40  63  92 125 175 205 250 311 366
#
# _framework density 21.169070999999999
#
# number of rings (size 3 to 8) (size 9 to 14) (size 15 to 20)
#    0.857    0.857    0.000    3.857    8.000    3.429 
#    0.000    0.714    0.000    8.571    0.000    0.000 
#    0.000    0.000    0.000    0.000    0.000    0.000 
#
# Total GULP energy -173487.156850 kJ/mol
# GULP energy per Si atom -12391.939775 kJ/mol
# Density = 2.112089 g / cm^3
# Si number density = 21.169071 Si / 1000 Ang^3
#
#
#
# Elastic Constant Matrix: (Units=GPa)
#
#
# Indices 1 2 3 4 5 6 
#
# 1 68.8464 17.8180 28.6645 25.8764 -20.9540 -3.8700
# 2 17.8180 123.0179 41.8994 21.5747 -6.8330 -12.3805
# 3 28.6645 41.8994 109.5827 33.9995 -27.7897 -6.7515
# 4 25.8764 21.5747 33.9995 48.1533 -4.5189 3.9261
# 5 -20.9540 -6.8330 -27.7897 -4.5189 24.9415 7.1961
# 6 -3.8700 -12.3805 -6.7515 3.9261 7.1961 24.7308
#
#
#
# Elastic Compliance Matrix: (Units=1/GPa)
#
#
# Indices 1 2 3 4 5 6 
#
# 1 0.025286 -0.001352 0.003883 -0.013575 0.022778 -0.000133
# 2 -0.001352 0.010269 -0.003689 -0.002137 -0.004421 0.005547
# 3 0.003883 -0.003689 0.018252 -0.011343 0.020668 -0.000469
# 4 -0.013575 -0.002137 -0.011343 0.036134 -0.015951 -0.007386
# 5 0.022778 -0.004421 0.020668 -0.015951 0.082320 -0.014427
# 6 -0.000133 0.005547 -0.000469 -0.007386 -0.014427 0.048434
#
#
# Mechanical properties :
#
#
# Convention : Reuss Voigt Hill
#
# Bulk Modulus (GPa) = 19.42107 53.13455 36.27781
# Shear Modulus (GPa) = 20.81815 33.76944 27.29380
#
# Velocity S-wave (km/s) = 3.13936 3.99836 3.59461
# Velocity P-wave (km/s) = 4.72599 6.81692 5.86538
#
# Compressibility (1/GPa) = 0.05149046
#
# Stress axis : x y z
#
# Youngs Moduli (GPa) = 39.54749 97.38363 54.78798
#
# Poissons Ratio (x) = 0.13169 -0.21274
# Poissons Ratio (y) = 0.05348 0.20211
# Poissons Ratio (z) = -0.15356 0.35924
#
# Static dielectric constant tensor:
#      x y z
#    x 3.511490 0.035260 0.138110 
#    y 0.035260 4.026650 0.281200 
#    z 0.138110 0.281200 4.308500 
# 
# 
# High freq. dielectric constant tensor:
#      x y z
#    x 1.794680 -0.004340 0.012630 
#    y -0.004340 1.847900 0.010160 
#    z 0.012630 0.010160 1.841360 
# 
# From -- ./inp_files/605621.got.cif
#   From: 2010.06.25/outbox.cif.g09.slc.cpg/sg2_303_cif.got.tgz:605621.got - 2010.06.27 13:26:56.
