data_PCOD8010057
_publ_section_title
;
Structure prediction by ZEFSAII (Michael W. Deem and Ramdas Pophale) SiO2 
 PCOD8010057
Probable space group: P -1
;
_chemical_formula_sum "Si O2"
_cell_formula_units_Z 16
_cell_length_a 16.801495
_cell_length_b 16.497832
_cell_length_c 8.095238
_cell_angle_alpha 109.438342
_cell_angle_beta 92.743351
_cell_angle_gamma 25.570961
_cell_volume 716.638178
_symmetry_space_group_name_H-M "P -1"
_symmetry_group_IT_number 2
_symmetry_cell_setting 'triclinic'
loop_
_space_group_symop_operation_xyz
x,y,z
-x,-y,-z
loop_
_atom_site_type_symbol
_atom_site_label
_atom_site_fract_x
_atom_site_fract_y
_atom_site_fract_z
Si Si1 0.330230 0.659926 0.937135
Si Si2 0.063064 0.063396 0.996447
Si Si3 0.923981 0.479704 0.981060
Si Si4 0.547497 0.330160 0.490676
Si Si5 0.224938 0.041363 0.508910
Si Si6 0.243034 0.514699 0.403634
Si Si7 0.462330 0.869978 0.098159
Si Si8 0.980194 0.345745 0.245780
O O1 0.152294 0.920489 0.071459
O O2 0.503051 0.465964 0.668697
O O3 0.500000 0.500000 0.000000
O O4 0.178105 0.725649 0.967935
O O5 0.259785 0.841437 0.735755
O O6 0.054039 0.172623 0.105332
O O7 0.883445 0.489047 0.170899
O O8 0.668644 0.731507 0.039370
O O9 0.123667 0.222958 0.732044
O O10 0.000000 0.500000 0.000000
O O11 0.637026 0.163521 0.503558
O O12 0.308069 0.535372 0.523512
O O13 0.411472 0.881470 0.280418
O O14 0.006112 0.214372 0.522432
O O15 0.444493 0.293955 0.137877
O O16 0.211882 0.464564 0.495339
O O17 0.215485 0.158494 0.200929
#
# Coordination Sequence:
#
# PCOD8010057 Si02
#       8
#     2   2   2   2   2   2   2   2
#     4  11  28  41  62  95 132 168 208 267 319 373
#     4  11  24  43  63  93 128 164 216 258 317 383
#     4  11  24  42  64  98 132 164 212 265 319 379
#     4  12  22  40  67  89 127 167 211 263 318 372
#     4  10  23  38  65  98 121 169 216 256 316 383
#     4  10  21  37  64  96 121 164 217 258 314 377
#     4  10  22  40  65  94 128 164 215 262 315 379
#     4  11  21  41  68  91 124 169 213 260 315 385
#
# _framework density 22.326471999999999
#
# number of rings (size 3 to 8) (size 9 to 14) (size 15 to 20)
#    0.000    1.250    3.750    1.125    3.500    2.500 
#    0.000    5.625    0.000    0.000    0.000    0.000 
#    0.000    0.000    0.000    0.000    0.000    0.000 
#
# Total GULP energy -198302.307752 kJ/mol
# GULP energy per Si atom -12393.894234 kJ/mol
# Density = 2.227566 g / cm^3
# Si number density = 22.326472 Si / 1000 Ang^3
#
#
#
# Elastic Constant Matrix: (Units=GPa)
#
#
# Indices 1 2 3 4 5 6 
#
# 1 50.1731 38.4829 8.5119 -14.1422 0.9433 -7.2314
# 2 38.4829 104.8255 21.8445 -9.9573 2.6735 -21.1408
# 3 8.5119 21.8445 88.9218 -3.9678 -14.0163 0.9573
# 4 -14.1422 -9.9573 -3.9678 24.4522 -4.5518 -1.7364
# 5 0.9433 2.6735 -14.0163 -4.5518 24.3124 3.7830
# 6 -7.2314 -21.1408 0.9573 -1.7364 3.7830 34.1399
#
#
#
# Elastic Compliance Matrix: (Units=1/GPa)
#
#
# Indices 1 2 3 4 5 6 
#
# 1 0.032099 -0.010401 0.000608 0.015031 0.002942 0.000780
# 2 -0.010401 0.015894 -0.003793 -0.000485 -0.004908 0.008265
# 3 0.000608 -0.003793 0.013741 0.002525 0.009335 -0.003511
# 4 0.015031 -0.000485 0.002525 0.051968 0.009979 0.004350
# 5 0.002942 -0.004908 0.009335 0.009979 0.050006 -0.007711
# 6 0.000780 0.008265 -0.003511 0.004350 -0.007711 0.035749
#
#
# Mechanical properties :
#
#
# Convention : Reuss Voigt Hill
#
# Bulk Modulus (GPa) = 28.93217 42.39989 35.66603
# Shear Modulus (GPa) = 20.99515 28.25298 24.62406
#
# Velocity S-wave (km/s) = 3.06987 3.56117 3.32461
# Velocity P-wave (km/s) = 5.05493 5.99511 5.54498
#
# Compressibility (1/GPa) = 0.03456360
#
# Stress axis : x y z
#
# Youngs Moduli (GPa) = 31.15348 62.91562 72.77328
#
# Poissons Ratio (x) = 0.65437 -0.04428
# Poissons Ratio (y) = 0.32402 0.27605
# Poissons Ratio (z) = -0.01895 0.23865
#
# Static dielectric constant tensor:
#      x y z
#    x 3.793120 -0.287400 -0.099830 
#    y -0.287400 4.094290 -0.028140 
#    z -0.099830 -0.028140 4.678620 
# 
# 
# High freq. dielectric constant tensor:
#      x y z
#    x 1.853320 -0.027380 -0.011480 
#    y -0.027380 1.882430 -0.002070 
#    z -0.011480 -0.002070 1.902090 
# 
# From -- ./inp_files/315426.got.cif
#   From: 2010.06.25/outbox.cif.g09.slc.cpg/sg2_158_cif.got.tgz:315426.got - 2010.06.27 13:26:56.
