data_PCOD8010313
_publ_section_title
;
Structure prediction by ZEFSAII (Michael W. Deem and Ramdas Pophale) SiO2 
 PCOD8010313
Probable space group: P -1
;
_chemical_formula_sum "Si O2"
_cell_formula_units_Z 16
_cell_length_a 13.831336
_cell_length_b 11.676365
_cell_length_c 14.156983
_cell_angle_alpha 116.959299
_cell_angle_beta 136.360321
_cell_angle_gamma 29.709856
_cell_volume 671.609295
_symmetry_space_group_name_H-M "P -1"
_symmetry_group_IT_number 2
_symmetry_cell_setting 'triclinic'
loop_
_space_group_symop_operation_xyz
x,y,z
-x,-y,-z
loop_
_atom_site_type_symbol
_atom_site_label
_atom_site_fract_x
_atom_site_fract_y
_atom_site_fract_z
Si Si1 0.503427 0.691353 0.565528
Si Si2 0.718265 0.999450 0.309354
Si Si3 0.002992 0.918341 0.325316
Si Si4 0.320599 0.936131 0.997927
Si Si5 0.700575 0.622849 0.482817
Si Si6 0.169305 0.002340 0.122869
Si Si7 0.971437 0.422891 0.227804
Si Si8 0.818889 0.687787 0.031251
O O1 0.169215 0.918859 0.440327
O O2 0.746241 0.387985 0.636655
O O3 0.511013 0.741804 0.485527
O O4 0.524034 0.780300 0.696709
O O5 0.844440 0.023543 0.353245
O O6 0.987366 0.698363 0.423853
O O7 0.523000 0.080294 0.124670
O O8 0.763154 0.119945 0.146114
O O9 0.664953 0.674861 0.160336
O O10 0.163247 0.057550 0.032694
O O11 0.182401 0.157515 0.915970
O O12 0.780280 0.712588 0.578340
O O13 0.505513 0.729051 0.296528
O O14 0.020060 0.233620 0.167552
O O15 0.000000 0.000000 0.000000
O O16 0.973416 0.512928 0.170329
O O17 0.000000 0.500000 0.000000
#
# Coordination Sequence:
#
# PCOD8010313 Si02
#       8
#     2   2   2   2   2   2   2   2
#     4  10  22  37  65  95 141 185 220 284 348 405
#     4  11  21  39  68 101 140 176 224 291 348 421
#     4  10  21  38  59 102 139 178 227 276 351 426
#     4  12  24  42  72 101 138 180 229 295 352 411
#     4  11  25  46  67 100 139 180 243 282 337 419
#     4  12  30  50  69  98 140 195 244 282 339 415
#     4  12  25  45  75 103 140 180 231 301 347 417
#     4  12  21  41  71 109 139 170 223 289 366 410
#
# _framework density 23.823373
#
# number of rings (size 3 to 8) (size 9 to 14) (size 15 to 20)
#    0.000    0.750    3.750    4.875    0.000    3.000 
#    0.000    0.000    0.000    0.000    0.000    0.000 
#    0.000    0.000    0.000    0.000    0.000    0.000 
#
# Total GULP energy -198245.090534 kJ/mol
# GULP energy per Si atom -12390.318158 kJ/mol
# Density = 2.376915 g / cm^3
# Si number density = 23.823373 Si / 1000 Ang^3
#
#
#
# Elastic Constant Matrix: (Units=GPa)
#
#
# Indices 1 2 3 4 5 6 
#
# 1 75.1603 11.0692 8.2073 8.3516 12.3223 -1.6879
# 2 11.0692 62.9429 -2.5068 7.4008 1.0964 0.4751
# 3 8.2073 -2.5068 125.3525 3.1917 18.0670 22.2008
# 4 8.3516 7.4008 3.1917 31.1945 -0.4490 3.6173
# 5 12.3223 1.0964 18.0670 -0.4490 35.7595 8.5224
# 6 -1.6879 0.4751 22.2008 3.6173 8.5224 36.0153
#
#
#
# Elastic Compliance Matrix: (Units=1/GPa)
#
#
# Indices 1 2 3 4 5 6 
#
# 1 0.015092 -0.002149 -0.000635 -0.003873 -0.005536 0.002826
# 2 -0.002149 0.016695 0.000631 -0.003409 -0.000048 -0.000356
# 3 -0.000635 0.000631 0.009414 -0.000411 -0.003370 -0.005002
# 4 -0.003873 -0.003409 -0.000411 0.034460 0.003049 -0.004066
# 5 -0.005536 -0.000048 -0.003370 0.003049 0.033122 -0.006326
# 6 0.002826 -0.000356 -0.005002 -0.004066 -0.006326 0.032892
#
#
# Mechanical properties :
#
#
# Convention : Reuss Voigt Hill
#
# Bulk Modulus (GPa) = 27.10346 32.99945 30.05146
# Shear Modulus (GPa) = 31.58984 37.03959 34.31471
#
# Velocity S-wave (km/s) = 3.64538 3.94732 3.79935
# Velocity P-wave (km/s) = 5.39629 5.88701 5.64698
#
# Compressibility (1/GPa) = 0.03689565
#
# Stress axis : x y z
#
# Youngs Moduli (GPa) = 66.25943 59.89861 106.22697
#
# Poissons Ratio (x) = 0.12872 0.06747
# Poissons Ratio (y) = 0.14239 -0.06708
# Poissons Ratio (z) = 0.04208 -0.03782
#
# Static dielectric constant tensor:
#      x y z
#    x 4.564830 0.493380 0.355690 
#    y 0.493380 4.930010 0.095880 
#    z 0.355690 0.095880 4.619710 
# 
# 
# High freq. dielectric constant tensor:
#      x y z
#    x 1.938280 -0.020950 0.022740 
#    y -0.020950 1.931200 0.011150 
#    z 0.022740 0.011150 1.967920 
# 
# From -- ./inp_files/532622.got.cif
#   From: 2010.06.25/outbox.cif.g09.slc.cpg/sg2_267_cif.got.tgz:532622.got - 2010.06.27 13:26:56.
