data_PCOD8010043
_publ_section_title
;
Structure prediction by ZEFSAII (Michael W. Deem and Ramdas Pophale) SiO2 
 PCOD8010043
Probable space group: P -1
;
_chemical_formula_sum "Si O2"
_cell_formula_units_Z 16
_cell_length_a 7.002166
_cell_length_b 11.887602
_cell_length_c 9.752744
_cell_angle_alpha 106.673714
_cell_angle_beta 84.297384
_cell_angle_gamma 106.606096
_cell_volume 745.106688
_symmetry_space_group_name_H-M "P -1"
_symmetry_group_IT_number 2
_symmetry_cell_setting 'triclinic'
loop_
_space_group_symop_operation_xyz
x,y,z
-x,-y,-z
loop_
_atom_site_type_symbol
_atom_site_label
_atom_site_fract_x
_atom_site_fract_y
_atom_site_fract_z
Si Si1 0.835718 0.082009 0.675509
Si Si2 0.476904 0.312960 0.199400
Si Si3 0.010105 0.640951 0.200939
Si Si4 0.523677 0.053547 0.170838
Si Si5 0.693342 0.456227 0.993569
Si Si6 0.906810 0.653306 0.672242
Si Si7 0.111071 0.907698 0.638359
Si Si8 0.790005 0.481252 0.385177
O O1 0.787080 0.079356 0.514986
O O2 0.946974 0.215645 0.767531
O O3 0.627114 0.038350 0.751632
O O4 0.977826 0.001233 0.685722
O O5 0.471066 0.181719 0.213302
O O6 0.624145 0.346895 0.071141
O O7 0.250251 0.323934 0.194737
O O8 0.559833 0.417390 0.345730
O O9 0.866424 0.574269 0.066571
O O10 0.893765 0.602999 0.336783
O O11 0.219538 0.601597 0.162853
O O12 0.737715 0.067273 0.233484
O O13 0.500000 0.000000 0.000000
O O14 0.500000 0.500000 0.000000
O O15 0.807974 0.525266 0.555108
O O16 0.967126 0.771541 0.612296
O O17 0.105244 0.625560 0.707748
#
# Coordination Sequence:
#
# PCOD8010043 Si02
#       8
#     2   2   2   2   2   2   2   2
#     4  11  24  45  68  97 134 172 226 270 327 391
#     4  11  22  39  61  93 128 163 214 269 320 388
#     4  10  21  39  63  91 125 171 209 267 325 385
#     4  12  26  44  65  97 132 177 222 270 326 389
#     4  10  22  40  61  93 130 168 218 264 323 389
#     4  11  20  39  64  93 124 162 211 266 332 380
#     4  11  24  45  68  95 132 177 221 275 325 390
#     4  10  21  37  64  94 123 155 207 269 332 381
#
# _framework density 21.473434999999998
#
# number of rings (size 3 to 8) (size 9 to 14) (size 15 to 20)
#    0.000    1.250    3.750    2.250    0.000    2.500 
#    2.250    1.250    0.000    0.000    0.000    0.000 
#    0.000    0.000    0.000    0.000    0.000    0.000 
#
# Total GULP energy -198252.355734 kJ/mol
# GULP energy per Si atom -12390.772233 kJ/mol
# Density = 2.142456 g / cm^3
# Si number density = 21.473435 Si / 1000 Ang^3
#
#
#
# Elastic Constant Matrix: (Units=GPa)
#
#
# Indices 1 2 3 4 5 6 
#
# 1 97.6418 21.2197 22.1986 12.3635 -1.7317 -6.1613
# 2 21.2197 120.7650 14.2842 15.0631 -4.6733 2.9456
# 3 22.1986 14.2842 81.6499 3.7083 4.9986 7.2622
# 4 12.3635 15.0631 3.7083 18.3299 -3.9881 -8.1359
# 5 -1.7317 -4.6733 4.9986 -3.9881 25.3628 -5.9243
# 6 -6.1613 2.9456 7.2622 -8.1359 -5.9243 29.2509
#
#
#
# Elastic Compliance Matrix: (Units=1/GPa)
#
#
# Indices 1 2 3 4 5 6 
#
# 1 0.012012 -0.001079 -0.003059 -0.005514 0.000832 0.002033
# 2 -0.001079 0.009717 -0.000670 -0.008778 -0.000362 -0.003554
# 3 -0.003059 -0.000670 0.014283 -0.004265 -0.005309 -0.006384
# 4 -0.005514 -0.008778 -0.004265 0.082483 0.018220 0.027414
# 5 0.000832 -0.000362 -0.005309 0.018220 0.047099 0.016137
# 6 0.002033 -0.003554 -0.006384 0.027414 0.016137 0.047451
#
#
# Mechanical properties :
#
#
# Convention : Reuss Voigt Hill
#
# Bulk Modulus (GPa) = 37.88116 46.16242 42.02179
# Shear Modulus (GPa) = 21.60213 30.74566 26.17389
#
# Velocity S-wave (km/s) = 3.17518 3.78802 3.49506
# Velocity P-wave (km/s) = 5.57867 6.37779 5.99157
#
# Compressibility (1/GPa) = 0.02639835
#
# Stress axis : x y z
#
# Youngs Moduli (GPa) = 83.24680 102.91330 70.01483
#
# Poissons Ratio (x) = 0.11100 0.21414
# Poissons Ratio (y) = 0.08979 0.04689
# Poissons Ratio (z) = 0.25462 0.06892
#
# Static dielectric constant tensor:
#      x y z
#    x 3.945540 0.073530 -0.135690 
#    y 0.073530 4.126440 -0.124990 
#    z -0.135690 -0.124990 3.852130 
# 
# 
# High freq. dielectric constant tensor:
#      x y z
#    x 1.845980 0.003350 -0.010250 
#    y 0.003350 1.857090 -0.001440 
#    z -0.010250 -0.001440 1.828500 
# 
# From -- ./inp_files/365011.got.cif
#   From: 2010.06.25/outbox.cif.g09.slc.cpg/sg2_183_cif.got.tgz:365011.got - 2010.06.27 13:26:56.
