data_PCOD8010188
_publ_section_title
;
Structure prediction by ZEFSAII (Michael W. Deem and Ramdas Pophale) SiO2 
 PCOD8010188
Probable space group: P -1
;
_chemical_formula_sum "Si O2"
_cell_formula_units_Z 14
_cell_length_a 9.315465
_cell_length_b 20.800197
_cell_length_c 6.384980
_cell_angle_alpha 126.275224
_cell_angle_beta 127.388128
_cell_angle_gamma 40.757451
_cell_volume 620.717524
_symmetry_space_group_name_H-M "P -1"
_symmetry_group_IT_number 2
_symmetry_cell_setting 'triclinic'
loop_
_space_group_symop_operation_xyz
x,y,z
-x,-y,-z
loop_
_atom_site_type_symbol
_atom_site_label
_atom_site_fract_x
_atom_site_fract_y
_atom_site_fract_z
Si Si1 0.864004 0.233865 0.599732
Si Si2 0.617823 0.054137 0.236279
Si Si3 0.825716 0.731557 0.824799
Si Si4 0.508755 0.407432 0.894217
Si Si5 0.869487 0.333383 0.415728
Si Si6 0.012936 0.019100 0.283117
Si Si7 0.929885 0.452637 0.009482
O O1 0.606694 0.328343 0.636064
O O2 0.929358 0.240359 0.432309
O O3 0.877431 0.136598 0.441303
O O4 0.045078 0.225170 0.898448
O O5 0.444416 0.172492 0.241518
O O6 0.864402 0.990447 0.210664
O O7 0.713430 0.046646 0.541454
O O8 0.500000 0.000000 0.000000
O O9 0.922915 0.691233 0.596503
O O10 0.871798 0.644083 0.855947
O O11 0.500000 0.500000 0.000000
O O12 0.656112 0.361372 0.146477
O O13 0.247339 0.454762 0.810074
O O14 0.804787 0.419360 0.693972
O O15 0.000000 0.000000 0.000000
O O16 0.000000 0.500000 0.000000
#
# Coordination Sequence:
#
# PCOD8010188 Si02
#       7
#     2   2   2   2   2   2   2
#     4  10  22  40  67  99 135 178 236 285 342 421
#     4  11  25  47  74  99 144 185 229 299 359 412
#     4  10  22  43  66  97 137 181 233 283 350 417
#     4  11  20  40  65  92 131 181 227 275 336 413
#     4  10  21  37  68  93 134 178 227 276 346 401
#     4  11  27  45  72 108 137 181 242 286 359 426
#     4  11  24  39  62 101 136 178 227 280 343 411
#
# _framework density 22.554544
#
# number of rings (size 3 to 8) (size 9 to 14) (size 15 to 20)
#    0.000    1.429    5.714    0.429    2.000    6.857 
#    0.000    0.000    0.000    0.000    0.000    0.000 
#    0.000    0.000    0.000    0.000    0.000    0.000 
#
# Total GULP energy -173435.019206 kJ/mol
# GULP energy per Si atom -12388.215658 kJ/mol
# Density = 2.250321 g / cm^3
# Si number density = 22.554544 Si / 1000 Ang^3
#
#
#
# Elastic Constant Matrix: (Units=GPa)
#
#
# Indices 1 2 3 4 5 6 
#
# 1 129.4114 58.2827 36.0039 -8.9044 -4.8628 8.7243
# 2 58.2827 146.2633 49.3122 -11.8533 -5.4711 -1.7869
# 3 36.0039 49.3122 106.8440 -14.7803 -10.0542 3.7754
# 4 -8.9044 -11.8533 -14.7803 30.4163 -0.3490 -0.3034
# 5 -4.8628 -5.4711 -10.0542 -0.3490 38.1422 -5.7097
# 6 8.7243 -1.7869 3.7754 -0.3034 -5.7097 35.1935
#
#
#
# Elastic Compliance Matrix: (Units=1/GPa)
#
#
# Indices 1 2 3 4 5 6 
#
# 1 0.009910 -0.003381 -0.001583 0.000790 0.000001 -0.002452
# 2 -0.003381 0.009338 -0.003030 0.001198 0.000377 0.001709
# 3 -0.001583 -0.003030 0.012141 0.004278 0.002510 -0.000620
# 4 0.000790 0.001198 0.004278 0.035674 0.001726 -0.000006
# 5 0.000001 0.000377 0.002510 0.001726 0.027584 0.004240
# 6 -0.002452 0.001709 -0.000620 -0.000006 0.004240 0.029863
#
#
# Mechanical properties :
#
#
# Convention : Reuss Voigt Hill
#
# Bulk Modulus (GPa) = 64.92768 74.41292 69.67030
# Shear Modulus (GPa) = 34.33330 36.67839 35.50584
#
# Velocity S-wave (km/s) = 3.90581 4.03700 3.97195
# Velocity P-wave (km/s) = 7.01356 7.40229 7.21054
#
# Compressibility (1/GPa) = 0.01540175
#
# Stress axis : x y z
#
# Youngs Moduli (GPa) = 100.90689 107.09193 82.36522
#
# Poissons Ratio (x) = 0.36210 0.13038
# Poissons Ratio (y) = 0.34118 0.24953
# Poissons Ratio (z) = 0.15973 0.32444
#
# Static dielectric constant tensor:
#      x y z
#    x 4.827520 0.195560 -1.021850 
#    y 0.195560 3.964490 -0.167760 
#    z -1.021850 -0.167760 4.896570 
# 
# 
# High freq. dielectric constant tensor:
#      x y z
#    x 1.886790 0.010530 -0.011340 
#    y 0.010530 1.887610 -0.008370 
#    z -0.011340 -0.008370 1.888540 
# 
# From -- ./inp_files/53833.got.cif
#   From: 2010.06.25/outbox.cif.g09.slc.cpg/sg2_27_cif.got.tgz:53833.got - 2010.06.27 13:26:56.
