data_PCOD8010483
_publ_section_title
;
Structure prediction by ZEFSAII (Michael W. Deem and Ramdas Pophale) SiO2 
 PCOD8010483
Probable space group: P -1
;
_chemical_formula_sum "Si O2"
_cell_formula_units_Z 16
_cell_length_a 12.291258
_cell_length_b 6.633459
_cell_length_c 10.468761
_cell_angle_alpha 75.426988
_cell_angle_beta 82.586589
_cell_angle_gamma 62.565423
_cell_volume 733.104623
_symmetry_space_group_name_H-M "P -1"
_symmetry_group_IT_number 2
_symmetry_cell_setting 'triclinic'
loop_
_space_group_symop_operation_xyz
x,y,z
-x,-y,-z
loop_
_atom_site_type_symbol
_atom_site_label
_atom_site_fract_x
_atom_site_fract_y
_atom_site_fract_z
Si Si1 0.080560 0.096895 0.311669
Si Si2 0.546617 0.334913 0.690039
Si Si3 0.152599 0.214067 0.907570
Si Si4 0.322267 0.274862 0.664744
Si Si5 0.757222 0.216639 0.869345
Si Si6 0.877691 0.512267 0.878183
Si Si7 0.607348 0.160850 0.435342
Si Si8 0.173086 0.782077 0.589277
O O1 0.127168 0.292293 0.251910
O O2 0.932794 0.212733 0.301870
O O3 0.133243 0.901714 0.228324
O O4 0.117182 0.984376 0.461891
O O5 0.425192 0.297432 0.734627
O O6 0.627484 0.266079 0.816824
O O7 0.622243 0.169935 0.586035
O O8 0.513013 0.605737 0.623271
O O9 0.229605 0.224121 0.773280
O O10 0.010691 0.288054 0.881960
O O11 0.150429 0.389589 0.990122
O O12 0.220661 0.947740 0.985844
O O13 0.245117 0.519259 0.562597
O O14 0.394771 0.074076 0.579778
O O15 0.766832 0.449002 0.872098
O O16 0.728949 0.163881 0.354466
#
# Coordination Sequence:
#
# PCOD8010483 Si02
#       8
#     2   2   2   2   2   2   2   2
#     4  10  21  38  61  96 131 161 211 268 316 387
#     4  10  23  44  61  97 128 168 223 264 310 386
#     4  10  23  42  62 100 124 170 218 262 313 391
#     4  11  23  41  69  92 131 174 212 262 323 381
#     4  11  23  40  68  92 131 171 214 263 322 380
#     4  10  22  42  65  91 132 174 206 264 325 380
#     4  10  22  41  66  90 129 177 210 264 324 378
#     4  10  21  38  60  97 132 159 212 268 314 388
#
# _framework density 21.824988000000001
#
# number of rings (size 3 to 8) (size 9 to 14) (size 15 to 20)
#    0.000    1.750    2.500    0.750    1.750    5.500 
#    0.000    3.750    0.000    0.000    0.000    0.000 
#    0.000    0.000    0.000    0.000    0.000    0.000 
#
# Total GULP energy -198339.285552 kJ/mol
# GULP energy per Si atom -12396.205347 kJ/mol
# Density = 2.177531 g / cm^3
# Si number density = 21.824988 Si / 1000 Ang^3
#
#
#
# Elastic Constant Matrix: (Units=GPa)
#
#
# Indices 1 2 3 4 5 6 
#
# 1 84.3930 18.0611 8.1551 0.4299 11.5948 1.1695
# 2 18.0611 78.9704 9.4380 -8.1522 15.7750 3.3080
# 3 8.1551 9.4380 57.1665 -11.1389 11.1007 -0.0582
# 4 0.4299 -8.1522 -11.1389 25.4552 -5.6246 -3.0612
# 5 11.5948 15.7750 11.1007 -5.6246 21.6004 4.2036
# 6 1.1695 3.3080 -0.0582 -3.0612 4.2036 33.9546
#
#
#
# Elastic Compliance Matrix: (Units=1/GPa)
#
#
# Indices 1 2 3 4 5 6 
#
# 1 0.013179 -0.002009 -0.000905 -0.002525 -0.005846 0.000236
# 2 -0.002009 0.015284 0.000159 0.002921 -0.009406 0.000008
# 3 -0.000905 0.000159 0.020735 0.007434 -0.008701 0.001799
# 4 -0.002525 0.002921 0.007434 0.045347 0.006610 0.003085
# 5 -0.005846 -0.009406 -0.008701 0.006610 0.063699 -0.006187
# 6 0.000236 0.000008 0.001799 0.003085 -0.006187 0.030489
#
#
# Mechanical properties :
#
#
# Convention : Reuss Voigt Hill
#
# Bulk Modulus (GPa) = 22.88943 32.42649 27.65796
# Shear Modulus (GPa) = 23.94551 28.52708 26.23629
#
# Velocity S-wave (km/s) = 3.31593 3.61928 3.47092
# Velocity P-wave (km/s) = 5.01708 5.68818 5.36313
#
# Compressibility (1/GPa) = 0.04368829
#
# Stress axis : x y z
#
# Youngs Moduli (GPa) = 75.87551 65.42984 48.22660
#
# Poissons Ratio (x) = 0.13144 0.04365
# Poissons Ratio (y) = 0.15243 -0.00766
# Poissons Ratio (z) = 0.06868 -0.01040
#
# Static dielectric constant tensor:
#      x y z
#    x 4.082910 -0.175920 -0.153540 
#    y -0.175920 4.001240 -0.175390 
#    z -0.153540 -0.175390 3.675750 
# 
# 
# High freq. dielectric constant tensor:
#      x y z
#    x 1.865130 -0.006040 -0.013180 
#    y -0.006040 1.858550 -0.014750 
#    z -0.013180 -0.014750 1.834570 
# 
# From -- ./inp_files/77850.got.cif
#   From: 2010.06.25/outbox.cif.g09.slc.cpg/sg2_39_cif.got.tgz:77850.got - 2010.06.27 13:26:56.
