data_PCOD8010497
_publ_section_title
;
Structure prediction by ZEFSAII (Michael W. Deem and Ramdas Pophale) SiO2 
 PCOD8010497
Probable space group: P -1
;
_chemical_formula_sum "Si O2"
_cell_formula_units_Z 16
_cell_length_a 8.310871
_cell_length_b 9.388611
_cell_length_c 22.690067
_cell_angle_alpha 114.309572
_cell_angle_beta 123.895848
_cell_angle_gamma 31.886923
_cell_volume 768.526376
_symmetry_space_group_name_H-M "P -1"
_symmetry_group_IT_number 2
_symmetry_cell_setting 'triclinic'
loop_
_space_group_symop_operation_xyz
x,y,z
-x,-y,-z
loop_
_atom_site_type_symbol
_atom_site_label
_atom_site_fract_x
_atom_site_fract_y
_atom_site_fract_z
Si Si1 0.724084 0.551116 0.443150
Si Si2 0.988798 0.512717 0.787658
Si Si3 0.150750 0.333865 0.918775
Si Si4 0.954077 0.991533 0.556700
Si Si5 0.180315 0.695415 0.790555
Si Si6 0.801183 0.945840 0.284423
Si Si7 0.668479 0.235238 0.717210
Si Si8 0.539776 0.184943 0.078605
O O1 0.442324 0.764560 0.471303
O O2 0.572225 0.669148 0.367100
O O3 0.000000 0.500000 0.500000
O O4 0.867118 0.284377 0.434248
O O5 0.191467 0.355143 0.862935
O O6 0.114549 0.587431 0.797044
O O7 0.094865 0.303563 0.729456
O O8 0.590128 0.774376 0.762961
O O9 0.789249 0.629875 0.917879
O O10 0.181167 0.126529 0.897986
O O11 0.447253 0.224603 0.997506
O O12 0.113223 0.027757 0.632316
O O13 0.000000 0.000000 0.500000
O O14 0.455819 0.484199 0.760086
O O15 0.309398 0.743448 0.869296
O O16 0.823793 0.981553 0.737926
O O17 0.018240 0.872078 0.262251
#
# Coordination Sequence:
#
# PCOD8010497 Si02
#       8
#     2   2   2   2   2   2   2   2
#     4  11  24  42  64  91 121 158 200 247 301 355
#     4  12  24  38  61  93 123 154 197 254 305 341
#     4  10  21  38  61  86 116 159 202 238 289 360
#     4  11  24  42  64  91 121 158 200 247 301 355
#     4  12  24  38  61  93 123 154 197 254 305 341
#     4  11  23  42  63  86 119 163 204 239 291 364
#     4  11  23  42  63  86 119 163 204 239 291 364
#     4  10  21  38  61  86 116 159 202 238 289 360
#
# _framework density 20.819064999999998
#
# number of rings (size 3 to 8) (size 9 to 14) (size 15 to 20)
#    0.000    1.000    0.000    9.000    0.000    3.500 
#    0.000    0.000    0.000    7.500    0.000    0.000 
#    0.000    0.000    0.000    0.000    0.000    0.000 
#
# Total GULP energy -198503.194583 kJ/mol
# GULP energy per Si atom -12406.449661 kJ/mol
# Density = 2.077168 g / cm^3
# Si number density = 20.819065 Si / 1000 Ang^3
#
#
#
# Elastic Constant Matrix: (Units=GPa)
#
#
# Indices 1 2 3 4 5 6 
#
# 1 105.2651 46.7106 90.1619 5.8763 4.2552 14.2202
# 2 46.7106 147.9820 65.7262 8.3977 7.8142 6.3764
# 3 90.1619 65.7262 155.1816 9.9217 9.9559 13.4507
# 4 5.8763 8.3977 9.9217 40.1859 1.4763 2.2758
# 5 4.2552 7.8142 9.9559 1.4763 21.6166 2.4439
# 6 14.2202 6.3764 13.4507 2.2758 2.4439 43.2264
#
#
#
# Elastic Compliance Matrix: (Units=1/GPa)
#
#
# Indices 1 2 3 4 5 6 
#
# 1 0.019563 -0.001433 -0.010629 0.000165 0.001894 -0.003033
# 2 -0.001433 0.008501 -0.002628 -0.000871 -0.001540 0.000168
# 3 -0.010629 -0.002628 0.014044 -0.001229 -0.003316 -0.000234
# 4 0.000165 -0.000871 -0.001229 0.025422 -0.000793 -0.000837
# 5 0.001894 -0.001540 -0.003316 -0.000793 0.048258 -0.002051
# 6 -0.003033 0.000168 -0.000234 -0.000837 -0.002051 0.024340
#
#
# Mechanical properties :
#
#
# Convention : Reuss Voigt Hill
#
# Bulk Modulus (GPa) = 78.56261 90.40290 84.48275
# Shear Modulus (GPa) = 28.77702 34.72779 31.75240
#
# Velocity S-wave (km/s) = 3.72189 4.08864 3.90957
# Velocity P-wave (km/s) = 7.50252 8.11213 7.81327
#
# Compressibility (1/GPa) = 0.01272870
#
# Stress axis : x y z
#
# Youngs Moduli (GPa) = 51.11583 117.63893 71.20497
#
# Poissons Ratio (x) = 0.16860 0.75682
# Poissons Ratio (y) = 0.07326 0.18711
# Poissons Ratio (z) = 0.54329 0.30913
#
# Static dielectric constant tensor:
#      x y z
#    x 3.507300 -0.091210 -0.014910 
#    y -0.091210 4.175280 0.018260 
#    z -0.014910 0.018260 3.934020 
# 
# 
# High freq. dielectric constant tensor:
#      x y z
#    x 1.794200 -0.001730 -0.001190 
#    y -0.001730 1.843010 0.001850 
#    z -0.001190 0.001850 1.828570 
# 
# From -- ./inp_files/606418.got.cif
#   From: 2010.06.25/outbox.cif.g09.slc.cpg/sg2_304_cif.got.tgz:606418.got - 2010.06.27 13:26:56.
