data_PCOD8010184
_publ_section_title
;
Structure prediction by ZEFSAII (Michael W. Deem and Ramdas Pophale) SiO2 
 PCOD8010184
Probable space group: P -1
;
_chemical_formula_sum "Si O2"
_cell_formula_units_Z 14
_cell_length_a 8.834082
_cell_length_b 9.373315
_cell_length_c 20.951751
_cell_angle_alpha 29.495155
_cell_angle_beta 47.591251
_cell_angle_gamma 49.997568
_cell_volume 623.208032
_symmetry_space_group_name_H-M "P -1"
_symmetry_group_IT_number 2
_symmetry_cell_setting 'triclinic'
loop_
_space_group_symop_operation_xyz
x,y,z
-x,-y,-z
loop_
_atom_site_type_symbol
_atom_site_label
_atom_site_fract_x
_atom_site_fract_y
_atom_site_fract_z
Si Si1 0.527655 0.250025 0.143504
Si Si2 0.737296 0.035124 0.915794
Si Si3 0.878557 0.423947 0.834410
Si Si4 0.077001 0.570878 0.037113
Si Si5 0.069915 0.897980 0.292497
Si Si6 0.306573 0.420692 0.655254
Si Si7 0.275137 0.430322 0.512799
O O1 0.308993 0.296576 0.225876
O O2 0.583645 0.916206 0.233531
O O3 0.500000 0.500000 0.000000
O O4 0.725132 0.334533 0.094382
O O5 0.813059 0.183524 0.899031
O O6 0.789755 0.200704 0.771862
O O7 0.500000 0.000000 0.000000
O O8 0.872986 0.709221 0.002230
O O9 0.909070 0.292827 0.948417
O O10 0.098807 0.515649 0.717484
O O11 0.082369 0.228829 0.177886
O O12 0.161106 0.713730 0.398654
O O13 0.831402 0.850194 0.367546
O O14 0.243673 0.486092 0.574943
O O15 0.477215 0.621381 0.551763
#
# Coordination Sequence:
#
# PCOD8010184 Si02
#       7
#     2   2   2   2   2   2   2
#     4  10  21  37  68 104 134 165 217 281 339 393
#     4  12  25  40  69 102 140 171 219 288 350 403
#     4  11  23  41  69 104 132 172 229 272 335 408
#     4  11  23  42  68 101 139 173 220 283 347 406
#     4  11  23  45  66  96 136 183 223 273 350 391
#     4  11  22  44  69  98 131 183 232 274 331 390
#     4  10  23  42  72  87 136 193 226 269 327 406
#
# _framework density 22.464407000000001
#
# number of rings (size 3 to 8) (size 9 to 14) (size 15 to 20)
#    0.000    1.143    2.857    3.429    4.000    1.143 
#    0.000    7.143    3.143    0.000    0.000    0.000 
#    0.000    0.000    0.000    0.000    0.000    0.000 
#
# Total GULP energy -173495.729329 kJ/mol
# GULP energy per Si atom -12392.552095 kJ/mol
# Density = 2.241328 g / cm^3
# Si number density = 22.464407 Si / 1000 Ang^3
#
#
#
# Elastic Constant Matrix: (Units=GPa)
#
#
# Indices 1 2 3 4 5 6 
#
# 1 120.0169 34.1418 35.3049 21.0533 -11.1739 -22.9652
# 2 34.1418 95.9938 34.6640 17.0724 -8.6297 -36.3181
# 3 35.3049 34.6640 82.3171 16.3408 -3.6537 -11.0260
# 4 21.0533 17.0724 16.3408 29.5690 -7.3689 -13.3644
# 5 -11.1739 -8.6297 -3.6537 -7.3689 51.2801 13.2784
# 6 -22.9652 -36.3181 -11.0260 -13.3644 13.2784 47.8274
#
#
#
# Elastic Compliance Matrix: (Units=1/GPa)
#
#
# Indices 1 2 3 4 5 6 
#
# 1 0.010757 -0.001069 -0.002997 -0.004162 0.000760 0.002288
# 2 -0.001069 0.016945 -0.004936 -0.001516 -0.000803 0.011015
# 3 -0.002997 -0.004936 0.016173 -0.005331 -0.000360 -0.002849
# 4 -0.004162 -0.001516 -0.005331 0.044632 0.002991 0.007263
# 5 0.000760 -0.000803 -0.000360 0.002991 0.021338 -0.005416
# 6 0.002288 0.011015 -0.002849 0.007263 -0.005416 0.033248
#
#
# Mechanical properties :
#
#
# Convention : Reuss Voigt Hill
#
# Bulk Modulus (GPa) = 38.65535 56.28326 47.46930
# Shear Modulus (GPa) = 29.46027 38.68310 34.07169
#
# Velocity S-wave (km/s) = 3.62528 4.15417 3.89870
# Velocity P-wave (km/s) = 5.89646 6.93674 6.43765
#
# Compressibility (1/GPa) = 0.02586964
#
# Stress axis : x y z
#
# Youngs Moduli (GPa) = 92.96683 59.01406 61.83218
#
# Poissons Ratio (x) = 0.06312 0.18529
# Poissons Ratio (y) = 0.09943 0.30522
# Poissons Ratio (z) = 0.27859 0.29131
#
# Static dielectric constant tensor:
#      x y z
#    x 4.674120 -0.386300 -0.216300 
#    y -0.386300 4.187150 0.304850 
#    z -0.216300 0.304850 4.168650 
# 
# 
# High freq. dielectric constant tensor:
#      x y z
#    x 1.915560 -0.013170 -0.007760 
#    y -0.013170 1.858500 0.012920 
#    z -0.007760 0.012920 1.883030 
# 
# From -- ./inp_files/499348.got.cif
#   From: 2010.06.25/outbox.cif.g09.slc.cpg/sg2_250_cif.got.tgz:499348.got - 2010.06.27 13:26:56.
