data_PCOD8010648
_publ_section_title
;
Structure prediction by ZEFSAII (Michael W. Deem and Ramdas Pophale) SiO2 
 PCOD8010648
Probable space group: P -1
;
_chemical_formula_sum "Si O2"
_cell_formula_units_Z 14
_cell_length_a 12.046930
_cell_length_b 9.816108
_cell_length_c 9.164591
_cell_angle_alpha 133.709989
_cell_angle_beta 65.121497
_cell_angle_gamma 124.617690
_cell_volume 643.973472
_symmetry_space_group_name_H-M "P -1"
_symmetry_group_IT_number 2
_symmetry_cell_setting 'triclinic'
loop_
_space_group_symop_operation_xyz
x,y,z
-x,-y,-z
loop_
_atom_site_type_symbol
_atom_site_label
_atom_site_fract_x
_atom_site_fract_y
_atom_site_fract_z
Si Si1 0.412869 0.708589 0.448828
Si Si2 0.415526 0.762518 0.824488
Si Si3 0.328666 0.056096 0.709988
Si Si4 0.129028 0.179400 0.756170
Si Si5 0.169017 0.021188 0.321876
Si Si6 0.157461 0.604198 0.020120
Si Si7 0.627018 0.727317 0.849610
O O1 0.445499 0.737412 0.622384
O O2 0.553410 0.795321 0.349650
O O3 0.335043 0.463485 0.273220
O O4 0.319452 0.822579 0.534085
O O5 0.254092 0.672414 0.873648
O O6 0.473220 0.634604 0.804262
O O7 0.500000 0.000000 0.000000
O O8 0.188248 0.059372 0.741704
O O9 0.359020 0.129520 0.913534
O O10 0.174848 0.179531 0.562827
O O11 0.182339 0.422780 0.958079
O O12 0.967492 0.058197 0.757642
O O13 0.285274 0.134190 0.227393
O O14 0.187020 0.825098 0.245373
O O15 0.000000 0.500000 0.000000
#
# Coordination Sequence:
#
# PCOD8010648 Si02
#       7
#     2   2   2   2   2   2   2
#     4  11  24  40  61  86 125 159 199 254 309 358
#     4  12  21  39  66  93 119 158 207 255 302 357
#     4  11  24  40  57  89 124 162 202 252 305 368
#     4  10  22  39  61  88 121 163 202 247 309 364
#     4  10  21  39  63  88 119 158 208 254 297 363
#     4  10  21  38  62  91 121 154 199 252 303 358
#     4  12  23  39  62  91 121 159 206 254 306 359
#
# _framework density 21.740026
#
# number of rings (size 3 to 8) (size 9 to 14) (size 15 to 20)
#    0.000    1.143    2.857    3.429    0.000    1.714 
#    0.000    0.714    0.000    0.000    0.000    0.000 
#    0.000    0.000    0.000    0.000    0.000    0.000 
#
# Total GULP energy -173484.846508 kJ/mol
# GULP energy per Si atom -12391.774751 kJ/mol
# Density = 2.169054 g / cm^3
# Si number density = 21.740026 Si / 1000 Ang^3
#
#
#
# Elastic Constant Matrix: (Units=GPa)
#
#
# Indices 1 2 3 4 5 6 
#
# 1 105.3562 39.1948 19.2570 6.5968 -18.2009 -9.2707
# 2 39.1948 83.1231 27.1778 16.2586 -12.9735 1.9251
# 3 19.2570 27.1778 62.0161 12.3198 -20.7653 4.5789
# 4 6.5968 16.2586 12.3198 50.8073 -13.4987 -17.2642
# 5 -18.2009 -12.9735 -20.7653 -13.4987 25.2916 3.3968
# 6 -9.2707 1.9251 4.5789 -17.2642 3.3968 37.3647
#
#
#
# Elastic Compliance Matrix: (Units=1/GPa)
#
#
# Indices 1 2 3 4 5 6 
#
# 1 0.013203 -0.005850 0.000020 0.003834 0.007943 0.004624
# 2 -0.005850 0.017295 -0.004978 -0.005424 -0.001772 -0.004078
# 3 0.000020 -0.004978 0.024939 -0.001442 0.017850 -0.005084
# 4 0.003834 -0.005424 -0.001442 0.029302 0.012578 0.013803
# 5 0.007943 -0.001772 0.017850 0.012578 0.065753 -0.000291
# 6 0.004624 -0.004078 -0.005084 0.013803 -0.000291 0.035148
#
#
# Mechanical properties :
#
#
# Convention : Reuss Voigt Hill
#
# Bulk Modulus (GPa) = 29.56634 46.86162 38.21398
# Shear Modulus (GPa) = 22.88037 33.68376 28.28207
#
# Velocity S-wave (km/s) = 3.24767 3.94050 3.61074
# Velocity P-wave (km/s) = 5.26238 6.50428 5.91601
#
# Compressibility (1/GPa) = 0.03382224
#
# Stress axis : x y z
#
# Youngs Moduli (GPa) = 75.73961 57.82044 40.09859
#
# Poissons Ratio (x) = 0.33823 -0.00081
# Poissons Ratio (y) = 0.44305 0.19960
# Poissons Ratio (z) = -0.00153 0.28781
#
# Static dielectric constant tensor:
#      x y z
#    x 4.130560 -0.147650 -0.466090 
#    y -0.147650 3.993990 0.317620 
#    z -0.466090 0.317620 4.204210 
# 
# 
# High freq. dielectric constant tensor:
#      x y z
#    x 1.846590 -0.001850 -0.033330 
#    y -0.001850 1.853220 0.014650 
#    z -0.033330 0.014650 1.859550 
# 
# From -- ./inp_files/184625.got.cif
#   From: 2010.06.25/outbox.cif.g09.slc.cpg/sg2_93_cif.got.tgz:184625.got - 2010.06.27 13:26:56.
