data_PCOD8010959
_publ_section_title
;
Structure prediction by ZEFSAII (Michael W. Deem and Ramdas Pophale) SiO2 
 PCOD8010959
Probable space group: P -1
;
_chemical_formula_sum "Si O2"
_cell_formula_units_Z 16
_cell_length_a 12.096952
_cell_length_b 10.490403
_cell_length_c 14.180462
_cell_angle_alpha 79.811653
_cell_angle_beta 100.612617
_cell_angle_gamma 155.588304
_cell_volume 730.819002
_symmetry_space_group_name_H-M "P -1"
_symmetry_group_IT_number 2
_symmetry_cell_setting 'triclinic'
loop_
_space_group_symop_operation_xyz
x,y,z
-x,-y,-z
loop_
_atom_site_type_symbol
_atom_site_label
_atom_site_fract_x
_atom_site_fract_y
_atom_site_fract_z
Si Si1 0.880756 0.430724 0.284743
Si Si2 0.082995 0.920676 0.200684
Si Si3 0.215503 0.808723 0.884766
Si Si4 0.290841 0.462757 0.477030
Si Si5 0.620177 0.156271 0.599099
Si Si6 0.410407 0.528057 0.922171
Si Si7 0.810845 0.897242 0.598108
Si Si8 0.253016 0.584465 0.034463
O O1 0.932199 0.627470 0.229111
O O2 0.901595 0.347966 0.215214
O O3 0.098465 0.623515 0.373371
O O4 0.581744 0.110642 0.320037
O O5 0.852925 0.777678 0.143258
O O6 0.333939 0.160390 0.139492
O O7 0.197832 0.100936 0.291193
O O8 0.026881 0.722061 0.913519
O O9 0.513965 0.179196 0.880503
O O10 0.237341 0.704791 0.965161
O O11 0.328707 0.637850 0.407327
O O12 0.564817 0.712427 0.536931
O O13 0.194618 0.259833 0.409702
O O14 0.073670 0.243886 0.554938
O O15 0.500000 0.000000 0.500000
O O16 0.500000 0.500000 0.000000
O O17 0.304247 0.528624 0.973670
#
# Coordination Sequence:
#
# PCOD8010959 Si02
#       8
#     2   2   2   2   2   2   2   2
#     4  12  24  40  65  96 129 170 216 265 320 383
#     4  12  24  43  67  95 128 168 227 261 319 397
#     4  10  21  38  65  92 120 166 210 259 313 385
#     4  10  21  41  65  93 131 167 218 256 319 384
#     4  12  24  40  62  98 138 167 205 268 332 376
#     4  12  26  45  65  94 132 169 216 275 327 384
#     4  10  21  41  69  91 122 178 214 261 308 379
#     4  10  21  40  65  89 124 161 210 261 325 381
#
# _framework density 21.893246000000001
#
# number of rings (size 3 to 8) (size 9 to 14) (size 15 to 20)
#    0.000    1.000    1.250    6.000    3.500    0.000 
#    6.750    0.000    0.000    0.000    0.000    0.000 
#    0.000    0.000    0.000    0.000    0.000    0.000 
#
# Total GULP energy -198423.821983 kJ/mol
# GULP energy per Si atom -12401.488874 kJ/mol
# Density = 2.184342 g / cm^3
# Si number density = 21.893246 Si / 1000 Ang^3
#
#
#
# Elastic Constant Matrix: (Units=GPa)
#
#
# Indices 1 2 3 4 5 6 
#
# 1 93.6948 39.8910 39.7946 -11.1204 -4.1744 9.5970
# 2 39.8910 135.9652 50.1596 5.9354 -4.7789 11.4324
# 3 39.7946 50.1596 111.9100 11.9314 -16.8211 -1.7552
# 4 -11.1204 5.9354 11.9314 43.5929 4.1076 -0.1675
# 5 -4.1744 -4.7789 -16.8211 4.1076 31.5241 1.4268
# 6 9.5970 11.4324 -1.7552 -0.1675 1.4268 33.7483
#
#
#
# Elastic Compliance Matrix: (Units=1/GPa)
#
#
# Indices 1 2 3 4 5 6 
#
# 1 0.014851 -0.002493 -0.005078 0.005664 -0.001699 -0.003543
# 2 -0.002493 0.009604 -0.003425 -0.000974 -0.000452 -0.002708
# 3 -0.005078 -0.003425 0.013903 -0.005261 0.006776 0.003015
# 4 0.005664 -0.000974 -0.005261 0.026480 -0.005602 -0.001186
# 5 -0.001699 -0.000452 0.006776 -0.005602 0.035799 -0.000553
# 6 -0.003543 -0.002708 0.003015 -0.001186 -0.000553 0.031730
#
#
# Mechanical properties :
#
#
# Convention : Reuss Voigt Hill
#
# Bulk Modulus (GPa) = 61.10131 66.80672 63.95401
# Shear Modulus (GPa) = 31.28622 35.88804 33.58713
#
# Velocity S-wave (km/s) = 3.78436 4.05313 3.92105
# Velocity P-wave (km/s) = 6.86036 7.24464 7.05512
#
# Compressibility (1/GPa) = 0.01636626
#
# Stress axis : x y z
#
# Youngs Moduli (GPa) = 67.33748 104.12348 71.92472
#
# Poissons Ratio (x) = 0.25954 0.36526
# Poissons Ratio (y) = 0.16785 0.24633
# Poissons Ratio (z) = 0.34196 0.35661
#
# Static dielectric constant tensor:
#      x y z
#    x -0.073770 -1.599690 -0.531660 
#    y -1.599690 3.597330 -0.111750 
#    z -0.531660 -0.111750 3.907680 
# 
# 
# High freq. dielectric constant tensor:
#      x y z
#    x 1.853720 0.013190 -0.010570 
#    y 0.013190 1.882490 0.010720 
#    z -0.010570 0.010720 1.857700 
# 
# From -- ./inp_files/519684.got.cif
#   From: 2010.06.25/outbox.cif.g09.slc.cpg/sg2_260_cif.got.tgz:519684.got - 2010.06.27 13:26:56.
