data_PCOD8010022
_publ_section_title
;
Structure prediction by ZEFSAII (Michael W. Deem and Ramdas Pophale) SiO2 
 PCOD8010022
Probable space group: P -1
;
_chemical_formula_sum "Si O2"
_cell_formula_units_Z 16
_cell_length_a 8.468687
_cell_length_b 18.546935
_cell_length_c 12.263735
_cell_angle_alpha 150.221109
_cell_angle_beta 103.376932
_cell_angle_gamma 65.063975
_cell_volume 827.857552
_symmetry_space_group_name_H-M "P -1"
_symmetry_group_IT_number 2
_symmetry_cell_setting 'triclinic'
loop_
_space_group_symop_operation_xyz
x,y,z
-x,-y,-z
loop_
_atom_site_type_symbol
_atom_site_label
_atom_site_fract_x
_atom_site_fract_y
_atom_site_fract_z
Si Si1 0.440811 0.311855 0.716181
Si Si2 0.737384 0.038019 0.266844
Si Si3 0.087584 0.933477 0.312241
Si Si4 0.359940 0.049936 0.443815
Si Si5 0.201472 0.860957 0.821678
Si Si6 0.376376 0.504196 0.386731
Si Si7 0.586825 0.419910 0.081835
Si Si8 0.468017 0.165873 0.011511
O O1 0.633259 0.167635 0.516049
O O2 0.314398 0.225380 0.613060
O O3 0.356745 0.444079 0.778770
O O4 0.458442 0.397845 0.941859
O O5 0.738114 0.128851 0.276903
O O6 0.647171 0.919313 0.068760
O O7 0.943562 0.933960 0.202397
O O8 0.168812 0.056565 0.453883
O O9 0.234137 0.746849 0.093311
O O10 0.000000 0.000000 0.500000
O O11 0.500000 0.000000 0.500000
O O12 0.455502 0.903219 0.183996
O O13 0.202045 0.683967 0.596883
O O14 0.356802 0.867369 0.930778
O O15 0.000000 0.000000 0.000000
O O16 0.500000 0.500000 0.500000
O O17 0.481388 0.478722 0.255457
O O18 0.328836 0.356566 0.214330
#
# Coordination Sequence:
#
# PCOD8010022 Si02
#       8
#     2   2   2   2   2   2   2   2
#     4  10  21  37  64  91 118 166 200 248 312 367
#     4  11  22  39  61  90 124 162 204 253 307 366
#     4  12  22  36  60  93 124 159 203 252 304 364
#     4  11  19  37  62  92 121 157 204 250 305 367
#     4  11  23  40  62  91 119 159 208 261 305 362
#     4  10  21  38  64  87 118 164 205 246 308 366
#     4  11  20  39  61  89 126 162 203 247 309 371
#     4  10  21  40  61  88 120 165 205 247 310 364
#
# _framework density 19.326996000000001
#
# number of rings (size 3 to 8) (size 9 to 14) (size 15 to 20)
#    0.000    1.250    5.000    1.875    1.750    0.000 
#    0.000    5.000    0.000    0.000    0.000    0.000 
#    0.000    0.000    0.000    0.000    0.000    0.000 
#
# Total GULP energy -198294.554977 kJ/mol
# GULP energy per Si atom -12393.409686 kJ/mol
# Density = 1.928301 g / cm^3
# Si number density = 19.326996 Si / 1000 Ang^3
#
#
#
# Elastic Constant Matrix: (Units=GPa)
#
#
# Indices 1 2 3 4 5 6 
#
# 1 93.5241 35.0740 33.5080 16.1638 11.2579 1.6376
# 2 35.0740 106.7655 47.4800 8.1750 4.0967 2.9879
# 3 33.5080 47.4800 107.0723 17.6416 0.5279 4.0105
# 4 16.1638 8.1750 17.6416 45.4724 5.8417 4.4639
# 5 11.2579 4.0967 0.5279 5.8417 32.9978 1.6125
# 6 1.6376 2.9879 4.0105 4.4639 1.6125 32.6290
#
#
#
# Elastic Compliance Matrix: (Units=1/GPa)
#
#
# Indices 1 2 3 4 5 6 
#
# 1 0.013658 -0.003047 -0.002440 -0.002926 -0.003748 0.000479
# 2 -0.003047 0.012414 -0.004658 0.000776 -0.000540 -0.000491
# 3 -0.002440 -0.004658 0.012746 -0.003414 0.001843 -0.000642
# 4 -0.002926 0.000776 -0.003414 0.024913 -0.003320 -0.002749
# 5 -0.003748 -0.000540 0.001843 -0.003320 0.032264 -0.001129
# 6 0.000479 -0.000491 -0.000642 -0.002749 -0.001129 0.031179
#
#
# Mechanical properties :
#
#
# Convention : Reuss Voigt Hill
#
# Bulk Modulus (GPa) = 53.97554 59.94289 56.95922
# Shear Modulus (GPa) = 32.54345 34.97319 33.75832
#
# Velocity S-wave (km/s) = 4.10791 4.25850 4.18388
# Velocity P-wave (km/s) = 7.10549 7.43385 7.27153
#
# Compressibility (1/GPa) = 0.01852691
#
# Stress axis : x y z
#
# Youngs Moduli (GPa) = 73.21737 80.55499 78.45478
#
# Poissons Ratio (x) = 0.24546 0.19146
# Poissons Ratio (y) = 0.22310 0.36545
# Poissons Ratio (z) = 0.17868 0.37523
#
# Static dielectric constant tensor:
#      x y z
#    x 22.960160 -3.760110 -19.909650 
#    y -3.760110 4.662480 4.426820 
#    z -19.909650 4.426820 24.551600 
# 
# 
# High freq. dielectric constant tensor:
#      x y z
#    x 1.724860 0.024240 0.005700 
#    y 0.024240 1.769250 -0.001100 
#    z 0.005700 -0.001100 1.768310 
# 
# From -- ./inp_files/181665.got.cif
#   From: 2010.06.25/outbox.cif.g09.slc.cpg/sg2_91_cif.got.tgz:181665.got - 2010.06.27 13:26:56.
