data_PCOD8010332
_publ_section_title
;
Structure prediction by ZEFSAII (Michael W. Deem and Ramdas Pophale) SiO2 
 PCOD8010332
Probable space group: P -1
;
_chemical_formula_sum "Si O2"
_cell_formula_units_Z 14
_cell_length_a 6.073253
_cell_length_b 8.169234
_cell_length_c 15.745709
_cell_angle_alpha 75.688619
_cell_angle_beta 119.862076
_cell_angle_gamma 83.240074
_cell_volume 628.929244
_symmetry_space_group_name_H-M "P -1"
_symmetry_group_IT_number 2
_symmetry_cell_setting 'triclinic'
loop_
_space_group_symop_operation_xyz
x,y,z
-x,-y,-z
loop_
_atom_site_type_symbol
_atom_site_label
_atom_site_fract_x
_atom_site_fract_y
_atom_site_fract_z
Si Si1 0.364572 0.126866 0.534140
Si Si2 0.314221 0.021642 0.723892
Si Si3 0.063360 0.578145 0.657560
Si Si4 0.801594 0.279786 0.648897
Si Si5 0.607064 0.293465 0.789636
Si Si6 0.794281 0.388797 0.981474
Si Si7 0.264568 0.685591 0.841428
O O1 0.373032 0.011616 0.635535
O O2 0.517222 0.275578 0.559618
O O3 0.059037 0.240627 0.442422
O O4 0.500000 0.000000 0.500000
O O5 0.477979 0.133304 0.790499
O O6 0.004333 0.107025 0.670306
O O7 0.388356 0.828828 0.803912
O O8 0.371863 0.479104 0.708606
O O9 0.043545 0.640740 0.744182
O O10 0.880075 0.453592 0.615484
O O11 0.807740 0.269908 0.753203
O O12 0.793506 0.278232 0.909878
O O13 0.497844 0.509030 0.918788
O O14 0.860879 0.263159 0.094783
O O15 0.000000 0.500000 0.000000
#
# Coordination Sequence:
#
# PCOD8010332 Si02
#       7
#     2   2   2   2   2   2   2
#     4  11  24  38  59  89 118 156 198 238 290 345
#     4  10  23  41  58  86 123 152 192 243 291 348
#     4  10  21  38  59  84 119 155 195 240 284 343
#     4  10  21  38  60  85 118 157 195 237 287 343
#     4   9  21  39  60  86 117 155 194 238 293 346
#     4  10  21  39  63  87 112 151 199 240 290 350
#     4  10  22  39  60  86 118 153 191 244 295 339
#
# _framework density 22.260057
#
# number of rings (size 3 to 8) (size 9 to 14) (size 15 to 20)
#    0.000    2.000    0.000    2.143    0.000   16.000 
#    0.000    1.429    0.000    0.000    0.000    0.000 
#    0.000    0.000    0.000    0.000    0.000    0.000 
#
# Total GULP energy -173532.154182 kJ/mol
# GULP energy per Si atom -12395.153870 kJ/mol
# Density = 2.220939 g / cm^3
# Si number density = 22.260057 Si / 1000 Ang^3
#
#
#
# Elastic Constant Matrix: (Units=GPa)
#
#
# Indices 1 2 3 4 5 6 
#
# 1 75.6909 16.3234 30.3311 12.7576 -23.8060 0.3220
# 2 16.3234 87.1757 44.0534 12.4993 -17.1599 0.7259
# 3 30.3311 44.0534 116.4195 24.2852 -25.7025 3.1559
# 4 12.7576 12.4993 24.2852 37.5880 0.1533 -6.7608
# 5 -23.8060 -17.1599 -25.7025 0.1533 33.5368 7.7554
# 6 0.3220 0.7259 3.1559 -6.7608 7.7554 29.7769
#
#
#
# Elastic Compliance Matrix: (Units=1/GPa)
#
#
# Indices 1 2 3 4 5 6 
#
# 1 0.019294 0.000626 -0.000062 -0.007860 0.015394 -0.006012
# 2 0.000626 0.014860 -0.003853 -0.003068 0.005598 -0.002115
# 3 -0.000062 -0.003853 0.014503 -0.009245 0.010599 -0.006302
# 4 -0.007860 -0.003068 -0.009245 0.038968 -0.017794 0.014622
# 5 0.015394 0.005598 0.010599 -0.017794 0.056481 -0.020177
# 6 -0.006012 -0.002115 -0.006302 0.014622 -0.020177 0.042943
#
#
# Mechanical properties :
#
#
# Convention : Reuss Voigt Hill
#
# Bulk Modulus (GPa) = 23.76476 51.18910 37.47693
# Shear Modulus (GPa) = 24.07863 32.75221 28.41542
#
# Velocity S-wave (km/s) = 3.29248 3.83997 3.57672
# Velocity P-wave (km/s) = 5.01528 6.53501 5.82492
#
# Compressibility (1/GPa) = 0.04207911
#
# Stress axis : x y z
#
# Youngs Moduli (GPa) = 51.83031 67.29263 68.95049
#
# Poissons Ratio (x) = -0.04213 0.00429
# Poissons Ratio (y) = -0.03245 0.26567
# Poissons Ratio (z) = 0.00323 0.25928
#
# Static dielectric constant tensor:
#      x y z
#    x 3.891520 -0.091180 -0.138770 
#    y -0.091180 3.965680 0.298020 
#    z -0.138770 0.298020 4.385470 
# 
# 
# High freq. dielectric constant tensor:
#      x y z
#    x 1.868150 0.001580 -0.004770 
#    y 0.001580 1.872020 0.020210 
#    z -0.004770 0.020210 1.879040 
# 
# From -- ./inp_files/34550.got.cif
#   From: 2010.06.25/outbox.cif.g09.slc.cpg/sg2_18_cif.got.tgz:34550.got - 2010.06.27 13:26:56.
