data_PCOD8010917
_publ_section_title
;
Structure prediction by ZEFSAII (Michael W. Deem and Ramdas Pophale) SiO2 
 PCOD8010917
Probable space group: P -1
;
_chemical_formula_sum "Si O2"
_cell_formula_units_Z 14
_cell_length_a 11.592893
_cell_length_b 5.148293
_cell_length_c 18.800933
_cell_angle_alpha 110.921131
_cell_angle_beta 136.777640
_cell_angle_gamma 56.395158
_cell_volume 637.920881
_symmetry_space_group_name_H-M "P -1"
_symmetry_group_IT_number 2
_symmetry_cell_setting 'triclinic'
loop_
_space_group_symop_operation_xyz
x,y,z
-x,-y,-z
loop_
_atom_site_type_symbol
_atom_site_label
_atom_site_fract_x
_atom_site_fract_y
_atom_site_fract_z
Si Si1 0.005066 0.604013 0.761941
Si Si2 0.976139 0.730565 0.921937
Si Si3 0.678034 0.734476 0.889628
Si Si4 0.797382 0.799783 0.441693
Si Si5 0.442575 0.236690 0.932563
Si Si6 0.961710 0.022667 0.653787
Si Si7 0.677853 0.309867 0.314087
O O1 0.223942 0.366307 0.832089
O O2 0.949154 0.888329 0.711213
O O3 0.947071 0.772901 0.828881
O O4 0.904398 0.388714 0.675168
O O5 0.791831 0.710482 0.866369
O O6 0.172231 0.422909 0.994623
O O7 0.000000 0.000000 0.000000
O O8 0.535996 0.584832 0.798052
O O9 0.549149 0.086316 0.892144
O O10 0.658055 0.638889 0.369242
O O11 0.000000 0.500000 0.500000
O O12 0.799010 0.004418 0.530002
O O13 0.749234 0.025641 0.374402
O O14 0.500000 0.500000 0.000000
O O15 0.500000 0.000000 0.000000
O O16 0.172231 0.816998 0.695787
#
# Coordination Sequence:
#
# PCOD8010917 Si02
#       7
#     2   2   2   2   2   2   2
#     4  12  24  40  67  95 133 174 214 272 330 390
#     4  11  27  46  65  90 137 185 230 265 322 399
#     4  11  26  42  66  96 132 179 226 269 324 402
#     4  10  21  38  64  98 139 164 207 273 338 397
#     4  12  24  39  62  95 133 167 215 276 329 378
#     4  11  22  39  65 100 131 166 213 269 336 382
#     4  11  22  39  66 100 132 171 213 268 335 397
#
# _framework density 21.946292
#
# number of rings (size 3 to 8) (size 9 to 14) (size 15 to 20)
#    0.000    0.857    2.857    6.000    6.000    0.000 
#    0.000    0.000    0.000    5.143    0.000    0.000 
#    0.000    0.000    0.000    0.000    0.000    0.000 
#
# Total GULP energy -173565.220796 kJ/mol
# GULP energy per Si atom -12397.515771 kJ/mol
# Density = 2.189634 g / cm^3
# Si number density = 21.946292 Si / 1000 Ang^3
#
#
#
# Elastic Constant Matrix: (Units=GPa)
#
#
# Indices 1 2 3 4 5 6 
#
# 1 117.7512 43.4864 67.2797 7.8928 -8.4171 12.7406
# 2 43.4864 89.5567 32.4923 31.4010 0.9708 22.3136
# 3 67.2797 32.4923 111.0968 35.8509 -2.7011 6.9960
# 4 7.8928 31.4010 35.8509 43.3197 12.5333 -2.1069
# 5 -8.4171 0.9708 -2.7011 12.5333 41.3123 -0.0834
# 6 12.7406 22.3136 6.9960 -2.1069 -0.0834 43.7973
#
#
#
# Elastic Compliance Matrix: (Units=1/GPa)
#
#
# Indices 1 2 3 4 5 6 
#
# 1 0.018634 -0.010432 -0.013652 0.016104 -0.001731 0.002846
# 2 -0.010432 0.025110 0.007951 -0.025030 0.005373 -0.012222
# 3 -0.013652 0.007951 0.023328 -0.024559 0.005998 -0.004976
# 4 0.016104 -0.025030 -0.024559 0.064334 -0.017224 0.015053
# 5 -0.001731 0.005373 0.005998 -0.017224 0.029336 -0.003965
# 6 0.002846 -0.012222 -0.004976 0.015053 -0.003965 0.029743
#
#
# Mechanical properties :
#
#
# Convention : Reuss Voigt Hill
#
# Bulk Modulus (GPa) = 28.73023 67.21350 47.97187
# Shear Modulus (GPa) = 21.33533 37.36229 29.34881
#
# Velocity S-wave (km/s) = 3.12133 4.13054 3.66088
# Velocity P-wave (km/s) = 5.10978 7.31036 6.30679
#
# Compressibility (1/GPa) = 0.03480654
#
# Stress axis : x y z
#
# Youngs Moduli (GPa) = 53.66426 39.82444 42.86766
#
# Poissons Ratio (x) = 0.41546 0.58523
# Poissons Ratio (y) = 0.55984 -0.34086
# Poissons Ratio (z) = 0.73262 -0.31666
#
# Static dielectric constant tensor:
#      x y z
#    x 3.914870 0.177900 0.116080 
#    y 0.177900 4.033120 0.312900 
#    z 0.116080 0.312900 4.433370 
# 
# 
# High freq. dielectric constant tensor:
#      x y z
#    x 1.851260 0.021900 -0.005350 
#    y 0.021900 1.861630 0.018110 
#    z -0.005350 0.018110 1.872950 
# 
# From -- ./inp_files/104071.got.cif
#   From: 2010.06.25/outbox.cif.g09.slc.cpg/sg2_53_cif.got.tgz:104071.got - 2010.06.27 13:26:56.
