data_PCOD8010196
_publ_section_title
;
Structure prediction by ZEFSAII (Michael W. Deem and Ramdas Pophale) SiO2 
 PCOD8010196
Probable space group: P -1
;
_chemical_formula_sum "Si O2"
_cell_formula_units_Z 14
_cell_length_a 16.221837
_cell_length_b 7.221652
_cell_length_c 5.371982
_cell_angle_alpha 101.615337
_cell_angle_beta 119.837880
_cell_angle_gamma 80.153721
_cell_volume 532.854503
_symmetry_space_group_name_H-M "P -1"
_symmetry_group_IT_number 2
_symmetry_cell_setting 'triclinic'
loop_
_space_group_symop_operation_xyz
x,y,z
-x,-y,-z
loop_
_atom_site_type_symbol
_atom_site_label
_atom_site_fract_x
_atom_site_fract_y
_atom_site_fract_z
Si Si1 0.990569 0.780527 0.884448
Si Si2 0.821144 0.186849 0.021552
Si Si3 0.657578 0.411457 0.127967
Si Si4 0.334447 0.880257 0.573832
Si Si5 0.494358 0.712724 0.454691
Si Si6 0.325409 0.220479 0.012113
Si Si7 0.884257 0.800495 0.219467
O O1 0.928047 0.739673 0.536500
O O2 0.099655 0.696365 0.969628
O O3 0.946379 0.702979 0.054422
O O4 0.000000 0.000000 0.000000
O O5 0.759973 0.058629 0.712416
O O6 0.747695 0.340609 0.076811
O O7 0.875278 0.032203 0.248262
O O8 0.677648 0.341124 0.420250
O O9 0.643934 0.636943 0.123078
O O10 0.560571 0.305397 0.893681
O O11 0.433019 0.872254 0.569620
O O12 0.334098 0.012020 0.850405
O O13 0.500000 0.500000 0.500000
O O14 0.602208 0.777472 0.640950
O O15 0.220267 0.275418 0.972336
#
# Coordination Sequence:
#
# PCOD8010196 Si02
#       7
#     2   2   2   2   2   2   2
#     4  10  21  37  68  98 132 176 227 273 337 403
#     4  10  21  41  65  93 136 169 219 275 334 398
#     4  10  23  42  64  96 129 173 221 269 340 395
#     4  11  22  42  66  98 125 176 223 270 334 400
#     4   9  22  43  61  97 131 171 221 271 334 400
#     4  11  22  42  65  94 134 169 225 278 327 395
#     4  11  22  40  64 104 129 177 229 273 335 404
#
# _framework density 26.273589999999999
#
# number of rings (size 3 to 8) (size 9 to 14) (size 15 to 20)
#    0.000    1.714    1.429    3.857    2.000    2.857 
#   20.571    1.429    0.000    0.000    0.000    0.000 
#    0.000    0.000    0.000    0.000    0.000    0.000 
#
# Total GULP energy -173449.461729 kJ/mol
# GULP energy per Si atom -12389.247266 kJ/mol
# Density = 2.621379 g / cm^3
# Si number density = 26.273590 Si / 1000 Ang^3
#
#
#
# Elastic Constant Matrix: (Units=GPa)
#
#
# Indices 1 2 3 4 5 6 
#
# 1 119.5927 -13.9413 74.7111 16.4759 35.5618 -12.4267
# 2 -13.9413 38.2422 0.8509 -3.5668 -0.4605 -0.9428
# 3 74.7111 0.8509 97.2726 -4.1640 11.6251 -22.4266
# 4 16.4759 -3.5668 -4.1640 17.7220 1.4260 1.0479
# 5 35.5618 -0.4605 11.6251 1.4260 48.7577 -9.7919
# 6 -12.4267 -0.9428 -22.4266 1.0479 -9.7919 27.8457
#
#
#
# Elastic Compliance Matrix: (Units=1/GPa)
#
#
# Indices 1 2 3 4 5 6 
#
# 1 0.046778 0.012789 -0.038919 -0.046846 -0.026910 -0.017736
# 2 0.012789 0.030165 -0.010458 -0.007471 -0.007117 -0.003916
# 3 -0.038919 -0.010458 0.045166 0.041529 0.021236 0.024558
# 4 -0.046846 -0.007471 0.041529 0.105257 0.024521 0.016950
# 5 -0.026910 -0.007117 0.021236 0.024521 0.037744 0.017203
# 6 -0.017736 -0.003916 0.024558 0.016950 0.017203 0.053055
#
#
# Mechanical properties :
#
#
# Convention : Reuss Voigt Hill
#
# Bulk Modulus (GPa) = 20.43673 42.03880 31.23777
# Shear Modulus (GPa) = 12.26532 31.76421 22.01476
#
# Velocity S-wave (km/s) = 2.16297 3.48081 2.89780
# Velocity P-wave (km/s) = 3.74610 5.67361 4.80745
#
# Compressibility (1/GPa) = 0.04893150
#
# Stress axis : x y z
#
# Youngs Moduli (GPa) = 21.37736 33.15118 22.14065
#
# Poissons Ratio (x) = -0.42396 0.86169
# Poissons Ratio (y) = -0.27339 0.23156
# Poissons Ratio (z) = 0.83198 0.34671
#
# Static dielectric constant tensor:
#      x y z
#    x 5.556790 -0.191480 0.521920 
#    y -0.191480 4.396510 -0.289220 
#    z 0.521920 -0.289220 5.073840 
# 
# 
# High freq. dielectric constant tensor:
#      x y z
#    x 2.060390 -0.008920 0.013780 
#    y -0.008920 2.036930 -0.015950 
#    z 0.013780 -0.015950 2.043980 
# 
# From -- ./inp_files/105698.got.cif
#   From: 2010.06.25/outbox.cif.g09.slc.cpg/sg2_53_cif.got.tgz:105698.got - 2010.06.27 13:26:56.
