data_PCOD8010145
_publ_section_title
;
Structure prediction by ZEFSAII (Michael W. Deem and Ramdas Pophale) SiO2 
 PCOD8010145
Probable space group: P -1
;
_chemical_formula_sum "Si O2"
_cell_formula_units_Z 14
_cell_length_a 19.761859
_cell_length_b 13.139121
_cell_length_c 9.598071
_cell_angle_alpha 134.063560
_cell_angle_beta 142.524988
_cell_angle_gamma 24.564943
_cell_volume 626.927408
_symmetry_space_group_name_H-M "P -1"
_symmetry_group_IT_number 2
_symmetry_cell_setting 'triclinic'
loop_
_space_group_symop_operation_xyz
x,y,z
-x,-y,-z
loop_
_atom_site_type_symbol
_atom_site_label
_atom_site_fract_x
_atom_site_fract_y
_atom_site_fract_z
Si Si1 0.518805 0.788569 0.137374
Si Si2 0.208941 0.827947 0.384804
Si Si3 0.011815 0.120236 0.733597
Si Si4 0.347261 0.888535 0.221767
Si Si5 0.586341 0.427602 0.785340
Si Si6 0.099913 0.209391 0.724573
Si Si7 0.865700 0.635495 0.544409
O O1 0.482650 0.840586 0.295114
O O2 0.676079 0.739729 0.301905
O O3 0.614432 0.534072 0.030777
O O4 0.321302 0.018553 0.945180
O O5 0.418320 0.642841 0.610781
O O6 0.220270 0.800239 0.209173
O O7 0.133660 0.756595 0.258703
O O8 0.083282 0.095327 0.479346
O O9 0.980254 0.292953 0.750232
O O10 0.000000 0.000000 0.500000
O O11 0.226257 0.908132 0.944396
O O12 0.467437 0.659159 0.300533
O O13 0.206312 0.132621 0.315768
O O14 0.991940 0.452657 0.708657
O O15 0.000000 0.500000 0.500000
#
# Coordination Sequence:
#
# PCOD8010145 Si02
#       7
#     2   2   2   2   2   2   2
#     4  10  24  43  66  91 130 172 215 264 323 374
#     4   9  19  37  61  98 127 163 211 264 330 365
#     4   9  20  36  62  91 120 164 209 260 318 369
#     4  11  24  42  63  98 129 168 216 259 324 385
#     4  10  21  37  66  95 127 164 212 270 318 381
#     4   9  21  43  63  90 132 167 216 264 314 388
#     4  12  27  43  65  97 129 174 217 260 321 387
#
# _framework density 22.331133999999999
#
# number of rings (size 3 to 8) (size 9 to 14) (size 15 to 20)
#    0.000    2.000    0.000    2.571    8.000    3.429 
#    2.571    0.000    0.000    0.000    0.000    0.000 
#    0.000    0.000    0.000    0.000    0.000    0.000 
#
# Total GULP energy -173502.523789 kJ/mol
# GULP energy per Si atom -12393.037413 kJ/mol
# Density = 2.228031 g / cm^3
# Si number density = 22.331134 Si / 1000 Ang^3
#
#
#
# Elastic Constant Matrix: (Units=GPa)
#
#
# Indices 1 2 3 4 5 6 
#
# 1 120.1220 10.7640 25.5286 -1.2911 9.2030 -11.1096
# 2 10.7640 68.3441 24.6290 11.6064 -1.1244 11.8329
# 3 25.5286 24.6290 63.8374 2.1095 14.0900 -2.2097
# 4 -1.2911 11.6064 2.1095 25.1457 -6.1266 -3.8341
# 5 9.2030 -1.1244 14.0900 -6.1266 32.7360 -1.2676
# 6 -11.1096 11.8329 -2.2097 -3.8341 -1.2676 39.2905
#
#
#
# Elastic Compliance Matrix: (Units=1/GPa)
#
#
# Indices 1 2 3 4 5 6 
#
# 1 0.009445 -0.001170 -0.003055 0.001493 -0.000986 0.002965
# 2 -0.001170 0.020736 -0.008017 -0.009577 0.002394 -0.007884
# 3 -0.003055 -0.008017 0.022012 -0.000068 -0.008807 0.002498
# 4 0.001493 -0.009577 -0.000068 0.047598 0.008507 0.008222
# 5 -0.000986 0.002394 -0.008807 0.008507 0.036309 0.000506
# 6 0.002965 -0.007884 0.002498 0.008222 0.000506 0.029623
#
#
# Mechanical properties :
#
#
# Convention : Reuss Voigt Hill
#
# Bulk Modulus (GPa) = 36.08864 41.57184 38.83024
# Shear Modulus (GPa) = 25.06991 32.19324 28.63157
#
# Velocity S-wave (km/s) = 3.35422 3.80100 3.58458
# Velocity P-wave (km/s) = 5.58541 6.15792 5.87864
#
# Compressibility (1/GPa) = 0.02770955
#
# Stress axis : x y z
#
# Youngs Moduli (GPa) = 105.87957 48.22514 45.42994
#
# Poissons Ratio (x) = 0.05642 0.13877
# Poissons Ratio (y) = 0.12386 0.36422
# Poissons Ratio (z) = 0.32342 0.38663
#
# Static dielectric constant tensor:
#      x y z
#    x 4.505350 -0.281310 -0.128530 
#    y -0.281310 3.917880 0.131780 
#    z -0.128530 0.131780 3.944380 
# 
# 
# High freq. dielectric constant tensor:
#      x y z
#    x 1.890890 -0.005970 -0.006000 
#    y -0.005970 1.860010 0.000950 
#    z -0.006000 0.000950 1.869870 
# 
# From -- ./inp_files/263506.got.cif
#   From: 2010.06.25/outbox.cif.g09.slc.cpg/sg2_132_cif.got.tgz:263506.got - 2010.06.27 13:26:56.
