data_PCOD8010817
_publ_section_title
;
Structure prediction by ZEFSAII (Michael W. Deem and Ramdas Pophale) SiO2 
 PCOD8010817
Probable space group: P -1
;
_chemical_formula_sum "Si O2"
_cell_formula_units_Z 14
_cell_length_a 16.612450
_cell_length_b 9.385766
_cell_length_c 9.531093
_cell_angle_alpha 148.892354
_cell_angle_beta 71.771148
_cell_angle_gamma 118.631819
_cell_volume 658.151637
_symmetry_space_group_name_H-M "P -1"
_symmetry_group_IT_number 2
_symmetry_cell_setting 'triclinic'
loop_
_space_group_symop_operation_xyz
x,y,z
-x,-y,-z
loop_
_atom_site_type_symbol
_atom_site_label
_atom_site_fract_x
_atom_site_fract_y
_atom_site_fract_z
Si Si1 0.530855 0.802713 0.151898
Si Si2 0.060197 0.355643 0.270177
Si Si3 0.316497 0.230273 0.102760
Si Si4 0.163311 0.626781 0.170229
Si Si5 0.111514 0.147283 0.556756
Si Si6 0.212580 0.525105 0.555050
Si Si7 0.348621 0.721160 0.288663
O O1 0.432697 0.833327 0.219458
O O2 0.611774 0.084025 0.426795
O O3 0.500000 0.500000 0.000000
O O4 0.578458 0.764690 0.947149
O O5 0.082078 0.486732 0.212157
O O6 0.157269 0.430693 0.359209
O O7 0.000000 0.500000 0.500000
O O8 0.000000 0.000000 0.000000
O O9 0.298638 0.425867 0.403181
O O10 0.310313 0.369461 0.068683
O O11 0.241959 0.880364 0.864807
O O12 0.265879 0.778849 0.312560
O O13 0.147357 0.884477 0.310949
O O14 0.157176 0.359775 0.844595
O O15 0.144910 0.344312 0.564672
O O16 0.000000 0.000000 0.500000
#
# Coordination Sequence:
#
# PCOD8010817 Si02
#       7
#     2   2   2   2   2   2   2
#     4   9  19  35  65 104 140 159 202 269 335 392
#     4  12  24  39  63  96 122 159 215 286 331 367
#     4  11  20  38  65  97 127 164 211 263 321 382
#     4  12  25  43  70  93 133 168 227 269 320 393
#     4  12  28  48  63  91 133 185 222 265 330 393
#     4  12  24  41  66  89 131 169 224 264 328 392
#     4  10  21  38  64 108 131 167 208 275 327 387
#
# _framework density 21.271694
#
# number of rings (size 3 to 8) (size 9 to 14) (size 15 to 20)
#    0.000    0.857    2.857    4.714    6.000    0.000 
#    0.000    0.000    0.000    5.143    0.000    0.000 
#    0.000    0.000    0.000    0.000    0.000    0.000 
#
# Total GULP energy -173532.047112 kJ/mol
# GULP energy per Si atom -12395.146222 kJ/mol
# Density = 2.122328 g / cm^3
# Si number density = 21.271694 Si / 1000 Ang^3
#
#
#
# Elastic Constant Matrix: (Units=GPa)
#
#
# Indices 1 2 3 4 5 6 
#
# 1 96.5531 26.8797 25.0052 6.9259 -14.5318 18.5716
# 2 26.8797 110.1861 30.5077 9.7931 -3.3411 10.5330
# 3 25.0052 30.5077 105.9954 13.2306 -14.5254 8.3302
# 4 6.9259 9.7931 13.2306 45.6598 6.9503 -7.9016
# 5 -14.5318 -3.3411 -14.5254 6.9503 29.7809 -4.6779
# 6 18.5716 10.5330 8.3302 -7.9016 -4.6779 31.0398
#
#
#
# Elastic Compliance Matrix: (Units=1/GPa)
#
#
# Indices 1 2 3 4 5 6 
#
# 1 0.013629 -0.001896 -0.000873 -0.003541 0.005688 -0.007321
# 2 -0.001896 0.010517 -0.002320 -0.001567 -0.000879 -0.002343
# 3 -0.000873 -0.002320 0.011736 -0.003977 0.005652 -0.002001
# 4 -0.003541 -0.001567 -0.003977 0.026845 -0.008656 0.009247
# 5 0.005688 -0.000879 0.005652 -0.008656 0.040929 -0.000657
# 6 -0.007321 -0.002343 -0.002001 0.009247 -0.000657 0.040184
#
#
# Mechanical properties :
#
#
# Convention : Reuss Voigt Hill
#
# Bulk Modulus (GPa) = 38.90421 53.05773 45.98097
# Shear Modulus (GPa) = 30.75272 36.65222 33.70247
#
# Velocity S-wave (km/s) = 3.80638 4.15547 3.98475
# Velocity P-wave (km/s) = 6.13571 6.92971 6.54476
#
# Compressibility (1/GPa) = 0.02570416
#
# Stress axis : x y z
#
# Youngs Moduli (GPa) = 73.37220 95.08198 85.20513
#
# Poissons Ratio (x) = 0.18029 0.07435
# Poissons Ratio (y) = 0.13913 0.19772
# Poissons Ratio (z) = 0.06403 0.22063
#
# Static dielectric constant tensor:
#      x y z
#    x 4.092920 0.743790 -0.068580 
#    y 0.743790 3.879500 -0.252890 
#    z -0.068580 -0.252890 3.396860 
# 
# 
# High freq. dielectric constant tensor:
#      x y z
#    x 1.818370 0.039810 -0.028870 
#    y 0.039810 1.834460 0.016360 
#    z -0.028870 0.016360 1.844860 
# 
# From -- ./inp_files/38237.got.cif
#   From: 2010.06.25/outbox.cif.g09.slc.cpg/sg2_20_cif.got.tgz:38237.got - 2010.06.27 13:26:56.
