data_PCOD8010615
_publ_section_title
;
Structure prediction by ZEFSAII (Michael W. Deem and Ramdas Pophale) SiO2 
 PCOD8010615
Probable space group: P -1
;
_chemical_formula_sum "Si O2"
_cell_formula_units_Z 14
_cell_length_a 12.079154
_cell_length_b 11.549013
_cell_length_c 11.988310
_cell_angle_alpha 109.686354
_cell_angle_beta 89.493882
_cell_angle_gamma 31.946561
_cell_volume 671.809168
_symmetry_space_group_name_H-M "P -1"
_symmetry_group_IT_number 2
_symmetry_cell_setting 'triclinic'
loop_
_space_group_symop_operation_xyz
x,y,z
-x,-y,-z
loop_
_atom_site_type_symbol
_atom_site_label
_atom_site_fract_x
_atom_site_fract_y
_atom_site_fract_z
Si Si1 0.658931 0.834381 0.298103
Si Si2 0.331094 0.793784 0.793630
Si Si3 0.329849 0.400916 0.433647
Si Si4 0.130840 0.284520 0.522079
Si Si5 0.156477 0.695457 0.752851
Si Si6 0.172313 0.561915 0.942139
Si Si7 0.567506 0.303356 0.988417
O O1 0.867882 0.658365 0.335358
O O2 0.820836 0.592142 0.128528
O O3 0.522485 0.090205 0.328214
O O4 0.435833 0.963218 0.386389
O O5 0.541905 0.617327 0.641786
O O6 0.208312 0.786593 0.760296
O O7 0.469895 0.645485 0.862843
O O8 0.109888 0.119724 0.906371
O O9 0.296760 0.473218 0.585701
O O10 0.047966 0.658303 0.461453
O O11 0.000000 0.500000 0.500000
O O12 0.250966 0.560368 0.830461
O O13 0.851332 0.976733 0.841560
O O14 0.378048 0.385967 0.978453
O O15 0.500000 0.500000 0.000000
#
# Coordination Sequence:
#
# PCOD8010615 Si02
#       7
#     2   2   2   2   2   2   2
#     4  10  21  38  62  87 116 160 200 241 292 353
#     4  11  24  39  58  91 126 154 193 250 300 348
#     4  11  24  39  59  91 128 154 190 247 305 353
#     4   9  18  37  58  85 118 153 202 239 284 349
#     4  11  21  39  63  88 117 157 202 246 289 349
#     4  11  21  39  65  88 115 156 207 243 286 353
#     4  11  20  41  65  87 114 158 208 241 289 354
#
# _framework density 20.839252999999999
#
# number of rings (size 3 to 8) (size 9 to 14) (size 15 to 20)
#    0.000    1.429    2.857    4.714    0.000    5.143 
#    0.000    2.143    0.000    0.000    0.000    0.000 
#    0.000    0.000    0.000    0.000    0.000    0.000 
#
# Total GULP energy -173571.528824 kJ/mol
# GULP energy per Si atom -12397.966345 kJ/mol
# Density = 2.079182 g / cm^3
# Si number density = 20.839253 Si / 1000 Ang^3
#
#
#
# Elastic Constant Matrix: (Units=GPa)
#
#
# Indices 1 2 3 4 5 6 
#
# 1 50.1580 19.8670 26.7797 -4.0410 4.4587 -12.1212
# 2 19.8670 91.3549 13.0104 -6.8868 1.7892 -20.5735
# 3 26.7797 13.0104 69.8910 -2.9278 -0.7630 -2.2016
# 4 -4.0410 -6.8868 -2.9278 20.6554 6.4440 9.6374
# 5 4.4587 1.7892 -0.7630 6.4440 43.1337 -0.0369
# 6 -12.1212 -20.5735 -2.2016 9.6374 -0.0369 39.2064
#
#
#
# Elastic Compliance Matrix: (Units=1/GPa)
#
#
# Indices 1 2 3 4 5 6 
#
# 1 0.028490 -0.003194 -0.010111 0.001128 -0.003155 0.006284
# 2 -0.003194 0.013131 -0.001002 0.001138 -0.000397 0.005567
# 3 -0.010111 -0.001002 0.018343 0.001277 0.001218 -0.002934
# 4 0.001128 0.001138 0.001277 0.058151 -0.008840 -0.013285
# 5 -0.003155 -0.000397 0.001218 -0.008840 0.024869 0.001081
# 6 0.006284 0.005567 -0.002934 -0.013285 0.001081 0.033472
#
#
# Mechanical properties :
#
#
# Convention : Reuss Voigt Hill
#
# Bulk Modulus (GPa) = 31.89742 36.74645 34.32193
# Shear Modulus (GPa) = 23.19967 30.71556 26.95761
#
# Velocity S-wave (km/s) = 3.34019 3.84334 3.60056
# Velocity P-wave (km/s) = 5.49686 6.11282 5.81300
#
# Compressibility (1/GPa) = 0.03135050
#
# Stress axis : x y z
#
# Youngs Moduli (GPa) = 35.09954 76.15718 54.51639
#
# Poissons Ratio (x) = 0.24323 0.55123
# Poissons Ratio (y) = 0.11210 0.05462
# Poissons Ratio (z) = 0.35490 0.07630
#
# Static dielectric constant tensor:
#      x y z
#    x 3.878670 -0.362830 0.043350 
#    y -0.362830 3.983170 0.056980 
#    z 0.043350 0.056980 3.704010 
# 
# 
# High freq. dielectric constant tensor:
#      x y z
#    x 1.809130 -0.012980 0.012570 
#    y -0.012980 1.820250 0.001020 
#    z 0.012570 0.001020 1.805080 
# 
# From -- ./inp_files/60362.got.cif
#   From: 2010.06.25/outbox.cif.g09.slc.cpg/sg2_31_cif.got.tgz:60362.got - 2010.06.27 13:26:56.
