data_PCOD8010876
_publ_section_title
;
Structure prediction by ZEFSAII (Michael W. Deem and Ramdas Pophale) SiO2 
 PCOD8010876
Probable space group: P -1
;
_chemical_formula_sum "Si O2"
_cell_formula_units_Z 14
_cell_length_a 8.466699
_cell_length_b 17.471291
_cell_length_c 9.099953
_cell_angle_alpha 47.835633
_cell_angle_beta 84.172889
_cell_angle_gamma 118.690824
_cell_volume 663.816604
_symmetry_space_group_name_H-M "P -1"
_symmetry_group_IT_number 2
_symmetry_cell_setting 'triclinic'
loop_
_space_group_symop_operation_xyz
x,y,z
-x,-y,-z
loop_
_atom_site_type_symbol
_atom_site_label
_atom_site_fract_x
_atom_site_fract_y
_atom_site_fract_z
Si Si1 0.876756 0.568448 0.786835
Si Si2 0.541595 0.968697 0.381834
Si Si3 0.008473 0.788629 0.133425
Si Si4 0.188424 0.895018 0.286237
Si Si5 0.350304 0.680660 0.653030
Si Si6 0.339919 0.192203 0.827134
Si Si7 0.790449 0.476629 0.590019
O O1 0.746253 0.481905 0.757970
O O2 0.954031 0.726657 0.598813
O O3 0.109241 0.608748 0.701428
O O4 0.705934 0.454884 0.085330
O O5 0.419129 0.970716 0.256142
O O6 0.446899 0.806088 0.605947
O O7 0.500000 0.000000 0.500000
O O8 0.824202 0.104055 0.157523
O O9 0.179794 0.845913 0.183595
O O10 0.843035 0.803685 0.171086
O O11 0.851487 0.614179 0.326790
O O12 0.189469 0.019602 0.116658
O O13 0.547186 0.765806 0.398790
O O14 0.543456 0.311828 0.771113
O O15 0.000000 0.500000 0.500000
#
# Coordination Sequence:
#
# PCOD8010876 Si02
#       7
#     2   2   2   2   2   2   2
#     4   9  21  39  60  94 125 161 215 262 309 370
#     4  11  24  39  66  96 127 165 220 268 316 372
#     4  11  24  42  64  95 131 168 212 263 318 382
#     4  10  22  42  66  93 121 172 217 257 311 386
#     4  10  21  38  64  93 127 165 210 263 321 369
#     4  12  23  40  68  95 129 168 215 259 320 379
#     4  11  22  38  66  95 126 169 214 263 309 379
#
# _framework density 21.090160000000001
#
# number of rings (size 3 to 8) (size 9 to 14) (size 15 to 20)
#    0.000    1.429    2.857    2.143    6.000    1.143 
#    0.000    5.000    0.000    0.000    0.000    0.000 
#    0.000    0.000    0.000    0.000    0.000    0.000 
#
# Total GULP energy -173526.996794 kJ/mol
# GULP energy per Si atom -12394.785485 kJ/mol
# Density = 2.104216 g / cm^3
# Si number density = 21.090160 Si / 1000 Ang^3
#
#
#
# Elastic Constant Matrix: (Units=GPa)
#
#
# Indices 1 2 3 4 5 6 
#
# 1 80.2496 33.3977 61.2065 -0.0756 6.4186 -16.0454
# 2 33.3977 118.2010 60.2189 -16.1664 0.4716 -4.6550
# 3 61.2065 60.2189 154.4595 -12.1471 26.5309 -14.9916
# 4 -0.0756 -16.1664 -12.1471 29.0631 -14.2507 7.2687
# 5 6.4186 0.4716 26.5309 -14.2507 34.1016 -8.4978
# 6 -16.0454 -4.6550 -14.9916 7.2687 -8.4978 29.0904
#
#
#
# Elastic Compliance Matrix: (Units=1/GPa)
#
#
# Indices 1 2 3 4 5 6 
#
# 1 0.020613 -0.002788 -0.006879 -0.006059 0.001289 0.009268
# 2 -0.002788 0.012734 -0.004579 0.009234 0.007260 -0.002047
# 3 -0.006879 -0.004579 0.012374 -0.001762 -0.009096 -0.000367
# 4 -0.006059 0.009234 -0.001762 0.051767 0.021681 -0.009374
# 5 0.001289 0.007260 -0.009096 0.021681 0.046448 0.005336
# 6 0.009268 -0.002047 -0.000367 -0.009374 0.005336 0.042872
#
#
# Mechanical properties :
#
#
# Convention : Reuss Voigt Hill
#
# Bulk Modulus (GPa) = 58.04781 73.61737 65.83259
# Shear Modulus (GPa) = 22.61991 31.65681 27.13836
#
# Velocity S-wave (km/s) = 3.27851 3.87851 3.59106
# Velocity P-wave (km/s) = 6.47417 7.41882 6.96253
#
# Compressibility (1/GPa) = 0.01722718
#
# Stress axis : x y z
#
# Youngs Moduli (GPa) = 48.51380 78.52761 80.81603
#
# Poissons Ratio (x) = 0.21895 0.55595
# Poissons Ratio (y) = 0.13527 0.37009
# Poissons Ratio (z) = 0.33374 0.35961
#
# Static dielectric constant tensor:
#      x y z
#    x 3.606650 0.082300 0.238990 
#    y 0.082300 3.936220 -0.322540 
#    z 0.238990 -0.322540 4.059350 
# 
# 
# High freq. dielectric constant tensor:
#      x y z
#    x 1.800370 0.001330 0.015500 
#    y 0.001330 1.827810 -0.020470 
#    z 0.015500 -0.020470 1.837110 
# 
# From -- ./inp_files/158473.got.cif
#   From: 2010.06.25/outbox.cif.g09.slc.cpg/sg2_80_cif.got.tgz:158473.got - 2010.06.27 13:26:56.
