data_PCOD8010901
_publ_section_title
;
Structure prediction by ZEFSAII (Michael W. Deem and Ramdas Pophale) SiO2 
 PCOD8010901
Probable space group: P -1
;
_chemical_formula_sum "Si O2"
_cell_formula_units_Z 16
_cell_length_a 10.595395
_cell_length_b 15.301284
_cell_length_c 14.215040
_cell_angle_alpha 28.849015
_cell_angle_beta 135.587511
_cell_angle_gamma 120.001586
_cell_volume 722.299413
_symmetry_space_group_name_H-M "P -1"
_symmetry_group_IT_number 2
_symmetry_cell_setting 'triclinic'
loop_
_space_group_symop_operation_xyz
x,y,z
-x,-y,-z
loop_
_atom_site_type_symbol
_atom_site_label
_atom_site_fract_x
_atom_site_fract_y
_atom_site_fract_z
Si Si1 0.041867 0.245523 0.179218
Si Si2 0.019884 0.327903 0.301983
Si Si3 0.606419 0.657453 0.091336
Si Si4 0.815466 0.213432 0.596744
Si Si5 0.555911 0.755251 0.339155
Si Si6 0.602745 0.348187 0.825902
Si Si7 0.272426 0.839049 0.605014
Si Si8 0.748219 0.968134 0.954035
O O1 0.061541 0.220089 0.325683
O O2 0.206389 0.062006 0.393128
O O3 0.076915 0.438957 0.983535
O O4 0.833850 0.250983 0.029486
O O5 0.222021 0.264251 0.525056
O O6 0.875364 0.262056 0.347349
O O7 0.764406 0.442655 0.364593
O O8 0.453305 0.671364 0.078830
O O9 0.485738 0.723089 0.869068
O O10 0.727803 0.791332 0.051710
O O11 0.714303 0.167012 0.494639
O O12 0.732324 0.140020 0.711452
O O13 0.047078 0.105359 0.813749
O O14 0.525969 0.575422 0.544700
O O15 0.490526 0.765268 0.186356
O O16 0.422319 0.951172 0.136226
#
# Coordination Sequence:
#
# PCOD8010901 Si02
#       8
#     2   2   2   2   2   2   2   2
#     4  10  21  40  60  96 134 167 203 257 324 379
#     4  10  22  38  65  99 133 165 201 263 326 381
#     4  12  25  43  67  95 130 171 214 267 317 379
#     4  11  27  48  64  92 129 172 224 266 309 373
#     4  10  21  40  66  98 128 166 207 262 328 377
#     4  10  21  38  64  96 133 162 205 266 319 380
#     4  12  25  41  68  97 132 169 216 260 313 393
#     4  11  25  46  70  90 127 173 217 268 317 376
#
# _framework density 22.151478000000001
#
# number of rings (size 3 to 8) (size 9 to 14) (size 15 to 20)
#    0.000    1.250    2.500    2.625    3.500    3.000 
#    0.000    0.000    0.000    0.000    0.000    0.000 
#    0.000    0.000    0.000    0.000    0.000    0.000 
#
# Total GULP energy -198535.343421 kJ/mol
# GULP energy per Si atom -12408.458964 kJ/mol
# Density = 2.210106 g / cm^3
# Si number density = 22.151478 Si / 1000 Ang^3
#
#
#
# Elastic Constant Matrix: (Units=GPa)
#
#
# Indices 1 2 3 4 5 6 
#
# 1 26.0293 4.5479 15.7420 -1.9579 1.4094 -4.2576
# 2 4.5479 119.0776 37.2661 9.2701 -9.4854 -11.9973
# 3 15.7420 37.2661 99.1759 -5.5354 -9.5936 -17.8845
# 4 -1.9579 9.2701 -5.5354 36.5540 -10.1617 -7.8151
# 5 1.4094 -9.4854 -9.5936 -10.1617 12.4708 -2.6415
# 6 -4.2576 -11.9973 -17.8845 -7.8151 -2.6415 25.5412
#
#
#
# Elastic Compliance Matrix: (Units=1/GPa)
#
#
# Indices 1 2 3 4 5 6 
#
# 1 0.044117 0.000037 -0.008930 -0.003484 -0.014984 -0.001498
# 2 0.000037 0.010073 -0.002692 -0.000678 0.005720 0.003237
# 3 -0.008930 -0.002692 0.019992 0.016198 0.031666 0.019477
# 4 -0.003484 -0.000678 0.016198 0.054902 0.064253 0.033887
# 5 -0.014984 0.005720 0.031666 0.064253 0.175698 0.060193
# 6 -0.001498 0.003237 0.019477 0.033887 0.060193 0.070656
#
#
# Mechanical properties :
#
#
# Convention : Reuss Voigt Hill
#
# Bulk Modulus (GPa) = 19.60363 39.93276 29.76820
# Shear Modulus (GPa) = 12.03046 27.36164 19.69605
#
# Velocity S-wave (km/s) = 2.33298 3.51836 2.98510
# Velocity P-wave (km/s) = 4.01573 5.87975 5.03475
#
# Compressibility (1/GPa) = 0.05101096
#
# Stress axis : x y z
#
# Youngs Moduli (GPa) = 22.66702 99.27047 50.02122
#
# Poissons Ratio (x) = -0.00363 0.44671
# Poissons Ratio (y) = -0.00083 0.13464
# Poissons Ratio (z) = 0.20243 0.26721
#
# Static dielectric constant tensor:
#      x y z
#    x 3.668630 -0.028990 -0.163940 
#    y -0.028990 4.089050 0.050510 
#    z -0.163940 0.050510 4.090840 
# 
# 
# High freq. dielectric constant tensor:
#      x y z
#    x 1.854180 0.001150 -0.009110 
#    y 0.001150 1.885460 0.001370 
#    z -0.009110 0.001370 1.886120 
# 
# From -- ./inp_files/271716.got.cif
#   From: 2010.06.25/outbox.cif.g09.slc.cpg/sg2_136_cif.got.tgz:271716.got - 2010.06.27 13:26:56.
