data_PCOD8010637
_publ_section_title
;
Structure prediction by ZEFSAII (Michael W. Deem and Ramdas Pophale) SiO2 
 PCOD8010637
Probable space group: P -1
;
_chemical_formula_sum "Si O2"
_cell_formula_units_Z 16
_cell_length_a 9.009390
_cell_length_b 14.804793
_cell_length_c 14.825417
_cell_angle_alpha 43.827431
_cell_angle_beta 90.107941
_cell_angle_gamma 55.370762
_cell_volume 778.693671
_symmetry_space_group_name_H-M "P -1"
_symmetry_group_IT_number 2
_symmetry_cell_setting 'triclinic'
loop_
_space_group_symop_operation_xyz
x,y,z
-x,-y,-z
loop_
_atom_site_type_symbol
_atom_site_label
_atom_site_fract_x
_atom_site_fract_y
_atom_site_fract_z
Si Si1 0.299395 0.517214 0.181124
Si Si2 0.956227 0.381145 0.076632
Si Si3 0.951667 0.619583 0.502865
Si Si4 0.163758 0.014333 0.811367
Si Si5 0.525032 0.829966 0.102350
Si Si6 0.823222 0.031380 0.846151
Si Si7 0.474334 0.432539 0.960198
Si Si8 0.446520 0.863376 0.405364
O O1 0.508972 0.482113 0.187369
O O2 0.432591 0.317174 0.389496
O O3 0.212830 0.516994 0.086900
O O4 0.042401 0.761213 0.052931
O O5 0.798813 0.446063 0.118665
O O6 0.231080 0.109440 0.273809
O O7 0.000000 0.500000 0.000000
O O8 0.666095 0.798585 0.411800
O O9 0.000000 0.500000 0.500000
O O10 0.168831 0.425183 0.716936
O O11 0.982608 0.750895 0.390685
O O12 0.406555 0.882125 0.968352
O O13 0.283154 0.844535 0.850455
O O14 0.954279 0.079561 0.820218
O O15 0.390075 0.837060 0.172360
O O16 0.500000 0.000000 0.000000
O O17 0.684189 0.127710 0.679423
O O18 0.500000 0.500000 0.000000
#
# Coordination Sequence:
#
# PCOD8010637 Si02
#       8
#     2   2   2   2   2   2   2   2
#     4   9  21  38  62  89 121 166 208 255 315 382
#     4  10  21  38  62  90 124 161 209 268 314 368
#     4  12  24  41  61  92 132 173 206 257 314 376
#     4  11  24  41  65  95 125 165 216 261 317 383
#     4  12  23  40  64  90 129 174 211 256 315 379
#     4  10  22  40  61  89 126 164 208 261 310 370
#     4   9  20  43  65  88 125 163 205 263 322 363
#     4  11  22  40  63  90 125 167 214 255 314 381
#
# _framework density 20.547232000000001
#
# number of rings (size 3 to 8) (size 9 to 14) (size 15 to 20)
#    0.000    1.500    2.500    2.625    0.000    6.500 
#    0.000    2.500    0.000    0.000    0.000    0.000 
#    0.000    0.000    0.000    0.000    0.000    0.000 
#
# Total GULP energy -198404.766197 kJ/mol
# GULP energy per Si atom -12400.297887 kJ/mol
# Density = 2.050047 g / cm^3
# Si number density = 20.547232 Si / 1000 Ang^3
#
#
#
# Elastic Constant Matrix: (Units=GPa)
#
#
# Indices 1 2 3 4 5 6 
#
# 1 125.4209 23.9294 39.1619 -13.9532 -10.5082 -8.4308
# 2 23.9294 65.7527 22.2391 -14.4675 -9.1926 -6.9178
# 3 39.1619 22.2391 142.3453 -7.6788 -6.8627 5.3416
# 4 -13.9532 -14.4675 -7.6788 25.7384 3.3174 1.6857
# 5 -10.5082 -9.1926 -6.8627 3.3174 37.8186 -3.9445
# 6 -8.4308 -6.9178 5.3416 1.6857 -3.9445 42.9087
#
#
#
# Elastic Compliance Matrix: (Units=1/GPa)
#
#
# Indices 1 2 3 4 5 6 
#
# 1 0.009611 -0.001566 -0.002207 0.003312 0.001802 0.001946
# 2 -0.001566 0.019173 -0.002045 0.008682 0.003407 0.003010
# 3 -0.002207 -0.002045 0.008033 0.000146 0.000151 -0.001755
# 4 0.003312 0.008682 0.000146 0.045682 -0.000934 0.000152
# 5 0.001802 0.003407 0.000151 -0.000934 0.028247 0.003518
# 6 0.001946 0.003010 -0.001755 0.000152 0.003518 0.024709
#
#
# Mechanical properties :
#
#
# Convention : Reuss Voigt Hill
#
# Bulk Modulus (GPa) = 39.71179 56.01998 47.86588
# Shear Modulus (GPa) = 32.15725 37.83903 34.99814
#
# Velocity S-wave (km/s) = 3.96035 4.29600 4.13159
# Velocity P-wave (km/s) = 6.34677 7.20629 6.79015
#
# Compressibility (1/GPa) = 0.02518144
#
# Stress axis : x y z
#
# Youngs Moduli (GPa) = 104.04364 52.15567 124.48744
#
# Poissons Ratio (x) = 0.08167 0.27476
# Poissons Ratio (y) = 0.16292 0.25459
# Poissons Ratio (z) = 0.22964 0.10666
#
# Static dielectric constant tensor:
#      x y z
#    x 4.002780 0.011800 -0.063710 
#    y 0.011800 3.612110 -0.025960 
#    z -0.063710 -0.025960 3.578230 
# 
# 
# High freq. dielectric constant tensor:
#      x y z
#    x 1.824760 -0.008240 -0.005530 
#    y -0.008240 1.799160 -0.010480 
#    z -0.005530 -0.010480 1.793000 
# 
# From -- ./inp_files/84947.got.cif
#   From: 2010.06.25/outbox.cif.g09.slc.cpg/sg2_43_cif.got.tgz:84947.got - 2010.06.27 13:26:56.
