data_PCOD8010912
_publ_section_title
;
Structure prediction by ZEFSAII (Michael W. Deem and Ramdas Pophale) SiO2 
 PCOD8010912
Probable space group: P -1
;
_chemical_formula_sum "Si O2"
_cell_formula_units_Z 12
_cell_length_a 11.116588
_cell_length_b 8.227430
_cell_length_c 7.994209
_cell_angle_alpha 68.031522
_cell_angle_beta 87.746829
_cell_angle_gamma 128.039131
_cell_volume 496.261114
_symmetry_space_group_name_H-M "P -1"
_symmetry_group_IT_number 2
_symmetry_cell_setting 'triclinic'
loop_
_space_group_symop_operation_xyz
x,y,z
-x,-y,-z
loop_
_atom_site_type_symbol
_atom_site_label
_atom_site_fract_x
_atom_site_fract_y
_atom_site_fract_z
Si Si1 0.476392 0.864742 0.861364
Si Si2 0.532080 0.687419 0.247316
Si Si3 0.788818 0.296335 0.834290
Si Si4 0.407465 0.188612 0.450356
Si Si5 0.036826 0.840499 0.619914
Si Si6 0.898307 0.057640 0.051685
O O1 0.474354 0.777368 0.710763
O O2 0.640255 0.145507 0.765615
O O3 0.483206 0.728247 0.061954
O O4 0.301483 0.785812 0.943551
O O5 0.412370 0.403990 0.379327
O O6 0.528652 0.812045 0.368347
O O7 0.717203 0.799726 0.185205
O O8 0.895749 0.223181 0.862693
O O9 0.900304 0.569356 0.663928
O O10 0.217966 0.955936 0.507844
O O11 0.019084 0.805502 0.832538
O O12 0.000000 0.000000 0.500000
O O13 0.000000 0.000000 0.000000
#
# Coordination Sequence:
#
# PCOD8010912 Si02
#       6
#     2   2   2   2   2   2
#     4  10  21  40  69  90 127 180 214 269 334 383
#     4   9  20  39  64  97 132 162 229 269 316 404
#     4  10  23  43  66  97 133 167 229 267 319 407
#     4  10  21  38  64  98 130 172 214 271 334 383
#     4  11  24  40  65  99 135 166 217 280 324 391
#     4  10  23  42  67  92 128 180 215 266 334 386
#
# _framework density 24.180817000000001
#
# number of rings (size 3 to 8) (size 9 to 14) (size 15 to 20)
#    0.000    2.000    0.000    2.000    7.000    0.667 
#    0.000   13.333    0.000    0.000    0.000    0.000 
#    0.000    0.000    0.000    0.000    0.000    0.000 
#
# Total GULP energy -148700.625428 kJ/mol
# GULP energy per Si atom -12391.718786 kJ/mol
# Density = 2.412578 g / cm^3
# Si number density = 24.180817 Si / 1000 Ang^3
#
#
#
# Elastic Constant Matrix: (Units=GPa)
#
#
# Indices 1 2 3 4 5 6 
#
# 1 121.3975 26.4398 34.0176 0.9018 1.3735 -15.4918
# 2 26.4398 109.9520 42.2622 -26.0194 -2.7361 -3.1434
# 3 34.0176 42.2622 98.9502 5.4963 -0.1259 -3.9923
# 4 0.9018 -26.0194 5.4963 53.9327 -15.7754 -7.3867
# 5 1.3735 -2.7361 -0.1259 -15.7754 34.2741 14.2697
# 6 -15.4918 -3.1434 -3.9923 -7.3867 14.2697 28.4286
#
#
#
# Elastic Compliance Matrix: (Units=1/GPa)
#
#
# Indices 1 2 3 4 5 6 
#
# 1 0.010186 -0.001587 -0.002512 -0.000853 -0.003711 0.006663
# 2 -0.001587 0.013989 -0.005941 0.008910 0.005511 -0.000604
# 3 -0.002512 -0.005941 0.013778 -0.004997 -0.002585 -0.000092
# 4 -0.000853 0.008910 -0.004997 0.027249 0.013144 0.000301
# 5 -0.003711 0.005511 -0.002585 0.013144 0.044402 -0.020648
# 6 0.006663 -0.000604 -0.000092 0.000301 -0.020648 0.049170
#
#
# Mechanical properties :
#
#
# Convention : Reuss Voigt Hill
#
# Bulk Modulus (GPa) = 55.95786 59.52656 57.74221
# Shear Modulus (GPa) = 27.05455 38.49911 32.77683
#
# Velocity S-wave (km/s) = 3.34854 3.99448 3.68569
# Velocity P-wave (km/s) = 6.17592 6.77829 6.48410
#
# Compressibility (1/GPa) = 0.01787059
#
# Stress axis : x y z
#
# Youngs Moduli (GPa) = 98.17644 71.48727 72.58060
#
# Poissons Ratio (x) = 0.11348 0.18234
# Poissons Ratio (y) = 0.15585 0.43121
# Poissons Ratio (z) = 0.24664 0.42471
#
# Static dielectric constant tensor:
#      x y z
#    x 4.552020 -0.049670 -0.002750 
#    y -0.049670 4.458340 -0.086190 
#    z -0.002750 -0.086190 4.393420 
# 
# 
# High freq. dielectric constant tensor:
#      x y z
#    x 1.965960 0.000140 0.011740 
#    y 0.000140 1.953930 -0.011060 
#    z 0.011740 -0.011060 1.959140 
# 
# From -- ./inp_files/237667.got.cif
#   From: 2010.06.25/outbox.cif.g09.slc.cpg/sg2_119_cif.got.tgz:237667.got - 2010.06.27 13:26:56.
