data_PCOD8010940
_publ_section_title
;
Structure prediction by ZEFSAII (Michael W. Deem and Ramdas Pophale) SiO2 
 PCOD8010940
Probable space group: P -1
;
_chemical_formula_sum "Si O2"
_cell_formula_units_Z 10
_cell_length_a 15.516098
_cell_length_b 12.265079
_cell_length_c 12.142381
_cell_angle_alpha 133.601989
_cell_angle_beta 162.703063
_cell_angle_gamma 39.478062
_cell_volume 422.906987
_symmetry_space_group_name_H-M "P -1"
_symmetry_group_IT_number 2
_symmetry_cell_setting 'triclinic'
loop_
_space_group_symop_operation_xyz
x,y,z
-x,-y,-z
loop_
_atom_site_type_symbol
_atom_site_label
_atom_site_fract_x
_atom_site_fract_y
_atom_site_fract_z
Si Si1 0.943056 0.647816 0.279793
Si Si2 0.843148 0.188602 0.153184
Si Si3 0.699332 0.479900 0.577553
Si Si4 0.943383 0.628260 0.618231
Si Si5 0.318318 0.782537 0.476341
O O1 0.998591 0.755482 0.516419
O O2 0.295557 0.532349 0.559078
O O3 0.845622 0.508370 0.117653
O O4 0.657409 0.776208 0.931969
O O5 0.921680 0.246243 0.170564
O O6 0.447976 0.264989 0.745646
O O7 0.024295 0.978698 0.224374
O O8 0.366545 0.659939 0.343576
O O9 0.783956 0.292768 0.598528
O O10 0.000000 0.500000 0.000000
O O11 0.000000 0.500000 0.500000
#
# Coordination Sequence:
#
# PCOD8010940 Si02
#       5
#     2   2   2   2   2
#     4  10  21  38  65  88 121 166 201 244 311 369
#     4  11  24  39  65  96 125 154 207 257 299 359
#     4   9  21  39  61  84 125 161 205 247 315 354
#     4  10  23  41  60  92 132 162 191 250 317 365
#     4  10  22  39  63  90 121 160 208 258 296 359
#
# _framework density 23.645862000000001
#
# number of rings (size 3 to 8) (size 9 to 14) (size 15 to 20)
#    0.000    2.000    0.000    3.000   14.000    0.800 
#    0.000    2.000    0.000    0.000    0.000    0.000 
#    0.000    0.000    0.000    0.000    0.000    0.000 
#
# Total GULP energy -123887.863269 kJ/mol
# GULP energy per Si atom -12388.786327 kJ/mol
# Density = 2.359204 g / cm^3
# Si number density = 23.645862 Si / 1000 Ang^3
#
#
#
# Elastic Constant Matrix: (Units=GPa)
#
#
# Indices 1 2 3 4 5 6 
#
# 1 138.2280 52.7171 3.2074 -14.9370 35.5894 17.0859
# 2 52.7171 146.7701 23.6935 -25.8865 17.7575 20.9330
# 3 3.2074 23.6935 67.9611 -17.1144 18.2189 14.3153
# 4 -14.9370 -25.8865 -17.1144 38.0654 -1.7395 -6.6078
# 5 35.5894 17.7575 18.2189 -1.7395 35.2305 6.2755
# 6 17.0859 20.9330 14.3153 -6.6078 6.2755 32.4049
#
#
#
# Elastic Compliance Matrix: (Units=1/GPa)
#
#
# Indices 1 2 3 4 5 6 
#
# 1 0.012491 -0.002414 0.005881 0.004579 -0.013490 -0.004078
# 2 -0.002414 0.009146 -0.001147 0.004178 -0.000816 -0.003119
# 3 0.005881 -0.001147 0.023055 0.009879 -0.015455 -0.007537
# 4 0.004579 0.004178 0.009879 0.034816 -0.010044 -0.000433
# 5 -0.013490 -0.000816 -0.015455 -0.010044 0.049412 0.002850
# 6 -0.004078 -0.003119 -0.007537 -0.000433 0.002850 0.037714
#
#
# Mechanical properties :
#
#
# Convention : Reuss Voigt Hill
#
# Bulk Modulus (GPa) = 20.27135 56.91060 38.59098
# Shear Modulus (GPa) = 28.02088 39.36291 33.69190
#
# Velocity S-wave (km/s) = 3.44615 4.08448 3.77882
# Velocity P-wave (km/s) = 4.94228 6.80912 5.94938
#
# Compressibility (1/GPa) = 0.04933070
#
# Stress axis : x y z
#
# Youngs Moduli (GPa) = 80.05857 109.33506 43.37451
#
# Poissons Ratio (x) = 0.26399 -0.25507
# Poissons Ratio (y) = 0.19330 0.04975
# Poissons Ratio (z) = -0.47080 0.12540
#
# Static dielectric constant tensor:
#      x y z
#    x 6.614400 -0.641030 1.925960 
#    y -0.641030 4.701110 -0.932500 
#    z 1.925960 -0.932500 6.669680 
# 
# 
# High freq. dielectric constant tensor:
#      x y z
#    x 1.958980 0.003780 0.009530 
#    y 0.003780 1.920350 0.007820 
#    z 0.009530 0.007820 1.944630 
# 
# From -- ./inp_files/15671.got.cif
#   From: 2010.06.25/outbox.cif.g09.slc.cpg/sg2_8_cif.got.tgz:15671.got - 2010.06.27 13:26:56.
