data_PCOD8010224
_publ_section_title
;
Structure prediction by ZEFSAII (Michael W. Deem and Ramdas Pophale) SiO2 
 PCOD8010224
Probable space group: P -1
;
_chemical_formula_sum "Si O2"
_cell_formula_units_Z 14
_cell_length_a 15.228257
_cell_length_b 8.406649
_cell_length_c 13.911713
_cell_angle_alpha 135.063498
_cell_angle_beta 141.006018
_cell_angle_gamma 34.291980
_cell_volume 620.422609
_symmetry_space_group_name_H-M "P -1"
_symmetry_group_IT_number 2
_symmetry_cell_setting 'triclinic'
loop_
_space_group_symop_operation_xyz
x,y,z
-x,-y,-z
loop_
_atom_site_type_symbol
_atom_site_label
_atom_site_fract_x
_atom_site_fract_y
_atom_site_fract_z
Si Si1 0.016199 0.272157 0.046374
Si Si2 0.439692 0.189305 0.278623
Si Si3 0.250461 0.847502 0.221510
Si Si4 0.900128 0.168179 0.390225
Si Si5 0.809032 0.874656 0.061851
Si Si6 0.250744 0.826166 0.430305
Si Si7 0.444053 0.229615 0.631074
O O1 0.975504 0.573267 0.120746
O O2 0.122466 0.146941 0.182762
O O3 0.132909 0.071540 0.968016
O O4 0.832605 0.317549 0.918865
O O5 0.296166 0.512614 0.338874
O O6 0.609831 0.170639 0.383918
O O7 0.495601 0.932541 0.286363
O O8 0.354860 0.136808 0.094739
O O9 0.271494 0.907677 0.375386
O O10 0.442061 0.658090 0.249846
O O11 0.767252 0.509611 0.440765
O O12 0.771356 0.106670 0.206965
O O13 0.000000 0.000000 0.500000
O O14 0.052241 0.074886 0.402695
O O15 0.500000 0.000000 0.500000
#
# Coordination Sequence:
#
# PCOD8010224 Si02
#       7
#     2   2   2   2   2   2   2
#     4  10  21  37  74 104 136 177 229 279 342 410
#     4  11  23  42  74 102 140 181 225 274 353 409
#     4  11  21  40  70 107 134 181 230 277 335 414
#     4  12  29  45  68 102 139 181 235 291 341 406
#     4  11  21  43  68 102 138 184 226 280 348 405
#     4  11  23  45  75 104 139 176 235 280 337 416
#     4  12  26  44  70  96 139 183 228 284 349 411
#
# _framework density 22.565262000000001
#
# number of rings (size 3 to 8) (size 9 to 14) (size 15 to 20)
#    0.000    0.857    5.714    1.714    4.000    1.143 
#    0.000    2.857    0.000    0.000    0.000    0.000 
#    0.000    0.000    0.000    0.000    0.000    0.000 
#
# Total GULP energy -173498.680374 kJ/mol
# GULP energy per Si atom -12392.762884 kJ/mol
# Density = 2.251390 g / cm^3
# Si number density = 22.565262 Si / 1000 Ang^3
#
#
#
# Elastic Constant Matrix: (Units=GPa)
#
#
# Indices 1 2 3 4 5 6 
#
# 1 88.5304 57.1368 28.2345 -9.3103 5.0027 8.9593
# 2 57.1368 139.9114 42.0625 -6.7695 -7.2581 -5.6426
# 3 28.2345 42.0625 130.6757 -10.2636 9.4749 -8.9857
# 4 -9.3103 -6.7695 -10.2636 26.3005 -2.9143 -2.4596
# 5 5.0027 -7.2581 9.4749 -2.9143 37.6253 -14.8726
# 6 8.9593 -5.6426 -8.9857 -2.4596 -14.8726 43.0966
#
#
#
# Elastic Compliance Matrix: (Units=1/GPa)
#
#
# Indices 1 2 3 4 5 6 
#
# 1 0.017722 -0.007299 -0.001315 0.002588 -0.005925 -0.006811
# 2 -0.007299 0.011246 -0.002092 0.000520 0.005475 0.004473
# 3 -0.001315 -0.002092 0.009027 0.002458 -0.001751 0.001418
# 4 0.002588 0.000520 0.002458 0.040788 0.003744 0.003662
# 5 -0.005925 0.005475 -0.001751 0.003744 0.034580 0.013731
# 6 -0.006811 0.004473 0.001418 0.003662 0.013731 0.030448
#
#
# Mechanical properties :
#
#
# Convention : Reuss Voigt Hill
#
# Bulk Modulus (GPa) = 60.29687 68.22056 64.25871
# Shear Modulus (GPa) = 29.28230 36.85005 33.06618
#
# Velocity S-wave (km/s) = 3.60623 4.04548 3.83215
# Velocity P-wave (km/s) = 6.64221 7.21937 6.93680
#
# Compressibility (1/GPa) = 0.01658461
#
# Stress axis : x y z
#
# Youngs Moduli (GPa) = 56.42808 88.91790 110.77322
#
# Poissons Ratio (x) = 0.64897 0.14569
# Poissons Ratio (y) = 0.41184 0.23170
# Poissons Ratio (z) = 0.07422 0.18598
#
# Static dielectric constant tensor:
#      x y z
#    x 4.323560 0.044910 0.219410 
#    y 0.044910 3.970640 -0.406090 
#    z 0.219410 -0.406090 4.258450 
# 
# 
# High freq. dielectric constant tensor:
#      x y z
#    x 1.886780 0.019540 0.017150 
#    y 0.019540 1.870840 -0.033950 
#    z 0.017150 -0.033950 1.893570 
# 
# From -- ./inp_files/303904.got.cif
#   From: 2010.06.25/outbox.cif.g09.slc.cpg/sg2_152_cif.got.tgz:303904.got - 2010.06.27 13:26:56.
