data_PCOD8010638
_publ_section_title
;
Structure prediction by ZEFSAII (Michael W. Deem and Ramdas Pophale) SiO2 
 PCOD8010638
Probable space group: P -1
;
_chemical_formula_sum "Si O2"
_cell_formula_units_Z 14
_cell_length_a 12.145619
_cell_length_b 22.012970
_cell_length_c 15.205970
_cell_angle_alpha 159.915171
_cell_angle_beta 138.718672
_cell_angle_gamma 30.200775
_cell_volume 658.231039
_symmetry_space_group_name_H-M "P -1"
_symmetry_group_IT_number 2
_symmetry_cell_setting 'triclinic'
loop_
_space_group_symop_operation_xyz
x,y,z
-x,-y,-z
loop_
_atom_site_type_symbol
_atom_site_label
_atom_site_fract_x
_atom_site_fract_y
_atom_site_fract_z
Si Si1 0.181131 0.335553 0.638852
Si Si2 0.186306 0.640603 0.643881
Si Si3 0.926384 0.873827 0.235908
Si Si4 0.162046 0.896577 0.820494
Si Si5 0.608240 0.109718 0.203564
Si Si6 0.982504 0.319390 0.663565
Si Si7 0.308654 0.136951 0.766651
O O1 0.981255 0.389572 0.534325
O O2 0.166368 0.272747 0.643432
O O3 0.431013 0.099141 0.428311
O O4 0.143300 0.576529 0.946424
O O5 0.283717 0.693046 0.694428
O O6 0.407039 0.398748 0.497460
O O7 0.062680 0.845963 0.922967
O O8 0.728952 0.920890 0.238889
O O9 0.000000 0.000000 0.500000
O O10 0.819495 0.992662 0.237587
O O11 0.322661 0.921670 0.901610
O O12 0.080899 0.830416 0.603784
O O13 0.500000 0.000000 0.000000
O O14 0.109968 0.202790 0.674286
O O15 0.743180 0.613486 0.923545
#
# Coordination Sequence:
#
# PCOD8010638 Si02
#       7
#     2   2   2   2   2   2   2
#     4  10  21  38  62  90 125 159 214 262 317 368
#     4  10  23  42  64  96 123 169 214 265 316 374
#     4  11  25  42  60  91 126 167 214 256 312 382
#     4  10  23  40  66  93 127 159 219 268 306 376
#     4  12  25  42  65  92 131 174 209 259 321 379
#     4   9  20  39  61  96 120 161 212 260 317 372
#     4  10  21  38  65  87 127 166 202 265 320 369
#
# _framework density 21.269129
#
# number of rings (size 3 to 8) (size 9 to 14) (size 15 to 20)
#    0.000    1.714    1.429    1.714    2.000    6.857 
#    0.000    0.000    0.000    0.000    0.000    0.000 
#    0.000    0.000    0.000    0.000    0.000    0.000 
#
# Total GULP energy -173574.303705 kJ/mol
# GULP energy per Si atom -12398.164550 kJ/mol
# Density = 2.122072 g / cm^3
# Si number density = 21.269129 Si / 1000 Ang^3
#
#
#
# Elastic Constant Matrix: (Units=GPa)
#
#
# Indices 1 2 3 4 5 6 
#
# 1 103.5833 36.5434 62.5392 12.5618 2.3516 -4.5354
# 2 36.5434 64.2619 40.9406 11.9639 2.2404 3.9236
# 3 62.5392 40.9406 124.7056 2.2412 -8.6850 0.3358
# 4 12.5618 11.9639 2.2412 40.9726 -2.4828 -3.1021
# 5 2.3516 2.2404 -8.6850 -2.4828 33.6564 3.6143
# 6 -4.5354 3.9236 0.3358 -3.1021 3.6143 23.9071
#
#
#
# Elastic Compliance Matrix: (Units=1/GPa)
#
#
# Indices 1 2 3 4 5 6 
#
# 1 0.015840 -0.004266 -0.006721 -0.003144 -0.003205 0.003876
# 2 -0.004266 0.022871 -0.005431 -0.005592 -0.002520 -0.004831
# 3 -0.006721 -0.005431 0.013440 0.003126 0.004623 -0.000866
# 4 -0.003144 -0.005592 0.003126 0.027271 0.003050 0.003355
# 5 -0.003205 -0.002520 0.004623 0.003050 0.032027 -0.004706
# 6 0.003876 -0.004831 -0.000866 0.003355 -0.004706 0.044516
#
#
# Mechanical properties :
#
#
# Convention : Reuss Voigt Hill
#
# Bulk Modulus (GPa) = 51.76866 63.62191 57.69529
# Shear Modulus (GPa) = 25.60950 29.87573 27.74262
#
# Velocity S-wave (km/s) = 3.47373 3.75194 3.61551
# Velocity P-wave (km/s) = 6.36253 6.98191 6.67940
#
# Compressibility (1/GPa) = 0.01931671
#
# Stress axis : x y z
#
# Youngs Moduli (GPa) = 63.12977 43.72306 74.40249
#
# Poissons Ratio (x) = 0.18651 0.50003
# Poissons Ratio (y) = 0.26930 0.40410
# Poissons Ratio (z) = 0.42427 0.23747
#
# Static dielectric constant tensor:
#      x y z
#    x 3.963390 0.301900 -0.009690 
#    y 0.301900 3.751270 0.048940 
#    z -0.009690 0.048940 4.062250 
# 
# 
# High freq. dielectric constant tensor:
#      x y z
#    x 1.835170 0.013950 -0.003760 
#    y 0.013950 1.820410 0.000660 
#    z -0.003760 0.000660 1.850200 
# 
# From -- ./inp_files/78202.got.cif
#   From: 2010.06.25/outbox.cif.g09.slc.cpg/sg2_40_cif.got.tgz:78202.got - 2010.06.27 13:26:56.
