data_PCOD8010040
_publ_section_title
;
Structure prediction by ZEFSAII (Michael W. Deem and Ramdas Pophale) SiO2 
 PCOD8010040
Probable space group: P -1
;
_chemical_formula_sum "Si O2"
_cell_formula_units_Z 12
_cell_length_a 10.039568
_cell_length_b 7.637795
_cell_length_c 9.010711
_cell_angle_alpha 71.324039
_cell_angle_beta 90.009753
_cell_angle_gamma 65.666496
_cell_volume 589.384370
_symmetry_space_group_name_H-M "P -1"
_symmetry_group_IT_number 2
_symmetry_cell_setting 'triclinic'
loop_
_space_group_symop_operation_xyz
x,y,z
-x,-y,-z
loop_
_atom_site_type_symbol
_atom_site_label
_atom_site_fract_x
_atom_site_fract_y
_atom_site_fract_z
Si Si1 0.763225 0.080206 0.237909
Si Si2 0.285069 0.539793 0.717744
Si Si3 0.049441 0.719163 0.895952
Si Si4 0.481865 0.207292 0.016214
Si Si5 0.794292 0.649441 0.816683
Si Si6 0.827467 0.638972 0.477324
O O1 0.716502 0.233448 0.340848
O O2 0.911637 0.084653 0.163500
O O3 0.637825 0.179673 0.087095
O O4 0.790043 0.854793 0.340777
O O5 0.144949 0.554724 0.812181
O O6 0.265904 0.467814 0.573231
O O7 0.434356 0.378469 0.840847
O O8 0.877207 0.783159 0.845271
O O9 0.102975 0.592310 0.084047
O O10 0.366599 0.268224 0.134855
O O11 0.500000 0.000000 0.000000
O O12 0.772110 0.679720 0.633396
O O13 0.000000 0.500000 0.500000
#
# Coordination Sequence:
#
# PCOD8010040 Si02
#       6
#     2   2   2   2   2   2
#     4  10  22  40  68  88 125 169 203 252 309 370
#     4   9  20  39  65  87 123 162 207 245 310 361
#     4   8  19  40  64  85 121 165 203 252 299 356
#     4  11  21  41  68  88 121 173 208 246 309 371
#     4  10  21  37  64  93 128 156 206 263 298 364
#     4  12  22  39  65  94 127 163 200 257 321 358
#
# _framework density 20.360226999999998
#
# number of rings (size 3 to 8) (size 9 to 14) (size 15 to 20)
#    1.000    1.000    3.333    0.500    0.000    3.333 
#    0.000    5.833    0.000    0.000    0.000    0.000 
#    0.000    0.000    0.000    0.000    0.000    0.000 
#
# Total GULP energy -148695.773126 kJ/mol
# GULP energy per Si atom -12391.314427 kJ/mol
# Density = 2.031389 g / cm^3
# Si number density = 20.360227 Si / 1000 Ang^3
#
#
#
# Elastic Constant Matrix: (Units=GPa)
#
#
# Indices 1 2 3 4 5 6 
#
# 1 76.4692 16.8984 26.1179 8.7348 21.3468 16.3386
# 2 16.8984 74.7290 1.7242 -7.6316 15.4736 13.2163
# 3 26.1179 1.7242 60.6195 5.8947 20.2607 -3.3407
# 4 8.7348 -7.6316 5.8947 18.4771 -2.0934 2.3210
# 5 21.3468 15.4736 20.2607 -2.0934 28.4645 1.9567
# 6 16.3386 13.2163 -3.3407 2.3210 1.9567 32.7949
#
#
#
# Elastic Compliance Matrix: (Units=1/GPa)
#
#
# Indices 1 2 3 4 5 6 
#
# 1 0.021408 -0.001637 -0.004815 -0.009452 -0.011805 -0.009123
# 2 -0.001637 0.017273 0.002142 0.006972 -0.008768 -0.005898
# 3 -0.004815 0.002142 0.024959 -0.007341 -0.016241 0.005567
# 4 -0.009452 0.006972 -0.007341 0.065903 0.013668 -0.004328
# 5 -0.011805 -0.008768 -0.016241 0.013668 0.061101 0.003148
# 6 -0.009123 -0.005898 0.005567 -0.004328 0.003148 0.038100
#
#
# Mechanical properties :
#
#
# Convention : Reuss Voigt Hill
#
# Bulk Modulus (GPa) = 18.17553 33.47764 25.82658
# Shear Modulus (GPa) = 19.55381 27.08576 23.31979
#
# Velocity S-wave (km/s) = 3.10238 3.65132 3.38799
# Velocity P-wave (km/s) = 4.66684 5.85274 5.29311
#
# Compressibility (1/GPa) = 0.05501904
#
# Stress axis : x y z
#
# Youngs Moduli (GPa) = 46.71159 57.89333 40.06586
#
# Poissons Ratio (x) = 0.09478 0.19292
# Poissons Ratio (y) = 0.07648 -0.08581
# Poissons Ratio (z) = 0.22492 -0.12399
#
# Static dielectric constant tensor:
#      x y z
#    x 3.777110 0.091860 0.125130 
#    y 0.091860 3.570940 -0.081030 
#    z 0.125130 -0.081030 3.665010 
# 
# 
# High freq. dielectric constant tensor:
#      x y z
#    x 1.795670 0.011420 0.016650 
#    y 0.011420 1.781560 -0.005110 
#    z 0.016650 -0.005110 1.779880 
# 
# From -- ./inp_files/152887.got.cif
#   From: 2010.06.25/outbox.cif.g09.slc.cpg/sg2_77_cif.got.tgz:152887.got - 2010.06.27 13:26:56.
