data_PCOD8010572
_publ_section_title
;
Structure prediction by ZEFSAII (Michael W. Deem and Ramdas Pophale) SiO2 
 PCOD8010572
Probable space group: P -1
;
_chemical_formula_sum "Si O2"
_cell_formula_units_Z 16
_cell_length_a 13.543684
_cell_length_b 6.775668
_cell_length_c 22.072791
_cell_angle_alpha 81.780866
_cell_angle_beta 156.456057
_cell_angle_gamma 103.397947
_cell_volume 774.417205
_symmetry_space_group_name_H-M "P -1"
_symmetry_group_IT_number 2
_symmetry_cell_setting 'triclinic'
loop_
_space_group_symop_operation_xyz
x,y,z
-x,-y,-z
loop_
_atom_site_type_symbol
_atom_site_label
_atom_site_fract_x
_atom_site_fract_y
_atom_site_fract_z
Si Si1 0.269739 0.499162 0.915367
Si Si2 0.301387 0.568522 0.166403
Si Si3 0.390629 0.999045 0.721103
Si Si4 0.508888 0.575707 0.596322
Si Si5 0.874290 0.167152 0.637175
Si Si6 0.486676 0.594875 0.822290
Si Si7 0.131737 0.278642 0.315627
Si Si8 0.941558 0.786282 0.393976
O O1 0.028224 0.320433 0.767406
O O2 0.164396 0.706836 0.846669
O O3 0.500000 0.500000 0.000000
O O4 0.352415 0.469614 0.030870
O O5 0.403313 0.816086 0.203750
O O6 0.410024 0.497653 0.291428
O O7 0.392266 0.443838 0.170523
O O8 0.000000 0.500000 0.000000
O O9 0.242296 0.087651 0.685495
O O10 0.516807 0.839549 0.834245
O O11 0.212062 0.856812 0.576529
O O12 0.393992 0.776071 0.530030
O O13 0.283844 0.388347 0.454441
O O14 0.749771 0.617202 0.685133
O O15 0.030817 0.164447 0.663620
O O16 0.833837 0.949301 0.655824
O O17 0.189887 0.459270 0.663285
#
# Coordination Sequence:
#
# PCOD8010572 Si02
#       8
#     2   2   2   2   2   2   2   2
#     4  11  24  40  58  94 129 163 204 258 314 370
#     4  11  24  42  65  92 128 165 211 264 316 369
#     4  10  23  39  62  92 122 166 209 253 316 384
#     4  10  22  42  63  93 125 163 214 260 305 370
#     4  11  22  38  68  91 122 169 208 254 316 375
#     4  11  23  41  61  90 131 162 207 259 313 375
#     4  10  23  41  65  90 128 166 210 260 309 374
#     4  10  21  38  61  93 123 160 207 261 311 370
#
# _framework density 20.660696999999999
#
# number of rings (size 3 to 8) (size 9 to 14) (size 15 to 20)
#    0.000    1.500    1.250    3.000    1.750    6.000 
#    0.000    1.250    0.000    0.000    0.000    0.000 
#    0.000    0.000    0.000    0.000    0.000    0.000 
#
# Total GULP energy -198393.667134 kJ/mol
# GULP energy per Si atom -12399.604196 kJ/mol
# Density = 2.061367 g / cm^3
# Si number density = 20.660697 Si / 1000 Ang^3
#
#
#
# Elastic Constant Matrix: (Units=GPa)
#
#
# Indices 1 2 3 4 5 6 
#
# 1 106.9146 19.3788 51.4930 0.8632 -13.6951 0.8597
# 2 19.3788 124.5596 53.7494 -17.1133 -0.0838 4.2475
# 3 51.4930 53.7494 117.7941 -8.8943 0.6769 8.8865
# 4 0.8632 -17.1133 -8.8943 28.4325 1.5191 -0.9935
# 5 -13.6951 -0.0838 0.6769 1.5191 38.0866 2.4202
# 6 0.8597 4.2475 8.8865 -0.9935 2.4202 22.2515
#
#
#
# Elastic Compliance Matrix: (Units=1/GPa)
#
#
# Indices 1 2 3 4 5 6 
#
# 1 0.012819 0.000239 -0.006010 -0.002335 0.004731 0.001240
# 2 0.000239 0.010655 -0.004592 0.004970 -0.000008 0.000014
# 3 -0.006010 -0.004592 0.013655 0.001668 -0.002224 -0.004028
# 4 -0.002335 0.004970 0.001668 0.038902 -0.002440 0.000478
# 5 0.004731 -0.000008 -0.002224 -0.002440 0.028251 -0.002475
# 6 0.001240 0.000014 -0.004028 0.000478 -0.002475 0.046789
#
#
# Mechanical properties :
#
#
# Convention : Reuss Voigt Hill
#
# Bulk Modulus (GPa) = 60.96457 66.50119 63.73288
# Shear Modulus (GPa) = 28.20615 32.73058 30.46836
#
# Velocity S-wave (km/s) = 3.69888 3.98451 3.84435
# Velocity P-wave (km/s) = 6.91476 7.30928 7.11476
#
# Compressibility (1/GPa) = 0.01640297
#
# Stress axis : x y z
#
# Youngs Moduli (GPa) = 78.00624 93.85214 73.23496
#
# Poissons Ratio (x) = -0.02244 0.44015
# Poissons Ratio (y) = -0.01865 0.33630
# Poissons Ratio (z) = 0.46883 0.43098
#
# Static dielectric constant tensor:
#      x y z
#    x 3.850050 -0.060160 -0.064180 
#    y -0.060160 3.825760 0.013000 
#    z -0.064180 0.013000 3.830850 
# 
# 
# High freq. dielectric constant tensor:
#      x y z
#    x 1.819810 -0.007170 -0.004390 
#    y -0.007170 1.809530 -0.004450 
#    z -0.004390 -0.004450 1.808000 
# 
# From -- ./inp_files/123574.got.cif
#   From: 2010.06.25/outbox.cif.g09.slc.cpg/sg2_62_cif.got.tgz:123574.got - 2010.06.27 13:26:56.
