data_PCOD8010389
_publ_section_title
;
Structure prediction by ZEFSAII (Michael W. Deem and Ramdas Pophale) SiO2 
 PCOD8010389
Probable space group: P -1
;
_chemical_formula_sum "Si O2"
_cell_formula_units_Z 12
_cell_length_a 12.682206
_cell_length_b 16.116625
_cell_length_c 8.265094
_cell_angle_alpha 82.079103
_cell_angle_beta 79.177453
_cell_angle_gamma 152.492590
_cell_volume 568.305967
_symmetry_space_group_name_H-M "P -1"
_symmetry_group_IT_number 2
_symmetry_cell_setting 'triclinic'
loop_
_space_group_symop_operation_xyz
x,y,z
-x,-y,-z
loop_
_atom_site_type_symbol
_atom_site_label
_atom_site_fract_x
_atom_site_fract_y
_atom_site_fract_z
Si Si1 0.408627 0.950711 0.779404
Si Si2 0.439080 0.389205 0.184853
Si Si3 0.812405 0.969674 0.667871
Si Si4 0.221189 0.353873 0.677532
Si Si5 0.014343 0.648419 0.284959
Si Si6 0.419582 0.804156 0.604686
O O1 0.288390 0.777393 0.774742
O O2 0.769364 0.205228 0.659925
O O3 0.374894 0.000703 0.645757
O O4 0.208884 0.825394 0.027989
O O5 0.748498 0.618909 0.144548
O O6 0.135946 0.186904 0.430508
O O7 0.390636 0.260154 0.163942
O O8 0.500000 0.500000 0.000000
O O9 0.892571 0.074693 0.786323
O O10 0.622654 0.887265 0.621866
O O11 0.500000 0.500000 0.500000
O O12 0.236151 0.460904 0.575714
O O13 0.859556 0.447220 0.338173
#
# Coordination Sequence:
#
# PCOD8010389 Si02
#       6
#     2   2   2   2   2   2
#     4  10  24  38  61  90 117 155 202 238 289 352
#     4  10  22  39  60  86 113 157 201 237 292 352
#     4  10  21  38  60  84 121 153 189 248 296 338
#     4  10  21  39  61  86 120 155 189 244 296 343
#     4  11  21  41  61  86 121 156 195 243 292 343
#     4  11  21  39  62  88 118 155 195 244 295 343
#
# _framework density 21.115387999999999
#
# number of rings (size 3 to 8) (size 9 to 14) (size 15 to 20)
#    0.000    1.667    3.333    1.000    2.333    0.667 
#    0.000    3.333    0.000    0.000    0.000    0.000 
#    0.000    0.000    0.000    0.000    0.000    0.000 
#
# Total GULP energy -148737.021951 kJ/mol
# GULP energy per Si atom -12394.751829 kJ/mol
# Density = 2.106733 g / cm^3
# Si number density = 21.115388 Si / 1000 Ang^3
#
#
#
# Elastic Constant Matrix: (Units=GPa)
#
#
# Indices 1 2 3 4 5 6 
#
# 1 116.3278 46.8132 25.4500 -10.9256 30.0187 -7.5261
# 2 46.8132 165.2133 28.1724 -10.1429 29.8468 -22.6269
# 3 25.4500 28.1724 51.0024 -0.1085 28.7491 -5.8674
# 4 -10.9256 -10.1429 -0.1085 17.7518 -0.7019 4.7594
# 5 30.0187 29.8468 28.7491 -0.7019 38.7363 -1.0659
# 6 -7.5261 -22.6269 -5.8674 4.7594 -1.0659 33.6904
#
#
#
# Elastic Compliance Matrix: (Units=1/GPa)
#
#
# Indices 1 2 3 4 5 6 
#
# 1 0.011856 -0.001460 -0.000985 0.006061 -0.007211 0.000412
# 2 -0.001460 0.008164 -0.000755 0.002366 -0.004430 0.004551
# 3 -0.000985 -0.000755 0.034869 -0.003136 -0.024453 0.005015
# 4 0.006061 0.002366 -0.003136 0.063040 -0.003232 -0.006611
# 5 -0.007211 -0.004430 -0.024453 -0.003232 0.052722 -0.006720
# 6 0.000412 0.004551 0.005015 -0.006611 -0.006720 0.034425
#
#
# Mechanical properties :
#
#
# Convention : Reuss Voigt Hill
#
# Bulk Modulus (GPa) = 20.62293 59.26831 39.94562
# Shear Modulus (GPa) = 21.96440 33.50955 27.73697
#
# Velocity S-wave (km/s) = 3.22872 3.98800 3.62828
# Velocity P-wave (km/s) = 4.86698 7.02391 6.04247
#
# Compressibility (1/GPa) = 0.04848971
#
# Stress axis : x y z
#
# Youngs Moduli (GPa) = 84.34429 122.48489 28.67844
#
# Poissons Ratio (x) = 0.17887 0.02824
# Poissons Ratio (y) = 0.12317 0.02165
# Poissons Ratio (z) = 0.08305 0.09248
#
# Static dielectric constant tensor:
#      x y z
#    x 3.958970 -0.082840 0.108500 
#    y -0.082840 4.643280 0.055800 
#    z 0.108500 0.055800 3.313480 
# 
# 
# High freq. dielectric constant tensor:
#      x y z
#    x 1.843090 -0.001380 0.012080 
#    y -0.001380 1.858400 0.005930 
#    z 0.012080 0.005930 1.777280 
# 
# From -- ./inp_files/29095.got.cif
#   From: 2010.06.25/outbox.cif.g09.slc.cpg/sg2_15_cif.got.tgz:29095.got - 2010.06.27 13:26:56.
