data_PCOD8010738
_publ_section_title
;
Structure prediction by ZEFSAII (Michael W. Deem and Ramdas Pophale) SiO2 
 PCOD8010738
Probable space group: P -1
;
_chemical_formula_sum "Si O2"
_cell_formula_units_Z 16
_cell_length_a 20.530752
_cell_length_b 12.528277
_cell_length_c 18.393717
_cell_angle_alpha 27.199049
_cell_angle_beta 21.298356
_cell_angle_gamma 26.442954
_cell_volume 719.303668
_symmetry_space_group_name_H-M "P -1"
_symmetry_group_IT_number 2
_symmetry_cell_setting 'triclinic'
loop_
_space_group_symop_operation_xyz
x,y,z
-x,-y,-z
loop_
_atom_site_type_symbol
_atom_site_label
_atom_site_fract_x
_atom_site_fract_y
_atom_site_fract_z
Si Si1 0.991733 0.271459 0.321831
Si Si2 0.630543 0.443907 0.681160
Si Si3 0.767736 0.029654 0.401171
Si Si4 0.340284 0.427553 0.876402
Si Si5 0.435147 0.256233 0.290839
Si Si6 0.488479 0.769470 0.325918
Si Si7 0.177890 0.066134 0.116683
Si Si8 0.184994 0.762976 0.160711
O O1 0.000655 0.271874 0.223766
O O2 0.787339 0.473864 0.443405
O O3 0.175044 0.322657 0.131852
O O4 0.000000 0.000000 0.500000
O O5 0.436995 0.463901 0.828049
O O6 0.587000 0.674508 0.643196
O O7 0.703444 0.178679 0.808549
O O8 0.765631 0.304154 0.217484
O O9 0.696426 0.022945 0.563735
O O10 0.623175 0.978907 0.524275
O O11 0.985983 0.807375 0.297309
O O12 0.505136 0.224539 0.773362
O O13 0.289817 0.482711 0.253996
O O14 0.661736 0.180710 0.082731
O O15 0.500000 0.500000 0.500000
O O16 0.677708 0.806473 0.136582
O O17 0.096944 0.979860 0.182796
#
# Coordination Sequence:
#
# PCOD8010738 Si02
#       8
#     2   2   2   2   2   2   2   2
#     4   9  20  38  59  88 119 158 204 242 298 357
#     4  10  22  39  61  85 123 163 196 251 295 357
#     4  11  22  39  63  89 122 162 200 248 304 357
#     4  10  23  40  58  91 127 158 201 244 302 365
#     4  10  22  41  60  91 119 158 208 247 300 349
#     4   9  19  37  58  91 123 153 196 246 305 360
#     4   9  18  38  60  88 119 152 200 253 298 350
#     4  10  21  38  63  89 119 156 204 255 293 351
#
# _framework density 22.243735000000001
#
# number of rings (size 3 to 8) (size 9 to 14) (size 15 to 20)
#    0.000    2.250    1.250    0.375    1.750    7.000 
#    4.500    3.125    0.000    0.000    0.000    0.000 
#    0.000    0.000    0.000    0.000    0.000    0.000 
#
# Total GULP energy -198277.510369 kJ/mol
# GULP energy per Si atom -12392.344398 kJ/mol
# Density = 2.219311 g / cm^3
# Si number density = 22.243735 Si / 1000 Ang^3
#
#
#
# Elastic Constant Matrix: (Units=GPa)
#
#
# Indices 1 2 3 4 5 6 
#
# 1 71.4669 28.5594 30.1282 15.1279 -7.4519 21.4142
# 2 28.5594 63.9442 46.7098 19.9232 -2.7284 23.3855
# 3 30.1282 46.7098 152.5436 17.0936 -12.2101 13.1767
# 4 15.1279 19.9232 17.0936 40.2612 4.6767 1.2457
# 5 -7.4519 -2.7284 -12.2101 4.6767 23.4431 -0.2869
# 6 21.4142 23.3855 13.1767 1.2457 -0.2869 27.7540
#
#
#
# Elastic Compliance Matrix: (Units=1/GPa)
#
#
# Indices 1 2 3 4 5 6 
#
# 1 0.021777 -0.000281 -0.001396 -0.007848 0.007539 -0.015472
# 2 -0.000281 0.033731 -0.006419 -0.013436 0.002873 -0.024524
# 3 -0.001396 -0.006419 0.008954 -0.000592 0.003619 0.002298
# 4 -0.007848 -0.013436 -0.000592 0.035500 -0.011254 0.015947
# 5 0.007539 0.002873 0.003619 -0.011254 0.049408 -0.008940
# 6 -0.015472 -0.024524 0.002298 0.015947 -0.008940 0.066734
#
#
# Mechanical properties :
#
#
# Convention : Reuss Voigt Hill
#
# Bulk Modulus (GPa) = 20.71687 55.41661 38.06674
# Shear Modulus (GPa) = 20.12995 30.46215 25.29605
#
# Velocity S-wave (km/s) = 3.01154 3.70465 3.37593
# Velocity P-wave (km/s) = 4.62885 6.57774 5.68740
#
# Compressibility (1/GPa) = 0.04826985
#
# Stress axis : x y z
#
# Youngs Moduli (GPa) = 45.92082 29.64620 111.67868
#
# Poissons Ratio (x) = 0.00834 0.15585
# Poissons Ratio (y) = 0.01292 0.71688
# Poissons Ratio (z) = 0.06408 0.19030
#
# Static dielectric constant tensor:
#      x y z
#    x 3.841900 0.564300 0.184930 
#    y 0.564300 4.042860 0.285720 
#    z 0.184930 0.285720 4.373560 
# 
# 
# High freq. dielectric constant tensor:
#      x y z
#    x 1.854310 0.028920 -0.006660 
#    y 0.028920 1.861030 0.002890 
#    z -0.006660 0.002890 1.891460 
# 
# From -- ./inp_files/71933.got.cif
#   From: 2010.06.25/outbox.cif.g09.slc.cpg/sg2_36_cif.got.tgz:71933.got - 2010.06.27 13:26:56.
