data_PCOD8010418
_publ_section_title
;
Structure prediction by ZEFSAII (Michael W. Deem and Ramdas Pophale) SiO2 
 PCOD8010418
Probable space group: P -1
;
_chemical_formula_sum "Si O2"
_cell_formula_units_Z 14
_cell_length_a 8.789987
_cell_length_b 8.359120
_cell_length_c 12.868150
_cell_angle_alpha 78.683631
_cell_angle_beta 117.015916
_cell_angle_gamma 126.967635
_cell_volume 669.061145
_symmetry_space_group_name_H-M "P -1"
_symmetry_group_IT_number 2
_symmetry_cell_setting 'triclinic'
loop_
_space_group_symop_operation_xyz
x,y,z
-x,-y,-z
loop_
_atom_site_type_symbol
_atom_site_label
_atom_site_fract_x
_atom_site_fract_y
_atom_site_fract_z
Si Si1 0.202287 0.170721 0.604151
Si Si2 0.347230 0.719094 0.329414
Si Si3 0.506704 0.110771 0.239599
Si Si4 0.539917 0.331962 0.038458
Si Si5 0.036916 0.586162 0.885620
Si Si6 0.267662 0.006859 0.829291
Si Si7 0.769094 0.430024 0.456438
O O1 0.415518 0.207428 0.624965
O O2 0.238723 0.381312 0.577402
O O3 0.158921 0.094558 0.720876
O O4 0.000000 0.000000 0.500000
O O5 0.303428 0.675307 0.441799
O O6 0.177599 0.527590 0.232540
O O7 0.328341 0.898954 0.265532
O O8 0.416930 0.194572 0.119772
O O9 0.658264 0.079426 0.223527
O O10 0.623153 0.271898 0.344871
O O11 0.789991 0.435600 0.111727
O O12 0.500000 0.500000 0.000000
O O13 0.460172 0.190878 0.930191
O O14 0.112902 0.818811 0.881583
O O15 0.000000 0.500000 0.000000
O O16 0.000000 0.500000 0.500000
#
# Coordination Sequence:
#
# PCOD8010418 Si02
#       7
#     2   2   2   2   2   2   2
#     4  11  23  42  64  90 123 165 209 257 312 369
#     4  11  23  41  62  91 125 166 210 256 309 369
#     4  10  21  38  60  87 121 162 203 251 305 363
#     4  11  22  41  64  92 124 162 206 255 308 370
#     4  11  21  39  65  92 123 164 206 254 309 368
#     4  10  21  40  63  88 122 163 203 251 309 367
#     4  12  23  39  62  92 125 162 206 258 311 370
#
# _framework density 20.924842999999999
#
# number of rings (size 3 to 8) (size 9 to 14) (size 15 to 20)
#    0.000    1.143    0.000   10.286    0.000    0.000 
#    0.000    5.714    0.000    0.000    0.000    0.000 
#    0.000    0.000    0.000    0.000    0.000    0.000 
#
# Total GULP energy -173535.600792 kJ/mol
# GULP energy per Si atom -12395.400057 kJ/mol
# Density = 2.087722 g / cm^3
# Si number density = 20.924843 Si / 1000 Ang^3
#
#
#
# Elastic Constant Matrix: (Units=GPa)
#
#
# Indices 1 2 3 4 5 6 
#
# 1 71.9903 50.0272 41.4175 -6.2475 2.8359 3.8056
# 2 50.0272 169.1908 70.5643 -27.4983 -7.2533 -5.6048
# 3 41.4175 70.5643 155.2175 -11.7561 -11.9918 4.3662
# 4 -6.2475 -27.4983 -11.7561 67.7983 3.5035 1.8351
# 5 2.8359 -7.2533 -11.9918 3.5035 34.8905 4.9836
# 6 3.8056 -5.6048 4.3662 1.8351 4.9836 27.5726
#
#
#
# Elastic Compliance Matrix: (Units=1/GPa)
#
#
# Indices 1 2 3 4 5 6 
#
# 1 0.019176 -0.004611 -0.003234 -0.000430 -0.003234 -0.002459
# 2 -0.004611 0.008919 -0.002644 0.002629 0.000689 0.002569
# 3 -0.003234 -0.002644 0.008802 0.000055 0.003024 -0.002035
# 4 -0.000430 0.002629 0.000055 0.015843 -0.000948 -0.000298
# 5 -0.003234 0.000689 0.003024 -0.000948 0.030977 -0.005428
# 6 -0.002459 0.002569 -0.002035 -0.000298 -0.005428 0.038453
#
#
# Mechanical properties :
#
#
# Convention : Reuss Voigt Hill
#
# Bulk Modulus (GPa) = 62.81890 80.04628 71.43259
# Shear Modulus (GPa) = 33.68063 41.67825 37.67944
#
# Velocity S-wave (km/s) = 4.01633 4.46781 4.24807
# Velocity P-wave (km/s) = 7.18292 8.05930 7.63370
#
# Compressibility (1/GPa) = 0.01591878
#
# Stress axis : x y z
#
# Youngs Moduli (GPa) = 52.14931 112.12522 113.60519
#
# Poissons Ratio (x) = 0.51705 0.36736
# Poissons Ratio (y) = 0.24048 0.30037
# Poissons Ratio (z) = 0.16863 0.29645
#
# Static dielectric constant tensor:
#      x y z
#    x 3.504490 0.030590 -0.019640 
#    y 0.030590 4.552690 -0.475000 
#    z -0.019640 -0.475000 4.274860 
# 
# 
# High freq. dielectric constant tensor:
#      x y z
#    x 1.782110 -0.001580 -0.004080 
#    y -0.001580 1.849180 -0.015540 
#    z -0.004080 -0.015540 1.844080 
# 
# From -- ./inp_files/186350.got.cif
#   From: 2010.06.25/outbox.cif.g09.slc.cpg/sg2_94_cif.got.tgz:186350.got - 2010.06.27 13:26:56.
