data_PCOD8010063
_publ_section_title
;
Structure prediction by ZEFSAII (Michael W. Deem and Ramdas Pophale) SiO2 
 PCOD8010063
Probable space group: P -1
;
_chemical_formula_sum "Si O2"
_cell_formula_units_Z 14
_cell_length_a 5.118309
_cell_length_b 14.981793
_cell_length_c 9.795707
_cell_angle_alpha 63.855582
_cell_angle_beta 95.600651
_cell_angle_gamma 104.266745
_cell_volume 653.447908
_symmetry_space_group_name_H-M "P -1"
_symmetry_group_IT_number 2
_symmetry_cell_setting 'triclinic'
loop_
_space_group_symop_operation_xyz
x,y,z
-x,-y,-z
loop_
_atom_site_type_symbol
_atom_site_label
_atom_site_fract_x
_atom_site_fract_y
_atom_site_fract_z
Si Si1 0.958196 0.546338 0.610869
Si Si2 0.700892 0.647273 0.904399
Si Si3 0.199564 0.606398 0.052527
Si Si4 0.607646 0.796309 0.000905
Si Si5 0.371773 0.144962 0.735141
Si Si6 0.832700 0.019861 0.845734
Si Si7 0.452285 0.327632 0.417957
O O1 0.243562 0.611510 0.630797
O O2 0.000000 0.500000 0.500000
O O3 0.849686 0.453755 0.769308
O O4 0.731319 0.612388 0.544345
O O5 0.794970 0.737460 0.961749
O O6 0.672137 0.695416 0.723249
O O7 0.428727 0.570404 0.998878
O O8 0.939563 0.587375 0.953014
O O9 0.302766 0.728490 0.009305
O O10 0.656241 0.910128 0.861801
O O11 0.677032 0.799014 0.164013
O O12 0.612518 0.087193 0.814289
O O13 0.462863 0.223581 0.564686
O O14 0.078985 0.074001 0.721822
O O15 0.000000 0.000000 0.000000
#
# Coordination Sequence:
#
# PCOD8010063 Si02
#       7
#     2   2   2   2   2   2   2
#     4  12  26  42  68  95 126 165 212 260 320 368
#     4  10  24  40  64  90 129 170 207 251 319 366
#     4  10  23  39  65  89 124 165 215 247 322 361
#     4   9  22  38  65  88 127 156 214 260 304 373
#     4  11  23  38  65  93 125 167 207 262 319 356
#     4  10  21  37  64  97 122 161 214 259 312 369
#     4  12  26  44  63  93 136 161 211 262 307 383
#
# _framework density 21.424813
#
# number of rings (size 3 to 8) (size 9 to 14) (size 15 to 20)
#    0.857    0.571    0.000    5.571    8.000    3.429 
#    0.000    1.429    0.000    0.000    0.000    0.000 
#    0.000    0.000    0.000    0.000    0.000    0.000 
#
# Total GULP energy -173452.639833 kJ/mol
# GULP energy per Si atom -12389.474274 kJ/mol
# Density = 2.137605 g / cm^3
# Si number density = 21.424813 Si / 1000 Ang^3
#
#
#
# Elastic Constant Matrix: (Units=GPa)
#
#
# Indices 1 2 3 4 5 6 
#
# 1 149.3093 63.1398 48.9366 -19.4717 -2.2024 2.3296
# 2 63.1398 71.3695 36.1265 -21.5126 -4.8096 16.0691
# 3 48.9366 36.1265 124.1889 -13.0873 -9.4342 -1.1856
# 4 -19.4717 -21.5126 -13.0873 19.2280 -3.3624 -3.6104
# 5 -2.2024 -4.8096 -9.4342 -3.3624 32.2573 1.3995
# 6 2.3296 16.0691 -1.1856 -3.6104 1.3995 28.3400
#
#
#
# Elastic Compliance Matrix: (Units=1/GPa)
#
#
# Indices 1 2 3 4 5 6 
#
# 1 0.011680 -0.011146 -0.001540 -0.000992 -0.001646 0.005250
# 2 -0.011146 0.038401 -0.003504 0.027251 0.007557 -0.017906
# 3 -0.001540 -0.003504 0.010141 0.002364 0.002467 0.002717
# 4 -0.000992 0.027251 0.002364 0.084528 0.013723 -0.005181
# 5 -0.001646 0.007557 0.002467 0.013723 0.034340 -0.003994
# 6 0.005250 -0.017906 0.002717 -0.005181 -0.003994 0.044658
#
#
# Mechanical properties :
#
#
# Convention : Reuss Voigt Hill
#
# Bulk Modulus (GPa) = 35.91579 71.25260 53.58419
# Shear Modulus (GPa) = 18.83898 29.07605 23.95752
#
# Velocity S-wave (km/s) = 2.96853 3.68791 3.34760
# Velocity P-wave (km/s) = 5.34318 7.17380 6.32507
#
# Compressibility (1/GPa) = 0.02784291
#
# Stress axis : x y z
#
# Youngs Moduli (GPa) = 85.61754 26.04117 98.61256
#
# Poissons Ratio (x) = 0.29025 0.15183
# Poissons Ratio (y) = 0.95427 0.34552
# Poissons Ratio (z) = 0.13182 0.09124
#
# Static dielectric constant tensor:
#      x y z
#    x 4.423740 0.276560 -0.176830 
#    y 0.276560 4.136200 -0.185380 
#    z -0.176830 -0.185380 3.612560 
# 
# 
# High freq. dielectric constant tensor:
#      x y z
#    x 1.863230 0.010010 -0.007430 
#    y 0.010010 1.842970 -0.009960 
#    z -0.007430 -0.009960 1.821070 
# 
# From -- ./inp_files/134127.got.cif
#   From: 2010.06.25/outbox.cif.g09.slc.cpg/sg2_68_cif.got.tgz:134127.got - 2010.06.27 13:26:56.
