data_PCOD8010356
_publ_section_title
;
Structure prediction by ZEFSAII (Michael W. Deem and Ramdas Pophale) SiO2 
 PCOD8010356
Probable space group: P -1
;
_chemical_formula_sum "Si O2"
_cell_formula_units_Z 16
_cell_length_a 10.406027
_cell_length_b 16.374960
_cell_length_c 11.798160
_cell_angle_alpha 47.928674
_cell_angle_beta 49.106733
_cell_angle_gamma 33.343702
_cell_volume 797.782066
_symmetry_space_group_name_H-M "P -1"
_symmetry_group_IT_number 2
_symmetry_cell_setting 'triclinic'
loop_
_space_group_symop_operation_xyz
x,y,z
-x,-y,-z
loop_
_atom_site_type_symbol
_atom_site_label
_atom_site_fract_x
_atom_site_fract_y
_atom_site_fract_z
Si Si1 0.605066 0.093525 0.379424
Si Si2 0.034181 0.011225 0.103084
Si Si3 0.695788 0.001692 0.859624
Si Si4 0.923770 0.635352 0.496359
Si Si5 0.256410 0.098525 0.307945
Si Si6 0.155871 0.605935 0.615688
Si Si7 0.385260 0.722718 0.302465
Si Si8 0.244843 0.077528 0.764211
O O1 0.339853 0.264026 0.390965
O O2 0.763415 0.114050 0.205107
O O3 0.728171 0.004018 0.510288
O O4 0.626737 0.982383 0.379544
O O5 0.119038 0.077865 0.067680
O O6 0.217529 0.824414 0.194265
O O7 0.078697 0.044360 0.917609
O O8 0.841040 0.905532 0.750079
O O9 0.586728 0.174898 0.740394
O O10 0.500000 0.000000 0.000000
O O11 0.919461 0.739348 0.313500
O O12 0.000000 0.500000 0.500000
O O13 0.112475 0.574141 0.545250
O O14 0.090100 0.275722 0.280547
O O15 0.525179 0.021258 0.193873
O O16 0.253418 0.686679 0.482079
O O17 0.345305 0.443210 0.725989
#
# Coordination Sequence:
#
# PCOD8010356 Si02
#       8
#     2   2   2   2   2   2   2   2
#     4  11  21  38  63  92 114 160 210 248 298 365
#     4  10  21  38  62  91 121 156 205 244 309 362
#     4  10  21  38  59  88 121 158 201 249 306 357
#     4  11  24  38  62  91 120 160 202 256 306 356
#     4  11  18  36  62  87 119 155 211 248 290 367
#     4  11  20  39  58  90 124 155 205 248 307 358
#     4   9  22  37  60  87 124 156 195 257 300 358
#     4  11  20  38  64  86 122 160 201 257 295 370
#
# _framework density 20.055602
#
# number of rings (size 3 to 8) (size 9 to 14) (size 15 to 20)
#    0.750    0.750    5.000    1.125    3.500    2.000 
#    2.250    3.125    2.750    0.000    0.000    0.000 
#    0.000    0.000    0.000    0.000    0.000    0.000 
#
# Total GULP energy -198237.338133 kJ/mol
# GULP energy per Si atom -12389.833633 kJ/mol
# Density = 2.000996 g / cm^3
# Si number density = 20.055602 Si / 1000 Ang^3
#
#
#
# Elastic Constant Matrix: (Units=GPa)
#
#
# Indices 1 2 3 4 5 6 
#
# 1 79.9501 43.5038 24.9189 -1.0198 -7.0793 9.8882
# 2 43.5038 125.2296 43.9617 -7.9375 -3.7313 6.7491
# 3 24.9189 43.9617 93.3470 2.5746 -10.4189 2.2850
# 4 -1.0198 -7.9375 2.5746 24.3525 2.8764 1.1262
# 5 -7.0793 -3.7313 -10.4189 2.8764 30.9564 -0.8639
# 6 9.8882 6.7491 2.2850 1.1262 -0.8639 37.4120
#
#
#
# Elastic Compliance Matrix: (Units=1/GPa)
#
#
# Indices 1 2 3 4 5 6 
#
# 1 0.016300 -0.004885 -0.001660 -0.000888 0.002572 -0.003240
# 2 -0.004885 0.011476 -0.004381 0.004222 -0.001620 -0.000676
# 3 -0.001660 -0.004381 0.013753 -0.003458 0.004059 0.000587
# 4 -0.000888 0.004222 -0.003458 0.043432 -0.004942 -0.001737
# 5 0.002572 -0.001620 0.004059 -0.004942 0.034531 0.000311
# 6 -0.003240 -0.000676 0.000587 -0.001737 0.000311 0.027731
#
#
# Mechanical properties :
#
#
# Convention : Reuss Voigt Hill
#
# Bulk Modulus (GPa) = 50.81970 58.14394 54.48182
# Shear Modulus (GPa) = 28.46813 30.95368 29.71090
#
# Velocity S-wave (km/s) = 3.77166 3.93287 3.85311
# Velocity P-wave (km/s) = 6.66045 7.04823 6.85708
#
# Compressibility (1/GPa) = 0.01967741
#
# Stress axis : x y z
#
# Youngs Moduli (GPa) = 61.34831 87.13721 72.71019
#
# Poissons Ratio (x) = 0.42566 0.12069
# Poissons Ratio (y) = 0.29969 0.31857
# Poissons Ratio (z) = 0.10183 0.38177
#
# Static dielectric constant tensor:
#      x y z
#    x 3.986290 -0.060210 0.050310 
#    y -0.060210 3.504040 0.073370 
#    z 0.050310 0.073370 3.520560 
# 
# 
# High freq. dielectric constant tensor:
#      x y z
#    x 1.805460 -0.004910 -0.004980 
#    y -0.004910 1.754350 0.008970 
#    z -0.004980 0.008970 1.778230 
# 
# From -- ./inp_files/436608.got.cif
#   From: 2010.06.25/outbox.cif.g09.slc.cpg/sg2_219_cif.got.tgz:436608.got - 2010.06.27 13:26:56.
