data_PCOD8010702
_publ_section_title
;
Structure prediction by ZEFSAII (Michael W. Deem and Ramdas Pophale) SiO2 
 PCOD8010702
Probable space group: P -1
;
_chemical_formula_sum "Si O2"
_cell_formula_units_Z 14
_cell_length_a 8.747227
_cell_length_b 5.062651
_cell_length_c 15.996689
_cell_angle_alpha 66.495455
_cell_angle_beta 111.380668
_cell_angle_gamma 89.514375
_cell_volume 595.013228
_symmetry_space_group_name_H-M "P -1"
_symmetry_group_IT_number 2
_symmetry_cell_setting 'triclinic'
loop_
_space_group_symop_operation_xyz
x,y,z
-x,-y,-z
loop_
_atom_site_type_symbol
_atom_site_label
_atom_site_fract_x
_atom_site_fract_y
_atom_site_fract_z
Si Si1 0.641620 0.833802 0.609234
Si Si2 0.205509 0.922664 0.889538
Si Si3 0.789776 0.727332 0.303412
Si Si4 0.262116 0.860728 0.087345
Si Si5 0.448931 0.776734 0.301334
Si Si6 0.036575 0.377628 0.909476
Si Si7 0.996168 0.109966 0.391689
O O1 0.627515 0.495431 0.647666
O O2 0.822722 0.854390 0.608485
O O3 0.500000 0.000000 0.500000
O O4 0.614330 0.955653 0.682833
O O5 0.101201 0.677449 0.872944
O O6 0.298089 0.038888 0.814601
O O7 0.065388 0.203638 0.849900
O O8 0.328563 0.830872 0.006580
O O9 0.650510 0.702418 0.349086
O O10 0.861980 0.409804 0.319661
O O11 0.940909 0.857193 0.357036
O O12 0.402126 0.853718 0.185449
O O13 0.160438 0.591502 0.114311
O O14 0.135440 0.175885 0.029244
O O15 0.000000 0.000000 0.500000
#
# Coordination Sequence:
#
# PCOD8010702 Si02
#       7
#     2   2   2   2   2   2   2
#     4  12  28  49  75 103 138 177 233 293 352 414
#     4  10  21  38  62  95 140 182 229 276 334 410
#     4  12  26  45  70 106 145 185 231 281 355 416
#     4   9  23  36  65  96 142 179 233 279 345 393
#     4  12  27  44  72 106 145 182 230 291 347 415
#     4   9  20  35  61  92 140 175 233 282 333 401
#     4  12  27  49  77 101 136 183 233 288 351 423
#
# _framework density 23.528887000000001
#
# number of rings (size 3 to 8) (size 9 to 14) (size 15 to 20)
#    0.857    0.286    0.000    5.571    8.000    0.571 
#    0.000    0.714    0.000    0.000    0.000    0.000 
#    0.000    0.000    0.000    0.000    0.000    0.000 
#
# Total GULP energy -173476.241360 kJ/mol
# GULP energy per Si atom -12391.160097 kJ/mol
# Density = 2.347533 g / cm^3
# Si number density = 23.528887 Si / 1000 Ang^3
#
#
#
# Elastic Constant Matrix: (Units=GPa)
#
#
# Indices 1 2 3 4 5 6 
#
# 1 143.7940 23.7118 17.7364 -3.4198 -1.9414 8.5197
# 2 23.7118 120.3484 12.6365 1.7117 -5.2686 8.2887
# 3 17.7364 12.6365 87.8219 2.5768 -8.5629 10.9306
# 4 -3.4198 1.7117 2.5768 16.2444 4.6986 0.6900
# 5 -1.9414 -5.2686 -8.5629 4.6986 27.7209 -2.1771
# 6 8.5197 8.2887 10.9306 0.6900 -2.1771 30.9015
#
#
#
# Elastic Compliance Matrix: (Units=1/GPa)
#
#
# Indices 1 2 3 4 5 6 
#
# 1 0.007447 -0.001297 -0.001270 0.002132 -0.000584 -0.001345
# 2 -0.001297 0.008830 -0.000611 -0.001476 0.001519 -0.001655
# 3 -0.001270 -0.000611 0.012661 -0.003205 0.003965 -0.003614
# 4 0.002132 -0.001476 -0.003205 0.066342 -0.012477 -0.001419
# 5 -0.000584 0.001519 0.003965 -0.012477 0.039774 0.001432
# 6 -0.001345 -0.001655 -0.003614 -0.001419 0.001432 0.034586
#
#
# Mechanical properties :
#
#
# Convention : Reuss Voigt Hill
#
# Bulk Modulus (GPa) = 44.28071 51.12597 47.70334
# Shear Modulus (GPa) = 27.24423 34.83200 31.03811
#
# Velocity S-wave (km/s) = 3.40649 3.85176 3.63595
# Velocity P-wave (km/s) = 5.85942 6.44652 6.15997
#
# Compressibility (1/GPa) = 0.02258320
#
# Stress axis : x y z
#
# Youngs Moduli (GPa) = 134.27471 113.24470 78.97973
#
# Poissons Ratio (x) = 0.14691 0.10027
# Poissons Ratio (y) = 0.17419 0.04828
# Poissons Ratio (z) = 0.17046 0.06922
#
# Static dielectric constant tensor:
#      x y z
#    x 4.062950 0.063240 -0.270770 
#    y 0.063240 4.308960 0.031210 
#    z -0.270770 0.031210 4.338810 
# 
# 
# High freq. dielectric constant tensor:
#      x y z
#    x 1.922820 0.011520 -0.024020 
#    y 0.011520 1.940110 0.005840 
#    z -0.024020 0.005840 1.927580 
# 
# From -- ./inp_files/551902.got.cif
#   From: 2010.06.25/outbox.cif.g09.slc.cpg/sg2_276_cif.got.tgz:551902.got - 2010.06.27 13:26:56.
