data_PCOD8010915
_publ_section_title
;
Structure prediction by ZEFSAII (Michael W. Deem and Ramdas Pophale) SiO2 
 PCOD8010915
Probable space group: P -1
;
_chemical_formula_sum "Si O2"
_cell_formula_units_Z 14
_cell_length_a 8.917261
_cell_length_b 9.100415
_cell_length_c 9.159019
_cell_angle_alpha 110.817998
_cell_angle_beta 68.494159
_cell_angle_gamma 106.813454
_cell_volume 635.478563
_symmetry_space_group_name_H-M "P -1"
_symmetry_group_IT_number 2
_symmetry_cell_setting 'triclinic'
loop_
_space_group_symop_operation_xyz
x,y,z
-x,-y,-z
loop_
_atom_site_type_symbol
_atom_site_label
_atom_site_fract_x
_atom_site_fract_y
_atom_site_fract_z
Si Si1 0.377109 0.852669 0.326914
Si Si2 0.227354 0.356024 0.698993
Si Si3 0.077291 0.135423 0.135883
Si Si4 0.621384 0.661759 0.056145
Si Si5 0.180974 0.696343 0.812554
Si Si6 0.510583 0.215374 0.439029
Si Si7 0.101386 0.847174 0.199147
O O1 0.524931 0.807306 0.163441
O O2 0.373240 0.757228 0.448134
O O3 0.211089 0.806255 0.278858
O O4 0.406893 0.039007 0.414420
O O5 0.293705 0.387899 0.848443
O O6 0.146730 0.506182 0.734702
O O7 0.375997 0.331588 0.529814
O O8 0.085054 0.200994 0.697895
O O9 0.930390 0.234768 0.245123
O O10 0.125398 0.038382 0.225078
O O11 0.236967 0.265553 0.082659
O O12 0.000000 0.000000 0.000000
O O13 0.500000 0.500000 0.000000
O O14 0.374797 0.756305 0.734210
O O15 0.139015 0.747161 0.008293
#
# Coordination Sequence:
#
# PCOD8010915 Si02
#       7
#     2   2   2   2   2   2   2
#     4  10  23  41  67  92 131 174 220 263 334 392
#     4  11  23  41  66  95 133 175 218 270 332 394
#     4  10  21  38  64  98 134 164 214 274 326 377
#     4  11  22  38  66 102 136 166 219 280 330 381
#     4  11  22  40  69  95 131 168 216 278 334 376
#     4  10  24  43  64  91 137 176 214 269 337 395
#     4  11  23  40  72  97 124 171 232 268 321 394
#
# _framework density 22.030643999999999
#
# number of rings (size 3 to 8) (size 9 to 14) (size 15 to 20)
#    0.000    1.429    2.857    3.429    6.000    4.000 
#    0.000    0.714    0.000    0.000    0.000    0.000 
#    0.000    0.000    0.000    0.000    0.000    0.000 
#
# Total GULP energy -173525.301203 kJ/mol
# GULP energy per Si atom -12394.664372 kJ/mol
# Density = 2.198050 g / cm^3
# Si number density = 22.030644 Si / 1000 Ang^3
#
#
#
# Elastic Constant Matrix: (Units=GPa)
#
#
# Indices 1 2 3 4 5 6 
#
# 1 124.0862 42.3129 46.3165 4.0355 -19.4261 -3.6286
# 2 42.3129 111.7317 19.8696 7.1938 -21.7989 -3.2677
# 3 46.3165 19.8696 57.3142 1.0007 -19.7585 -1.7300
# 4 4.0355 7.1938 1.0007 25.0440 4.2943 -15.3996
# 5 -19.4261 -21.7989 -19.7585 4.2943 35.0727 2.7371
# 6 -3.6286 -3.2677 -1.7300 -15.3996 2.7371 48.4381
#
#
#
# Elastic Compliance Matrix: (Units=1/GPa)
#
#
# Indices 1 2 3 4 5 6 
#
# 1 0.012503 -0.003086 -0.009021 -0.000641 -0.000012 0.000203
# 2 -0.003086 0.011533 0.000818 -0.004794 0.006610 -0.001322
# 3 -0.009021 0.000818 0.028623 -0.002690 0.012055 -0.001135
# 4 -0.000641 -0.004794 -0.002690 0.054556 -0.012904 0.017606
# 5 -0.000012 0.006610 0.012055 -0.012904 0.041419 -0.005567
# 6 0.000203 -0.001322 -0.001135 0.017606 -0.005567 0.026443
#
#
# Mechanical properties :
#
#
# Convention : Reuss Voigt Hill
#
# Bulk Modulus (GPa) = 33.24393 56.68113 44.96253
# Shear Modulus (GPa) = 24.07530 34.01982 29.04756
#
# Velocity S-wave (km/s) = 3.30935 3.93390 3.63506
# Velocity P-wave (km/s) = 5.45207 6.81309 6.17022
#
# Compressibility (1/GPa) = 0.03008068
#
# Stress axis : x y z
#
# Youngs Moduli (GPa) = 79.97857 86.70947 34.93735
#
# Poissons Ratio (x) = 0.26758 0.31518
# Poissons Ratio (y) = 0.24681 -0.02858
# Poissons Ratio (z) = 0.72150 -0.07094
#
# Static dielectric constant tensor:
#      x y z
#    x 4.294480 -0.306590 -0.079470 
#    y -0.306590 3.999160 -0.036040 
#    z -0.079470 -0.036040 3.842110 
# 
# 
# High freq. dielectric constant tensor:
#      x y z
#    x 1.877350 -0.012250 -0.019260 
#    y -0.012250 1.868220 0.001520 
#    z -0.019260 0.001520 1.841390 
# 
# From -- ./inp_files/157510.got.cif
#   From: 2010.06.25/outbox.cif.g09.slc.cpg/sg2_79_cif.got.tgz:157510.got - 2010.06.27 13:26:56.
