data_PCOD8010425
_publ_section_title
;
Structure prediction by ZEFSAII (Michael W. Deem and Ramdas Pophale) SiO2 
 PCOD8010425
Probable space group: P -1
;
_chemical_formula_sum "Si O2"
_cell_formula_units_Z 16
_cell_length_a 7.025896
_cell_length_b 7.764852
_cell_length_c 13.910718
_cell_angle_alpha 87.861548
_cell_angle_beta 89.054017
_cell_angle_gamma 72.778107
_cell_volume 724.358089
_symmetry_space_group_name_H-M "P -1"
_symmetry_group_IT_number 2
_symmetry_cell_setting 'triclinic'
loop_
_space_group_symop_operation_xyz
x,y,z
-x,-y,-z
loop_
_atom_site_type_symbol
_atom_site_label
_atom_site_fract_x
_atom_site_fract_y
_atom_site_fract_z
Si Si1 0.419107 0.498335 0.193525
Si Si2 0.858044 0.127705 0.574281
Si Si3 0.474849 0.693557 0.539824
Si Si4 0.146347 0.501789 0.371139
Si Si5 0.795748 0.386186 0.304460
Si Si6 0.684431 0.136830 0.915231
Si Si7 0.982842 0.036843 0.222973
Si Si8 0.589417 0.096239 0.131900
O O1 0.235027 0.542926 0.268126
O O2 0.617699 0.521528 0.243027
O O3 0.368876 0.649022 0.107977
O O4 0.452857 0.297667 0.155531
O O5 0.624281 0.153402 0.543320
O O6 0.886359 0.326826 0.561781
O O7 0.896600 0.064022 0.684131
O O8 0.000000 0.000000 0.500000
O O9 0.500000 0.500000 0.500000
O O10 0.695545 0.681192 0.580128
O O11 0.308742 0.729669 0.624797
O O12 0.924656 0.487152 0.361691
O O13 0.951025 0.250021 0.234172
O O14 0.899615 0.033522 0.873490
O O15 0.533372 0.046416 0.866497
O O16 0.691679 0.107523 0.028927
O O17 0.761630 0.016693 0.211207
#
# Coordination Sequence:
#
# PCOD8010425 Si02
#       8
#     2   2   2   2   2   2   2   2
#     4  10  21  39  64  92 125 159 203 252 307 364
#     4  11  21  38  59  86 120 160 200 254 299 356
#     4   9  20  37  56  78 118 153 201 248 294 350
#     4  10  21  39  62  82 119 162 207 248 300 366
#     4  10  21  38  60  88 117 165 201 252 309 355
#     4  11  22  41  67  93 122 164 206 244 316 370
#     4  11  22  41  61  87 129 156 201 258 306 356
#     4  10  24  41  64  95 126 158 202 258 304 372
#
# _framework density 22.088521
#
# number of rings (size 3 to 8) (size 9 to 14) (size 15 to 20)
#    0.000    1.750    2.500    1.500    1.750    2.000 
#    0.000    1.875    0.000    8.250    0.000    0.000 
#    0.000    0.000    0.000    0.000    0.000    0.000 
#
# Total GULP energy -198255.174558 kJ/mol
# GULP energy per Si atom -12390.948410 kJ/mol
# Density = 2.203825 g / cm^3
# Si number density = 22.088521 Si / 1000 Ang^3
#
#
#
# Elastic Constant Matrix: (Units=GPa)
#
#
# Indices 1 2 3 4 5 6 
#
# 1 67.7304 11.5236 16.1737 -1.4404 7.2401 -6.9356
# 2 11.5236 70.1028 29.8057 7.8251 -11.6784 -13.0538
# 3 16.1737 29.8057 66.0452 8.9569 3.2331 -7.8237
# 4 -1.4404 7.8251 8.9569 41.3641 -9.2706 0.3821
# 5 7.2401 -11.6784 3.2331 -9.2706 27.9844 6.6332
# 6 -6.9356 -13.0538 -7.8237 0.3821 6.6332 23.1679
#
#
#
# Elastic Compliance Matrix: (Units=1/GPa)
#
#
# Indices 1 2 3 4 5 6 
#
# 1 0.016793 -0.001817 -0.002432 0.000075 -0.005955 0.004886
# 2 -0.001817 0.020789 -0.008650 -0.000225 0.008705 0.005760
# 3 -0.002432 -0.008650 0.021149 -0.004846 -0.007953 0.003897
# 4 0.000075 -0.000225 -0.004846 0.027763 0.010905 -0.005321
# 5 -0.005955 0.008705 -0.007953 0.010905 0.048682 -0.013681
# 6 0.004886 0.005760 0.003897 -0.005321 -0.013681 0.053192
#
#
# Mechanical properties :
#
#
# Convention : Reuss Voigt Hill
#
# Bulk Modulus (GPa) = 30.36610 35.43161 32.89885
# Shear Modulus (GPa) = 22.20796 28.26166 25.23481
#
# Velocity S-wave (km/s) = 3.17426 3.58085 3.38367
# Velocity P-wave (km/s) = 5.21650 5.75953 5.49473
#
# Compressibility (1/GPa) = 0.03293146
#
# Stress axis : x y z
#
# Youngs Moduli (GPa) = 59.54922 48.10189 47.28395
#
# Poissons Ratio (x) = 0.08740 0.11501
# Poissons Ratio (y) = 0.10820 0.40903
# Poissons Ratio (z) = 0.14484 0.41610
#
# Static dielectric constant tensor:
#      x y z
#    x 4.021600 -0.362240 0.267910 
#    y -0.362240 3.996670 0.107700 
#    z 0.267910 0.107700 4.259680 
# 
# 
# High freq. dielectric constant tensor:
#      x y z
#    x 1.857120 -0.030510 0.015200 
#    y -0.030510 1.864030 0.017040 
#    z 0.015200 0.017040 1.874330 
# 
# From -- ./inp_files/99738.got.cif
#   From: 2010.06.25/outbox.cif.g09.slc.cpg/sg2_50_cif.got.tgz:99738.got - 2010.06.27 13:26:56.
