data_PCOD8010110
_publ_section_title
;
Structure prediction by ZEFSAII (Michael W. Deem and Ramdas Pophale) SiO2 
 PCOD8010110
Probable space group: P -1
;
_chemical_formula_sum "Si O2"
_cell_formula_units_Z 16
_cell_length_a 14.888373
_cell_length_b 10.021454
_cell_length_c 17.996891
_cell_angle_alpha 143.305678
_cell_angle_beta 148.785880
_cell_angle_gamma 38.217770
_cell_volume 787.062273
_symmetry_space_group_name_H-M "P -1"
_symmetry_group_IT_number 2
_symmetry_cell_setting 'triclinic'
loop_
_space_group_symop_operation_xyz
x,y,z
-x,-y,-z
loop_
_atom_site_type_symbol
_atom_site_label
_atom_site_fract_x
_atom_site_fract_y
_atom_site_fract_z
Si Si1 0.615879 0.811225 0.892912
Si Si2 0.421722 0.651326 0.083700
Si Si3 0.866658 0.897332 0.983672
Si Si4 0.434392 0.079212 0.591195
Si Si5 0.531460 0.539389 0.455276
Si Si6 0.916285 0.539607 0.728955
Si Si7 0.307807 0.273755 0.920169
Si Si8 0.808590 0.925867 0.707745
O O1 0.569055 0.591260 0.727660
O O2 0.433950 0.037114 0.864819
O O3 0.770254 0.871135 0.980690
O O4 0.692395 0.747876 0.001048
O O5 0.579851 0.752194 0.272315
O O6 0.500000 0.500000 0.000000
O O7 0.372527 0.493597 0.041748
O O8 0.244839 0.869693 0.036057
O O9 0.883812 0.672953 0.844515
O O10 0.067823 0.910131 0.150747
O O11 0.252260 0.182094 0.458209
O O12 0.449589 0.816450 0.507078
O O13 0.619474 0.084015 0.682555
O O14 0.500000 0.500000 0.500000
O O15 0.748717 0.443238 0.549928
O O16 0.929223 0.715443 0.750971
O O17 0.102204 0.319902 0.765322
#
# Coordination Sequence:
#
# PCOD8010110 Si02
#       8
#     2   2   2   2   2   2   2   2
#     4  11  26  44  62  96 134 172 207 257 330 385
#     4  12  22  41  71  91 127 172 211 262 320 381
#     4  12  21  41  65 100 125 165 223 258 314 383
#     4  10  23  39  63 102 125 163 210 272 325 358
#     4  11  22  41  65  91 133 169 210 263 314 388
#     4  11  22  38  67  96 124 168 218 265 314 374
#     4  11  26  42  65  95 131 170 212 260 322 389
#     4  10  21  37  65  97 127 154 217 276 310 363
#
# _framework density 20.328759999999999
#
# number of rings (size 3 to 8) (size 9 to 14) (size 15 to 20)
#    0.000    1.000    6.250    1.125    7.000    2.000 
#    0.000    0.625    5.500    0.000    0.000    0.000 
#    0.000    0.000    0.000    0.000    0.000    0.000 
#
# Total GULP energy -198427.475348 kJ/mol
# GULP energy per Si atom -12401.717209 kJ/mol
# Density = 2.028249 g / cm^3
# Si number density = 20.328760 Si / 1000 Ang^3
#
#
#
# Elastic Constant Matrix: (Units=GPa)
#
#
# Indices 1 2 3 4 5 6 
#
# 1 107.7708 35.8348 42.9908 0.8945 2.5678 18.9314
# 2 35.8348 76.7226 19.2173 -4.2124 1.1093 7.2007
# 3 42.9908 19.2173 111.2687 0.7497 -4.0413 5.7527
# 4 0.8945 -4.2124 0.7497 34.6560 -0.5368 1.2673
# 5 2.5678 1.1093 -4.0413 -0.5368 35.4561 4.4897
# 6 18.9314 7.2007 5.7527 1.2673 4.4897 27.6006
#
#
#
# Elastic Compliance Matrix: (Units=1/GPa)
#
#
# Indices 1 2 3 4 5 6 
#
# 1 0.013806 -0.004753 -0.004149 -0.000585 -0.000412 -0.007271
# 2 -0.004753 0.015649 -0.000847 0.002068 -0.000119 -0.000721
# 3 -0.004149 -0.000847 0.010761 -0.000228 0.001475 0.000594
# 4 -0.000585 0.002068 -0.000228 0.029191 0.000587 -0.001527
# 5 -0.000412 -0.000119 0.001475 0.000587 0.029015 -0.004740
# 6 -0.007271 -0.000721 0.000594 -0.001527 -0.004740 0.042124
#
#
# Mechanical properties :
#
#
# Convention : Reuss Voigt Hill
#
# Bulk Modulus (GPa) = 48.26611 54.64976 51.45794
# Shear Modulus (GPa) = 29.94905 32.72380 31.33643
#
# Velocity S-wave (km/s) = 3.84244 4.01650 3.93043
# Velocity P-wave (km/s) = 6.59394 6.96067 6.77979
#
# Compressibility (1/GPa) = 0.02071847
#
# Stress axis : x y z
#
# Youngs Moduli (GPa) = 72.43102 63.90111 92.92976
#
# Poissons Ratio (x) = 0.30373 0.38552
# Poissons Ratio (y) = 0.34427 0.07874
# Poissons Ratio (z) = 0.30048 0.05414
#
# Static dielectric constant tensor:
#      x y z
#    x 3.673900 -0.168020 0.049120 
#    y -0.168020 4.203160 0.199000 
#    z 0.049120 0.199000 3.926530 
# 
# 
# High freq. dielectric constant tensor:
#      x y z
#    x 1.791150 0.017610 0.000430 
#    y 0.017610 1.787610 -0.005580 
#    z 0.000430 -0.005580 1.801960 
# 
# From -- ./inp_files/217029.got.cif
#   From: 2010.06.25/outbox.cif.g09.slc.cpg/sg2_109_cif.got.tgz:217029.got - 2010.06.27 13:26:56.
