data_PCOD8010927
_publ_section_title
;
Structure prediction by ZEFSAII (Michael W. Deem and Ramdas Pophale) SiO2 
 PCOD8010927
Probable space group: P -1
;
_chemical_formula_sum "Si O2"
_cell_formula_units_Z 16
_cell_length_a 8.318843
_cell_length_b 9.694662
_cell_length_c 15.389624
_cell_angle_alpha 96.748862
_cell_angle_beta 128.760315
_cell_angle_gamma 116.774948
_cell_volume 707.570894
_symmetry_space_group_name_H-M "P -1"
_symmetry_group_IT_number 2
_symmetry_cell_setting 'triclinic'
loop_
_space_group_symop_operation_xyz
x,y,z
-x,-y,-z
loop_
_atom_site_type_symbol
_atom_site_label
_atom_site_fract_x
_atom_site_fract_y
_atom_site_fract_z
Si Si1 0.518165 0.954215 0.184743
Si Si2 0.661668 0.703747 0.479120
Si Si3 0.017809 0.273994 0.107916
Si Si4 0.550647 0.675504 0.252434
Si Si5 0.973658 0.048568 0.225420
Si Si6 0.955720 0.368557 0.400652
Si Si7 0.024217 0.500051 0.252783
Si Si8 0.217565 0.326315 0.844934
O O1 0.448500 0.783910 0.202991
O O2 0.696825 0.001261 0.161995
O O3 0.220766 0.886016 0.051718
O O4 0.696728 0.145833 0.317229
O O5 0.740771 0.775851 0.411146
O O6 0.756454 0.586267 0.515444
O O7 0.334475 0.579210 0.369296
O O8 0.815903 0.867588 0.614977
O O9 0.290991 0.452084 0.162770
O O10 0.875056 0.337144 0.117442
O O11 0.100992 0.187895 0.196213
O O12 0.736177 0.697137 0.240482
O O13 0.910153 0.862275 0.159926
O O14 0.876442 0.415556 0.289592
O O15 0.000000 0.500000 0.500000
O O16 0.007270 0.651629 0.228068
O O17 0.500000 0.500000 0.000000
#
# Coordination Sequence:
#
# PCOD8010927 Si02
#       8
#     2   2   2   2   2   2   2   2
#     4  10  21  38  65 101 127 176 226 263 333 405
#     4  10  22  42  67  94 131 172 230 264 333 392
#     4  11  21  41  73  94 127 176 227 266 333 394
#     4  10  23  40  68  93 136 170 213 283 327 391
#     4  10  22  40  68  96 130 178 215 279 321 406
#     4  11  23  38  64  99 136 170 221 275 330 386
#     4  11  22  39  69  92 129 179 214 275 327 393
#     4  11  25  43  64  98 138 172 221 275 339 389
#
# _framework density 22.612576000000001
#
# number of rings (size 3 to 8) (size 9 to 14) (size 15 to 20)
#    0.000    1.500    2.500    3.375    3.500    7.000 
#    0.000    3.125    0.000    0.000    0.000    0.000 
#    0.000    0.000    0.000    0.000    0.000    0.000 
#
# Total GULP energy -198332.574720 kJ/mol
# GULP energy per Si atom -12395.785920 kJ/mol
# Density = 2.256111 g / cm^3
# Si number density = 22.612576 Si / 1000 Ang^3
#
#
#
# Elastic Constant Matrix: (Units=GPa)
#
#
# Indices 1 2 3 4 5 6 
#
# 1 51.9212 41.8464 23.1320 5.9380 0.4970 -10.9050
# 2 41.8464 158.8918 43.0414 12.4436 -0.5077 -8.8495
# 3 23.1320 43.0414 116.8367 9.2988 9.0227 -13.5072
# 4 5.9380 12.4436 9.2988 37.7743 1.0874 -5.5351
# 5 0.4970 -0.5077 9.0227 1.0874 32.9082 1.7007
# 6 -10.9050 -8.8495 -13.5072 -5.5351 1.7007 35.3134
#
#
#
# Elastic Compliance Matrix: (Units=1/GPa)
#
#
# Indices 1 2 3 4 5 6 
#
# 1 0.026352 -0.005940 -0.002303 -0.000787 -0.000124 0.005651
# 2 -0.005940 0.008473 -0.001977 -0.001504 0.000851 -0.000744
# 3 -0.002303 -0.001977 0.010371 -0.001054 -0.002946 0.002737
# 4 -0.000787 -0.001504 -0.001054 0.027871 -0.000818 0.003385
# 5 -0.000124 0.000851 -0.002946 -0.000818 0.031371 -0.002591
# 6 0.005651 -0.000744 0.002737 0.003385 -0.002591 0.031579
#
#
# Mechanical properties :
#
#
# Convention : Reuss Voigt Hill
#
# Bulk Modulus (GPa) = 40.39776 60.40993 50.40385
# Shear Modulus (GPa) = 30.35648 35.84116 33.09882
#
# Velocity S-wave (km/s) = 3.66793 3.98554 3.83003
# Velocity P-wave (km/s) = 5.98684 6.92478 6.47282
#
# Compressibility (1/GPa) = 0.02475385
#
# Stress axis : x y z
#
# Youngs Moduli (GPa) = 37.94814 118.02641 96.42141
#
# Poissons Ratio (x) = 0.70110 0.22211
# Poissons Ratio (y) = 0.22542 0.19064
# Poissons Ratio (z) = 0.08741 0.23336
#
# Static dielectric constant tensor:
#      x y z
#    x 3.715510 -0.025540 -0.185640 
#    y -0.025540 4.344320 0.032190 
#    z -0.185640 0.032190 4.319030 
# 
# 
# High freq. dielectric constant tensor:
#      x y z
#    x 1.858090 0.002870 -0.005010 
#    y 0.002870 1.899390 -0.004890 
#    z -0.005010 -0.004890 1.901020 
# 
# From -- ./inp_files/495306.got.cif
#   From: 2010.06.25/outbox.cif.g09.slc.cpg/sg2_248_cif.got.tgz:495306.got - 2010.06.27 13:26:56.
