data_PCOD8010289
_publ_section_title
;
Structure prediction by ZEFSAII (Michael W. Deem and Ramdas Pophale) SiO2 
 PCOD8010289
Probable space group: P -1
;
_chemical_formula_sum "Si O2"
_cell_formula_units_Z 16
_cell_length_a 6.546045
_cell_length_b 25.194130
_cell_length_c 6.001540
_cell_angle_alpha 93.351176
_cell_angle_beta 98.388990
_cell_angle_gamma 132.203610
_cell_volume 708.626161
_symmetry_space_group_name_H-M "P -1"
_symmetry_group_IT_number 2
_symmetry_cell_setting 'triclinic'
loop_
_space_group_symop_operation_xyz
x,y,z
-x,-y,-z
loop_
_atom_site_type_symbol
_atom_site_label
_atom_site_fract_x
_atom_site_fract_y
_atom_site_fract_z
Si Si1 0.184862 0.585071 0.248008
Si Si2 0.269037 0.952577 0.763046
Si Si3 0.100397 0.163471 0.993910
Si Si4 0.564522 0.092030 0.608092
Si Si5 0.428851 0.705616 0.639881
Si Si6 0.421926 0.545880 0.941578
Si Si7 0.033319 0.660643 0.942208
Si Si8 0.488084 0.799875 0.295818
O O1 0.359761 0.635886 0.504793
O O2 0.877301 0.505791 0.255350
O O3 0.378806 0.574435 0.161676
O O4 0.114419 0.620566 0.074912
O O5 0.330197 0.912145 0.610387
O O6 0.967523 0.888799 0.822292
O O7 0.287995 0.009184 0.628021
O O8 0.500000 0.000000 0.000000
O O9 0.309714 0.248623 0.130114
O O10 0.252003 0.156556 0.825008
O O11 0.809997 0.136001 0.846236
O O12 0.485199 0.138752 0.565809
O O13 0.142273 0.674941 0.709436
O O14 0.526177 0.762264 0.477580
O O15 0.697061 0.615330 0.866048
O O16 0.500000 0.500000 0.000000
O O17 0.188618 0.737619 0.106348
#
# Coordination Sequence:
#
# PCOD8010289 Si02
#       8
#     2   2   2   2   2   2   2   2
#     4   9  19  38  59  82 116 151 187 236 288 339
#     4   9  20  38  60  86 115 151 195 239 289 347
#     4  10  21  39  59  84 118 152 192 241 292 347
#     4  10  21  40  61  84 117 153 192 241 292 343
#     4  10  21  38  58  86 119 152 194 239 287 344
#     4   9  18  37  60  82 114 152 189 235 286 336
#     4   9  20  36  55  84 116 148 191 236 284 342
#     4  10  22  38  58  86 117 152 196 241 286 342
#
# _framework density 22.578901999999999
#
# number of rings (size 3 to 8) (size 9 to 14) (size 15 to 20)
#    0.000    2.500    0.000    0.750    0.000    9.000 
#    0.000   24.375    0.000    0.000    0.000    0.000 
#    0.000    0.000    0.000    0.000    0.000    0.000 
#
# Total GULP energy -198279.768817 kJ/mol
# GULP energy per Si atom -12392.485551 kJ/mol
# Density = 2.252751 g / cm^3
# Si number density = 22.578902 Si / 1000 Ang^3
#
#
#
# Elastic Constant Matrix: (Units=GPa)
#
#
# Indices 1 2 3 4 5 6 
#
# 1 78.5025 33.5106 25.0995 11.6718 -23.2564 3.8400
# 2 33.5106 82.0248 23.2144 11.6266 -19.2128 20.5721
# 3 25.0995 23.2144 83.2568 18.0816 -27.1666 5.1654
# 4 11.6718 11.6266 18.0816 43.3823 -1.2205 -15.4174
# 5 -23.2564 -19.2128 -27.1666 -1.2205 28.7652 3.0642
# 6 3.8400 20.5721 5.1654 -15.4174 3.0642 46.3938
#
#
#
# Elastic Compliance Matrix: (Units=1/GPa)
#
#
# Indices 1 2 3 4 5 6 
#
# 1 0.018939 -0.003146 0.001291 -0.005482 0.014527 -0.003098
# 2 -0.003146 0.021429 0.003534 -0.011020 0.016169 -0.014365
# 3 0.001291 0.003534 0.022431 -0.013617 0.025113 -0.010355
# 4 -0.005482 -0.011020 -0.013617 0.040224 -0.025278 0.021893
# 5 0.014527 0.016169 0.025113 -0.025278 0.082620 -0.025026
# 6 -0.003098 -0.014365 -0.010355 0.021893 -0.025026 0.038262
#
#
# Mechanical properties :
#
#
# Convention : Reuss Voigt Hill
#
# Bulk Modulus (GPa) = 15.11589 45.27035 30.19312
# Shear Modulus (GPa) = 20.61016 34.50555 27.55786
#
# Velocity S-wave (km/s) = 3.02455 3.91349 3.49738
# Velocity P-wave (km/s) = 4.34815 6.36505 5.45070
#
# Compressibility (1/GPa) = 0.06615554
#
# Stress axis : x y z
#
# Youngs Moduli (GPa) = 52.80109 46.66639 44.58166
#
# Poissons Ratio (x) = 0.14681 -0.05754
# Poissons Ratio (y) = 0.16611 -0.15755
# Poissons Ratio (z) = -0.06814 -0.16492
#
# Static dielectric constant tensor:
#      x y z
#    x 3.716570 0.280170 -0.252220 
#    y 0.280170 4.932980 0.168620 
#    z -0.252220 0.168620 4.013970 
# 
# 
# High freq. dielectric constant tensor:
#      x y z
#    x 1.859150 0.010880 -0.022170 
#    y 0.010880 1.916090 0.013400 
#    z -0.022170 0.013400 1.882350 
# 
# From -- ./inp_files/12776.got.cif
#   From: 2010.06.25/outbox.cif.g09.slc.cpg/sg2_7_cif.got.tgz:12776.got - 2010.06.27 13:26:56.
