data_PCOD8010217
_publ_section_title
;
Structure prediction by ZEFSAII (Michael W. Deem and Ramdas Pophale) SiO2 
 PCOD8010217
Probable space group: P -1
;
_chemical_formula_sum "Si O2"
_cell_formula_units_Z 16
_cell_length_a 15.285647
_cell_length_b 9.343885
_cell_length_c 15.075570
_cell_angle_alpha 142.710130
_cell_angle_beta 141.198259
_cell_angle_gamma 39.804232
_cell_volume 752.563723
_symmetry_space_group_name_H-M "P -1"
_symmetry_group_IT_number 2
_symmetry_cell_setting 'triclinic'
loop_
_space_group_symop_operation_xyz
x,y,z
-x,-y,-z
loop_
_atom_site_type_symbol
_atom_site_label
_atom_site_fract_x
_atom_site_fract_y
_atom_site_fract_z
Si Si1 0.406342 0.123110 0.094018
Si Si2 0.139942 0.409905 0.132827
Si Si3 0.487279 0.584315 0.431414
Si Si4 0.295759 0.293952 0.907695
Si Si5 0.832652 0.101370 0.656659
Si Si6 0.856729 0.115536 0.880589
Si Si7 0.214441 0.329007 0.341998
Si Si8 0.033219 0.193907 0.554959
O O1 0.282771 0.158098 0.090264
O O2 0.470873 0.349767 0.248288
O O3 0.539486 0.843499 0.077295
O O4 0.313490 0.140568 0.938382
O O5 0.197180 0.638694 0.292065
O O6 0.105870 0.364967 0.185621
O O7 0.000000 0.500000 0.000000
O O8 0.500000 0.500000 0.500000
O O9 0.341856 0.857973 0.439666
O O10 0.630860 0.639124 0.540145
O O11 0.174525 0.245765 0.727719
O O12 0.250086 0.595118 0.035989
O O13 0.916479 0.086337 0.810588
O O14 0.930799 0.882521 0.557887
O O15 0.754013 0.948416 0.728636
O O16 0.000000 0.000000 0.000000
O O17 0.115922 0.545818 0.440130
O O18 0.000000 0.000000 0.500000
#
# Coordination Sequence:
#
# PCOD8010217 Si02
#       8
#     2   2   2   2   2   2   2   2
#     4  10  21  37  70  96 129 173 226 277 351 378
#     4  11  20  39  65 102 128 173 229 283 332 400
#     4  11  19  42  68 102 129 171 229 291 345 393
#     4  11  22  42  65  96 139 174 216 288 336 407
#     4  11  24  41  70  94 138 181 220 283 353 391
#     4  12  25  48  65  98 142 192 221 271 350 421
#     4  12  24  38  70  98 135 180 229 281 337 411
#     4  12  23  40  69 107 129 171 238 287 333 393
#
# _framework density 21.260657999999999
#
# number of rings (size 3 to 8) (size 9 to 14) (size 15 to 20)
#    0.000    0.750    7.500    3.000    0.000    1.000 
#    0.000    0.625    0.000    0.000    0.000    0.000 
#    0.000    0.000    0.000    0.000    0.000    0.000 
#
# Total GULP energy -198267.271627 kJ/mol
# GULP energy per Si atom -12391.704477 kJ/mol
# Density = 2.121227 g / cm^3
# Si number density = 21.260658 Si / 1000 Ang^3
#
#
#
# Elastic Constant Matrix: (Units=GPa)
#
#
# Indices 1 2 3 4 5 6 
#
# 1 108.2097 64.7315 42.4302 13.6338 -23.7728 -26.2475
# 2 64.7315 121.7021 40.3652 13.5221 -4.8207 -29.3430
# 3 42.4302 40.3652 79.4802 4.2736 -22.3606 -13.7894
# 4 13.6338 13.5221 4.2736 32.0417 -0.0657 -4.0554
# 5 -23.7728 -4.8207 -22.3606 -0.0657 33.9839 2.1469
# 6 -26.2475 -29.3430 -13.7894 -4.0554 2.1469 44.1086
#
#
#
# Elastic Compliance Matrix: (Units=1/GPa)
#
#
# Indices 1 2 3 4 5 6 
#
# 1 0.018038 -0.006885 -0.002380 -0.003852 0.009779 0.004579
# 2 -0.006885 0.014350 -0.004466 -0.002016 -0.005986 0.004159
# 3 -0.002380 -0.004466 0.019177 0.000507 0.010247 0.001155
# 4 -0.003852 -0.002016 0.000507 0.033593 -0.002566 -0.000262
# 5 0.009779 -0.005986 0.010247 -0.002566 0.041980 0.002761
# 6 0.004579 0.004159 0.001155 -0.000262 0.002761 0.028365
#
#
# Mechanical properties :
#
#
# Convention : Reuss Voigt Hill
#
# Bulk Modulus (GPa) = 41.49158 67.16064 54.32611
# Shear Modulus (GPa) = 26.17800 32.81786 29.49793
#
# Velocity S-wave (km/s) = 3.51278 3.93312 3.72888
# Velocity P-wave (km/s) = 6.00090 7.23075 6.64434
#
# Compressibility (1/GPa) = 0.02410128
#
# Stress axis : x y z
#
# Youngs Moduli (GPa) = 55.43977 69.68693 52.14644
#
# Poissons Ratio (x) = 0.47981 0.12411
# Poissons Ratio (y) = 0.38171 0.23291
# Poissons Ratio (z) = 0.13194 0.31125
#
# Static dielectric constant tensor:
#      x y z
#    x 4.354450 -0.290680 -0.039710 
#    y -0.290680 4.082040 0.514210 
#    z -0.039710 0.514210 5.935790 
# 
# 
# High freq. dielectric constant tensor:
#      x y z
#    x 1.826470 -0.022520 -0.011310 
#    y -0.022520 1.823330 -0.011430 
#    z -0.011310 -0.011430 1.840490 
# 
# From -- ./inp_files/530259.got.cif
#   From: 2010.06.25/outbox.cif.g09.slc.cpg/sg2_266_cif.got.tgz:530259.got - 2010.06.27 13:26:56.
