data_PCOD8010981
_publ_section_title
;
Structure prediction by ZEFSAII (Michael W. Deem and Ramdas Pophale) SiO2 
 PCOD8010981
Probable space group: P -1
;
_chemical_formula_sum "Si O2"
_cell_formula_units_Z 14
_cell_length_a 11.724930
_cell_length_b 9.602884
_cell_length_c 8.899555
_cell_angle_alpha 48.350144
_cell_angle_beta 79.719048
_cell_angle_gamma 59.022582
_cell_volume 620.664308
_symmetry_space_group_name_H-M "P -1"
_symmetry_group_IT_number 2
_symmetry_cell_setting 'triclinic'
loop_
_space_group_symop_operation_xyz
x,y,z
-x,-y,-z
loop_
_atom_site_type_symbol
_atom_site_label
_atom_site_fract_x
_atom_site_fract_y
_atom_site_fract_z
Si Si1 0.060301 0.591927 0.808368
Si Si2 0.482168 0.597188 0.099245
Si Si3 0.747511 0.971615 0.060260
Si Si4 0.881135 0.858714 0.403379
Si Si5 0.311813 0.856997 0.493787
Si Si6 0.353390 0.180578 0.050708
Si Si7 0.927010 0.986565 0.762153
O O1 0.980228 0.638098 0.634859
O O2 0.221131 0.425561 0.880931
O O3 0.025567 0.818855 0.729175
O O4 0.000000 0.500000 0.000000
O O5 0.553739 0.389765 0.344846
O O6 0.500000 0.500000 0.000000
O O7 0.532553 0.768251 0.969368
O O8 0.322961 0.766897 0.066179
O O9 0.808302 0.821956 0.304217
O O10 0.633625 0.937177 0.029415
O O11 0.876400 0.890156 0.974217
O O12 0.983317 0.923493 0.257843
O O13 0.758237 0.050299 0.395081
O O14 0.211254 0.829292 0.425474
O O15 0.345946 0.031270 0.290854
#
# Coordination Sequence:
#
# PCOD8010981 Si02
#       7
#     2   2   2   2   2   2   2
#     4  11  19  39  66  92 128 169 207 255 326 390
#     4  12  25  44  69  92 125 176 225 263 319 381
#     4  11  24  41  62  99 133 165 215 272 316 381
#     4  11  20  38  65  98 129 164 210 265 322 386
#     4  10  21  42  68  94 126 171 222 255 322 390
#     4  11  24  44  68  93 132 171 213 272 320 380
#     4  10  21  38  65  93 131 166 209 263 323 383
#
# _framework density 22.556477999999998
#
# number of rings (size 3 to 8) (size 9 to 14) (size 15 to 20)
#    0.000    1.143    5.714    4.286    0.000    3.429 
#    0.000    1.429    0.000    0.000    0.000    0.000 
#    0.000    0.000    0.000    0.000    0.000    0.000 
#
# Total GULP energy -173440.963284 kJ/mol
# GULP energy per Si atom -12388.640235 kJ/mol
# Density = 2.250514 g / cm^3
# Si number density = 22.556478 Si / 1000 Ang^3
#
#
#
# Elastic Constant Matrix: (Units=GPa)
#
#
# Indices 1 2 3 4 5 6 
#
# 1 67.1501 21.3398 38.0978 7.5218 -0.4982 25.2554
# 2 21.3398 105.1958 38.4055 6.4372 13.3871 4.3025
# 3 38.0978 38.4055 123.7844 3.8350 13.5078 6.1747
# 4 7.5218 6.4372 3.8350 41.3899 2.2373 15.4165
# 5 -0.4982 13.3871 13.5078 2.2373 32.2034 -4.3486
# 6 25.2554 4.3025 6.1747 15.4165 -4.3486 32.0079
#
#
#
# Elastic Compliance Matrix: (Units=1/GPa)
#
#
# Indices 1 2 3 4 5 6 
#
# 1 0.027235 -0.002565 -0.006754 0.004081 0.001113 -0.021657
# 2 -0.002565 0.011376 -0.002369 -0.001301 -0.003537 0.001098
# 3 -0.006754 -0.002369 0.011103 -0.000479 -0.003300 0.003288
# 4 0.004081 -0.001301 -0.000479 0.030663 -0.003788 -0.018236
# 5 0.001113 -0.003537 -0.003300 -0.003788 0.035109 0.006828
# 6 -0.021657 0.001098 0.003288 -0.018236 0.006828 0.057259
#
#
# Mechanical properties :
#
#
# Convention : Reuss Voigt Hill
#
# Bulk Modulus (GPa) = 37.96605 54.64626 46.30616
# Shear Modulus (GPa) = 24.40207 34.33937 29.37072
#
# Velocity S-wave (km/s) = 3.29267 3.90599 3.61237
# Velocity P-wave (km/s) = 5.59676 6.67992 6.16219
#
# Compressibility (1/GPa) = 0.02633932
#
# Stress axis : x y z
#
# Youngs Moduli (GPa) = 36.71710 87.90509 90.06451
#
# Poissons Ratio (x) = 0.22544 0.60831
# Poissons Ratio (y) = 0.09416 0.21334
# Poissons Ratio (z) = 0.24800 0.20822
#
# Static dielectric constant tensor:
#      x y z
#    x 3.951030 -0.024440 0.200910 
#    y -0.024440 3.692860 0.164790 
#    z 0.200910 0.164790 3.969910 
# 
# 
# High freq. dielectric constant tensor:
#      x y z
#    x 1.877960 -0.010340 0.015340 
#    y -0.010340 1.889740 0.004520 
#    z 0.015340 0.004520 1.888960 
# 
# From -- ./inp_files/180818.got.cif
#   From: 2010.06.25/outbox.cif.g09.slc.cpg/sg2_91_cif.got.tgz:180818.got - 2010.06.27 13:26:56.
