data_PCOD8010075
_publ_section_title
;
Structure prediction by ZEFSAII (Michael W. Deem and Ramdas Pophale) SiO2 
 PCOD8010075
Probable space group: P -1
;
_chemical_formula_sum "Si O2"
_cell_formula_units_Z 16
_cell_length_a 8.634237
_cell_length_b 13.499411
_cell_length_c 11.951180
_cell_angle_alpha 115.047833
_cell_angle_beta 73.466374
_cell_angle_gamma 145.290755
_cell_volume 713.134922
_symmetry_space_group_name_H-M "P -1"
_symmetry_group_IT_number 2
_symmetry_cell_setting 'triclinic'
loop_
_space_group_symop_operation_xyz
x,y,z
-x,-y,-z
loop_
_atom_site_type_symbol
_atom_site_label
_atom_site_fract_x
_atom_site_fract_y
_atom_site_fract_z
Si Si1 0.995412 0.833274 0.492388
Si Si2 0.979329 0.919609 0.075246
Si Si3 0.182010 0.382502 0.350642
Si Si4 0.698539 0.520827 0.247545
Si Si5 0.909945 0.255619 0.121201
Si Si6 0.564970 0.782280 0.510040
Si Si7 0.496285 0.796439 0.767566
Si Si8 0.389998 0.558658 0.028992
O O1 0.956972 0.734500 0.561211
O O2 0.948216 0.733949 0.341906
O O3 0.769074 0.803265 0.527849
O O4 0.291808 0.057014 0.532547
O O5 0.066869 0.842176 0.000548
O O6 0.666496 0.777344 0.106588
O O7 0.197460 0.074560 0.197702
O O8 0.000000 0.000000 0.000000
O O9 0.415777 0.428832 0.283161
O O10 0.299636 0.571406 0.420146
O O11 0.948606 0.254291 0.243790
O O12 0.706610 0.415007 0.267207
O O13 0.722442 0.498477 0.102321
O O14 0.619746 0.159940 0.122053
O O15 0.152063 0.464583 0.118709
O O16 0.483690 0.813846 0.646662
O O17 0.500000 0.500000 0.000000
#
# Coordination Sequence:
#
# PCOD8010075 Si02
#       8
#     2   2   2   2   2   2   2   2
#     4  10  21  37  65 100 123 167 234 267 316 378
#     4  11  22  42  65  91 122 170 223 263 310 383
#     4  11  19  43  65  90 131 166 232 258 326 383
#     4  11  19  40  65  90 129 175 214 273 316 391
#     4  11  26  41  62  97 133 176 200 276 333 391
#     4  10  22  36  65 100 123 173 214 282 314 388
#     4  12  23  41  63  96 138 165 214 266 348 378
#     4  10  21  39  63  92 120 172 222 255 314 383
#
# _framework density 22.436149
#
# number of rings (size 3 to 8) (size 9 to 14) (size 15 to 20)
#    0.000    1.250    6.250    1.125    3.500    2.000 
#    0.000    0.625    0.000    0.000    0.000    0.000 
#    0.000    0.000    0.000    0.000    0.000    0.000 
#
# Total GULP energy -198211.366252 kJ/mol
# GULP energy per Si atom -12388.210391 kJ/mol
# Density = 2.238508 g / cm^3
# Si number density = 22.436149 Si / 1000 Ang^3
#
#
#
# Elastic Constant Matrix: (Units=GPa)
#
#
# Indices 1 2 3 4 5 6 
#
# 1 32.9054 22.3881 14.6527 -5.5358 2.5252 -3.8398
# 2 22.3881 96.2356 14.9710 -9.4665 9.3595 -24.2398
# 3 14.6527 14.9710 72.4384 -7.5412 6.8739 -0.8719
# 4 -5.5358 -9.4665 -7.5412 31.7065 -5.2737 -1.5166
# 5 2.5252 9.3595 6.8739 -5.2737 32.1971 -1.9647
# 6 -3.8398 -24.2398 -0.8719 -1.5166 -1.9647 27.0845
#
#
#
# Elastic Compliance Matrix: (Units=1/GPa)
#
#
# Indices 1 2 3 4 5 6 
#
# 1 0.038976 -0.008454 -0.005952 0.002941 0.001032 -0.001993
# 2 -0.008454 0.016504 -0.000937 0.003454 -0.002542 0.013551
# 3 -0.005952 -0.000937 0.015613 0.001944 -0.002351 -0.001241
# 4 0.002941 0.003454 0.001944 0.034551 0.004365 0.005822
# 5 0.001032 -0.002542 -0.002351 0.004365 0.032960 0.000431
# 6 -0.001993 0.013551 -0.001241 0.005822 0.000431 0.049084
#
#
# Mechanical properties :
#
#
# Convention : Reuss Voigt Hill
#
# Bulk Modulus (GPa) = 24.74891 33.95589 29.35240
# Shear Modulus (GPa) = 21.56631 28.16879 24.86755
#
# Velocity S-wave (km/s) = 3.10374 3.54716 3.33283
# Velocity P-wave (km/s) = 4.88866 5.65188 5.28407
#
# Compressibility (1/GPa) = 0.04040581
#
# Stress axis : x y z
#
# Youngs Moduli (GPa) = 25.65688 60.59202 64.04889
#
# Poissons Ratio (x) = 0.51226 0.38125
# Poissons Ratio (y) = 0.21691 0.06001
# Poissons Ratio (z) = 0.15272 0.05677
#
# Static dielectric constant tensor:
#      x y z
#    x 3.762560 0.054500 -0.023600 
#    y 0.054500 7.049160 -0.396540 
#    z -0.023600 -0.396540 3.909690 
# 
# 
# High freq. dielectric constant tensor:
#      x y z
#    x 1.854560 -0.016220 0.005210 
#    y -0.016220 1.885340 -0.000200 
#    z 0.005210 -0.000200 1.879430 
# 
# From -- ./inp_files/218056.got.cif
#   From: 2010.06.25/outbox.cif.g09.slc.cpg/sg2_110_cif.got.tgz:218056.got - 2010.06.27 13:26:56.
