data_PCOD8010331
_publ_section_title
;
Structure prediction by ZEFSAII (Michael W. Deem and Ramdas Pophale) SiO2 
 PCOD8010331
Probable space group: P -1
;
_chemical_formula_sum "Si O2"
_cell_formula_units_Z 16
_cell_length_a 8.190197
_cell_length_b 15.032627
_cell_length_c 15.751614
_cell_angle_alpha 153.048643
_cell_angle_beta 107.111344
_cell_angle_gamma 89.854143
_cell_volume 672.307846
_symmetry_space_group_name_H-M "P -1"
_symmetry_group_IT_number 2
_symmetry_cell_setting 'triclinic'
loop_
_space_group_symop_operation_xyz
x,y,z
-x,-y,-z
loop_
_atom_site_type_symbol
_atom_site_label
_atom_site_fract_x
_atom_site_fract_y
_atom_site_fract_z
Si Si1 0.442383 0.980295 0.350520
Si Si2 0.705146 0.574559 0.729681
Si Si3 0.302582 0.121905 0.596056
Si Si4 0.429625 0.030171 0.210274
Si Si5 0.871137 0.630660 0.154678
Si Si6 0.326963 0.985918 0.903498
Si Si7 0.969660 0.207890 0.169952
Si Si8 0.856127 0.508452 0.862786
O O1 0.302321 0.050134 0.437074
O O2 0.352303 0.873512 0.152446
O O3 0.679729 0.224087 0.575789
O O4 0.473000 0.803155 0.262560
O O5 0.489175 0.298731 0.467726
O O6 0.857009 0.652261 0.903113
O O7 0.821804 0.567745 0.655995
O O8 0.642316 0.757863 0.867762
O O9 0.291258 0.350006 0.797155
O O10 0.103398 0.890594 0.417153
O O11 0.636518 0.059957 0.226606
O O12 0.234612 0.877264 0.988264
O O13 0.908959 0.436288 0.036444
O O14 0.793495 0.576605 0.998595
O O15 0.089883 0.764911 0.718658
O O16 0.500000 0.000000 0.000000
O O17 0.000000 0.000000 0.000000
#
# Coordination Sequence:
#
# PCOD8010331 Si02
#       8
#     2   2   2   2   2   2   2   2
#     4   9  19  34  51  79 110 141 193 221 283 335
#     4  10  21  38  60  85 116 152 188 238 290 339
#     4   9  18  33  53  78 106 151 181 226 278 331
#     4  10  21  38  59  84 118 149 184 249 275 341
#     4   9  18  33  53  76 110 146 183 230 273 329
#     4   9  20  38  59  85 112 145 193 231 290 353
#     4   9  20  38  58  87 111 145 194 229 288 352
#     4   9  19  34  51  78 111 143 185 229 277 335
#
# _framework density 23.798618999999999
#
# number of rings (size 3 to 8) (size 9 to 14) (size 15 to 20)
#    0.000    2.750    0.000    0.000    3.500    5.500 
#    0.000    8.750    0.000    0.000    0.000    0.000 
#    0.000    0.000    0.000    0.000    0.000    0.000 
#
# Total GULP energy -198224.844880 kJ/mol
# GULP energy per Si atom -12389.052805 kJ/mol
# Density = 2.374445 g / cm^3
# Si number density = 23.798619 Si / 1000 Ang^3
#
#
#
# Elastic Constant Matrix: (Units=GPa)
#
#
# Indices 1 2 3 4 5 6 
#
# 1 103.9231 47.1431 11.8062 -12.2611 -41.2508 4.2540
# 2 47.1431 109.8377 11.3770 -9.6549 -32.6176 12.9060
# 3 11.8062 11.3770 37.2585 -2.9313 -24.2938 -1.3256
# 4 -12.2611 -9.6549 -2.9313 31.8110 7.1396 -6.5172
# 5 -41.2508 -32.6176 -24.2938 7.1396 41.1515 -8.3987
# 6 4.2540 12.9060 -1.3256 -6.5172 -8.3987 33.3765
#
#
#
# Elastic Compliance Matrix: (Units=1/GPa)
#
#
# Indices 1 2 3 4 5 6 
#
# 1 0.019487 -0.002574 0.011193 0.003413 0.024701 0.005838
# 2 -0.002574 0.012773 0.002315 0.000765 0.008313 -0.002278
# 3 0.011193 0.002315 0.053740 0.001899 0.046897 0.011984
# 4 0.003413 0.000765 0.001899 0.034319 0.000452 0.006159
# 5 0.024701 0.008313 0.046897 0.000452 0.086815 0.017434
# 6 0.005838 -0.002278 0.011984 0.006159 0.017434 0.036164
#
#
# Mechanical properties :
#
#
# Convention : Reuss Voigt Hill
#
# Bulk Modulus (GPa) = 9.27062 43.51907 26.39485
# Shear Modulus (GPa) = 19.42611 33.31401 26.37006
#
# Velocity S-wave (km/s) = 2.86014 3.74549 3.33235
# Velocity P-wave (km/s) = 3.84852 6.08531 5.09127
#
# Compressibility (1/GPa) = 0.10786767
#
# Stress axis : x y z
#
# Youngs Moduli (GPa) = 51.31606 78.29120 18.60814
#
# Poissons Ratio (x) = 0.20153 -0.20829
# Poissons Ratio (y) = 0.13209 -0.04307
# Poissons Ratio (z) = -0.57440 -0.18122
#
# Static dielectric constant tensor:
#      x y z
#    x 4.822750 0.223760 -0.145940 
#    y 0.223760 4.874140 -0.056700 
#    z -0.145940 -0.056700 3.991280 
# 
# 
# High freq. dielectric constant tensor:
#      x y z
#    x 1.955240 0.015200 0.000230 
#    y 0.015200 1.942280 0.003550 
#    z 0.000230 0.003550 1.922700 
# 
# From -- ./inp_files/227043.got.cif
#   From: 2010.06.25/outbox.cif.g09.slc.cpg/sg2_114_cif.got.tgz:227043.got - 2010.06.27 13:26:56.
