data_PCOD8010598
_publ_section_title
;
Structure prediction by ZEFSAII (Michael W. Deem and Ramdas Pophale) SiO2 
 PCOD8010598
Probable space group: P -1
;
_chemical_formula_sum "Si O2"
_cell_formula_units_Z 14
_cell_length_a 19.650635
_cell_length_b 5.340642
_cell_length_c 13.611468
_cell_angle_alpha 77.861682
_cell_angle_beta 150.233191
_cell_angle_gamma 95.145363
_cell_volume 680.541773
_symmetry_space_group_name_H-M "P -1"
_symmetry_group_IT_number 2
_symmetry_cell_setting 'triclinic'
loop_
_space_group_symop_operation_xyz
x,y,z
-x,-y,-z
loop_
_atom_site_type_symbol
_atom_site_label
_atom_site_fract_x
_atom_site_fract_y
_atom_site_fract_z
Si Si1 0.975089 0.830111 0.837391
Si Si2 0.384156 0.071892 0.136766
Si Si3 0.885162 0.326321 0.370295
Si Si4 0.582616 0.548187 0.004235
Si Si5 0.159923 0.657617 0.270407
Si Si6 0.514978 0.515051 0.312626
Si Si7 0.097898 0.934397 0.780083
O O1 0.880533 0.612505 0.723371
O O2 0.064219 0.821509 0.851015
O O3 0.880064 0.116156 0.715500
O O4 0.085332 0.757256 0.068074
O O5 0.460163 0.777541 0.285559
O O6 0.428934 0.153254 0.075560
O O7 0.432458 0.279694 0.256154
O O8 0.215724 0.110301 0.929043
O O9 0.839057 0.285443 0.202954
O O10 0.000000 0.500000 0.500000
O O11 0.744725 0.446350 0.241265
O O12 0.952359 0.070603 0.536740
O O13 0.519739 0.393367 0.851245
O O14 0.500000 0.500000 0.000000
O O15 0.323315 0.599209 0.458571
#
# Coordination Sequence:
#
# PCOD8010598 Si02
#       7
#     2   2   2   2   2   2   2
#     4  10  24  40  69  90 127 157 210 262 314 378
#     4  10  21  40  56  88 122 159 204 258 295 379
#     4  11  22  40  60  89 129 167 216 256 305 380
#     4  10  23  36  58  88 124 164 208 257 310 362
#     4  10  22  44  61 100 121 158 207 266 316 373
#     4  10  21  38  62  80 128 155 194 259 309 362
#     4  11  23  39  63  88 125 170 212 254 320 367
#
# _framework density 20.571843999999999
#
# number of rings (size 3 to 8) (size 9 to 14) (size 15 to 20)
#    0.857    0.857    2.857    0.857    4.000    0.571 
#    0.000    1.429    0.000    0.000    0.000    0.000 
#    0.000    0.000    0.000    0.000    0.000    0.000 
#
# Total GULP energy -173450.318353 kJ/mol
# GULP energy per Si atom -12389.308454 kJ/mol
# Density = 2.052502 g / cm^3
# Si number density = 20.571844 Si / 1000 Ang^3
#
#
#
# Elastic Constant Matrix: (Units=GPa)
#
#
# Indices 1 2 3 4 5 6 
#
# 1 92.0406 37.5454 18.5450 4.7585 8.8473 11.4691
# 2 37.5454 150.5940 38.3103 5.6256 11.0234 -2.3097
# 3 18.5450 38.3103 83.2821 7.4265 33.2925 0.3042
# 4 4.7585 5.6256 7.4265 28.7761 -0.2825 10.3097
# 5 8.8473 11.0234 33.2925 -0.2825 28.7393 -3.1849
# 6 11.4691 -2.3097 0.3042 10.3097 -3.1849 22.9473
#
#
#
# Elastic Compliance Matrix: (Units=1/GPa)
#
#
# Indices 1 2 3 4 5 6 
#
# 1 0.013518 -0.003240 -0.000158 0.001335 -0.003629 -0.008184
# 2 -0.003240 0.008413 -0.004306 -0.001224 0.003135 0.003508
# 3 -0.000158 -0.004306 0.025976 -0.005292 -0.028699 -0.002304
# 4 0.001335 -0.001224 -0.005292 0.043164 0.004453 -0.019495
# 5 -0.003629 0.003135 -0.028699 0.004453 0.069119 0.010102
# 6 -0.008184 0.003508 -0.002304 -0.019495 0.010102 0.058213
#
#
# Mechanical properties :
#
#
# Convention : Reuss Voigt Hill
#
# Bulk Modulus (GPa) = 30.76887 57.19090 43.97988
# Shear Modulus (GPa) = 20.43795 31.52694 25.98245
#
# Velocity S-wave (km/s) = 3.15539 3.91900 3.55774
# Velocity P-wave (km/s) = 5.31644 6.95263 6.18884
#
# Compressibility (1/GPa) = 0.03250038
#
# Stress axis : x y z
#
# Youngs Moduli (GPa) = 73.97659 118.85691 38.49705
#
# Poissons Ratio (x) = 0.38506 0.00609
# Poissons Ratio (y) = 0.23966 0.16576
# Poissons Ratio (z) = 0.01170 0.51176
#
# Static dielectric constant tensor:
#      x y z
#    x 3.369270 -0.101380 0.146310 
#    y -0.101380 3.993980 -0.060890 
#    z 0.146310 -0.060890 4.012270 
# 
# 
# High freq. dielectric constant tensor:
#      x y z
#    x 1.770940 0.003020 0.016010 
#    y 0.003020 1.813090 0.004070 
#    z 0.016010 0.004070 1.811390 
# 
# From -- ./inp_files/97547.got.cif
#   From: 2010.06.25/outbox.cif.g09.slc.cpg/sg2_49_cif.got.tgz:97547.got - 2010.06.27 13:26:56.
