data_PCOD8010105
_publ_section_title
;
Structure prediction by ZEFSAII (Michael W. Deem and Ramdas Pophale) SiO2 
 PCOD8010105
Probable space group: P -1
;
_chemical_formula_sum "Si O2"
_cell_formula_units_Z 16
_cell_length_a 7.821517
_cell_length_b 5.714303
_cell_length_c 19.887079
_cell_angle_alpha 63.614991
_cell_angle_beta 68.089238
_cell_angle_gamma 60.470031
_cell_volume 679.136967
_symmetry_space_group_name_H-M "P -1"
_symmetry_group_IT_number 2
_symmetry_cell_setting 'triclinic'
loop_
_space_group_symop_operation_xyz
x,y,z
-x,-y,-z
loop_
_atom_site_type_symbol
_atom_site_label
_atom_site_fract_x
_atom_site_fract_y
_atom_site_fract_z
Si Si1 0.556838 0.498528 0.785493
Si Si2 0.178851 0.420006 0.809026
Si Si3 0.428380 0.660999 0.058224
Si Si4 0.132391 0.014056 0.250238
Si Si5 0.804157 0.813294 0.645802
Si Si6 0.184113 0.238535 0.973828
Si Si7 0.478866 0.828530 0.458559
Si Si8 0.173435 0.272229 0.681205
O O1 0.328339 0.574162 0.787669
O O2 0.591078 0.548757 0.853352
O O3 0.654230 0.656802 0.702612
O O4 0.681970 0.157999 0.802790
O O5 0.155117 0.228865 0.898439
O O6 0.250272 0.247135 0.750820
O O7 0.954920 0.655362 0.799593
O O8 0.603375 0.744734 0.050044
O O9 0.500000 0.500000 0.000000
O O10 0.216628 0.933068 0.041144
O O11 0.215504 0.964421 0.320495
O O12 0.948957 0.920507 0.284163
O O13 0.035482 0.593244 0.637406
O O14 0.741417 0.983707 0.563183
O O15 0.000000 0.500000 0.000000
O O16 0.500000 0.500000 0.500000
O O17 0.636411 0.846198 0.379319
O O18 0.500000 0.000000 0.500000
#
# Coordination Sequence:
#
# PCOD8010105 Si02
#       8
#     2   2   2   2   2   2   2   2
#     4  10  21  38  64  91 126 173 221 274 332 400
#     4  10  21  37  65  95 128 175 223 278 329 403
#     4  10  23  38  57  90 130 172 219 276 339 404
#     4  10  21  39  66  94 127 166 229 271 326 392
#     4  10  24  43  70  95 130 173 218 277 331 408
#     4  10  22  39  60  92 134 173 220 280 343 402
#     4  12  30  47  73 105 142 181 224 282 352 415
#     4  10  24  43  69  97 133 172 229 271 333 411
#
# _framework density 23.559315000000002
#
# number of rings (size 3 to 8) (size 9 to 14) (size 15 to 20)
#    0.000    1.750    0.000    2.250    8.750   10.500 
#    0.000    0.000    0.000    0.000    0.000    0.000 
#    0.000    0.000    0.000    0.000    0.000    0.000 
#
# Total GULP energy -198278.309688 kJ/mol
# GULP energy per Si atom -12392.394355 kJ/mol
# Density = 2.350569 g / cm^3
# Si number density = 23.559315 Si / 1000 Ang^3
#
#
#
# Elastic Constant Matrix: (Units=GPa)
#
#
# Indices 1 2 3 4 5 6 
#
# 1 75.8132 30.9253 37.4751 6.7531 30.4450 -1.6086
# 2 30.9253 87.9764 41.0016 9.8380 22.1303 -7.5422
# 3 37.4751 41.0016 114.1919 13.3604 45.5278 -4.4949
# 4 6.7531 9.8380 13.3604 42.4155 -0.3374 5.3241
# 5 30.4450 22.1303 45.5278 -0.3374 42.9305 7.8869
# 6 -1.6086 -7.5422 -4.4949 5.3241 7.8869 42.9854
#
#
#
# Elastic Compliance Matrix: (Units=1/GPa)
#
#
# Indices 1 2 3 4 5 6 
#
# 1 0.020124 -0.003240 0.000546 -0.003130 -0.013784 0.003159
# 2 -0.003240 0.015125 -0.002604 -0.002600 -0.003346 0.003196
# 3 0.000546 -0.002604 0.018225 -0.006107 -0.019486 0.005801
# 4 -0.003130 -0.002600 -0.006107 0.027538 0.011490 -0.006731
# 5 -0.013784 -0.003346 -0.019486 0.011490 0.058354 -0.015270
# 6 0.003159 0.003196 0.005801 -0.006731 -0.015270 0.028185
#
#
# Mechanical properties :
#
#
# Convention : Reuss Voigt Hill
#
# Bulk Modulus (GPa) = 23.32200 55.19837 39.26019
# Shear Modulus (GPa) = 25.98235 36.90491 31.44363
#
# Velocity S-wave (km/s) = 3.32452 3.96216 3.65726
# Velocity P-wave (km/s) = 4.96561 6.66423 5.87662
#
# Compressibility (1/GPa) = 0.04287796
#
# Stress axis : x y z
#
# Youngs Moduli (GPa) = 49.69294 66.11388 54.87073
#
# Poissons Ratio (x) = 0.21419 -0.02993
# Poissons Ratio (y) = 0.16099 0.14286
# Poissons Ratio (z) = -0.02711 0.17214
#
# Static dielectric constant tensor:
#      x y z
#    x 4.072920 -0.275750 0.193000 
#    y -0.275750 4.372380 -0.109580 
#    z 0.193000 -0.109580 4.246790 
# 
# 
# High freq. dielectric constant tensor:
#      x y z
#    x 1.940690 -0.011380 0.021150 
#    y -0.011380 1.934340 0.002140 
#    z 0.021150 0.002140 1.925650 
# 
# From -- ./inp_files/105829.got.cif
#   From: 2010.06.25/outbox.cif.g09.slc.cpg/sg2_53_cif.got.tgz:105829.got - 2010.06.27 13:26:56.
