data_PCOD8010905
_publ_section_title
;
Structure prediction by ZEFSAII (Michael W. Deem and Ramdas Pophale) SiO2 
 PCOD8010905
Probable space group: P -1
;
_chemical_formula_sum "Si O2"
_cell_formula_units_Z 16
_cell_length_a 19.151663
_cell_length_b 11.299161
_cell_length_c 17.253475
_cell_angle_alpha 32.061526
_cell_angle_beta 158.176909
_cell_angle_gamma 148.668506
_cell_volume 692.413781
_symmetry_space_group_name_H-M "P -1"
_symmetry_group_IT_number 2
_symmetry_cell_setting 'triclinic'
loop_
_space_group_symop_operation_xyz
x,y,z
-x,-y,-z
loop_
_atom_site_type_symbol
_atom_site_label
_atom_site_fract_x
_atom_site_fract_y
_atom_site_fract_z
Si Si1 0.507135 0.950888 0.885189
Si Si2 0.206544 0.585677 0.120241
Si Si3 0.639393 0.569349 0.951011
Si Si4 0.042369 0.889513 0.247191
Si Si5 0.116436 0.054213 0.667817
Si Si6 0.180816 0.133082 0.412362
Si Si7 0.784574 0.413993 0.507320
Si Si8 0.108927 0.381481 0.967439
O O1 0.644897 0.145755 0.856039
O O2 0.326068 0.043876 0.666686
O O3 0.427222 0.674554 0.930732
O O4 0.661865 0.958137 0.110924
O O5 0.301402 0.391268 0.357602
O O6 0.173108 0.560759 0.006417
O O7 0.000000 0.500000 0.000000
O O8 0.455753 0.661522 0.691314
O O9 0.803448 0.765358 0.061825
O O10 0.733990 0.519292 0.995594
O O11 0.160767 0.719938 0.434448
O O12 0.095611 0.944392 0.360847
O O13 0.109512 0.123433 0.133974
O O14 0.123528 0.305883 0.569276
O O15 0.000000 0.000000 0.500000
O O16 0.001216 0.862400 0.721602
O O17 0.885694 0.359088 0.720809
#
# Coordination Sequence:
#
# PCOD8010905 Si02
#       8
#     2   2   2   2   2   2   2   2
#     4  11  24  42  65  97 127 167 224 257 325 387
#     4  11  23  45  65  91 135 174 214 270 324 387
#     4  10  22  40  66  98 129 169 216 269 316 384
#     4  10  23  42  63  97 134 170 212 264 326 381
#     4  11  24  41  64  94 130 172 215 269 323 378
#     4  11  24  43  67  92 132 174 212 270 324 383
#     4  10  21  38  64  97 126 168 216 263 318 379
#     4  10  22  41  66  93 131 172 214 269 323 377
#
# _framework density 23.107571
#
# number of rings (size 3 to 8) (size 9 to 14) (size 15 to 20)
#    0.000    1.500    1.250    4.125    0.000    8.000 
#    4.500    2.500    0.000    0.000    0.000    0.000 
#    0.000    0.000    0.000    0.000    0.000    0.000 
#
# Total GULP energy -198247.760447 kJ/mol
# GULP energy per Si atom -12390.485028 kJ/mol
# Density = 2.305498 g / cm^3
# Si number density = 23.107571 Si / 1000 Ang^3
#
#
#
# Elastic Constant Matrix: (Units=GPa)
#
#
# Indices 1 2 3 4 5 6 
#
# 1 98.1018 49.0222 39.5981 7.7107 -3.9383 -1.3605
# 2 49.0222 137.7316 34.9043 -5.6007 -0.1828 11.1353
# 3 39.5981 34.9043 154.6850 8.5661 10.3342 0.1378
# 4 7.7107 -5.6007 8.5661 29.4725 8.5177 5.7573
# 5 -3.9383 -0.1828 10.3342 8.5177 34.7045 1.2599
# 6 -1.3605 11.1353 0.1378 5.7573 1.2599 23.0794
#
#
#
# Elastic Compliance Matrix: (Units=1/GPa)
#
#
# Indices 1 2 3 4 5 6 
#
# 1 0.014427 -0.005127 -0.002452 -0.005995 0.003643 0.004635
# 2 -0.005127 0.010110 -0.001170 0.005208 -0.001226 -0.006405
# 3 -0.002452 -0.001170 0.007578 -0.001292 -0.002253 0.000820
# 4 -0.005995 0.005208 -0.001292 0.042320 -0.010188 -0.012859
# 5 0.003643 -0.001226 -0.002253 -0.010188 0.032335 0.001596
# 6 0.004635 -0.006405 0.000820 -0.012859 0.001596 0.049808
#
#
# Mechanical properties :
#
#
# Convention : Reuss Voigt Hill
#
# Bulk Modulus (GPa) = 68.41211 70.84084 69.62647
# Shear Modulus (GPa) = 27.94118 35.25086 31.59602
#
# Velocity S-wave (km/s) = 3.48110 3.91002 3.70177
# Velocity P-wave (km/s) = 6.76961 7.14897 6.96188
#
# Compressibility (1/GPa) = 0.01461730
#
# Stress axis : x y z
#
# Youngs Moduli (GPa) = 69.31445 98.91374 131.96685
#
# Poissons Ratio (x) = 0.50716 0.32356
# Poissons Ratio (y) = 0.35540 0.15434
# Poissons Ratio (z) = 0.16995 0.11568
#
# Static dielectric constant tensor:
#      x y z
#    x 3.733810 0.203640 0.009940 
#    y 0.203640 4.698820 -0.240070 
#    z 0.009940 -0.240070 4.592830 
# 
# 
# High freq. dielectric constant tensor:
#      x y z
#    x 1.874920 0.012120 0.007300 
#    y 0.012120 1.928740 -0.013250 
#    z 0.007300 -0.013250 1.940530 
# 
# From -- ./inp_files/577942.got.cif
#   From: 2010.06.25/outbox.cif.g09.slc.cpg/sg2_289_cif.got.tgz:577942.got - 2010.06.27 13:26:56.
