data_PCOD8010961
_publ_section_title
;
Structure prediction by ZEFSAII (Michael W. Deem and Ramdas Pophale) SiO2 
 PCOD8010961
Probable space group: P -1
;
_chemical_formula_sum "Si O2"
_cell_formula_units_Z 16
_cell_length_a 13.264421
_cell_length_b 7.647071
_cell_length_c 21.170096
_cell_angle_alpha 51.475495
_cell_angle_beta 30.425922
_cell_angle_gamma 65.904921
_cell_volume 804.551736
_symmetry_space_group_name_H-M "P -1"
_symmetry_group_IT_number 2
_symmetry_cell_setting 'triclinic'
loop_
_space_group_symop_operation_xyz
x,y,z
-x,-y,-z
loop_
_atom_site_type_symbol
_atom_site_label
_atom_site_fract_x
_atom_site_fract_y
_atom_site_fract_z
Si Si1 0.293425 0.780538 0.671362
Si Si2 0.722427 0.245174 0.111592
Si Si3 0.714753 0.932454 0.670770
Si Si4 0.048037 0.961109 0.866024
Si Si5 0.369062 0.434545 0.808096
Si Si6 0.031035 0.458066 0.785464
Si Si7 0.821848 0.394100 0.569040
Si Si8 0.040219 0.334997 0.349447
O O1 0.122527 0.864946 0.783295
O O2 0.340843 0.569772 0.730145
O O3 0.216097 0.675405 0.667282
O O4 0.500000 0.000000 0.500000
O O5 0.827084 0.084912 0.130521
O O6 0.696927 0.452881 0.120663
O O7 0.502069 0.082223 0.241189
O O8 0.858188 0.364617 0.952389
O O9 0.744944 0.107766 0.675625
O O10 0.890045 0.057916 0.494021
O O11 0.738153 0.682335 0.737816
O O12 0.104475 0.243832 0.767747
O O13 0.796554 0.833271 0.043137
O O14 0.614567 0.466080 0.675144
O O15 0.928364 0.556733 0.761067
O O16 0.000000 0.500000 0.500000
O O17 0.934045 0.482173 0.420153
#
# Coordination Sequence:
#
# PCOD8010961 Si02
#       8
#     2   2   2   2   2   2   2   2
#     4  11  26  40  60  99 136 169 212 270 323 379
#     4  11  21  41  68  90 130 176 213 265 319 385
#     4   9  21  41  63  90 121 172 214 261 328 378
#     4  11  24  44  63  99 132 175 223 247 329 398
#     4  11  22  42  66  93 132 175 216 261 320 392
#     4  12  24  40  67  94 137 166 211 275 318 378
#     4  10  21  38  65  92 121 167 220 263 317 386
#     4   9  23  41  60  95 124 161 221 260 329 373
#
# _framework density 19.886849000000002
#
# number of rings (size 3 to 8) (size 9 to 14) (size 15 to 20)
#    0.750    0.750    2.500    2.625    7.000    1.000 
#    0.000    0.000    0.000    3.000    0.000    0.000 
#    0.000    0.000    0.000    0.000    0.000    0.000 
#
# Total GULP energy -198251.397783 kJ/mol
# GULP energy per Si atom -12390.712361 kJ/mol
# Density = 1.984159 g / cm^3
# Si number density = 19.886849 Si / 1000 Ang^3
#
#
#
# Elastic Constant Matrix: (Units=GPa)
#
#
# Indices 1 2 3 4 5 6 
#
# 1 117.1180 44.7150 23.6231 -0.4838 -8.4633 -4.4071
# 2 44.7150 71.7580 17.7952 -2.1652 11.3683 -14.5169
# 3 23.6231 17.7952 42.6834 0.3888 -8.3960 -1.7934
# 4 -0.4838 -2.1652 0.3888 31.6085 1.0220 -9.8041
# 5 -8.4633 11.3683 -8.3960 1.0220 35.3176 -1.5429
# 6 -4.4071 -14.5169 -1.7934 -9.8041 -1.5429 24.7948
#
#
#
# Elastic Compliance Matrix: (Units=1/GPa)
#
#
# Indices 1 2 3 4 5 6 
#
# 1 0.012642 -0.008842 -0.002417 -0.001611 0.005198 -0.003418
# 2 -0.008842 0.026712 -0.008047 0.006992 -0.012156 0.015494
# 3 -0.002417 -0.008047 0.029774 -0.002278 0.009010 -0.003327
# 4 -0.001611 0.006992 -0.002278 0.037949 -0.003471 0.018432
# 5 0.005198 -0.012156 0.009010 -0.003471 0.035510 -0.004704
# 6 -0.003418 0.015494 -0.003327 0.018432 -0.004704 0.055550
#
#
# Mechanical properties :
#
#
# Convention : Reuss Voigt Hill
#
# Bulk Modulus (GPa) = 32.76859 44.86956 38.81907
# Shear Modulus (GPa) = 20.24943 28.03925 24.14434
#
# Velocity S-wave (km/s) = 3.19444 3.75899 3.48815
# Velocity P-wave (km/s) = 5.48810 6.43828 5.98208
#
# Compressibility (1/GPa) = 0.03051703
#
# Stress axis : x y z
#
# Youngs Moduli (GPa) = 79.10077 37.43580 33.58648
#
# Poissons Ratio (x) = 0.33101 0.08117
# Poissons Ratio (y) = 0.69941 0.27026
# Poissons Ratio (z) = 0.19117 0.30124
#
# Static dielectric constant tensor:
#      x y z
#    x -13.746000 9.635510 3.638490 
#    y 9.635510 -1.448640 -2.007020 
#    z 3.638490 -2.007020 2.809840 
# 
# 
# High freq. dielectric constant tensor:
#      x y z
#    x 1.773980 0.008160 -0.009530 
#    y 0.008160 1.773680 0.012510 
#    z -0.009530 0.012510 1.768560 
# 
# From -- ./inp_files/593448.got.cif
#   From: 2010.06.25/outbox.cif.g09.slc.cpg/sg2_297_cif.got.tgz:593448.got - 2010.06.27 13:26:56.
