data_PCOD8010253
_publ_section_title
;
Structure prediction by ZEFSAII (Michael W. Deem and Ramdas Pophale) SiO2 
 PCOD8010253
Probable space group: P -1
;
_chemical_formula_sum "Si O2"
_cell_formula_units_Z 16
_cell_length_a 14.008301
_cell_length_b 9.013335
_cell_length_c 14.487395
_cell_angle_alpha 68.982036
_cell_angle_beta 29.436692
_cell_angle_gamma 73.000035
_cell_volume 838.373938
_symmetry_space_group_name_H-M "P -1"
_symmetry_group_IT_number 2
_symmetry_cell_setting 'triclinic'
loop_
_space_group_symop_operation_xyz
x,y,z
-x,-y,-z
loop_
_atom_site_type_symbol
_atom_site_label
_atom_site_fract_x
_atom_site_fract_y
_atom_site_fract_z
Si Si1 0.058011 0.866711 0.411115
Si Si2 0.613837 0.588796 0.702382
Si Si3 0.541133 0.249110 0.852592
Si Si4 0.197417 0.083263 0.551819
Si Si5 0.949612 0.032238 0.930860
Si Si6 0.576721 0.982731 0.156831
Si Si7 0.252277 0.389613 0.211623
Si Si8 0.245318 0.697463 0.043656
O O1 0.289547 0.848352 0.220720
O O2 0.993951 0.919250 0.351196
O O3 0.944435 0.704973 0.572867
O O4 0.000000 0.000000 0.500000
O O5 0.642533 0.408802 0.683286
O O6 0.752111 0.728525 0.512523
O O7 0.618011 0.579196 0.813693
O O8 0.390903 0.629079 0.859621
O O9 0.436849 0.141631 0.886442
O O10 0.374339 0.293790 0.055201
O O11 0.370499 0.988853 0.382039
O O12 0.132249 0.990358 0.721054
O O13 0.748589 0.934094 0.094372
O O14 0.926142 0.221924 0.887592
O O15 0.000000 0.000000 0.000000
O O16 0.633685 0.161340 0.032461
O O17 0.172502 0.557600 0.205137
#
# Coordination Sequence:
#
# PCOD8010253 Si02
#       8
#     2   2   2   2   2   2   2   2
#     4  11  24  33  53  92 121 154 191 215 282 347
#     4   9  20  37  53  86 116 159 188 218 282 348
#     4  11  21  34  58  81 123 158 182 224 284 340
#     4  10  21  38  57  82 119 146 192 238 272 345
#     4  10  23  39  65  84 102 150 203 246 296 327
#     4   9  21  37  56  86 114 143 193 236 291 332
#     4  10  22  37  53  82 124 160 190 221 271 346
#     4   8  18  37  56  80 110 143 192 234 274 340
#
# _framework density 19.084561999999998
#
# number of rings (size 3 to 8) (size 9 to 14) (size 15 to 20)
#    0.750    1.500    1.250    1.500    7.000    2.000 
#    0.000    0.000    0.000    3.750    0.000    0.000 
#    0.000    0.000    0.000    0.000    0.000    0.000 
#
# Total GULP energy -198208.766171 kJ/mol
# GULP energy per Si atom -12388.047886 kJ/mol
# Density = 1.904112 g / cm^3
# Si number density = 19.084562 Si / 1000 Ang^3
#
#
#
# Elastic Constant Matrix: (Units=GPa)
#
#
# Indices 1 2 3 4 5 6 
#
# 1 99.8828 36.1576 56.7137 -4.4200 4.9597 5.1788
# 2 36.1576 84.3902 19.6156 4.1652 11.4371 9.5727
# 3 56.7137 19.6156 79.2045 5.0609 12.3943 -3.5296
# 4 -4.4200 4.1652 5.0609 18.4789 -6.2087 -2.1857
# 5 4.9597 11.4371 12.3943 -6.2087 22.2222 1.6313
# 6 5.1788 9.5727 -3.5296 -2.1857 1.6313 21.0487
#
#
#
# Elastic Compliance Matrix: (Units=1/GPa)
#
#
# Indices 1 2 3 4 5 6 
#
# 1 0.023705 -0.008094 -0.018469 0.016779 0.014202 -0.004606
# 2 -0.008094 0.017238 0.003917 -0.011602 -0.012091 -0.005459
# 3 -0.018469 0.003917 0.029634 -0.019400 -0.020378 0.007297
# 4 0.016779 -0.011602 -0.019400 0.078082 0.034618 0.003320
# 5 0.014202 -0.012091 -0.020378 0.034618 0.069325 -0.003191
# 6 -0.004606 -0.005459 0.007297 0.003320 -0.003191 0.052941
#
#
# Mechanical properties :
#
#
# Convention : Reuss Voigt Hill
#
# Bulk Modulus (GPa) = 39.55143 54.27237 46.91190
# Shear Modulus (GPa) = 15.40153 22.41599 18.90876
#
# Velocity S-wave (km/s) = 2.84388 3.43091 3.15109
# Velocity P-wave (km/s) = 5.61719 6.64789 6.15415
#
# Compressibility (1/GPa) = 0.02528354
#
# Stress axis : x y z
#
# Youngs Moduli (GPa) = 42.18602 58.01232 33.74555
#
# Poissons Ratio (x) = 0.46955 0.62324
# Poissons Ratio (y) = 0.34145 -0.13217
# Poissons Ratio (z) = 0.77912 -0.22721
#
# Static dielectric constant tensor:
#      x y z
#    x 3.151180 0.028490 -0.323630 
#    y 0.028490 3.651540 0.028250 
#    z -0.323630 0.028250 3.564000 
# 
# 
# High freq. dielectric constant tensor:
#      x y z
#    x 1.693770 0.003110 -0.027070 
#    y 0.003110 1.736690 0.007440 
#    z -0.027070 0.007440 1.750410 
# 
# From -- ./inp_files/417013.got.cif
#   From: 2010.06.25/outbox.cif.g09.slc.cpg/sg2_209_cif.got.tgz:417013.got - 2010.06.27 13:26:56.
