data_PCOD8010778
_publ_section_title
;
Structure prediction by ZEFSAII (Michael W. Deem and Ramdas Pophale) SiO2 
 PCOD8010778
Probable space group: P -1
;
_chemical_formula_sum "Si O2"
_cell_formula_units_Z 12
_cell_length_a 9.540545
_cell_length_b 14.498019
_cell_length_c 5.320813
_cell_angle_alpha 99.442456
_cell_angle_beta 79.605900
_cell_angle_gamma 136.540636
_cell_volume 497.325843
_symmetry_space_group_name_H-M "P -1"
_symmetry_group_IT_number 2
_symmetry_cell_setting 'triclinic'
loop_
_space_group_symop_operation_xyz
x,y,z
-x,-y,-z
loop_
_atom_site_type_symbol
_atom_site_label
_atom_site_fract_x
_atom_site_fract_y
_atom_site_fract_z
Si Si1 0.857028 0.871472 0.662189
Si Si2 0.074330 0.803685 0.825400
Si Si3 0.609627 0.907133 0.972294
Si Si4 0.402250 0.854540 0.505693
Si Si5 0.541859 0.410146 0.468948
Si Si6 0.690049 0.519266 0.969216
O O1 0.768835 0.894973 0.927050
O O2 0.670054 0.744053 0.500370
O O3 0.985856 0.845845 0.709344
O O4 0.000000 0.000000 0.500000
O O5 0.162250 0.762180 0.597499
O O6 0.899878 0.676673 0.000006
O O7 0.262097 0.934392 0.988677
O O8 0.496574 0.846031 0.713098
O O9 0.449832 0.820158 0.217537
O O10 0.500000 0.000000 0.500000
O O11 0.500000 0.500000 0.500000
O O12 0.685400 0.456005 0.684820
O O13 0.661537 0.438428 0.184683
O O14 0.500000 0.500000 0.000000
#
# Coordination Sequence:
#
# PCOD8010778 Si02
#       6
#     2   2   2   2   2   2
#     4  12  25  39  69 105 135 166 220 287 338 374
#     4  11  22  40  71  98 128 178 233 261 320 406
#     4  11  25  41  60  99 140 167 205 285 341 375
#     4  10  22  43  61  91 134 182 213 261 326 406
#     4  10  22  41  59  91 133 171 210 264 327 385
#     4  10  21  38  63  93 125 166 223 269 307 379
#
# _framework density 24.129051
#
# number of rings (size 3 to 8) (size 9 to 14) (size 15 to 20)
#    0.000    1.333    3.333    4.500    4.667    6.667 
#    0.000    0.000    0.000    6.000    0.000    0.000 
#    0.000    0.000    0.000    0.000    0.000    0.000 
#
# Total GULP energy -148722.926051 kJ/mol
# GULP energy per Si atom -12393.577171 kJ/mol
# Density = 2.407413 g / cm^3
# Si number density = 24.129051 Si / 1000 Ang^3
#
#
#
# Elastic Constant Matrix: (Units=GPa)
#
#
# Indices 1 2 3 4 5 6 
#
# 1 101.3377 17.1490 50.6410 -22.0626 -15.9400 16.3057
# 2 17.1490 136.7323 38.5419 -19.1957 -2.4366 8.0789
# 3 50.6410 38.5419 195.1838 -15.0256 3.3404 9.5315
# 4 -22.0626 -19.1957 -15.0256 34.2891 2.5629 -6.3555
# 5 -15.9400 -2.4366 3.3404 2.5629 42.7574 -8.7931
# 6 16.3057 8.0789 9.5315 -6.3555 -8.7931 20.5955
#
#
#
# Elastic Compliance Matrix: (Units=1/GPa)
#
#
# Indices 1 2 3 4 5 6 
#
# 1 0.014441 0.000447 -0.003071 0.006709 0.003922 -0.006443
# 2 0.000447 0.008309 -0.001369 0.004017 0.000163 -0.001671
# 3 -0.003071 -0.001369 0.006258 0.000006 -0.001860 -0.000720
# 4 0.006709 0.004017 0.000006 0.036553 0.001580 0.005064
# 5 0.003922 0.000163 -0.001860 0.001580 0.026897 0.009663
# 6 -0.006443 -0.001671 -0.000720 0.005064 0.009663 0.060332
#
#
# Mechanical properties :
#
#
# Convention : Reuss Voigt Hill
#
# Bulk Modulus (GPa) = 47.56832 71.76864 59.66848
# Shear Modulus (GPa) = 29.80043 41.32319 35.56181
#
# Velocity S-wave (km/s) = 3.51813 4.14284 3.84320
# Velocity P-wave (km/s) = 6.02162 7.25895 6.66904
#
# Compressibility (1/GPa) = 0.02102240
#
# Stress axis : x y z
#
# Youngs Moduli (GPa) = 69.24590 120.35285 159.79860
#
# Poissons Ratio (x) = -0.05378 0.49076
# Poissons Ratio (y) = -0.03094 0.21870
# Poissons Ratio (z) = 0.21266 0.16471
#
# Static dielectric constant tensor:
#      x y z
#    x 4.739270 0.227440 -0.448890 
#    y 0.227440 4.546870 -0.237730 
#    z -0.448890 -0.237730 7.134530 
# 
# 
# High freq. dielectric constant tensor:
#      x y z
#    x 1.931040 0.005710 -0.009330 
#    y 0.005710 1.944720 -0.010810 
#    z -0.009330 -0.010810 1.969530 
# 
# From -- ./inp_files/81452.got.cif
#   From: 2010.06.25/outbox.cif.g09.slc.cpg/sg2_41_cif.got.tgz:81452.got - 2010.06.27 13:26:56.
