data_PCOD8010846
_publ_section_title
;
Structure prediction by ZEFSAII (Michael W. Deem and Ramdas Pophale) SiO2 
 PCOD8010846
Probable space group: P -1
;
_chemical_formula_sum "Si O2"
_cell_formula_units_Z 12
_cell_length_a 9.117301
_cell_length_b 14.443272
_cell_length_c 8.888173
_cell_angle_alpha 44.664891
_cell_angle_beta 109.495873
_cell_angle_gamma 136.539089
_cell_volume 524.085693
_symmetry_space_group_name_H-M "P -1"
_symmetry_group_IT_number 2
_symmetry_cell_setting 'triclinic'
loop_
_space_group_symop_operation_xyz
x,y,z
-x,-y,-z
loop_
_atom_site_type_symbol
_atom_site_label
_atom_site_fract_x
_atom_site_fract_y
_atom_site_fract_z
Si Si1 0.364733 0.673168 0.506093
Si Si2 0.068955 0.427245 0.263229
Si Si3 0.151489 0.960655 0.255134
Si Si4 0.119947 0.702752 0.187277
Si Si5 0.377176 0.721845 0.799171
Si Si6 0.810837 0.967529 0.162749
O O1 0.296051 0.777213 0.298752
O O2 0.425131 0.706746 0.663511
O O3 0.582495 0.753248 0.396147
O O4 0.138327 0.443519 0.663502
O O5 0.126630 0.590436 0.197026
O O6 0.035923 0.273607 0.525208
O O7 0.825712 0.295957 0.244939
O O8 0.277604 0.541700 0.081043
O O9 0.033276 0.018066 0.217911
O O10 0.385197 0.072769 0.293315
O O11 0.216470 0.026772 0.029666
O O12 0.177282 0.880801 0.929132
#
# Coordination Sequence:
#
# PCOD8010846 Si02
#       6
#     2   2   2   2   2   2
#     4  10  21  38  64  91 117 153 199 246 292 345
#     4  10  22  41  64  88 117 156 199 242 291 350
#     4  11  24  41  60  87 122 158 196 241 296 351
#     4  10  21  40  63  89 117 153 201 243 288 349
#     4  10  22  39  63  90 119 155 197 244 294 348
#     4  11  24  40  61  88 120 158 197 242 294 349
#
# _framework density 22.897017999999999
#
# number of rings (size 3 to 8) (size 9 to 14) (size 15 to 20)
#    0.000    1.667    0.000    5.000    0.000   10.000 
#    0.000    8.333    0.000    0.000    0.000    0.000 
#    0.000    0.000    0.000    0.000    0.000    0.000 
#
# Total GULP energy -148707.042946 kJ/mol
# GULP energy per Si atom -12392.253579 kJ/mol
# Density = 2.284490 g / cm^3
# Si number density = 22.897018 Si / 1000 Ang^3
#
#
#
# Elastic Constant Matrix: (Units=GPa)
#
#
# Indices 1 2 3 4 5 6 
#
# 1 86.4567 47.7578 53.1958 -6.5997 -8.0241 -3.0176
# 2 47.7578 102.2597 39.4583 3.4558 -2.3789 -1.1549
# 3 53.1958 39.4583 125.8280 1.4494 -36.1366 -6.7344
# 4 -6.5997 3.4558 1.4494 22.7607 0.2713 -6.2449
# 5 -8.0241 -2.3789 -36.1366 0.2713 35.9935 -5.4685
# 6 -3.0176 -1.1549 -6.7344 -6.2449 -5.4685 20.7882
#
#
#
# Elastic Compliance Matrix: (Units=1/GPa)
#
#
# Indices 1 2 3 4 5 6 
#
# 1 0.020268 -0.006994 -0.007227 0.007931 -0.002984 0.001810
# 2 -0.006994 0.014133 -0.002723 -0.004947 -0.003872 -0.003617
# 3 -0.007227 -0.002723 0.017117 -0.000625 0.016697 0.008549
# 4 0.007931 -0.004947 -0.000625 0.051649 0.003004 0.016980
# 5 -0.002984 -0.003872 0.016697 0.003004 0.046314 0.017847
# 6 0.001810 -0.003617 0.008549 0.016980 0.017847 0.060731
#
#
# Mechanical properties :
#
#
# Convention : Reuss Voigt Hill
#
# Bulk Modulus (GPa) = 56.72645 66.15201 61.43923
# Shear Modulus (GPa) = 20.00184 27.51733 23.75959
#
# Velocity S-wave (km/s) = 2.95881 3.47044 3.22479
# Velocity P-wave (km/s) = 6.04161 6.70913 6.38410
#
# Compressibility (1/GPa) = 0.01762846
#
# Stress axis : x y z
#
# Youngs Moduli (GPa) = 49.33816 70.75842 58.42209
#
# Poissons Ratio (x) = 0.49490 0.42222
# Poissons Ratio (y) = 0.34508 0.15911
# Poissons Ratio (z) = 0.35657 0.19271
#
# Static dielectric constant tensor:
#      x y z
#    x 3.862390 0.209820 -0.150120 
#    y 0.209820 3.936460 -0.023720 
#    z -0.150120 -0.023720 4.474540 
# 
# 
# High freq. dielectric constant tensor:
#      x y z
#    x 1.868950 0.014460 -0.022420 
#    y 0.014460 1.894730 -0.000590 
#    z -0.022420 -0.000590 1.921100 
# 
# From -- ./inp_files/199830.got.cif
#   From: 2010.06.25/outbox.cif.g09.slc.cpg/sg2_100_cif.got.tgz:199830.got - 2010.06.27 13:26:56.
