data_PCOD8010283
_publ_section_title
;
Structure prediction by ZEFSAII (Michael W. Deem and Ramdas Pophale) SiO2 
 PCOD8010283
Probable space group: P -1
;
_chemical_formula_sum "Si O2"
_cell_formula_units_Z 16
_cell_length_a 8.583443
_cell_length_b 12.393571
_cell_length_c 10.044295
_cell_angle_alpha 56.325922
_cell_angle_beta 117.320822
_cell_angle_gamma 122.349864
_cell_volume 730.920470
_symmetry_space_group_name_H-M "P -1"
_symmetry_group_IT_number 2
_symmetry_cell_setting 'triclinic'
loop_
_space_group_symop_operation_xyz
x,y,z
-x,-y,-z
loop_
_atom_site_type_symbol
_atom_site_label
_atom_site_fract_x
_atom_site_fract_y
_atom_site_fract_z
Si Si1 0.528772 0.076317 0.261383
Si Si2 0.778810 0.714603 0.691521
Si Si3 0.713145 0.422680 0.571809
Si Si4 0.801543 0.947369 0.034342
Si Si5 0.302787 0.290681 0.624306
Si Si6 0.420816 0.785868 0.553075
Si Si7 0.184018 0.841426 0.890010
Si Si8 0.822947 0.442587 0.875170
O O1 0.629917 0.203609 0.319145
O O2 0.689646 0.057335 0.244057
O O3 0.429330 0.929147 0.394276
O O4 0.368570 0.111640 0.096277
O O5 0.826333 0.760248 0.524550
O O6 0.617831 0.763362 0.648987
O O7 0.703937 0.542265 0.785172
O O8 0.963227 0.784967 0.805701
O O9 0.519697 0.326175 0.639998
O O10 0.710798 0.568393 0.417969
O O11 0.737729 0.339121 0.507398
O O12 0.874512 0.449430 0.731122
O O13 0.780665 0.827848 0.216391
O O14 0.785154 0.080444 0.011333
O O15 0.000000 0.000000 0.000000
O O16 0.274774 0.721502 0.014789
O O17 0.000000 0.500000 0.000000
#
# Coordination Sequence:
#
# PCOD8010283 Si02
#       8
#     2   2   2   2   2   2   2   2
#     4  11  24  38  57  87 118 153 201 248 298 353
#     4   9  19  37  60  86 115 154 199 239 292 356
#     4   9  16  35  61  84 114 150 195 245 289 341
#     4  12  25  40  59  87 123 158 196 244 300 361
#     4   9  19  34  59  88 111 148 198 241 286 347
#     4  10  21  38  58  84 118 154 194 248 300 350
#     4  11  21  37  61  85 118 158 195 246 301 352
#     4   9  18  33  58  89 118 150 193 242 294 349
#
# _framework density 21.890205000000002
#
# number of rings (size 3 to 8) (size 9 to 14) (size 15 to 20)
#    0.000    2.000    0.000    4.875    0.000    4.000 
#    0.000    6.250    0.000    6.000    0.000    0.000 
#    0.000    0.000    0.000    0.000    0.000    0.000 
#
# Total GULP energy -198229.682985 kJ/mol
# GULP energy per Si atom -12389.355187 kJ/mol
# Density = 2.184038 g / cm^3
# Si number density = 21.890205 Si / 1000 Ang^3
#
#
#
# Elastic Constant Matrix: (Units=GPa)
#
#
# Indices 1 2 3 4 5 6 
#
# 1 62.0524 16.1734 26.1579 5.2777 -12.2397 -10.4931
# 2 16.1734 107.8899 47.5791 21.0449 -6.6561 -19.8936
# 3 26.1579 47.5791 115.1663 7.9346 4.6354 -7.7442
# 4 5.2777 21.0449 7.9346 49.9655 0.6950 -6.9207
# 5 -12.2397 -6.6561 4.6354 0.6950 30.6831 5.8021
# 6 -10.4931 -19.8936 -7.7442 -6.9207 5.8021 27.5432
#
#
#
# Elastic Compliance Matrix: (Units=1/GPa)
#
#
# Indices 1 2 3 4 5 6 
#
# 1 0.020530 0.000709 -0.004874 -0.001120 0.008167 0.004961
# 2 0.000709 0.013731 -0.005186 -0.004088 0.002792 0.007114
# 3 -0.004874 -0.005186 0.012001 0.000712 -0.004698 -0.001060
# 4 -0.001120 -0.004088 0.000712 0.022180 -0.002495 0.002920
# 5 0.008167 0.002792 -0.004698 -0.002495 0.038139 -0.004854
# 6 0.004961 0.007114 -0.001060 0.002920 -0.004854 0.044793
#
#
# Mechanical properties :
#
#
# Convention : Reuss Voigt Hill
#
# Bulk Modulus (GPa) = 36.28404 51.65882 43.97143
# Shear Modulus (GPa) = 27.89186 34.65158 31.27172
#
# Velocity S-wave (km/s) = 3.57343 3.98297 3.78374
# Velocity P-wave (km/s) = 5.79977 6.69346 6.26257
#
# Compressibility (1/GPa) = 0.02756033
#
# Stress axis : x y z
#
# Youngs Moduli (GPa) = 48.70845 72.82844 83.32339
#
# Poissons Ratio (x) = -0.05162 0.40611
# Poissons Ratio (y) = -0.03452 0.43212
# Poissons Ratio (z) = 0.23740 0.37769
#
# Static dielectric constant tensor:
#      x y z
#    x 3.511630 -0.279050 0.148380 
#    y -0.279050 4.408940 0.197170 
#    z 0.148380 0.197170 4.379770 
# 
# 
# High freq. dielectric constant tensor:
#      x y z
#    x 1.812530 -0.018210 0.018400 
#    y -0.018210 1.877130 0.013840 
#    z 0.018400 0.013840 1.877120 
# 
# From -- ./inp_files/185265.got.cif
#   From: 2010.06.25/outbox.cif.g09.slc.cpg/sg2_93_cif.got.tgz:185265.got - 2010.06.27 13:26:56.
