data_PCOD8010931
_publ_section_title
;
Structure prediction by ZEFSAII (Michael W. Deem and Ramdas Pophale) SiO2 
 PCOD8010931
Probable space group: P -1
;
_chemical_formula_sum "Si O2"
_cell_formula_units_Z 16
_cell_length_a 17.387977
_cell_length_b 15.152252
_cell_length_c 23.548750
_cell_angle_alpha 18.760939
_cell_angle_beta 22.419779
_cell_angle_gamma 33.018527
_cell_volume 725.972209
_symmetry_space_group_name_H-M "P -1"
_symmetry_group_IT_number 2
_symmetry_cell_setting 'triclinic'
loop_
_space_group_symop_operation_xyz
x,y,z
-x,-y,-z
loop_
_atom_site_type_symbol
_atom_site_label
_atom_site_fract_x
_atom_site_fract_y
_atom_site_fract_z
Si Si1 0.503721 0.632790 0.340798
Si Si2 0.031496 0.589945 0.708014
Si Si3 0.046795 0.920130 0.606700
Si Si4 0.805728 0.997010 0.175216
Si Si5 0.515400 0.027121 0.688031
Si Si6 0.285146 0.051191 0.097663
Si Si7 0.289827 0.798271 0.084985
Si Si8 0.825838 0.527837 0.530518
O O1 0.262767 0.637346 0.493945
O O2 0.501434 0.315725 0.553619
O O3 0.644038 0.691458 0.152176
O O4 0.623052 0.869233 0.160142
O O5 0.043497 0.662696 0.722403
O O6 0.920404 0.790526 0.627820
O O7 0.881076 0.266261 0.001644
O O8 0.241670 0.964750 0.490491
O O9 0.830902 0.840254 0.838263
O O10 0.606543 0.016846 0.261839
O O11 0.729755 0.707764 0.441887
O O12 0.000000 0.000000 0.000000
O O13 0.408748 0.767580 0.963790
O O14 0.136024 0.750160 0.356863
O O15 0.500000 0.000000 0.000000
O O16 0.325394 0.591813 0.237956
O O17 0.044093 0.736253 0.277456
#
# Coordination Sequence:
#
# PCOD8010931 Si02
#       8
#     2   2   2   2   2   2   2   2
#     4  11  21  39  72  99 129 184 232 277 336 419
#     4  11  23  43  68 103 138 180 234 278 346 412
#     4  11  26  42  65 104 139 179 230 287 348 408
#     4  12  22  39  70 105 141 180 228 283 337 419
#     4  12  24  39  70 106 138 175 237 281 345 400
#     4  11  22  42  70  91 132 184 231 278 340 420
#     4  10  21  38  65 103 134 176 225 290 326 409
#     4  10  22  39  66 104 133 178 241 268 342 406
#
# _framework density 22.03941
#
# number of rings (size 3 to 8) (size 9 to 14) (size 15 to 20)
#    0.000    1.000    5.000    1.875    1.750    1.000 
#    0.000    0.000    2.750    3.750    0.000    0.000 
#    0.000    0.000    0.000    0.000    0.000    0.000 
#
# Total GULP energy -198335.809970 kJ/mol
# GULP energy per Si atom -12395.988123 kJ/mol
# Density = 2.198925 g / cm^3
# Si number density = 22.039410 Si / 1000 Ang^3
#
#
#
# Elastic Constant Matrix: (Units=GPa)
#
#
# Indices 1 2 3 4 5 6 
#
# 1 128.2737 37.8412 57.4972 12.6099 11.2669 -4.5244
# 2 37.8412 80.8911 42.2922 10.9038 -0.9873 -3.4832
# 3 57.4972 42.2922 105.0722 -0.7860 1.5654 7.9079
# 4 12.6099 10.9038 -0.7860 33.9216 1.7156 -4.2195
# 5 11.2669 -0.9873 1.5654 1.7156 54.5202 5.9554
# 6 -4.5244 -3.4832 7.9079 -4.2195 5.9554 26.5215
#
#
#
# Elastic Compliance Matrix: (Units=1/GPa)
#
#
# Indices 1 2 3 4 5 6 
#
# 1 0.011649 -0.001791 -0.005908 -0.003320 -0.002554 0.003559
# 2 -0.001791 0.017213 -0.006213 -0.004685 0.000690 0.002907
# 3 -0.005908 -0.006213 0.015727 0.003726 0.001216 -0.006193
# 4 -0.003320 -0.004685 0.003726 0.032737 -0.000876 0.003113
# 5 -0.002554 0.000690 0.001216 -0.000876 0.019444 -0.005213
# 6 0.003559 0.002907 -0.006193 0.003113 -0.005213 0.042207
#
#
# Mechanical properties :
#
#
# Convention : Reuss Voigt Hill
#
# Bulk Modulus (GPa) = 59.64613 65.49979 62.57296
# Shear Modulus (GPa) = 29.00421 34.76640 31.88531
#
# Velocity S-wave (km/s) = 3.63163 3.97604 3.80773
# Velocity P-wave (km/s) = 6.68634 7.13179 6.91265
#
# Compressibility (1/GPa) = 0.01676555
#
# Stress axis : x y z
#
# Youngs Moduli (GPa) = 85.84729 58.09481 63.58584
#
# Poissons Ratio (x) = 0.10404 0.37567
# Poissons Ratio (y) = 0.15373 0.39503
# Poissons Ratio (z) = 0.50720 0.36092
#
# Static dielectric constant tensor:
#      x y z
#    x 4.341560 0.097000 0.223340 
#    y 0.097000 3.794860 -0.216640 
#    z 0.223340 -0.216640 4.471270 
# 
# 
# High freq. dielectric constant tensor:
#      x y z
#    x 1.885670 0.001120 0.000790 
#    y 0.001120 1.827260 -0.009020 
#    z 0.000790 -0.009020 1.875600 
# 
# From -- ./inp_files/613228.got.cif
#   From: 2010.06.25/outbox.cif.g09.slc.cpg/sg2_307_cif.got.tgz:613228.got - 2010.06.27 13:26:56.
