data_PCOD8010935
_publ_section_title
;
Structure prediction by ZEFSAII (Michael W. Deem and Ramdas Pophale) SiO2 
 PCOD8010935
Probable space group: P -1
;
_chemical_formula_sum "Si O2"
_cell_formula_units_Z 16
_cell_length_a 14.722120
_cell_length_b 15.256029
_cell_length_c 15.742103
_cell_angle_alpha 42.055760
_cell_angle_beta 40.308962
_cell_angle_gamma 19.203430
_cell_volume 748.172247
_symmetry_space_group_name_H-M "P -1"
_symmetry_group_IT_number 2
_symmetry_cell_setting 'triclinic'
loop_
_space_group_symop_operation_xyz
x,y,z
-x,-y,-z
loop_
_atom_site_type_symbol
_atom_site_label
_atom_site_fract_x
_atom_site_fract_y
_atom_site_fract_z
Si Si1 0.250288 0.048294 0.220374
Si Si2 0.347261 0.486785 0.600411
Si Si3 0.603849 0.010727 0.017301
Si Si4 0.647587 0.203059 0.179711
Si Si5 0.877121 0.292328 0.917612
Si Si6 0.579122 0.050718 0.474112
Si Si7 0.113347 0.491260 0.121746
Si Si8 0.108331 0.543854 0.574180
O O1 0.335324 0.131740 0.103870
O O2 0.918374 0.304248 0.296260
O O3 0.431354 0.809602 0.325450
O O4 0.307795 0.964820 0.140638
O O5 0.500000 0.500000 0.500000
O O6 0.251810 0.544728 0.527404
O O7 0.448538 0.228478 0.042420
O O8 0.873562 0.697556 0.070936
O O9 0.360877 0.441672 0.158736
O O10 0.588933 0.183433 0.325604
O O11 0.774635 0.244019 0.072289
O O12 0.862378 0.938297 0.165429
O O13 0.975216 0.307439 0.909841
O O14 0.890649 0.774433 0.492356
O O15 0.500000 0.000000 0.500000
O O16 0.341385 0.260067 0.566761
O O17 0.074541 0.391888 0.275096
#
# Coordination Sequence:
#
# PCOD8010935 Si02
#       8
#     2   2   2   2   2   2   2   2
#     4  11  22  44  65  95 124 167 216 268 332 375
#     4  12  25  46  68  92 135 184 219 262 324 394
#     4  11  22  38  68  92 129 155 208 284 323 369
#     4  10  21  41  59  87 125 166 207 255 323 390
#     4  10  21  38  65  86 121 166 205 259 327 386
#     4  12  24  41  65  97 131 170 213 269 324 378
#     4  12  21  39  62  97 124 161 216 269 325 380
#     4  12  24  41  65  94 130 170 222 264 314 393
#
# _framework density 21.385449999999999
#
# number of rings (size 3 to 8) (size 9 to 14) (size 15 to 20)
#    0.000    0.750    2.500    6.000    0.000    2.000 
#    6.750    0.000    0.000    0.000    0.000    0.000 
#    0.000    0.000    0.000    0.000    0.000    0.000 
#
# Total GULP energy -198380.269303 kJ/mol
# GULP energy per Si atom -12398.766831 kJ/mol
# Density = 2.133678 g / cm^3
# Si number density = 21.385450 Si / 1000 Ang^3
#
#
#
# Elastic Constant Matrix: (Units=GPa)
#
#
# Indices 1 2 3 4 5 6 
#
# 1 112.3276 24.5866 37.7233 -4.3540 -2.5010 4.0374
# 2 24.5866 131.8502 25.1073 -2.3807 4.8618 -2.0644
# 3 37.7233 25.1073 89.0278 -5.2866 12.9403 -10.4378
# 4 -4.3540 -2.3807 -5.2866 40.3069 -3.6225 7.7567
# 5 -2.5010 4.8618 12.9403 -3.6225 26.5094 0.3998
# 6 4.0374 -2.0644 -10.4378 7.7567 0.3998 30.6705
#
#
#
# Elastic Compliance Matrix: (Units=1/GPa)
#
#
# Indices 1 2 3 4 5 6 
#
# 1 0.011283 -0.001264 -0.005395 0.001556 0.004200 -0.003855
# 2 -0.001264 0.008163 -0.001626 0.000026 -0.000821 0.000166
# 3 -0.005395 -0.001626 0.015856 -0.000529 -0.008117 0.006237
# 4 0.001556 0.000026 -0.000529 0.026665 0.004152 -0.007181
# 5 0.004200 -0.000821 -0.008117 0.004152 0.042874 -0.004980
# 6 -0.003855 0.000166 0.006237 -0.007181 -0.004980 0.037127
#
#
# Mechanical properties :
#
#
# Convention : Reuss Voigt Hill
#
# Bulk Modulus (GPa) = 53.37995 56.44888 54.91442
# Shear Modulus (GPa) = 30.34307 35.88324 33.11315
#
# Velocity S-wave (km/s) = 3.77087 4.10070 3.93924
# Velocity P-wave (km/s) = 6.63131 6.99101 6.81353
#
# Compressibility (1/GPa) = 0.01873362
#
# Stress axis : x y z
#
# Youngs Moduli (GPa) = 88.62713 122.50290 63.06570
#
# Poissons Ratio (x) = 0.15483 0.34021
# Poissons Ratio (y) = 0.11202 0.10255
# Poissons Ratio (z) = 0.47811 0.19920
#
# Static dielectric constant tensor:
#      x y z
#    x 3.923550 0.045140 0.122450 
#    y 0.045140 4.121260 0.120190 
#    z 0.122450 0.120190 3.808450 
# 
# 
# High freq. dielectric constant tensor:
#      x y z
#    x 1.831500 0.000490 0.010420 
#    y 0.000490 1.864410 0.002190 
#    z 0.010420 0.002190 1.832670 
# 
# From -- ./inp_files/437291.got.cif
#   From: 2010.06.25/outbox.cif.g09.slc.cpg/sg2_219_cif.got.tgz:437291.got - 2010.06.27 13:26:56.
