data_PCOD8010089
_publ_section_title
;
Structure prediction by ZEFSAII (Michael W. Deem and Ramdas Pophale) SiO2 
 PCOD8010089
Probable space group: P -1
;
_chemical_formula_sum "Si O2"
_cell_formula_units_Z 16
_cell_length_a 6.882407
_cell_length_b 12.417763
_cell_length_c 11.099019
_cell_angle_alpha 88.377776
_cell_angle_beta 64.240856
_cell_angle_gamma 62.788327
_cell_volume 742.358615
_symmetry_space_group_name_H-M "P -1"
_symmetry_group_IT_number 2
_symmetry_cell_setting 'triclinic'
loop_
_space_group_symop_operation_xyz
x,y,z
-x,-y,-z
loop_
_atom_site_type_symbol
_atom_site_label
_atom_site_fract_x
_atom_site_fract_y
_atom_site_fract_z
Si Si1 0.145479 0.635192 0.470627
Si Si2 0.413833 0.605493 0.921396
Si Si3 0.060632 0.145896 0.946310
Si Si4 0.942593 0.506675 0.701226
Si Si5 0.021435 0.024386 0.193786
Si Si6 0.353119 0.443752 0.767032
Si Si7 0.163409 0.867420 0.514996
Si Si8 0.486765 0.812862 0.216737
O O1 0.043590 0.608037 0.374640
O O2 0.444648 0.570580 0.387725
O O3 0.040932 0.781492 0.517191
O O4 0.061467 0.579857 0.602349
O O5 0.658210 0.605631 0.805655
O O6 0.278611 0.568791 0.855587
O O7 0.500000 0.500000 0.000000
O O8 0.215594 0.742657 0.012758
O O9 0.260676 0.186866 0.867714
O O10 0.087084 0.102256 0.079279
O O11 0.114364 0.036095 0.842153
O O12 0.106805 0.450358 0.777715
O O13 0.827884 0.119179 0.342632
O O14 0.270478 0.921183 0.194428
O O15 0.470962 0.322947 0.828832
O O16 0.426822 0.818174 0.377347
O O17 0.000000 0.000000 0.500000
#
# Coordination Sequence:
#
# PCOD8010089 Si02
#       8
#     2   2   2   2   2   2   2   2
#     4   9  20  40  61  92 127 156 203 267 311 375
#     4  11  24  40  58  92 132 162 209 258 303 377
#     4  11  24  41  63  90 125 171 210 256 312 374
#     4  10  21  39  62  93 124 164 202 254 326 370
#     4  10  23  44  61  89 129 160 216 265 305 370
#     4  10  21  37  65  93 122 162 206 251 315 379
#     4   9  20  40  64  92 121 162 208 263 313 366
#     4  10  21  41  66  90 120 167 206 261 320 367
#
# _framework density 21.552927
#
# number of rings (size 3 to 8) (size 9 to 14) (size 15 to 20)
#    0.000    2.000    0.000    2.250    1.750    7.500 
#   13.500    0.000    0.000    0.000    0.000    0.000 
#    0.000    0.000    0.000    0.000    0.000    0.000 
#
# Total GULP energy -198311.845364 kJ/mol
# GULP energy per Si atom -12394.490335 kJ/mol
# Density = 2.150387 g / cm^3
# Si number density = 21.552927 Si / 1000 Ang^3
#
#
#
# Elastic Constant Matrix: (Units=GPa)
#
#
# Indices 1 2 3 4 5 6 
#
# 1 92.4987 31.9773 44.9052 -5.6402 -5.3715 2.4669
# 2 31.9773 101.1688 37.4096 -5.4874 -6.8673 15.4062
# 3 44.9052 37.4096 112.3678 -13.0746 -6.9519 15.4752
# 4 -5.6402 -5.4874 -13.0746 29.3044 5.9099 1.2921
# 5 -5.3715 -6.8673 -6.9519 5.9099 33.0194 -5.2148
# 6 2.4669 15.4062 15.4752 1.2921 -5.2148 33.9701
#
#
#
# Elastic Compliance Matrix: (Units=1/GPa)
#
#
# Indices 1 2 3 4 5 6 
#
# 1 0.014281 -0.003015 -0.005073 -0.000437 0.001154 0.002835
# 2 -0.003015 0.012401 -0.002187 0.000794 0.000805 -0.004316
# 3 -0.005073 -0.002187 0.012822 0.004568 -0.000137 -0.004675
# 4 -0.000437 0.000794 0.004568 0.037744 -0.006464 -0.004837
# 5 0.001154 0.000805 -0.000137 -0.006464 0.032535 0.004854
# 6 0.002835 -0.004316 -0.004675 -0.004837 0.004854 0.034248
#
#
# Mechanical properties :
#
#
# Convention : Reuss Voigt Hill
#
# Bulk Modulus (GPa) = 52.76214 59.40217 56.08215
# Shear Modulus (GPa) = 29.25693 32.04167 30.64930
#
# Velocity S-wave (km/s) = 3.68835 3.85989 3.77510
# Velocity P-wave (km/s) = 6.53238 6.89100 6.71409
#
# Compressibility (1/GPa) = 0.01895299
#
# Stress axis : x y z
#
# Youngs Moduli (GPa) = 70.02357 80.63798 77.99170
#
# Poissons Ratio (x) = 0.24313 0.39567
# Poissons Ratio (y) = 0.21113 0.17058
# Poissons Ratio (z) = 0.35524 0.17637
#
# Static dielectric constant tensor:
#      x y z
#    x 3.723160 0.193520 0.027990 
#    y 0.193520 4.005730 0.196870 
#    z 0.027990 0.196870 4.497770 
# 
# 
# High freq. dielectric constant tensor:
#      x y z
#    x 1.830750 0.015340 -0.002900 
#    y 0.015340 1.850180 -0.003210 
#    z -0.002900 -0.003210 1.856510 
# 
# From -- ./inp_files/364461.got.cif
#   From: 2010.06.25/outbox.cif.g09.slc.cpg/sg2_183_cif.got.tgz:364461.got - 2010.06.27 13:26:56.
