data_PCOD8010266
_publ_section_title
;
Structure prediction by ZEFSAII (Michael W. Deem and Ramdas Pophale) SiO2 
 PCOD8010266
Probable space group: P -1
;
_chemical_formula_sum "Si O2"
_cell_formula_units_Z 16
_cell_length_a 11.600043
_cell_length_b 8.367117
_cell_length_c 15.667089
_cell_angle_alpha 130.006269
_cell_angle_beta 108.607898
_cell_angle_gamma 42.847760
_cell_volume 757.516386
_symmetry_space_group_name_H-M "P -1"
_symmetry_group_IT_number 2
_symmetry_cell_setting 'triclinic'
loop_
_space_group_symop_operation_xyz
x,y,z
-x,-y,-z
loop_
_atom_site_type_symbol
_atom_site_label
_atom_site_fract_x
_atom_site_fract_y
_atom_site_fract_z
Si Si1 0.871448 0.585248 0.073002
Si Si2 0.006084 0.539338 0.750454
Si Si3 0.735795 0.826709 0.465738
Si Si4 0.350106 0.431793 0.541105
Si Si5 0.172406 0.648488 0.397346
Si Si6 0.271247 0.757746 0.293862
Si Si7 0.969132 0.041747 0.850405
Si Si8 0.663639 0.223086 0.209659
O O1 0.940227 0.564319 0.174946
O O2 0.692082 0.939213 0.132420
O O3 0.852906 0.357961 0.984102
O O4 0.000000 0.500000 0.000000
O O5 0.160294 0.283395 0.634983
O O6 0.853484 0.564757 0.700351
O O7 0.947760 0.851743 0.830605
O O8 0.783572 0.548338 0.428253
O O9 0.536337 0.086037 0.475330
O O10 0.782549 0.943538 0.586820
O O11 0.305082 0.504635 0.457328
O O12 0.348087 0.664248 0.659894
O O13 0.272312 0.610472 0.325928
O O14 0.000000 0.000000 0.500000
O O15 0.121495 0.864418 0.231017
O O16 0.472486 0.499650 0.213300
O O17 0.174228 0.864906 0.832921
#
# Coordination Sequence:
#
# PCOD8010266 Si02
#       8
#     2   2   2   2   2   2   2   2
#     4  10  23  43  66  89 121 164 214 263 313 360
#     4  12  23  39  67  91 122 167 207 256 313 372
#     4  10  22  37  62  92 128 162 204 246 311 381
#     4  10  21  38  57  94 132 162 196 253 310 378
#     4  12  23  35  58  93 133 164 201 244 310 379
#     4  11  24  40  63  98 128 166 204 254 312 379
#     4  11  23  44  66  88 125 165 217 261 307 363
#     4  10  22  40  67  90 124 166 206 260 310 364
#
# _framework density 21.121653999999999
#
# number of rings (size 3 to 8) (size 9 to 14) (size 15 to 20)
#    0.000    1.250    2.500    4.125    1.750    2.500 
#    0.000    0.000    0.000    4.500    0.000    0.000 
#    0.000    0.000    0.000    0.000    0.000    0.000 
#
# Total GULP energy -198317.486284 kJ/mol
# GULP energy per Si atom -12394.842893 kJ/mol
# Density = 2.107358 g / cm^3
# Si number density = 21.121654 Si / 1000 Ang^3
#
#
#
# Elastic Constant Matrix: (Units=GPa)
#
#
# Indices 1 2 3 4 5 6 
#
# 1 76.0802 15.0682 7.8496 13.9093 7.7995 -0.3078
# 2 15.0682 51.7787 23.6248 6.6082 -0.3969 4.2645
# 3 7.8496 23.6248 75.6103 16.2876 8.4216 -3.4395
# 4 13.9093 6.6082 16.2876 39.2122 15.5159 6.7914
# 5 7.7995 -0.3969 8.4216 15.5159 35.2445 1.9507
# 6 -0.3078 4.2645 -3.4395 6.7914 1.9507 29.3626
#
#
#
# Elastic Compliance Matrix: (Units=1/GPa)
#
#
# Indices 1 2 3 4 5 6 
#
# 1 0.014955 -0.004459 0.001145 -0.004742 -0.001664 0.002146
# 2 -0.004459 0.024587 -0.007855 0.000225 0.003308 -0.004810
# 3 0.001145 -0.007855 0.017365 -0.006348 -0.001961 0.004786
# 4 -0.004742 0.000225 -0.006348 0.036370 -0.012979 -0.008376
# 5 -0.001664 0.003308 -0.001961 -0.012979 0.034964 -0.000048
# 6 0.002146 -0.004810 0.004786 -0.008376 -0.000048 0.037279
#
#
# Mechanical properties :
#
#
# Convention : Reuss Voigt Hill
#
# Bulk Modulus (GPa) = 28.92723 32.95048 30.93886
# Shear Modulus (GPa) = 25.07759 31.22563 28.15161
#
# Velocity S-wave (km/s) = 3.44945 3.84913 3.65476
# Velocity P-wave (km/s) = 5.43969 5.94883 5.69995
#
# Compressibility (1/GPa) = 0.03456950
#
# Stress axis : x y z
#
# Youngs Moduli (GPa) = 66.86587 40.67128 57.58762
#
# Poissons Ratio (x) = 0.18135 -0.06595
# Poissons Ratio (y) = 0.29815 0.45236
# Poissons Ratio (z) = -0.07657 0.31948
#
# Static dielectric constant tensor:
#      x y z
#    x 4.239590 0.195790 0.292720 
#    y 0.195790 3.830580 0.238040 
#    z 0.292720 0.238040 4.127190 
# 
# 
# High freq. dielectric constant tensor:
#      x y z
#    x 1.826080 0.010890 0.014140 
#    y 0.010890 1.821880 0.007550 
#    z 0.014140 0.007550 1.830770 
# 
# From -- ./inp_files/222105.got.cif
#   From: 2010.06.25/outbox.cif.g09.slc.cpg/sg2_112_cif.got.tgz:222105.got - 2010.06.27 13:26:56.
