data_PCOD8010954
_publ_section_title
;
Structure prediction by ZEFSAII (Michael W. Deem and Ramdas Pophale) SiO2 
 PCOD8010954
Probable space group: P -1
;
_chemical_formula_sum "Si O2"
_cell_formula_units_Z 16
_cell_length_a 17.747598
_cell_length_b 20.845274
_cell_length_c 8.991636
_cell_angle_alpha 38.193406
_cell_angle_beta 142.689960
_cell_angle_gamma 159.031379
_cell_volume 707.060594
_symmetry_space_group_name_H-M "P -1"
_symmetry_group_IT_number 2
_symmetry_cell_setting 'triclinic'
loop_
_space_group_symop_operation_xyz
x,y,z
-x,-y,-z
loop_
_atom_site_type_symbol
_atom_site_label
_atom_site_fract_x
_atom_site_fract_y
_atom_site_fract_z
Si Si1 0.583892 0.289946 0.140678
Si Si2 0.665116 0.159297 0.692361
Si Si3 0.904543 0.992211 0.505681
Si Si4 0.650288 0.626550 0.869785
Si Si5 0.361381 0.351554 0.678034
Si Si6 0.497509 0.834949 0.083234
Si Si7 0.847184 0.418656 0.765612
Si Si8 0.051413 0.363395 0.729990
O O1 0.517680 0.145795 0.402095
O O2 0.818787 0.482078 0.224094
O O3 0.409547 0.262216 0.938543
O O4 0.616730 0.286353 0.025085
O O5 0.808198 0.299743 0.801037
O O6 0.807858 0.198581 0.715988
O O7 0.492448 0.956590 0.852089
O O8 0.765208 0.817697 0.707749
O O9 0.750676 0.976102 0.230545
O O10 0.000000 0.000000 0.500000
O O11 0.099991 0.181691 0.558016
O O12 0.445648 0.482197 0.701287
O O13 0.500000 0.500000 0.000000
O O14 0.845130 0.679753 0.042141
O O15 0.500000 0.500000 0.500000
O O16 0.382704 0.712865 0.274795
O O17 0.939191 0.579493 0.524100
O O18 0.000000 0.500000 0.000000
#
# Coordination Sequence:
#
# PCOD8010954 Si02
#       8
#     2   2   2   2   2   2   2   2
#     4  10  21  38  65  91 127 165 220 261 323 392
#     4  11  23  41  64  95 126 169 215 266 325 394
#     4  12  23  43  68 101 135 173 230 273 328 403
#     4  11  24  44  67  98 136 174 224 276 339 391
#     4  11  23  42  70  99 131 180 224 277 331 396
#     4  12  23  39  66  96 132 166 214 277 331 383
#     4  11  23  43  63  94 131 168 215 269 333 390
#     4  10  22  41  65  90 125 171 219 264 325 399
#
# _framework density 22.628896000000001
#
# number of rings (size 3 to 8) (size 9 to 14) (size 15 to 20)
#    0.000    1.000    2.500    5.250    1.750    0.500 
#    4.500    0.000    0.000    0.000    0.000    0.000 
#    0.000    0.000    0.000    0.000    0.000    0.000 
#
# Total GULP energy -198242.069499 kJ/mol
# GULP energy per Si atom -12390.129344 kJ/mol
# Density = 2.257739 g / cm^3
# Si number density = 22.628896 Si / 1000 Ang^3
#
#
#
# Elastic Constant Matrix: (Units=GPa)
#
#
# Indices 1 2 3 4 5 6 
#
# 1 73.2131 28.1894 28.4765 7.1760 -24.6501 7.9162
# 2 28.1894 106.4712 49.3575 -0.8503 -12.9310 -2.5259
# 3 28.4765 49.3575 121.1527 3.5057 -13.0300 -0.6117
# 4 7.1760 -0.8503 3.5057 39.5716 1.0601 -3.8854
# 5 -24.6501 -12.9310 -13.0300 1.0601 43.1178 1.3441
# 6 7.9162 -2.5259 -0.6117 -3.8854 1.3441 30.8213
#
#
#
# Elastic Compliance Matrix: (Units=1/GPa)
#
#
# Indices 1 2 3 4 5 6 
#
# 1 0.020437 -0.003306 -0.002249 -0.004501 0.010328 -0.006582
# 2 -0.003306 0.012341 -0.004235 0.001418 0.000436 0.001936
# 3 -0.002249 -0.004235 0.010597 -0.000606 0.000651 0.000336
# 4 -0.004501 0.001418 -0.000606 0.026723 -0.003137 0.004766
# 5 0.010328 0.000436 0.000651 -0.003137 0.029635 -0.004292
# 6 -0.006582 0.001936 0.000336 0.004766 -0.004292 0.035089
#
#
# Mechanical properties :
#
#
# Convention : Reuss Voigt Hill
#
# Bulk Modulus (GPa) = 42.02549 56.98709 49.50629
# Shear Modulus (GPa) = 30.80071 35.68971 33.24521
#
# Velocity S-wave (km/s) = 3.69334 3.97567 3.83711
# Velocity P-wave (km/s) = 6.06627 6.80534 6.44640
#
# Compressibility (1/GPa) = 0.02379508
#
# Stress axis : x y z
#
# Youngs Moduli (GPa) = 48.93155 81.03083 94.36418
#
# Poissons Ratio (x) = 0.26789 0.21221
# Poissons Ratio (y) = 0.16177 0.39963
# Poissons Ratio (z) = 0.11004 0.34317
#
# Static dielectric constant tensor:
#      x y z
#    x 3.419020 -0.099480 -1.034230 
#    y -0.099480 4.252800 -0.178010 
#    z -1.034230 -0.178010 2.626950 
# 
# 
# High freq. dielectric constant tensor:
#      x y z
#    x 1.882230 -0.003830 -0.009810 
#    y -0.003830 1.890360 -0.000530 
#    z -0.009810 -0.000530 1.907410 
# 
# From -- ./inp_files/223504.got.cif
#   From: 2010.06.25/outbox.cif.g09.slc.cpg/sg2_112_cif.got.tgz:223504.got - 2010.06.27 13:26:56.
