data_PCOD8010885
_publ_section_title
;
Structure prediction by ZEFSAII (Michael W. Deem and Ramdas Pophale) SiO2 
 PCOD8010885
Probable space group: P -1
;
_chemical_formula_sum "Si O2"
_cell_formula_units_Z 16
_cell_length_a 14.067029
_cell_length_b 14.278843
_cell_length_c 15.228788
_cell_angle_alpha 29.713731
_cell_angle_beta 53.426905
_cell_angle_gamma 33.562095
_cell_volume 741.345402
_symmetry_space_group_name_H-M "P -1"
_symmetry_group_IT_number 2
_symmetry_cell_setting 'triclinic'
loop_
_space_group_symop_operation_xyz
x,y,z
-x,-y,-z
loop_
_atom_site_type_symbol
_atom_site_label
_atom_site_fract_x
_atom_site_fract_y
_atom_site_fract_z
Si Si1 0.942709 0.103494 0.047400
Si Si2 0.426663 0.254805 0.977798
Si Si3 0.785529 0.866624 0.566007
Si Si4 0.839539 0.845275 0.041308
Si Si5 0.198107 0.855930 0.523195
Si Si6 0.677508 0.134843 0.220665
Si Si7 0.396589 0.261591 0.184514
Si Si8 0.206711 0.160880 0.132153
O O1 0.750591 0.470500 0.878164
O O2 0.124740 0.978508 0.095945
O O3 0.888644 0.959685 0.226895
O O4 0.000000 0.000000 0.000000
O O5 0.359480 0.493650 0.748681
O O6 0.343669 0.404426 0.999395
O O7 0.368206 0.118981 0.089017
O O8 0.657636 0.982444 0.078462
O O9 0.627597 0.933541 0.647170
O O10 0.981893 0.502636 0.736933
O O11 0.837024 0.976251 0.508575
O O12 0.679131 0.072549 0.370593
O O13 0.812206 0.874104 0.929124
O O14 0.262398 0.903521 0.366674
O O15 0.000000 0.000000 0.500000
O O16 0.620529 0.025890 0.280286
O O17 0.500000 0.500000 0.000000
O O18 0.000000 0.500000 0.000000
#
# Coordination Sequence:
#
# PCOD8010885 Si02
#       8
#     2   2   2   2   2   2   2   2
#     4  10  21  40  63  93 129 168 218 271 331 387
#     4  12  24  45  68 102 138 174 224 274 333 395
#     4  11  22  42  66  98 129 182 223 267 343 396
#     4  11  25  43  65  95 141 176 214 284 331 396
#     4  12  24  38  73 100 130 181 226 269 334 397
#     4  10  21  38  64  94 125 167 224 274 317 393
#     4  10  21  42  68  93 130 174 220 278 326 394
#     4  12  22  45  69  99 136 177 225 274 330 394
#
# _framework density 21.582384000000001
#
# number of rings (size 3 to 8) (size 9 to 14) (size 15 to 20)
#    0.000    1.000    3.750    3.750    1.750    1.500 
#    2.250    8.125    0.000    0.000    0.000    0.000 
#    0.000    0.000    0.000    0.000    0.000    0.000 
#
# Total GULP energy -198280.042613 kJ/mol
# GULP energy per Si atom -12392.502663 kJ/mol
# Density = 2.153326 g / cm^3
# Si number density = 21.582384 Si / 1000 Ang^3
#
#
#
# Elastic Constant Matrix: (Units=GPa)
#
#
# Indices 1 2 3 4 5 6 
#
# 1 203.2613 63.8724 47.7543 14.9148 -3.5790 -23.4372
# 2 63.8724 93.0294 41.8407 21.0434 -0.3257 -7.6554
# 3 47.7543 41.8407 127.5485 29.2279 6.8113 -3.4026
# 4 14.9148 21.0434 29.2279 27.4868 -0.1744 1.3904
# 5 -3.5790 -0.3257 6.8113 -0.1744 34.3808 15.0115
# 6 -23.4372 -7.6554 -3.4026 1.3904 15.0115 54.9670
#
#
#
# Elastic Compliance Matrix: (Units=1/GPa)
#
#
# Indices 1 2 3 4 5 6 
#
# 1 0.006676 -0.003976 -0.001290 0.000681 -0.000048 0.002209
# 2 -0.003976 0.016279 -0.001916 -0.008307 -0.000241 0.000729
# 3 -0.001290 -0.001916 0.011435 -0.010058 -0.002875 0.000931
# 4 0.000681 -0.008307 -0.010058 0.053289 0.003967 -0.003921
# 5 -0.000048 -0.000241 -0.002875 0.003967 0.033850 -0.009577
# 6 0.002209 0.000729 0.000931 -0.003921 -0.009577 0.022008
#
#
# Mechanical properties :
#
#
# Convention : Reuss Voigt Hill
#
# Bulk Modulus (GPa) = 49.93334 81.19708 65.56521
# Shear Modulus (GPa) = 30.38115 41.39171 35.88643
#
# Velocity S-wave (km/s) = 3.75598 4.38407 4.08213
# Velocity P-wave (km/s) = 6.48045 7.95804 7.25695
#
# Compressibility (1/GPa) = 0.02002670
#
# Stress axis : x y z
#
# Youngs Moduli (GPa) = 149.78782 61.42918 87.45430
#
# Poissons Ratio (x) = 0.24424 0.11280
# Poissons Ratio (y) = 0.59556 0.16753
# Poissons Ratio (z) = 0.19319 0.11768
#
# Static dielectric constant tensor:
#      x y z
#    x 5.185890 -0.602280 -0.196260 
#    y -0.602280 6.041840 -0.124240 
#    z -0.196260 -0.124240 4.028060 
# 
# 
# High freq. dielectric constant tensor:
#      x y z
#    x 1.885880 -0.014750 -0.003450 
#    y -0.014750 1.833820 0.027880 
#    z -0.003450 0.027880 1.825950 
# 
# From -- ./inp_files/186402.got.cif
#   From: 2010.06.25/outbox.cif.g09.slc.cpg/sg2_94_cif.got.tgz:186402.got - 2010.06.27 13:26:56.
