data_PCOD8010069
_publ_section_title
;
Structure prediction by ZEFSAII (Michael W. Deem and Ramdas Pophale) SiO2 
 PCOD8010069
Probable space group: P -1
;
_chemical_formula_sum "Si O2"
_cell_formula_units_Z 16
_cell_length_a 5.219121
_cell_length_b 12.091513
_cell_length_c 24.928942
_cell_angle_alpha 29.442225
_cell_angle_beta 99.743714
_cell_angle_gamma 101.338300
_cell_volume 758.197561
_symmetry_space_group_name_H-M "P -1"
_symmetry_group_IT_number 2
_symmetry_cell_setting 'triclinic'
loop_
_space_group_symop_operation_xyz
x,y,z
-x,-y,-z
loop_
_atom_site_type_symbol
_atom_site_label
_atom_site_fract_x
_atom_site_fract_y
_atom_site_fract_z
Si Si1 0.160139 0.320333 0.482045
Si Si2 0.273463 0.524979 0.289571
Si Si3 0.865554 0.720088 0.129353
Si Si4 0.346447 0.123094 0.791617
Si Si5 0.441410 0.395660 0.241014
Si Si6 0.738437 0.137994 0.998565
Si Si7 0.787047 0.183518 0.698411
Si Si8 0.339611 0.932388 0.375642
O O1 0.136088 0.371173 0.396610
O O2 0.248271 0.550180 0.420649
O O3 0.376395 0.149968 0.572080
O O4 0.876157 0.217123 0.534705
O O5 0.549698 0.649634 0.267774
O O6 0.309751 0.361687 0.309107
O O7 0.097025 0.722843 0.181057
O O8 0.753553 0.452140 0.236326
O O9 0.655212 0.894384 0.067726
O O10 0.967105 0.802174 0.039409
O O11 0.573716 0.067787 0.781486
O O12 0.083386 0.164683 0.734029
O O13 0.277791 0.909338 0.918527
O O14 0.352306 0.190442 0.286394
O O15 0.404815 0.639446 0.110020
O O16 0.739342 0.063576 0.690622
#
# Coordination Sequence:
#
# PCOD8010069 Si02
#       8
#     2   2   2   2   2   2   2   2
#     4  11  24  43  71  92 124 169 222 268 312 378
#     4  10  23  39  64 102 127 162 212 269 323 371
#     4  10  21  37  65  93 140 163 211 257 313 395
#     4  11  22  40  72  99 125 160 219 277 309 369
#     4  11  25  39  62  94 142 166 205 260 320 398
#     4  10  21  37  64  98 123 175 212 253 322 376
#     4  11  24  45  70  95 124 164 224 276 309 369
#     4  12  27  45  65  94 130 176 212 262 327 377
#
# _framework density 21.102677
#
# number of rings (size 3 to 8) (size 9 to 14) (size 15 to 20)
#    0.000    1.250    1.250    4.875   10.500    1.000 
#    0.000    1.250    0.000    0.000    0.000    0.000 
#    0.000    0.000    0.000    0.000    0.000    0.000 
#
# Total GULP energy -198262.233733 kJ/mol
# GULP energy per Si atom -12391.389608 kJ/mol
# Density = 2.105465 g / cm^3
# Si number density = 21.102677 Si / 1000 Ang^3
#
#
#
# Elastic Constant Matrix: (Units=GPa)
#
#
# Indices 1 2 3 4 5 6 
#
# 1 98.7882 39.6431 30.8763 12.9663 -3.7054 -3.8455
# 2 39.6431 164.8299 65.5465 -1.9586 -8.6760 -5.9623
# 3 30.8763 65.5465 84.1237 17.8624 -15.8425 -3.0197
# 4 12.9663 -1.9586 17.8624 21.7719 -5.9487 -1.2619
# 5 -3.7054 -8.6760 -15.8425 -5.9487 33.5912 6.5139
# 6 -3.8455 -5.9623 -3.0197 -1.2619 6.5139 19.1310
#
#
#
# Elastic Compliance Matrix: (Units=1/GPa)
#
#
# Indices 1 2 3 4 5 6 
#
# 1 0.012480 -0.002575 -0.001329 -0.006876 -0.001429 0.001529
# 2 -0.002575 0.010675 -0.009610 0.010326 -0.000657 0.002197
# 3 -0.001329 -0.009610 0.024991 -0.019008 0.006320 -0.002723
# 4 -0.006876 0.010326 -0.019008 0.067917 0.004634 0.001738
# 5 -0.001429 -0.000657 0.006320 0.004634 0.035425 -0.011251
# 6 0.001529 0.002197 -0.002723 0.001738 -0.011251 0.056779
#
#
# Mechanical properties :
#
#
# Convention : Reuss Voigt Hill
#
# Bulk Modulus (GPa) = 47.35042 68.87485 58.11264
# Shear Modulus (GPa) = 20.63265 29.01054 24.82159
#
# Velocity S-wave (km/s) = 3.13025 3.71176 3.43334
# Velocity P-wave (km/s) = 5.96251 7.14691 6.58141
#
# Compressibility (1/GPa) = 0.02111914
#
# Stress axis : x y z
#
# Youngs Moduli (GPa) = 80.13120 93.67332 40.01363
#
# Poissons Ratio (x) = 0.24118 0.05316
# Poissons Ratio (y) = 0.20632 0.38454
# Poissons Ratio (z) = 0.10646 0.90023
#
# Static dielectric constant tensor:
#      x y z
#    x 4.148480 -0.069440 -0.166220 
#    y -0.069440 3.656270 0.178240 
#    z -0.166220 0.178240 3.777810 
# 
# 
# High freq. dielectric constant tensor:
#      x y z
#    x 1.851740 -0.005020 -0.008330 
#    y -0.005020 1.798410 0.019140 
#    z -0.008330 0.019140 1.822490 
# 
# From -- ./inp_files/604289.got.cif
#   From: 2010.06.25/outbox.cif.g09.slc.cpg/sg2_303_cif.got.tgz:604289.got - 2010.06.27 13:26:56.
