data_PCOD8010323
_publ_section_title
;
Structure prediction by ZEFSAII (Michael W. Deem and Ramdas Pophale) SiO2 
 PCOD8010323
Probable space group: P -1
;
_chemical_formula_sum "Si O2"
_cell_formula_units_Z 16
_cell_length_a 11.297977
_cell_length_b 8.562749
_cell_length_c 15.222247
_cell_angle_alpha 72.232816
_cell_angle_beta 137.650425
_cell_angle_gamma 127.611021
_cell_volume 755.928228
_symmetry_space_group_name_H-M "P -1"
_symmetry_group_IT_number 2
_symmetry_cell_setting 'triclinic'
loop_
_space_group_symop_operation_xyz
x,y,z
-x,-y,-z
loop_
_atom_site_type_symbol
_atom_site_label
_atom_site_fract_x
_atom_site_fract_y
_atom_site_fract_z
Si Si1 0.260218 0.433684 0.356216
Si Si2 0.419783 0.777967 0.670401
Si Si3 0.836638 0.865247 0.510733
Si Si4 0.369177 0.593377 0.843965
Si Si5 0.729527 0.543676 0.005898
Si Si6 0.581560 0.512738 0.744428
Si Si7 0.787197 0.206759 0.730080
Si Si8 0.906381 0.211164 0.606795
O O1 0.500000 0.500000 0.500000
O O2 0.096157 0.247623 0.366498
O O3 0.223309 0.371450 0.242304
O O4 0.235898 0.612388 0.326868
O O5 0.379960 0.755596 0.757831
O O6 0.512874 0.656920 0.708734
O O7 0.188910 0.678837 0.511550
O O8 0.586238 0.020201 0.705322
O O9 0.608609 0.700484 0.366471
O O10 0.819967 0.013086 0.536896
O O11 0.000000 0.000000 0.500000
O O12 0.603205 0.633097 0.957757
O O13 0.169578 0.367336 0.735647
O O14 0.319002 0.616779 0.914333
O O15 0.651514 0.452322 0.881123
O O16 0.989142 0.716770 0.110198
O O17 0.788037 0.123140 0.650047
#
# Coordination Sequence:
#
# PCOD8010323 Si02
#       8
#     2   2   2   2   2   2   2   2
#     4  10  21  39  57  83 118 149 186 238 297 339
#     4  11  20  35  61  93 116 147 198 246 290 336
#     4  11  22  37  59  86 116 149 189 238 295 343
#     4   9  20  36  59  86 119 152 190 244 289 338
#     4   9  20  39  57  82 119 158 195 230 287 347
#     4  10  21  38  59  83 122 157 186 235 292 349
#     4  11  23  38  62  88 116 153 198 243 281 345
#     4  11  21  37  61  88 117 149 194 243 290 345
#
# _framework density 21.166032999999999
#
# number of rings (size 3 to 8) (size 9 to 14) (size 15 to 20)
#    0.000    1.750    0.000    6.000    0.000    4.500 
#    0.000    2.500    0.000    6.000    0.000    0.000 
#    0.000    0.000    0.000    0.000    0.000    0.000 
#
# Total GULP energy -198221.591659 kJ/mol
# GULP energy per Si atom -12388.849479 kJ/mol
# Density = 2.111786 g / cm^3
# Si number density = 21.166033 Si / 1000 Ang^3
#
#
#
# Elastic Constant Matrix: (Units=GPa)
#
#
# Indices 1 2 3 4 5 6 
#
# 1 97.0735 58.5059 56.7609 -7.1785 -35.2680 12.6791
# 2 58.5059 118.7560 50.0870 -12.7590 -16.7378 19.2333
# 3 56.7609 50.0870 135.9026 -11.3336 -20.3922 10.3666
# 4 -7.1785 -12.7590 -11.3336 17.9641 11.7184 -11.6918
# 5 -35.2680 -16.7378 -20.3922 11.7184 52.5110 -8.7010
# 6 12.6791 19.2333 10.3666 -11.6918 -8.7010 39.3562
#
#
#
# Elastic Compliance Matrix: (Units=1/GPa)
#
#
# Indices 1 2 3 4 5 6 
#
# 1 0.021741 -0.007510 -0.005121 -0.008938 0.011880 -0.002013
# 2 -0.007510 0.013407 -0.001584 0.005819 -0.003128 -0.002678
# 3 -0.005121 -0.001584 0.010262 0.004370 -0.000795 0.000844
# 4 -0.008938 0.005819 0.004370 0.083444 -0.017802 0.019738
# 5 0.011880 -0.003128 -0.000795 -0.017802 0.029549 -0.000845
# 6 -0.002013 -0.002678 0.000844 0.019738 -0.000845 0.032821
#
#
# Mechanical properties :
#
#
# Convention : Reuss Voigt Hill
#
# Bulk Modulus (GPa) = 58.90175 75.82663 67.36419
# Shear Modulus (GPa) = 22.19115 34.39148 28.29132
#
# Velocity S-wave (km/s) = 3.24146 4.03531 3.65997
# Velocity P-wave (km/s) = 6.47289 7.59039 7.05381
#
# Compressibility (1/GPa) = 0.01697742
#
# Stress axis : x y z
#
# Youngs Moduli (GPa) = 45.99652 74.58882 97.44825
#
# Poissons Ratio (x) = 0.56020 0.49907
# Poissons Ratio (y) = 0.34546 0.15437
# Poissons Ratio (z) = 0.23557 0.11816
#
# Static dielectric constant tensor:
#      x y z
#    x 4.224100 0.517790 -0.343910 
#    y 0.517790 3.789000 -0.378950 
#    z -0.343910 -0.378950 4.140940 
# 
# 
# High freq. dielectric constant tensor:
#      x y z
#    x 1.836250 0.025890 -0.013550 
#    y 0.025890 1.806960 -0.021250 
#    z -0.013550 -0.021250 1.833050 
# 
# From -- ./inp_files/515445.got.cif
#   From: 2010.06.25/outbox.cif.g09.slc.cpg/sg2_258_cif.got.tgz:515445.got - 2010.06.27 13:26:56.
