data_PCOD8010585
_publ_section_title
;
Structure prediction by ZEFSAII (Michael W. Deem and Ramdas Pophale) SiO2 
 PCOD8010585
Probable space group: P -1
;
_chemical_formula_sum "Si O2"
_cell_formula_units_Z 12
_cell_length_a 13.361810
_cell_length_b 11.893161
_cell_length_c 7.014606
_cell_angle_alpha 75.536174
_cell_angle_beta 87.444396
_cell_angle_gamma 146.198506
_cell_volume 530.643647
_symmetry_space_group_name_H-M "P -1"
_symmetry_group_IT_number 2
_symmetry_cell_setting 'triclinic'
loop_
_space_group_symop_operation_xyz
x,y,z
-x,-y,-z
loop_
_atom_site_type_symbol
_atom_site_label
_atom_site_fract_x
_atom_site_fract_y
_atom_site_fract_z
Si Si1 0.297170 0.165888 0.294832
Si Si2 0.852763 0.150939 0.244116
Si Si3 0.471730 0.990913 0.728137
Si Si4 0.871052 0.986183 0.009825
Si Si5 0.264587 0.620542 0.179262
Si Si6 0.577185 0.466398 0.817170
O O1 0.271294 0.271190 0.335091
O O2 0.283204 0.057907 0.506455
O O3 0.521302 0.391867 0.079412
O O4 0.126058 0.966805 0.230771
O O5 0.705989 0.094745 0.177995
O O6 0.955843 0.170138 0.069034
O O7 0.029603 0.398439 0.235211
O O8 0.500000 0.000000 0.500000
O O9 0.682657 0.249169 0.693926
O O10 0.409248 0.807876 0.913068
O O11 0.633755 0.725726 0.200769
O O12 0.000000 0.000000 0.000000
O O13 0.305456 0.528107 0.268395
#
# Coordination Sequence:
#
# PCOD8010585 Si02
#       6
#     2   2   2   2   2   2
#     4   9  21  39  60  91 135 160 213 247 308 379
#     4  12  24  41  67  98 125 168 209 259 319 371
#     4  11  25  46  67  91 122 171 213 262 321 368
#     4  10  21  38  61  95 132 167 206 252 313 374
#     4  11  24  43  66  92 131 157 218 267 305 375
#     4   9  19  43  59  90 134 169 197 264 304 369
#
# _framework density 22.614046999999999
#
# number of rings (size 3 to 8) (size 9 to 14) (size 15 to 20)
#    1.000    0.667    1.667    2.500    0.000    5.333 
#    3.000    0.000    0.000    0.000    0.000    0.000 
#    0.000    0.000    0.000    0.000    0.000    0.000 
#
# Total GULP energy -148742.052390 kJ/mol
# GULP energy per Si atom -12395.171033 kJ/mol
# Density = 2.256258 g / cm^3
# Si number density = 22.614047 Si / 1000 Ang^3
#
#
#
# Elastic Constant Matrix: (Units=GPa)
#
#
# Indices 1 2 3 4 5 6 
#
# 1 78.6252 21.7125 2.2614 8.3311 -2.2711 -0.4507
# 2 21.7125 130.5843 27.6057 15.6309 3.6541 -13.9574
# 3 2.2614 27.6057 60.4694 17.2422 1.0730 -15.2321
# 4 8.3311 15.6309 17.2422 30.8510 -4.7815 3.4289
# 5 -2.2711 3.6541 1.0730 -4.7815 24.8880 2.5712
# 6 -0.4507 -13.9574 -15.2321 3.4289 2.5712 36.9706
#
#
#
# Elastic Compliance Matrix: (Units=1/GPa)
#
#
# Indices 1 2 3 4 5 6 
#
# 1 0.013655 -0.002190 0.001455 -0.003279 0.000856 0.000184
# 2 -0.002190 0.009337 -0.002369 -0.003532 -0.002459 0.003021
# 3 0.001455 -0.002369 0.024664 -0.014908 -0.004582 0.010987
# 4 -0.003279 -0.003532 -0.014908 0.046544 0.011107 -0.012605
# 5 0.000856 -0.002459 -0.004582 0.011107 0.043661 -0.006872
# 6 0.000184 0.003021 0.010987 -0.012605 -0.006872 0.034365
#
#
# Mechanical properties :
#
#
# Convention : Reuss Voigt Hill
#
# Bulk Modulus (GPa) = 24.12615 41.42648 32.77631
# Shear Modulus (GPa) = 26.00798 33.08187 29.54492
#
# Velocity S-wave (km/s) = 3.39496 3.82892 3.61846
# Velocity P-wave (km/s) = 5.10485 6.15680 5.65534
#
# Compressibility (1/GPa) = 0.04144881
#
# Stress axis : x y z
#
# Youngs Moduli (GPa) = 73.23522 107.09684 40.54475
#
# Poissons Ratio (x) = 0.23452 -0.05900
# Poissons Ratio (y) = 0.16037 0.09605
# Poissons Ratio (z) = -0.10656 0.25371
#
# Static dielectric constant tensor:
#      x y z
#    x 3.954630 -0.194030 0.090580 
#    y -0.194030 4.095510 0.225470 
#    z 0.090580 0.225470 3.690810 
# 
# 
# High freq. dielectric constant tensor:
#      x y z
#    x 1.887650 -0.011740 0.009070 
#    y -0.011740 1.890600 0.019730 
#    z 0.009070 0.019730 1.865170 
# 
# From -- ./inp_files/95815.got.cif
#   From: 2010.06.25/outbox.cif.g09.slc.cpg/sg2_48_cif.got.tgz:95815.got - 2010.06.27 13:26:56.
