data_PCOD8010584
_publ_section_title
;
Structure prediction by ZEFSAII (Michael W. Deem and Ramdas Pophale) SiO2 
 PCOD8010584
Probable space group: P -1
;
_chemical_formula_sum "Si O2"
_cell_formula_units_Z 14
_cell_length_a 12.402685
_cell_length_b 8.868324
_cell_length_c 9.263114
_cell_angle_alpha 105.429519
_cell_angle_beta 49.114095
_cell_angle_gamma 127.461488
_cell_volume 596.423343
_symmetry_space_group_name_H-M "P -1"
_symmetry_group_IT_number 2
_symmetry_cell_setting 'triclinic'
loop_
_space_group_symop_operation_xyz
x,y,z
-x,-y,-z
loop_
_atom_site_type_symbol
_atom_site_label
_atom_site_fract_x
_atom_site_fract_y
_atom_site_fract_z
Si Si1 0.689700 0.696019 0.418791
Si Si2 0.852523 0.226453 0.099304
Si Si3 0.109976 0.660176 0.227948
Si Si4 0.883590 0.671874 0.852682
Si Si5 0.656024 0.792122 0.176168
Si Si6 0.738935 0.422259 0.437690
Si Si7 0.874009 0.037132 0.536154
O O1 0.500000 0.500000 0.500000
O O2 0.750852 0.830196 0.258502
O O3 0.803681 0.617668 0.338196
O O4 0.703523 0.829434 0.572796
O O5 0.721587 0.258550 0.309890
O O6 0.018172 0.278689 0.065207
O O7 0.733689 0.001450 0.096164
O O8 0.908942 0.347282 0.932085
O O9 0.201072 0.555454 0.166812
O O10 0.200903 0.872205 0.272814
O O11 0.903723 0.509701 0.426420
O O12 0.022630 0.819031 0.650147
O O13 0.717588 0.683120 0.000629
O O14 0.442391 0.662147 0.338772
O O15 0.000000 0.000000 0.500000
#
# Coordination Sequence:
#
# PCOD8010584 Si02
#       7
#     2   2   2   2   2   2   2
#     4  10  21  39  64  94 131 171 220 265 331 386
#     4  11  21  39  67  98 129 171 232 269 316 394
#     4  11  23  41  66  97 135 170 221 273 330 384
#     4  11  23  39  65  98 131 176 221 271 319 403
#     4  11  21  37  65  94 129 168 226 265 321 380
#     4  10  21  38  61  95 130 173 214 275 323 386
#     4  12  23  40  67  99 134 172 221 273 332 391
#
# _framework density 23.47326
#
# number of rings (size 3 to 8) (size 9 to 14) (size 15 to 20)
#    0.000    1.143    2.857    5.571    0.000    0.000 
#    0.000    0.714    3.143    6.857    0.000    0.000 
#    0.000    0.000    0.000    0.000    0.000    0.000 
#
# Total GULP energy -173454.283222 kJ/mol
# GULP energy per Si atom -12389.591659 kJ/mol
# Density = 2.341983 g / cm^3
# Si number density = 23.473260 Si / 1000 Ang^3
#
#
#
# Elastic Constant Matrix: (Units=GPa)
#
#
# Indices 1 2 3 4 5 6 
#
# 1 43.4463 41.8139 26.4598 10.4189 -4.0166 -7.1325
# 2 41.8139 147.1013 37.4778 38.5040 -9.7166 -10.4483
# 3 26.4598 37.4778 86.3002 23.0062 -18.3087 -1.6112
# 4 10.4189 38.5040 23.0062 47.4305 -7.5815 1.7276
# 5 -4.0166 -9.7166 -18.3087 -7.5815 38.5833 6.7185
# 6 -7.1325 -10.4483 -1.6112 1.7276 6.7185 37.3383
#
#
#
# Elastic Compliance Matrix: (Units=1/GPa)
#
#
# Indices 1 2 3 4 5 6 
#
# 1 0.036528 -0.008742 -0.008607 0.002642 -0.002753 0.004533
# 2 -0.008742 0.011384 -0.000283 -0.007238 0.000083 0.001823
# 3 -0.008607 -0.000283 0.017026 -0.005036 0.006456 -0.001917
# 4 0.002642 -0.007238 -0.005036 0.029341 0.002443 -0.003535
# 5 -0.002753 0.000083 0.006456 0.002443 0.030201 -0.005771
# 6 0.004533 0.001823 -0.001917 -0.003535 -0.005771 0.029278
#
#
# Mechanical properties :
#
#
# Convention : Reuss Voigt Hill
#
# Bulk Modulus (GPa) = 33.69816 54.26120 43.97968
# Shear Modulus (GPa) = 25.13665 36.07684 30.60674
#
# Velocity S-wave (km/s) = 3.27595 3.92463 3.61487
# Velocity P-wave (km/s) = 5.35689 6.61085 6.01663
#
# Compressibility (1/GPa) = 0.02967521
#
# Stress axis : x y z
#
# Youngs Moduli (GPa) = 27.37601 87.83963 58.73490
#
# Poissons Ratio (x) = 0.76788 0.50554
# Poissons Ratio (y) = 0.23932 0.01660
# Poissons Ratio (z) = 0.23563 0.02482
#
# Static dielectric constant tensor:
#      x y z
#    x 4.721390 -0.738460 0.006390 
#    y -0.738460 4.590730 0.287460 
#    z 0.006390 0.287460 4.081610 
# 
# 
# High freq. dielectric constant tensor:
#      x y z
#    x 1.911820 -0.032560 0.002450 
#    y -0.032560 1.942790 0.015460 
#    z 0.002450 0.015460 1.911070 
# 
# From -- ./inp_files/244849.got.cif
#   From: 2010.06.25/outbox.cif.g09.slc.cpg/sg2_123_cif.got.tgz:244849.got - 2010.06.27 13:26:56.
