data_PCOD8010085
_publ_section_title
;
Structure prediction by ZEFSAII (Michael W. Deem and Ramdas Pophale) SiO2 
 PCOD8010085
Probable space group: P -1
;
_chemical_formula_sum "Si O2"
_cell_formula_units_Z 16
_cell_length_a 7.584045
_cell_length_b 15.353038
_cell_length_c 9.488626
_cell_angle_alpha 45.349684
_cell_angle_beta 76.767215
_cell_angle_gamma 94.479633
_cell_volume 718.122662
_symmetry_space_group_name_H-M "P -1"
_symmetry_group_IT_number 2
_symmetry_cell_setting 'triclinic'
loop_
_space_group_symop_operation_xyz
x,y,z
-x,-y,-z
loop_
_atom_site_type_symbol
_atom_site_label
_atom_site_fract_x
_atom_site_fract_y
_atom_site_fract_z
Si Si1 0.016287 0.296396 0.778987
Si Si2 0.577791 0.725334 0.921293
Si Si3 0.427252 0.734905 0.394057
Si Si4 0.763142 0.863366 0.982750
Si Si5 0.725423 0.431103 0.656584
Si Si6 0.703410 0.356157 0.180189
Si Si7 0.896969 0.656227 0.791152
Si Si8 0.889624 0.154059 0.690504
O O1 0.182039 0.414126 0.538038
O O2 0.859111 0.358500 0.793097
O O3 0.926205 0.177991 0.821779
O O4 0.105172 0.228601 0.959902
O O5 0.630501 0.847043 0.884454
O O6 0.437359 0.734834 0.809340
O O7 0.778330 0.719997 0.837179
O O8 0.468644 0.599866 0.182170
O O9 0.308941 0.620204 0.439255
O O10 0.420469 0.669119 0.623327
O O11 0.320865 0.840411 0.311939
O O12 0.639867 0.812211 0.207072
O O13 0.893730 0.013223 0.806127
O O14 0.900857 0.325795 0.189175
O O15 0.763780 0.507543 0.953028
O O16 0.942088 0.733717 0.548598
#
# Coordination Sequence:
#
# PCOD8010085 Si02
#       8
#     2   2   2   2   2   2   2   2
#     4  10  21  37  65  92 123 163 205 267 311 361
#     4  11  24  38  62  95 125 164 203 258 310 374
#     4   9  21  39  64  88 120 160 210 262 307 365
#     4  11  24  37  64  91 126 167 212 251 304 372
#     4   9  21  39  62  95 126 152 208 266 322 353
#     4  10  22  41  65  93 125 162 205 258 322 363
#     4  10  23  39  66  89 128 165 204 257 311 374
#     4  10  21  43  59  89 126 171 209 251 302 374
#
# _framework density 22.280315999999999
#
# number of rings (size 3 to 8) (size 9 to 14) (size 15 to 20)
#    0.000    2.000    0.000    1.875    7.000    3.500 
#    0.000    2.500    0.000    0.000    0.000    0.000 
#    0.000    0.000    0.000    0.000    0.000    0.000 
#
# Total GULP energy -198323.053638 kJ/mol
# GULP energy per Si atom -12395.190852 kJ/mol
# Density = 2.222960 g / cm^3
# Si number density = 22.280316 Si / 1000 Ang^3
#
#
#
# Elastic Constant Matrix: (Units=GPa)
#
#
# Indices 1 2 3 4 5 6 
#
# 1 60.2774 31.0809 33.5251 3.8070 10.4083 6.8732
# 2 31.0809 68.2535 23.5931 -2.4872 12.0079 10.9471
# 3 33.5251 23.5931 80.5795 5.2181 2.0372 1.8526
# 4 3.8070 -2.4872 5.2181 37.6036 -5.6831 0.5456
# 5 10.4083 12.0079 2.0372 -5.6831 24.0918 4.3932
# 6 6.8732 10.9471 1.8526 0.5456 4.3932 33.8346
#
#
#
# Elastic Compliance Matrix: (Units=1/GPa)
#
#
# Indices 1 2 3 4 5 6 
#
# 1 0.027090 -0.007960 -0.008510 -0.003202 -0.007510 -0.001435
# 2 -0.007960 0.020945 -0.002697 0.001787 -0.005563 -0.004318
# 3 -0.008510 -0.002697 0.016709 -0.001187 0.003090 0.001304
# 4 -0.003202 0.001787 -0.001187 0.028355 0.007518 -0.001296
# 5 -0.007510 -0.005563 0.003090 0.007518 0.049660 -0.003413
# 6 -0.001435 -0.004318 0.001304 -0.001296 -0.003413 0.031637
#
#
# Mechanical properties :
#
#
# Convention : Reuss Voigt Hill
#
# Bulk Modulus (GPa) = 37.86295 42.83428 40.34862
# Shear Modulus (GPa) = 22.57005 27.16675 24.86840
#
# Velocity S-wave (km/s) = 3.18623 3.49566 3.34452
# Velocity P-wave (km/s) = 5.52873 5.96320 5.75007
#
# Compressibility (1/GPa) = 0.02641104
#
# Stress axis : x y z
#
# Youngs Moduli (GPa) = 36.91381 47.74508 59.84791
#
# Poissons Ratio (x) = 0.38004 0.50931
# Poissons Ratio (y) = 0.29382 0.16138
# Poissons Ratio (z) = 0.31414 0.12875
#
# Static dielectric constant tensor:
#      x y z
#    x 4.074300 0.024510 -0.023490 
#    y 0.024510 3.765200 0.139980 
#    z -0.023490 0.139980 3.853070 
# 
# 
# High freq. dielectric constant tensor:
#      x y z
#    x 1.880290 0.004170 -0.006510 
#    y 0.004170 1.864630 0.013190 
#    z -0.006510 0.013190 1.859840 
# 
# From -- ./inp_files/199433.got.cif
#   From: 2010.06.25/outbox.cif.g09.slc.cpg/sg2_100_cif.got.tgz:199433.got - 2010.06.27 13:26:56.
