data_PCOD8010213
_publ_section_title
;
Structure prediction by ZEFSAII (Michael W. Deem and Ramdas Pophale) SiO2 
 PCOD8010213
Probable space group: P -1
;
_chemical_formula_sum "Si O2"
_cell_formula_units_Z 14
_cell_length_a 9.404045
_cell_length_b 16.846348
_cell_length_c 13.172406
_cell_angle_alpha 154.671693
_cell_angle_beta 45.185110
_cell_angle_gamma 128.348807
_cell_volume 632.357099
_symmetry_space_group_name_H-M "P -1"
_symmetry_group_IT_number 2
_symmetry_cell_setting 'triclinic'
loop_
_space_group_symop_operation_xyz
x,y,z
-x,-y,-z
loop_
_atom_site_type_symbol
_atom_site_label
_atom_site_fract_x
_atom_site_fract_y
_atom_site_fract_z
Si Si1 0.705552 0.489900 0.946466
Si Si2 0.734487 0.464236 0.494478
Si Si3 0.698658 0.590504 0.296636
Si Si4 0.725887 0.973470 0.813390
Si Si5 0.895056 0.355513 0.093949
Si Si6 0.929199 0.767663 0.843280
Si Si7 0.061192 0.849861 0.652426
O O1 0.803019 0.282169 0.641161
O O2 0.862484 0.643948 0.010237
O O3 0.500000 0.500000 0.000000
O O4 0.660901 0.523514 0.125144
O O5 0.510246 0.406361 0.535287
O O6 0.793091 0.510619 0.401904
O O7 0.756360 0.620613 0.751185
O O8 0.889195 0.288858 0.237592
O O9 0.759736 0.804261 0.519505
O O10 0.854120 0.440657 0.100082
O O11 0.854820 0.917767 0.782416
O O12 0.500000 0.000000 0.000000
O O13 0.803198 0.155189 0.925905
O O14 0.021020 0.755549 0.670413
O O15 0.825854 0.962576 0.157534
#
# Coordination Sequence:
#
# PCOD8010213 Si02
#       7
#     2   2   2   2   2   2   2
#     4  12  28  50  71 100 146 195 238 293 359 427
#     4  11  21  41  72 105 135 183 239 292 358 419
#     4  12  26  46  73 103 147 187 233 294 365 421
#     4  12  25  43  74 111 139 181 244 292 354 430
#     4  12  25  46  74 102 145 188 234 295 353 421
#     4  10  21  37  70 102 138 178 235 291 358 399
#     4  11  22  42  67  99 147 181 233 299 346 419
#
# _framework density 22.139389999999999
#
# number of rings (size 3 to 8) (size 9 to 14) (size 15 to 20)
#    0.000    0.571    5.714    1.714    4.000    1.714 
#    0.000    1.429    0.000    0.000    0.000    0.000 
#    0.000    0.000    0.000    0.000    0.000    0.000 
#
# Total GULP energy -173491.183057 kJ/mol
# GULP energy per Si atom -12392.227361 kJ/mol
# Density = 2.208900 g / cm^3
# Si number density = 22.139390 Si / 1000 Ang^3
#
#
#
# Elastic Constant Matrix: (Units=GPa)
#
#
# Indices 1 2 3 4 5 6 
#
# 1 129.8677 50.3477 43.6778 2.6087 3.0853 6.3328
# 2 50.3477 92.5104 40.2618 4.7884 -3.1944 9.7149
# 3 43.6778 40.2618 114.0109 13.9988 19.7869 1.5893
# 4 2.6087 4.7884 13.9988 38.0948 -3.5765 5.2695
# 5 3.0853 -3.1944 19.7869 -3.5765 30.6353 -9.6918
# 6 6.3328 9.7149 1.5893 5.2695 -9.6918 39.0974
#
#
#
# Elastic Compliance Matrix: (Units=1/GPa)
#
#
# Indices 1 2 3 4 5 6 
#
# 1 0.010283 -0.004522 -0.002435 0.000835 -0.000014 -0.000559
# 2 -0.004522 0.015609 -0.004635 0.000745 0.004553 -0.001929
# 3 -0.002435 -0.004635 0.013703 -0.005110 -0.009933 -0.000785
# 4 0.000835 0.000745 -0.005110 0.028880 0.005858 -0.002553
# 5 -0.000014 0.004553 -0.009933 0.005858 0.043120 0.009174
# 6 -0.000559 -0.001929 -0.000785 -0.002553 0.009174 0.028797
#
#
# Mechanical properties :
#
#
# Convention : Reuss Voigt Hill
#
# Bulk Modulus (GPa) = 60.93024 67.21819 64.07421
# Shear Modulus (GPa) = 29.57782 35.03894 32.30838
#
# Velocity S-wave (km/s) = 3.65907 3.98257 3.82424
# Velocity P-wave (km/s) = 6.74038 7.18158 6.96447
#
# Compressibility (1/GPa) = 0.01641221
#
# Stress axis : x y z
#
# Youngs Moduli (GPa) = 97.24931 64.06676 72.97694
#
# Poissons Ratio (x) = 0.28968 0.17770
# Poissons Ratio (y) = 0.43972 0.33822
# Poissons Ratio (z) = 0.23680 0.29692
#
# Static dielectric constant tensor:
#      x y z
#    x 4.238770 0.128590 0.246250 
#    y 0.128590 3.910900 0.225280 
#    z 0.246250 0.225280 4.101260 
# 
# 
# High freq. dielectric constant tensor:
#      x y z
#    x 1.890300 0.000960 0.022680 
#    y 0.000960 1.858930 0.010980 
#    z 0.022680 0.010980 1.869460 
# 
# From -- ./inp_files/382804.got.cif
#   From: 2010.06.25/outbox.cif.g09.slc.cpg/sg2_192_cif.got.tgz:382804.got - 2010.06.27 13:26:56.
