data_PCOD8010841
_publ_section_title
;
Structure prediction by ZEFSAII (Michael W. Deem and Ramdas Pophale) SiO2 
 PCOD8010841
Probable space group: P -1
;
_chemical_formula_sum "Si O2"
_cell_formula_units_Z 16
_cell_length_a 8.341504
_cell_length_b 16.771913
_cell_length_c 11.488677
_cell_angle_alpha 68.026060
_cell_angle_beta 124.888673
_cell_angle_gamma 140.965792
_cell_volume 822.631673
_symmetry_space_group_name_H-M "P -1"
_symmetry_group_IT_number 2
_symmetry_cell_setting 'triclinic'
loop_
_space_group_symop_operation_xyz
x,y,z
-x,-y,-z
loop_
_atom_site_type_symbol
_atom_site_label
_atom_site_fract_x
_atom_site_fract_y
_atom_site_fract_z
Si Si1 0.655110 0.800683 0.768297
Si Si2 0.987109 0.666214 0.179910
Si Si3 0.195511 0.572877 0.872954
Si Si4 0.642118 0.687279 0.169970
Si Si5 0.128955 0.972745 0.154405
Si Si6 0.726672 0.361089 0.519002
Si Si7 0.235856 0.900393 0.030556
Si Si8 0.596281 0.442006 0.623926
O O1 0.457780 0.697223 0.841904
O O2 0.521293 0.739283 0.621211
O O3 0.679424 0.912559 0.734439
O O4 0.964895 0.855591 0.877416
O O5 0.864753 0.542912 0.132386
O O6 0.732466 0.642491 0.140240
O O7 0.176092 0.697478 0.352372
O O8 0.173011 0.779610 0.099091
O O9 0.920271 0.546149 0.756779
O O10 0.317830 0.612103 0.035129
O O11 0.630074 0.651659 0.316561
O O12 0.870632 0.839005 0.184722
O O13 0.311769 0.967323 0.151591
O O14 0.000000 0.000000 0.000000
O O15 0.574357 0.366831 0.552638
O O16 0.000000 0.500000 0.500000
O O17 0.500000 0.000000 0.000000
O O18 0.500000 0.500000 0.500000
#
# Coordination Sequence:
#
# PCOD8010841 Si02
#       8
#     2   2   2   2   2   2   2   2
#     4  11  21  41  64  88 122 167 207 240 309 372
#     4  10  21  38  64  90 126 158 201 249 315 364
#     4  11  21  38  65  93 119 162 201 255 313 358
#     4  11  21  39  62  93 123 156 207 254 302 363
#     4   9  19  39  62  83 123 162 199 248 300 357
#     4  11  22  41  61  87 128 166 196 247 315 369
#     4  10  22  41  62  94 122 159 208 260 297 353
#     4  11  25  39  58  93 127 159 200 256 310 360
#
# _framework density 19.449773
#
# number of rings (size 3 to 8) (size 9 to 14) (size 15 to 20)
#    0.000    1.500    6.250    1.500    0.000    4.000 
#    4.500    5.000    0.000    0.000    0.000    0.000 
#    0.000    0.000    0.000    0.000    0.000    0.000 
#
# Total GULP energy -198331.432357 kJ/mol
# GULP energy per Si atom -12395.714522 kJ/mol
# Density = 1.940550 g / cm^3
# Si number density = 19.449773 Si / 1000 Ang^3
#
#
#
# Elastic Constant Matrix: (Units=GPa)
#
#
# Indices 1 2 3 4 5 6 
#
# 1 73.0335 64.3416 42.2895 -4.1976 0.8956 4.2925
# 2 64.3416 152.8023 65.0781 -9.2615 -2.1432 1.4191
# 3 42.2895 65.0781 129.3761 -3.3747 -7.0534 -2.8965
# 4 -4.1976 -9.2615 -3.3747 31.6435 -2.5036 -6.2915
# 5 0.8956 -2.1432 -7.0534 -2.5036 34.2321 -2.4283
# 6 4.2925 1.4191 -2.8965 -6.2915 -2.4283 34.4022
#
#
#
# Elastic Compliance Matrix: (Units=1/GPa)
#
#
# Indices 1 2 3 4 5 6 
#
# 1 0.023278 -0.008283 -0.003642 -0.000513 -0.002136 -0.003114
# 2 -0.008283 0.011409 -0.002931 0.002118 0.000535 0.000741
# 3 -0.003642 -0.002931 0.010561 0.000295 0.002228 0.001676
# 4 -0.000513 0.002118 0.000295 0.033702 0.003125 0.006385
# 5 -0.002136 0.000535 0.002228 0.003125 0.030212 0.003136
# 6 -0.003114 0.000741 0.001676 0.006385 0.003136 0.030956
#
#
# Mechanical properties :
#
#
# Convention : Reuss Voigt Hill
#
# Bulk Modulus (GPa) = 64.36289 77.62557 70.99423
# Shear Modulus (GPa) = 28.57006 32.28908 30.42957
#
# Velocity S-wave (km/s) = 3.83680 4.07888 3.95969
# Velocity P-wave (km/s) = 7.26579 7.88546 7.58196
#
# Compressibility (1/GPa) = 0.01553690
#
# Stress axis : x y z
#
# Youngs Moduli (GPa) = 42.95868 87.64826 94.69026
#
# Poissons Ratio (x) = 0.72598 0.34488
# Poissons Ratio (y) = 0.35582 0.27750
# Poissons Ratio (z) = 0.15646 0.25686
#
# Static dielectric constant tensor:
#      x y z
#    x 3.885020 -0.339730 0.112220 
#    y -0.339730 3.794740 -0.076190 
#    z 0.112220 -0.076190 3.896350 
# 
# 
# High freq. dielectric constant tensor:
#      x y z
#    x 1.754060 -0.003790 -0.004210 
#    y -0.003790 1.759280 -0.010650 
#    z -0.004210 -0.010650 1.757540 
# 
# From -- ./inp_files/271918.got.cif
#   From: 2010.06.25/outbox.cif.g09.slc.cpg/sg2_136_cif.got.tgz:271918.got - 2010.06.27 13:26:56.
