data_PCOD8010733
_publ_section_title
;
Structure prediction by ZEFSAII (Michael W. Deem and Ramdas Pophale) SiO2 
 PCOD8010733
Probable space group: P -1
;
_chemical_formula_sum "Si O2"
_cell_formula_units_Z 16
_cell_length_a 16.049874
_cell_length_b 14.044170
_cell_length_c 6.797443
_cell_angle_alpha 106.278536
_cell_angle_beta 139.185431
_cell_angle_gamma 52.560394
_cell_volume 745.913659
_symmetry_space_group_name_H-M "P -1"
_symmetry_group_IT_number 2
_symmetry_cell_setting 'triclinic'
loop_
_space_group_symop_operation_xyz
x,y,z
-x,-y,-z
loop_
_atom_site_type_symbol
_atom_site_label
_atom_site_fract_x
_atom_site_fract_y
_atom_site_fract_z
Si Si1 0.584350 0.078620 0.540244
Si Si2 0.292537 0.197024 0.365567
Si Si3 0.807706 0.099628 0.221475
Si Si4 0.942591 0.415734 0.842612
Si Si5 0.714714 0.502662 0.840103
Si Si6 0.700476 0.617794 0.247162
Si Si7 0.655498 0.327255 0.814836
Si Si8 0.355253 0.805631 0.622906
O O1 0.406114 0.183434 0.384254
O O2 0.583066 0.130188 0.355361
O O3 0.623503 0.944612 0.491536
O O4 0.724346 0.054361 0.917825
O O5 0.276783 0.282598 0.567791
O O6 0.104499 0.270390 0.997421
O O7 0.775775 0.097678 0.394006
O O8 0.744667 0.238273 0.114166
O O9 0.000000 0.000000 0.500000
O O10 0.864411 0.416965 0.908138
O O11 0.800596 0.483008 0.463850
O O12 0.000000 0.500000 0.000000
O O13 0.703244 0.417673 0.925455
O O14 0.540550 0.596700 0.469609
O O15 0.750435 0.583087 0.084549
O O16 0.507600 0.685260 0.948874
O O17 0.720792 0.238851 0.684361
#
# Coordination Sequence:
#
# PCOD8010733 Si02
#       8
#     2   2   2   2   2   2   2   2
#     4  10  23  43  61  87 126 162 211 250 302 366
#     4  10  22  42  60  89 127 166 201 256 299 363
#     4  11  23  40  63  90 118 159 208 258 311 356
#     4  10  23  37  60  91 128 157 199 259 309 354
#     4  10  21  40  61  93 122 165 201 251 311 370
#     4  10  21  38  63  88 121 163 202 243 309 368
#     4   9  22  39  63  87 125 158 205 255 302 371
#     4  10  21  39  65  85 119 164 200 256 307 366
#
# _framework density 21.450205
#
# number of rings (size 3 to 8) (size 9 to 14) (size 15 to 20)
#    0.000    2.000    1.250    0.750    8.750    8.500 
#    0.000    3.750    0.000    0.000    0.000    0.000 
#    0.000    0.000    0.000    0.000    0.000    0.000 
#
# Total GULP energy -198297.704519 kJ/mol
# GULP energy per Si atom -12393.606532 kJ/mol
# Density = 2.140138 g / cm^3
# Si number density = 21.450205 Si / 1000 Ang^3
#
#
#
# Elastic Constant Matrix: (Units=GPa)
#
#
# Indices 1 2 3 4 5 6 
#
# 1 140.2959 50.0599 64.9182 -17.2792 1.8709 -23.5985
# 2 50.0599 85.7243 48.8699 -14.2667 2.1936 -8.9878
# 3 64.9182 48.8699 89.0965 -16.0187 0.1644 -21.5164
# 4 -17.2792 -14.2667 -16.0187 31.5466 -2.7491 5.2160
# 5 1.8709 2.1936 0.1644 -2.7491 22.8683 -8.4324
# 6 -23.5985 -8.9878 -21.5164 5.2160 -8.4324 33.7396
#
#
#
# Elastic Compliance Matrix: (Units=1/GPa)
#
#
# Indices 1 2 3 4 5 6 
#
# 1 0.011601 -0.002904 -0.005674 0.001628 0.000931 0.003703
# 2 -0.002904 0.018198 -0.008178 0.002847 -0.002373 -0.003432
# 3 -0.005674 -0.008178 0.022647 0.003635 0.004818 0.008937
# 4 0.001628 0.002847 0.003635 0.036123 0.003751 -0.000431
# 5 0.000931 -0.002373 0.004818 0.003751 0.049813 0.014962
# 6 0.003703 -0.003432 0.008937 -0.000431 0.014962 0.040820
#
#
# Mechanical properties :
#
#
# Convention : Reuss Voigt Hill
#
# Bulk Modulus (GPa) = 52.81976 71.42365 62.12170
# Shear Modulus (GPa) = 22.82827 27.71549 25.27188
#
# Velocity S-wave (km/s) = 3.26582 3.59846 3.43616
# Velocity P-wave (km/s) = 6.23687 7.11582 6.69079
#
# Compressibility (1/GPa) = 0.01893231
#
# Stress axis : x y z
#
# Youngs Moduli (GPa) = 86.20212 54.95025 44.15546
#
# Poissons Ratio (x) = 0.15958 0.25056
# Poissons Ratio (y) = 0.25034 0.36112
# Poissons Ratio (z) = 0.48915 0.44940
#
# Static dielectric constant tensor:
#      x y z
#    x 3.766510 -0.122410 -0.006120 
#    y -0.122410 3.998090 -0.234880 
#    z -0.006120 -0.234880 4.173950 
# 
# 
# High freq. dielectric constant tensor:
#      x y z
#    x 1.830920 -0.006780 -0.002600 
#    y -0.006780 1.837580 -0.008100 
#    z -0.002600 -0.008100 1.840410 
# 
# From -- ./inp_files/98368.got.cif
#   From: 2010.06.25/outbox.cif.g09.slc.cpg/sg2_50_cif.got.tgz:98368.got - 2010.06.27 13:26:56.
