data_PCOD8010415
_publ_section_title
;
Structure prediction by ZEFSAII (Michael W. Deem and Ramdas Pophale) SiO2 
 PCOD8010415
Probable space group: P -1
;
_chemical_formula_sum "Si O2"
_cell_formula_units_Z 16
_cell_length_a 9.398179
_cell_length_b 15.768830
_cell_length_c 12.100092
_cell_angle_alpha 130.052234
_cell_angle_beta 53.776604
_cell_angle_gamma 144.684624
_cell_volume 784.646204
_symmetry_space_group_name_H-M "P -1"
_symmetry_group_IT_number 2
_symmetry_cell_setting 'triclinic'
loop_
_space_group_symop_operation_xyz
x,y,z
-x,-y,-z
loop_
_atom_site_type_symbol
_atom_site_label
_atom_site_fract_x
_atom_site_fract_y
_atom_site_fract_z
Si Si1 0.187399 0.236884 0.680437
Si Si2 0.898535 0.402534 0.633780
Si Si3 0.764880 0.607987 0.411578
Si Si4 0.849705 0.819855 0.914067
Si Si5 0.326970 0.092470 0.352495
Si Si6 0.361982 0.223916 0.805055
Si Si7 0.872616 0.282119 0.311043
Si Si8 0.117046 0.135364 0.301594
O O1 0.264010 0.381643 0.698633
O O2 0.312291 0.181861 0.526198
O O3 0.296203 0.290297 0.800057
O O4 0.889170 0.094358 0.691584
O O5 0.628778 0.287333 0.716489
O O6 0.898811 0.319228 0.460041
O O7 0.098031 0.446458 0.669445
O O8 0.977667 0.560160 0.694477
O O9 0.500000 0.500000 0.500000
O O10 0.935000 0.782537 0.527765
O O11 0.740599 0.765887 0.794142
O O12 0.025518 0.792623 0.828740
O O13 0.642436 0.725696 0.027088
O O14 0.000000 0.000000 0.000000
O O15 0.588251 0.148724 0.292076
O O16 0.303282 0.133732 0.275736
O O17 0.154137 0.036360 0.736990
#
# Coordination Sequence:
#
# PCOD8010415 Si02
#       8
#     2   2   2   2   2   2   2   2
#     4   9  18  33  56  86 117 151 192 244 297 339
#     4  11  23  36  59  92 116 155 197 252 293 340
#     4  11  22  35  58  89 121 151 192 249 304 343
#     4  10  22  41  59  86 121 163 194 239 297 354
#     4   9  17  34  59  84 115 153 192 249 291 340
#     4  10  21  38  60  87 121 156 203 235 297 354
#     4  11  22  38  59  88 120 153 204 242 293 352
#     4   9  19  37  59  87 121 157 194 242 297 349
#
# _framework density 20.391355999999998
#
# number of rings (size 3 to 8) (size 9 to 14) (size 15 to 20)
#    0.000    2.000    2.500    2.250    1.750    3.000 
#    0.000    6.875    0.000    2.250    0.000    0.000 
#    0.000    0.000    0.000    0.000    0.000    0.000 
#
# Total GULP energy -198339.763875 kJ/mol
# GULP energy per Si atom -12396.235242 kJ/mol
# Density = 2.034494 g / cm^3
# Si number density = 20.391356 Si / 1000 Ang^3
#
#
#
# Elastic Constant Matrix: (Units=GPa)
#
#
# Indices 1 2 3 4 5 6 
#
# 1 117.7229 52.1266 35.0467 -23.4444 -4.0669 -15.4076
# 2 52.1266 78.2166 30.4716 -23.3044 -5.7896 -4.8425
# 3 35.0467 30.4716 76.1093 -24.2374 -3.2139 -13.0888
# 4 -23.4444 -23.3044 -24.2374 30.2169 -12.9540 2.1666
# 5 -4.0669 -5.7896 -3.2139 -12.9540 35.3644 -7.8977
# 6 -15.4076 -4.8425 -13.0888 2.1666 -7.8977 33.9585
#
#
#
# Elastic Compliance Matrix: (Units=1/GPa)
#
#
# Indices 1 2 3 4 5 6 
#
# 1 0.013633 -0.006189 -0.000446 0.006884 0.004307 0.005693
# 2 -0.006189 0.022660 -0.000466 0.016133 0.009166 0.001346
# 3 -0.000446 -0.000466 0.022818 0.022149 0.012286 0.009970
# 4 0.006884 0.016133 0.022149 0.084713 0.040490 0.017973
# 5 0.004307 0.009166 0.012286 0.040490 0.050028 0.017048
# 6 0.005693 0.001346 0.009970 0.017973 0.017048 0.038884
#
#
# Mechanical properties :
#
#
# Convention : Reuss Voigt Hill
#
# Bulk Modulus (GPa) = 22.26812 56.37097 39.31954
# Shear Modulus (GPa) = 19.09069 30.20156 24.64612
#
# Velocity S-wave (km/s) = 3.06308 3.85268 3.48034
# Velocity P-wave (km/s) = 4.84294 6.89169 5.95606
#
# Compressibility (1/GPa) = 0.04490725
#
# Stress axis : x y z
#
# Youngs Moduli (GPa) = 73.35229 44.13094 43.82525
#
# Poissons Ratio (x) = 0.27313 0.01956
# Poissons Ratio (y) = 0.45399 0.02043
# Poissons Ratio (z) = 0.03275 0.02057
#
# Static dielectric constant tensor:
#      x y z
#    x 3.825130 -0.253380 0.422850 
#    y -0.253380 3.745170 -0.264010 
#    z 0.422850 -0.264010 3.875630 
# 
# 
# High freq. dielectric constant tensor:
#      x y z
#    x 1.800850 -0.012320 0.018250 
#    y -0.012320 1.796830 -0.014890 
#    z 0.018250 -0.014890 1.767050 
# 
# From -- ./inp_files/206464.got.cif
#   From: 2010.06.25/outbox.cif.g09.slc.cpg/sg2_104_cif.got.tgz:206464.got - 2010.06.27 13:26:56.
