data_PCOD8010535
_publ_section_title
;
Structure prediction by ZEFSAII (Michael W. Deem and Ramdas Pophale) SiO2 
 PCOD8010535
Probable space group: P -1
;
_chemical_formula_sum "Si O2"
_cell_formula_units_Z 16
_cell_length_a 9.968111
_cell_length_b 15.076764
_cell_length_c 11.114874
_cell_angle_alpha 41.058490
_cell_angle_beta 65.122249
_cell_angle_gamma 46.323308
_cell_volume 775.735821
_symmetry_space_group_name_H-M "P -1"
_symmetry_group_IT_number 2
_symmetry_cell_setting 'triclinic'
loop_
_space_group_symop_operation_xyz
x,y,z
-x,-y,-z
loop_
_atom_site_type_symbol
_atom_site_label
_atom_site_fract_x
_atom_site_fract_y
_atom_site_fract_z
Si Si1 0.374896 0.178100 0.934827
Si Si2 0.200293 0.661313 0.495906
Si Si3 0.376787 0.728739 0.906345
Si Si4 0.016777 0.502361 0.631121
Si Si5 0.441240 0.673608 0.205640
Si Si6 0.092429 0.303678 0.120572
Si Si7 0.927629 0.949061 0.469851
Si Si8 0.756885 0.480077 0.901623
O O1 0.190564 0.305041 0.794985
O O2 0.519091 0.220229 0.835634
O O3 0.294474 0.199917 0.079599
O O4 0.500000 0.000000 0.000000
O O5 0.055036 0.627695 0.544012
O O6 0.289709 0.664733 0.335891
O O7 0.356513 0.520663 0.678090
O O8 0.092874 0.844259 0.415734
O O9 0.594208 0.637197 0.885522
O O10 0.250625 0.885496 0.700983
O O11 0.356704 0.774682 0.007709
O O12 0.330761 0.596604 0.055696
O O13 0.000000 0.500000 0.500000
O O14 0.821917 0.558387 0.704176
O O15 0.124160 0.175253 0.344428
O O16 0.000000 0.500000 0.000000
O O17 0.935602 0.327907 0.067602
O O18 0.000000 0.000000 0.500000
#
# Coordination Sequence:
#
# PCOD8010535 Si02
#       8
#     2   2   2   2   2   2   2   2
#     4  10  23  38  63  93 123 167 210 266 327 378
#     4  10  23  41  65  93 130 173 219 262 325 397
#     4  11  23  38  62  97 125 171 214 278 322 378
#     4  10  21  40  62  91 126 174 214 260 322 395
#     4  10  22  42  65  91 129 172 214 262 328 399
#     4  11  22  44  67  86 131 178 214 263 331 396
#     4  12  25  40  63  99 130 164 221 275 323 382
#     4  10  21  38  61  89 128 169 220 254 327 388
#
# _framework density 20.625578999999998
#
# number of rings (size 3 to 8) (size 9 to 14) (size 15 to 20)
#    0.000    1.500    1.250    4.500    3.500    2.500 
#    0.000    4.375    0.000    0.000    0.000    0.000 
#    0.000    0.000    0.000    0.000    0.000    0.000 
#
# Total GULP energy -198295.922773 kJ/mol
# GULP energy per Si atom -12393.495173 kJ/mol
# Density = 2.057863 g / cm^3
# Si number density = 20.625579 Si / 1000 Ang^3
#
#
#
# Elastic Constant Matrix: (Units=GPa)
#
#
# Indices 1 2 3 4 5 6 
#
# 1 79.1314 47.7276 41.9816 11.5191 -7.8687 -14.1164
# 2 47.7276 126.9666 41.0682 -0.3137 -10.8994 4.2477
# 3 41.9816 41.0682 119.3562 17.6742 1.3342 -1.4750
# 4 11.5191 -0.3137 17.6742 35.0819 4.0190 -2.9946
# 5 -7.8687 -10.8994 1.3342 4.0190 37.4093 7.9447
# 6 -14.1164 4.2477 -1.4750 -2.9946 7.9447 24.4263
#
#
#
# Elastic Compliance Matrix: (Units=1/GPa)
#
#
# Indices 1 2 3 4 5 6 
#
# 1 0.022600 -0.007430 -0.004631 -0.004041 0.000327 0.013471
# 2 -0.007430 0.011825 -0.001958 0.002550 0.003207 -0.007199
# 3 -0.004631 -0.001958 0.011295 -0.004215 -0.001110 -0.001810
# 4 -0.004041 0.002550 -0.004215 0.032621 -0.003939 0.002247
# 5 0.000327 0.003207 -0.001110 -0.003939 0.030499 -0.010838
# 6 0.013471 -0.007199 -0.001810 0.002247 -0.010838 0.053668
#
#
# Mechanical properties :
#
#
# Convention : Reuss Voigt Hill
#
# Bulk Modulus (GPa) = 56.55615 65.22323 60.88969
# Shear Modulus (GPa) = 25.45320 32.36193 28.90757
#
# Velocity S-wave (km/s) = 3.51673 3.96538 3.74778
# Velocity P-wave (km/s) = 6.63097 7.25650 6.95078
#
# Compressibility (1/GPa) = 0.01768154
#
# Stress axis : x y z
#
# Youngs Moduli (GPa) = 44.24872 84.56853 88.53468
#
# Poissons Ratio (x) = 0.62833 0.41003
# Poissons Ratio (y) = 0.32876 0.17332
# Poissons Ratio (z) = 0.20493 0.16556
#
# Static dielectric constant tensor:
#      x y z
#    x 3.914690 -0.100390 -0.238180 
#    y -0.100390 3.733200 0.104710 
#    z -0.238180 0.104710 3.876650 
# 
# 
# High freq. dielectric constant tensor:
#      x y z
#    x 1.815230 -0.002740 -0.006280 
#    y -0.002740 1.808640 0.013660 
#    z -0.006280 0.013660 1.799770 
# 
# From -- ./inp_files/398391.got.cif
#   From: 2010.06.25/outbox.cif.g09.slc.cpg/sg2_200_cif.got.tgz:398391.got - 2010.06.27 13:26:56.
