data_PCOD8010048
_publ_section_title
;
Structure prediction by ZEFSAII (Michael W. Deem and Ramdas Pophale) SiO2 
 PCOD8010048
Probable space group: P -1
;
_chemical_formula_sum "Si O2"
_cell_formula_units_Z 12
_cell_length_a 6.337458
_cell_length_b 12.282280
_cell_length_c 21.460053
_cell_angle_alpha 28.084615
_cell_angle_beta 118.520799
_cell_angle_gamma 99.282376
_cell_volume 537.458638
_symmetry_space_group_name_H-M "P -1"
_symmetry_group_IT_number 2
_symmetry_cell_setting 'triclinic'
loop_
_space_group_symop_operation_xyz
x,y,z
-x,-y,-z
loop_
_atom_site_type_symbol
_atom_site_label
_atom_site_fract_x
_atom_site_fract_y
_atom_site_fract_z
Si Si1 0.359420 0.780704 0.645413
Si Si2 0.068847 0.731608 0.185067
Si Si3 0.852684 0.767352 0.268149
Si Si4 0.270791 0.384028 0.890789
Si Si5 0.774439 0.314301 0.526765
Si Si6 0.814754 0.884331 0.667778
O O1 0.466908 0.459429 0.841986
O O2 0.578707 0.831317 0.687071
O O3 0.382490 0.827550 0.551890
O O4 0.000000 0.000000 0.500000
O O5 0.409442 0.509813 0.372113
O O6 0.848109 0.855491 0.151814
O O7 0.004247 0.549890 0.223972
O O8 0.000000 0.000000 0.000000
O O9 0.892366 0.466137 0.428279
O O10 0.125463 0.723078 0.368315
O O11 0.521420 0.033962 0.118294
O O12 0.113433 0.583571 0.829998
O O13 0.929248 0.984400 0.688414
#
# Coordination Sequence:
#
# PCOD8010048 Si02
#       6
#     2   2   2   2   2   2
#     4   9  18  34  59  93 128 161 209 265 313 373
#     4  12  24  40  70  96 124 170 224 271 313 382
#     4  11  26  43  65  96 136 170 217 265 331 386
#     4  11  23  39  66  99 124 166 220 275 313 381
#     4  11  24  45  65  95 135 175 207 269 332 390
#     4  10  21  37  64  94 130 166 213 263 330 384
#
# _framework density 22.327300000000001
#
# number of rings (size 3 to 8) (size 9 to 14) (size 15 to 20)
#    0.000    1.333    1.667    5.000    4.667    2.000 
#    0.000    0.833    0.000    0.000    0.000    0.000 
#    0.000    0.000    0.000    0.000    0.000    0.000 
#
# Total GULP energy -148762.474417 kJ/mol
# GULP energy per Si atom -12396.872868 kJ/mol
# Density = 2.227648 g / cm^3
# Si number density = 22.327300 Si / 1000 Ang^3
#
#
#
# Elastic Constant Matrix: (Units=GPa)
#
#
# Indices 1 2 3 4 5 6 
#
# 1 110.0162 49.8769 22.8942 -7.9539 -7.7200 18.6469
# 2 49.8769 132.1536 34.1970 -16.7515 4.2149 24.9686
# 3 22.8942 34.1970 70.4336 -4.4130 13.7299 0.4468
# 4 -7.9539 -16.7515 -4.4130 32.8855 2.3610 3.5878
# 5 -7.7200 4.2149 13.7299 2.3610 40.1556 -0.7236
# 6 18.6469 24.9686 0.4468 3.5878 -0.7236 39.7193
#
#
#
# Elastic Compliance Matrix: (Units=1/GPa)
#
#
# Indices 1 2 3 4 5 6 
#
# 1 0.012063 -0.003022 -0.003050 0.001125 0.003545 -0.003766
# 2 -0.003022 0.011708 -0.004161 0.005432 -0.000822 -0.006400
# 3 -0.003050 -0.004161 0.018403 -0.000341 -0.006354 0.003756
# 4 0.001125 0.005432 -0.000341 0.034346 -0.002384 -0.007085
# 5 0.003545 -0.000822 -0.006354 -0.002384 0.027977 -0.000351
# 6 -0.003766 -0.006400 0.003756 -0.007085 -0.000351 0.031559
#
#
# Mechanical properties :
#
#
# Convention : Reuss Voigt Hill
#
# Bulk Modulus (GPa) = 46.06857 58.50440 52.28648
# Shear Modulus (GPa) = 30.53245 36.26110 33.39677
#
# Velocity S-wave (km/s) = 3.70198 4.03435 3.87173
# Velocity P-wave (km/s) = 6.24107 6.92541 6.59212
#
# Compressibility (1/GPa) = 0.02170677
#
# Stress axis : x y z
#
# Youngs Moduli (GPa) = 82.89817 85.40903 54.33899
#
# Poissons Ratio (x) = 0.25814 0.16575
# Poissons Ratio (y) = 0.25055 0.22611
# Poissons Ratio (z) = 0.25287 0.35539
#
# Static dielectric constant tensor:
#      x y z
#    x 4.310600 0.381770 -0.330740 
#    y 0.381770 4.099670 -0.182170 
#    z -0.330740 -0.182170 3.943880 
# 
# 
# High freq. dielectric constant tensor:
#      x y z
#    x 1.883430 0.021610 0.003160 
#    y 0.021610 1.876400 -0.015430 
#    z 0.003160 -0.015430 1.862650 
# 
# From -- ./inp_files/21161.got.cif
#   From: 2010.06.25/outbox.cif.g09.slc.cpg/sg2_11_cif.got.tgz:21161.got - 2010.06.27 13:26:56.
