data_PCOD8010715
_publ_section_title
;
Structure prediction by ZEFSAII (Michael W. Deem and Ramdas Pophale) SiO2 
 PCOD8010715
Probable space group: P -1
;
_chemical_formula_sum "Si O2"
_cell_formula_units_Z 14
_cell_length_a 11.380098
_cell_length_b 26.946061
_cell_length_c 8.479998
_cell_angle_alpha 40.922327
_cell_angle_beta 134.681225
_cell_angle_gamma 158.398871
_cell_volume 627.070927
_symmetry_space_group_name_H-M "P -1"
_symmetry_group_IT_number 2
_symmetry_cell_setting 'triclinic'
loop_
_space_group_symop_operation_xyz
x,y,z
-x,-y,-z
loop_
_atom_site_type_symbol
_atom_site_label
_atom_site_fract_x
_atom_site_fract_y
_atom_site_fract_z
Si Si1 0.922795 0.835161 0.633394
Si Si2 0.127920 0.058380 0.154159
Si Si3 0.858568 0.655132 0.404856
Si Si4 0.728069 0.342693 0.549787
Si Si5 0.227021 0.654697 0.789183
Si Si6 0.124097 0.763061 0.060407
Si Si7 0.169205 0.927443 0.987622
O O1 0.591598 0.742176 0.486616
O O2 0.184572 0.996048 0.426793
O O3 0.967412 0.764371 0.788632
O O4 0.955651 0.845363 0.827266
O O5 0.459909 0.232159 0.078002
O O6 0.860095 0.002443 0.125428
O O7 0.000000 0.000000 0.000000
O O8 0.500000 0.500000 0.500000
O O9 0.072302 0.674194 0.640013
O O10 0.880535 0.654632 0.236602
O O11 0.014216 0.797919 0.256472
O O12 0.705884 0.326720 0.378474
O O13 0.793648 0.285082 0.826391
O O14 0.000000 0.500000 0.500000
O O15 0.000000 0.500000 0.000000
O O16 0.450987 0.932132 0.024231
#
# Coordination Sequence:
#
# PCOD8010715 Si02
#       7
#     2   2   2   2   2   2   2
#     4  11  21  42  70  93 131 172 224 275 332 389
#     4  12  25  41  68 101 132 175 224 279 335 398
#     4  10  21  38  63 100 133 172 221 276 336 400
#     4  11  24  42  68  98 129 175 226 274 327 401
#     4  11  24  42  65  95 136 176 215 273 347 391
#     4  10  22  40  69 100 127 174 229 274 327 405
#     4  11  20  42  72  95 129 174 227 275 332 402
#
# _framework density 22.326021999999998
#
# number of rings (size 3 to 8) (size 9 to 14) (size 15 to 20)
#    0.000    1.143    2.857    5.571    4.000    0.571 
#    0.000    4.286    0.000    0.000    0.000    0.000 
#    0.000    0.000    0.000    0.000    0.000    0.000 
#
# Total GULP energy -173462.756813 kJ/mol
# GULP energy per Si atom -12390.196915 kJ/mol
# Density = 2.227521 g / cm^3
# Si number density = 22.326022 Si / 1000 Ang^3
#
#
#
# Elastic Constant Matrix: (Units=GPa)
#
#
# Indices 1 2 3 4 5 6 
#
# 1 55.4423 43.3929 47.7813 11.8035 25.3658 -4.6686
# 2 43.3929 139.1535 45.9382 -11.7680 7.2058 2.3492
# 3 47.7813 45.9382 144.7030 -16.5855 45.7927 -4.2538
# 4 11.8035 -11.7680 -16.5855 39.3981 0.2382 -1.4124
# 5 25.3658 7.2058 45.7927 0.2382 47.3451 -1.7416
# 6 -4.6686 2.3492 -4.2538 -1.4124 -1.7416 38.9377
#
#
#
# Elastic Compliance Matrix: (Units=1/GPa)
#
#
# Indices 1 2 3 4 5 6 
#
# 1 0.048109 -0.013010 -0.009695 -0.022149 -0.014158 0.004057
# 2 -0.013010 0.011723 -0.000388 0.007138 0.005459 -0.001806
# 3 -0.009695 -0.000388 0.013813 0.008664 -0.008139 0.000320
# 4 -0.022149 0.007138 0.008664 0.037760 0.002186 -0.000672
# 5 -0.014158 0.005459 -0.008139 0.002186 0.035691 -0.001240
# 6 0.004057 -0.001806 0.000320 -0.000672 -0.001240 0.026233
#
#
# Mechanical properties :
#
#
# Convention : Reuss Voigt Hill
#
# Bulk Modulus (GPa) = 36.41753 68.16929 52.29341
# Shear Modulus (GPa) = 21.86575 38.61527 30.24051
#
# Velocity S-wave (km/s) = 3.13291 4.16337 3.68434
# Velocity P-wave (km/s) = 5.42530 7.32880 6.44768
#
# Compressibility (1/GPa) = 0.02745930
#
# Stress axis : x y z
#
# Youngs Moduli (GPa) = 20.78617 85.30275 72.39392
#
# Poissons Ratio (x) = 1.10980 0.70183
# Poissons Ratio (y) = 0.27043 0.02811
# Poissons Ratio (z) = 0.20151 0.03312
#
# Static dielectric constant tensor:
#      x y z
#    x 4.196900 0.243040 0.908300 
#    y 0.243040 3.938350 -0.061380 
#    z 0.908300 -0.061380 4.809570 
# 
# 
# High freq. dielectric constant tensor:
#      x y z
#    x 1.859690 0.011560 0.042410 
#    y 0.011560 1.882490 -0.012050 
#    z 0.042410 -0.012050 1.884670 
# 
# From -- ./inp_files/286050.got.cif
#   From: 2010.06.25/outbox.cif.g09.slc.cpg/sg2_144_cif.got.tgz:286050.got - 2010.06.27 13:26:56.
