data_PCOD8010126
_publ_section_title
;
Structure prediction by ZEFSAII (Michael W. Deem and Ramdas Pophale) SiO2 
 PCOD8010126
Probable space group: P -1
;
_chemical_formula_sum "Si O2"
_cell_formula_units_Z 16
_cell_length_a 12.802909
_cell_length_b 31.972198
_cell_length_c 19.549839
_cell_angle_alpha 162.140113
_cell_angle_beta 160.922767
_cell_angle_gamma 27.567739
_cell_volume 795.314666
_symmetry_space_group_name_H-M "P -1"
_symmetry_group_IT_number 2
_symmetry_cell_setting 'triclinic'
loop_
_space_group_symop_operation_xyz
x,y,z
-x,-y,-z
loop_
_atom_site_type_symbol
_atom_site_label
_atom_site_fract_x
_atom_site_fract_y
_atom_site_fract_z
Si Si1 0.211137 0.141753 0.284418
Si Si2 0.877227 0.644336 0.633676
Si Si3 0.563514 0.398794 0.589474
Si Si4 0.348296 0.388868 0.286898
Si Si5 0.155290 0.303524 0.757726
Si Si6 0.689345 0.147734 0.858019
Si Si7 0.403863 0.621665 0.176982
Si Si8 0.190060 0.828455 0.790493
O O1 0.529272 0.240813 0.613562
O O2 0.034985 0.211809 0.345966
O O3 0.970589 0.130408 0.055367
O O4 0.310408 0.991291 0.125710
O O5 0.714183 0.684316 0.665857
O O6 0.621871 0.627213 0.387760
O O7 0.000000 0.500000 0.500000
O O8 0.163313 0.768367 0.987775
O O9 0.449234 0.430305 0.491356
O O10 0.847886 0.303812 0.616662
O O11 0.700040 0.541796 0.933781
O O12 0.500000 0.500000 0.500000
O O13 0.489223 0.247348 0.133735
O O14 0.965077 0.384947 0.038154
O O15 0.425974 0.237843 0.865781
O O16 0.049232 0.211210 0.482403
O O17 0.500000 0.000000 0.500000
O O18 0.500000 0.500000 0.000000
#
# Coordination Sequence:
#
# PCOD8010126 Si02
#       8
#     2   2   2   2   2   2   2   2
#     4  10  23  41  62  90 123 163 212 256 311 378
#     4  11  23  39  64  93 123 161 208 261 308 366
#     4  10  23  39  60  97 122 162 209 259 315 372
#     4  11  25  40  64  92 128 163 208 257 318 373
#     4  10  21  37  66  87 125 160 204 260 311 364
#     4  11  22  40  64  91 125 163 209 257 313 374
#     4  11  25  39  62  93 129 159 207 262 313 368
#     4  10  22  41  63  90 121 168 209 253 316 376
#
# _framework density 20.117823999999999
#
# number of rings (size 3 to 8) (size 9 to 14) (size 15 to 20)
#    0.000    1.500    2.500    1.500   10.500    1.500 
#    0.000    0.625    0.000    0.000    0.000    0.000 
#    0.000    0.000    0.000    0.000    0.000    0.000 
#
# Total GULP energy -198296.800804 kJ/mol
# GULP energy per Si atom -12393.550050 kJ/mol
# Density = 2.007203 g / cm^3
# Si number density = 20.117824 Si / 1000 Ang^3
#
#
#
# Elastic Constant Matrix: (Units=GPa)
#
#
# Indices 1 2 3 4 5 6 
#
# 1 129.2462 51.7865 52.4795 12.1146 25.5739 -9.5886
# 2 51.7865 115.7734 40.5886 -0.6063 26.1551 -17.8179
# 3 52.4795 40.5886 100.9983 7.8302 25.5533 -10.0647
# 4 12.1146 -0.6063 7.8302 26.7061 -5.1522 2.9999
# 5 25.5739 26.1551 25.5533 -5.1522 35.5245 0.0475
# 6 -9.5886 -17.8179 -10.0647 2.9999 0.0475 30.2484
#
#
#
# Elastic Compliance Matrix: (Units=1/GPa)
#
#
# Indices 1 2 3 4 5 6 
#
# 1 0.011767 -0.002833 -0.003130 -0.005618 -0.004951 0.001585
# 2 -0.002833 0.012793 -0.001464 0.000095 -0.006321 0.006151
# 3 -0.003130 -0.001464 0.014915 -0.004959 -0.008122 0.003613
# 4 -0.005618 0.000095 -0.004959 0.045050 0.014086 -0.007865
# 5 -0.004951 -0.006321 -0.008122 0.014086 0.044265 -0.009461
# 6 0.001585 0.006151 0.003613 -0.007865 -0.009461 0.039182
#
#
# Mechanical properties :
#
#
# Convention : Reuss Voigt Hill
#
# Bulk Modulus (GPa) = 40.61572 70.63634 55.62603
# Shear Modulus (GPa) = 26.17337 31.90670 29.04003
#
# Velocity S-wave (km/s) = 3.61086 3.98677 3.80346
# Velocity P-wave (km/s) = 6.13328 7.50866 6.85555
#
# Compressibility (1/GPa) = 0.02462101
#
# Stress axis : x y z
#
# Youngs Moduli (GPa) = 84.98454 78.16509 67.04607
#
# Poissons Ratio (x) = 0.22147 0.20982
# Poissons Ratio (y) = 0.24079 0.09818
# Poissons Ratio (z) = 0.26596 0.11446
#
# Static dielectric constant tensor:
#      x y z
#    x 4.380650 -0.299280 0.445320 
#    y -0.299280 4.049780 -0.083070 
#    z 0.445320 -0.083070 3.561500 
# 
# 
# High freq. dielectric constant tensor:
#      x y z
#    x 1.788940 -0.005210 0.006960 
#    y -0.005210 1.795540 -0.005020 
#    z 0.006960 -0.005020 1.780500 
# 
# From -- ./inp_files/331707.got.cif
#   From: 2010.06.25/outbox.cif.g09.slc.cpg/sg2_166_cif.got.tgz:331707.got - 2010.06.27 13:26:56.
