data_PCOD8010939
_publ_section_title
;
Structure prediction by ZEFSAII (Michael W. Deem and Ramdas Pophale) SiO2 
 PCOD8010939
Probable space group: P -1
;
_chemical_formula_sum "Si O2"
_cell_formula_units_Z 16
_cell_length_a 12.704670
_cell_length_b 14.661345
_cell_length_c 14.845143
_cell_angle_alpha 35.863929
_cell_angle_beta 151.042586
_cell_angle_gamma 131.780672
_cell_volume 775.356735
_symmetry_space_group_name_H-M "P -1"
_symmetry_group_IT_number 2
_symmetry_cell_setting 'triclinic'
loop_
_space_group_symop_operation_xyz
x,y,z
-x,-y,-z
loop_
_atom_site_type_symbol
_atom_site_label
_atom_site_fract_x
_atom_site_fract_y
_atom_site_fract_z
Si Si1 0.854740 0.006590 0.297774
Si Si2 0.796577 0.885560 0.868128
Si Si3 0.023360 0.680607 0.360763
Si Si4 0.094845 0.030699 0.835306
Si Si5 0.541471 0.819346 0.302023
Si Si6 0.767820 0.648427 0.765801
Si Si7 0.262324 0.649006 0.119350
Si Si8 0.555450 0.206679 0.442945
O O1 0.983061 0.960507 0.335687
O O2 0.667560 0.894972 0.256100
O O3 0.737942 0.185415 0.062388
O O4 0.000000 0.000000 0.500000
O O5 0.569960 0.831638 0.710126
O O6 0.715979 0.051676 0.726765
O O7 0.946519 0.923466 0.865506
O O8 0.918343 0.752489 0.131114
O O9 0.286216 0.669279 0.563610
O O10 0.000000 0.500000 0.500000
O O11 0.923582 0.793027 0.278661
O O12 0.346802 0.946484 0.094874
O O13 0.726226 0.770141 0.554936
O O14 0.446015 0.659667 0.326259
O O15 0.678887 0.487080 0.801250
O O16 0.629299 0.717685 0.689651
O O17 0.025289 0.625919 0.002854
#
# Coordination Sequence:
#
# PCOD8010939 Si02
#       8
#     2   2   2   2   2   2   2   2
#     4  11  22  40  59  89 123 161 206 246 297 363
#     4  10  21  41  65  90 119 156 216 251 293 370
#     4  11  24  42  61  94 128 152 203 261 312 365
#     4  10  21  41  63  89 119 163 207 249 296 363
#     4  11  21  37  64  83 123 162 204 245 303 357
#     4  11  21  37  60  90 122 160 199 251 306 356
#     4  10  22  37  54  88 124 154 207 248 293 365
#     4  10  21  38  65  88 119 164 205 245 306 364
#
# _framework density 20.635662
#
# number of rings (size 3 to 8) (size 9 to 14) (size 15 to 20)
#    0.000    1.500    1.250    6.375    0.000    2.500 
#    4.500    2.500    0.000    0.000    0.000    0.000 
#    0.000    0.000    0.000    0.000    0.000    0.000 
#
# Total GULP energy -198277.903235 kJ/mol
# GULP energy per Si atom -12392.368952 kJ/mol
# Density = 2.058869 g / cm^3
# Si number density = 20.635662 Si / 1000 Ang^3
#
#
#
# Elastic Constant Matrix: (Units=GPa)
#
#
# Indices 1 2 3 4 5 6 
#
# 1 96.1695 41.1480 33.2103 -3.3530 -8.0807 -2.9445
# 2 41.1480 128.5549 31.6560 -6.6673 -10.7854 14.4036
# 3 33.2103 31.6560 44.3354 3.7957 -2.8120 1.7075
# 4 -3.3530 -6.6673 3.7957 35.6437 -0.6664 5.2357
# 5 -8.0807 -10.7854 -2.8120 -0.6664 23.2029 5.2660
# 6 -2.9445 14.4036 1.7075 5.2357 5.2660 28.0965
#
#
#
# Elastic Compliance Matrix: (Units=1/GPa)
#
#
# Indices 1 2 3 4 5 6 
#
# 1 0.015136 -0.002484 -0.009657 0.001636 0.002381 0.002695
# 2 -0.002484 0.011594 -0.006095 0.003805 0.005619 -0.007596
# 3 -0.009657 -0.006095 0.034430 -0.006001 -0.002563 0.001619
# 4 0.001636 0.003805 -0.006001 0.030810 0.004303 -0.007962
# 5 0.002381 0.005619 -0.002563 0.004303 0.049188 -0.012496
# 6 0.002695 -0.007596 0.001619 -0.007962 -0.012496 0.043496
#
#
# Mechanical properties :
#
#
# Convention : Reuss Voigt Hill
#
# Bulk Modulus (GPa) = 40.50480 53.45428 46.97954
# Shear Modulus (GPa) = 21.80032 28.25832 25.02932
#
# Velocity S-wave (km/s) = 3.25382 3.70454 3.48647
# Velocity P-wave (km/s) = 5.81271 6.65269 6.24683
#
# Compressibility (1/GPa) = 0.02468843
#
# Stress axis : x y z
#
# Youngs Moduli (GPa) = 66.06922 86.24788 29.04481
#
# Poissons Ratio (x) = 0.21424 0.28048
# Poissons Ratio (y) = 0.16412 0.17702
# Poissons Ratio (z) = 0.63802 0.52566
#
# Static dielectric constant tensor:
#      x y z
#    x 3.692540 -0.147410 -0.011350 
#    y -0.147410 4.159050 0.283660 
#    z -0.011350 0.283660 3.900360 
# 
# 
# High freq. dielectric constant tensor:
#      x y z
#    x 1.792800 -0.004180 0.005710 
#    y -0.004180 1.821780 0.014000 
#    z 0.005710 0.014000 1.807600 
# 
# From -- ./inp_files/521498.got.cif
#   From: 2010.06.25/outbox.cif.g09.slc.cpg/sg2_261_cif.got.tgz:521498.got - 2010.06.27 13:26:56.
