data_PCOD8010635
_publ_section_title
;
Structure prediction by ZEFSAII (Michael W. Deem and Ramdas Pophale) SiO2 
 PCOD8010635
Probable space group: P -1
;
_chemical_formula_sum "Si O2"
_cell_formula_units_Z 14
_cell_length_a 17.711194
_cell_length_b 12.905259
_cell_length_c 6.083711
_cell_angle_alpha 112.737625
_cell_angle_beta 120.619006
_cell_angle_gamma 33.449138
_cell_volume 657.423594
_symmetry_space_group_name_H-M "P -1"
_symmetry_group_IT_number 2
_symmetry_cell_setting 'triclinic'
loop_
_space_group_symop_operation_xyz
x,y,z
-x,-y,-z
loop_
_atom_site_type_symbol
_atom_site_label
_atom_site_fract_x
_atom_site_fract_y
_atom_site_fract_z
Si Si1 0.459015 0.707646 0.066218
Si Si2 0.132718 0.817206 0.354404
Si Si3 0.961996 0.410739 0.902764
Si Si4 0.976518 0.246809 0.166364
Si Si5 0.378589 0.634690 0.246958
Si Si6 0.252786 0.510100 0.598334
Si Si7 0.161565 0.030191 0.657046
O O1 0.380735 0.751050 0.212691
O O2 0.571870 0.695611 0.271023
O O3 0.586023 0.491572 0.993867
O O4 0.337012 0.850900 0.812528
O O5 0.224385 0.778360 0.257202
O O6 0.234598 0.634781 0.507664
O O7 0.083094 0.985510 0.547457
O O8 0.010089 0.866737 0.090372
O O9 0.814252 0.532923 0.648949
O O10 0.094287 0.194207 0.844552
O O11 0.946886 0.397299 0.127391
O O12 0.000000 0.500000 0.000000
O O13 0.835625 0.370142 0.212949
O O14 0.126909 0.098296 0.408551
O O15 0.500000 0.500000 0.500000
#
# Coordination Sequence:
#
# PCOD8010635 Si02
#       7
#     2   2   2   2   2   2   2
#     4  11  21  34  55  93 122 156 197 225 285 355
#     4  11  20  35  57  93 126 162 190 224 289 350
#     4  10  25  47  63  79 108 157 208 252 297 337
#     4  10  23  39  61  84 120 160 186 246 296 350
#     4  11  19  32  55  82 135 170 179 220 282 360
#     4  10  21  38  62  90 119 157 196 233 285 365
#     4  11  24  35  59  93 123 153 196 239 284 360
#
# _framework density 21.295249999999999
#
# number of rings (size 3 to 8) (size 9 to 14) (size 15 to 20)
#    0.000    1.429    4.286    1.286    2.000    7.429 
#    0.000    0.714    0.000    1.714    0.000    0.000 
#    0.000    0.000    0.000    0.000    0.000    0.000 
#
# Total GULP energy -173449.586376 kJ/mol
# GULP energy per Si atom -12389.256170 kJ/mol
# Density = 2.124678 g / cm^3
# Si number density = 21.295250 Si / 1000 Ang^3
#
#
#
# Elastic Constant Matrix: (Units=GPa)
#
#
# Indices 1 2 3 4 5 6 
#
# 1 108.6976 47.7494 57.0407 0.2522 8.4250 24.8069
# 2 47.7494 64.5625 42.3818 -7.1484 16.3552 8.5238
# 3 57.0407 42.3818 128.6597 -27.4350 11.0071 8.1098
# 4 0.2522 -7.1484 -27.4350 41.7732 -9.0849 7.4614
# 5 8.4250 16.3552 11.0071 -9.0849 43.7135 0.5665
# 6 24.8069 8.5238 8.1098 7.4614 0.5665 20.6118
#
#
#
# Elastic Compliance Matrix: (Units=1/GPa)
#
#
# Indices 1 2 3 4 5 6 
#
# 1 0.019985 -0.009565 -0.005057 -0.001768 0.000860 -0.017490
# 2 -0.009565 0.026780 -0.004116 -0.000027 -0.007175 0.002263
# 3 -0.005057 -0.004116 0.013051 0.008157 0.000928 -0.000325
# 4 -0.001768 -0.000027 0.008157 0.032788 0.005281 -0.013085
# 5 0.000860 -0.007175 0.000928 0.005281 0.026273 -0.001066
# 6 -0.017490 0.002263 -0.000325 -0.013085 -0.001066 0.073524
#
#
# Mechanical properties :
#
#
# Convention : Reuss Voigt Hill
#
# Bulk Modulus (GPa) = 44.76296 66.25150 55.50723
# Shear Modulus (GPa) = 21.06837 31.53625 26.30231
#
# Velocity S-wave (km/s) = 3.14880 3.85243 3.51825
# Velocity P-wave (km/s) = 5.85540 7.13910 6.52888
#
# Compressibility (1/GPa) = 0.02233990
#
# Stress axis : x y z
#
# Youngs Moduli (GPa) = 50.03876 37.34076 76.62271
#
# Poissons Ratio (x) = 0.35715 0.38751
# Poissons Ratio (y) = 0.47860 0.31537
# Poissons Ratio (z) = 0.25307 0.15369
#
# Static dielectric constant tensor:
#      x y z
#    x 4.170890 -0.178980 -0.227150 
#    y -0.178980 3.432250 -0.081060 
#    z -0.227150 -0.081060 4.230820 
# 
# 
# High freq. dielectric constant tensor:
#      x y z
#    x 1.830130 -0.023680 -0.016790 
#    y -0.023680 1.783240 -0.016520 
#    z -0.016790 -0.016520 1.860550 
# 
# From -- ./inp_files/70130.got.cif
#   From: 2010.06.25/outbox.cif.g09.slc.cpg/sg2_36_cif.got.tgz:70130.got - 2010.06.27 13:26:56.
