data_PCOD8010495
_publ_section_title
;
Structure prediction by ZEFSAII (Michael W. Deem and Ramdas Pophale) SiO2 
 PCOD8010495
Probable space group: P -1
;
_chemical_formula_sum "Si O2"
_cell_formula_units_Z 16
_cell_length_a 9.139915
_cell_length_b 7.796267
_cell_length_c 19.806211
_cell_angle_alpha 39.310715
_cell_angle_beta 109.090061
_cell_angle_gamma 118.275215
_cell_volume 785.460958
_symmetry_space_group_name_H-M "P -1"
_symmetry_group_IT_number 2
_symmetry_cell_setting 'triclinic'
loop_
_space_group_symop_operation_xyz
x,y,z
-x,-y,-z
loop_
_atom_site_type_symbol
_atom_site_label
_atom_site_fract_x
_atom_site_fract_y
_atom_site_fract_z
Si Si1 0.637816 0.412654 0.511647
Si Si2 0.018989 0.154873 0.527784
Si Si3 0.211203 0.500224 0.627783
Si Si4 0.030949 0.872300 0.756353
Si Si5 0.443170 0.168056 0.035048
Si Si6 0.659930 0.308491 0.146029
Si Si7 0.540984 0.242288 0.296403
Si Si8 0.678275 0.418378 0.874749
O O1 0.500000 0.500000 0.500000
O O2 0.807455 0.571671 0.529520
O O3 0.658720 0.515717 0.405221
O O4 0.589200 0.067990 0.606283
O O5 0.876950 0.286081 0.477895
O O6 0.008964 0.931734 0.655454
O O7 0.000000 0.000000 0.500000
O O8 0.298691 0.630728 0.670743
O O9 0.081686 0.169192 0.717520
O O10 0.165040 0.721033 0.833128
O O11 0.862482 0.656499 0.830375
O O12 0.512394 0.108461 0.135463
O O13 0.322618 0.866944 0.077021
O O14 0.327338 0.359504 0.964925
O O15 0.609797 0.335036 0.965446
O O16 0.606684 0.200429 0.246145
O O17 0.447843 0.466241 0.218300
#
# Coordination Sequence:
#
# PCOD8010495 Si02
#       8
#     2   2   2   2   2   2   2   2
#     4  11  22  36  57  86 117 155 198 236 281 333
#     4  11  23  39  56  84 125 158 192 237 283 332
#     4  11  22  39  58  83 123 157 192 237 282 332
#     4  11  22  37  59  86 113 151 191 235 285 345
#     4   9  21  41  60  82 112 146 183 246 296 343
#     4  10  21  39  59  83 115 144 188 239 294 346
#     4  11  21  37  60  84 113 157 197 230 278 345
#     4  10  21  38  61  85 111 146 194 235 293 351
#
# _framework density 20.370203
#
# number of rings (size 3 to 8) (size 9 to 14) (size 15 to 20)
#    0.000    1.500    0.000    7.125    0.000    3.000 
#    0.000    5.000    0.000    0.000    0.000    0.000 
#    0.000    0.000    0.000    0.000    0.000    0.000 
#
# Total GULP energy -198420.495900 kJ/mol
# GULP energy per Si atom -12401.280994 kJ/mol
# Density = 2.032384 g / cm^3
# Si number density = 20.370203 Si / 1000 Ang^3
#
#
#
# Elastic Constant Matrix: (Units=GPa)
#
#
# Indices 1 2 3 4 5 6 
#
# 1 94.5391 32.9338 34.4051 -0.0724 11.4634 2.6580
# 2 32.9338 146.1439 59.5342 2.1785 -14.4209 -1.3305
# 3 34.4051 59.5342 82.9553 2.3047 2.5497 6.7736
# 4 -0.0724 2.1785 2.3047 38.9915 2.9478 -1.6259
# 5 11.4634 -14.4209 2.5497 2.9478 36.6505 -2.5970
# 6 2.6580 -1.3305 6.7736 -1.6259 -2.5970 32.4873
#
#
#
# Elastic Compliance Matrix: (Units=1/GPa)
#
#
# Indices 1 2 3 4 5 6 
#
# 1 0.013263 -0.001838 -0.004002 0.000691 -0.004696 -0.000667
# 2 -0.001838 0.010848 -0.007389 -0.000488 0.005578 0.002557
# 3 -0.004002 -0.007389 0.019491 -0.000681 -0.003264 -0.004334
# 4 0.000691 -0.000488 -0.000681 0.025943 -0.002364 0.001175
# 5 -0.004696 0.005578 -0.003264 -0.002364 0.031628 0.003703
# 6 -0.000667 0.002557 -0.004334 0.001175 0.003703 0.032199
#
#
# Mechanical properties :
#
#
# Convention : Reuss Voigt Hill
#
# Bulk Modulus (GPa) = 58.33464 64.15381 61.24422
# Shear Modulus (GPa) = 30.20316 34.74354 32.47335
#
# Velocity S-wave (km/s) = 3.85478 4.13438 3.99702
# Velocity P-wave (km/s) = 6.96504 7.37246 7.17164
#
# Compressibility (1/GPa) = 0.01714247
#
# Stress axis : x y z
#
# Youngs Moduli (GPa) = 75.39681 92.18252 51.30657
#
# Poissons Ratio (x) = 0.16947 0.20532
# Poissons Ratio (y) = 0.13861 0.37913
# Poissons Ratio (z) = 0.30172 0.68118
#
# Static dielectric constant tensor:
#      x y z
#    x 3.722700 -0.055650 0.067930 
#    y -0.055650 3.777720 -0.083330 
#    z 0.067930 -0.083330 3.806990 
# 
# 
# High freq. dielectric constant tensor:
#      x y z
#    x 1.798090 -0.010850 0.010960 
#    y -0.010850 1.802350 -0.000640 
#    z 0.010960 -0.000640 1.795350 
# 
# From -- ./inp_files/587774.got.cif
#   From: 2010.06.25/outbox.cif.g09.slc.cpg/sg2_294_cif.got.tgz:587774.got - 2010.06.27 13:26:56.
