data_PCOD8010098
_publ_section_title
;
Structure prediction by ZEFSAII (Michael W. Deem and Ramdas Pophale) SiO2 
 PCOD8010098
Probable space group: P -1
;
_chemical_formula_sum "Si O2"
_cell_formula_units_Z 14
_cell_length_a 14.084205
_cell_length_b 10.496666
_cell_length_c 19.251834
_cell_angle_alpha 32.844512
_cell_angle_beta 28.784568
_cell_angle_gamma 28.495098
_cell_volume 622.840119
_symmetry_space_group_name_H-M "P -1"
_symmetry_group_IT_number 2
_symmetry_cell_setting 'triclinic'
loop_
_space_group_symop_operation_xyz
x,y,z
-x,-y,-z
loop_
_atom_site_type_symbol
_atom_site_label
_atom_site_fract_x
_atom_site_fract_y
_atom_site_fract_z
Si Si1 0.876416 0.119836 0.098016
Si Si2 0.738475 0.082957 0.821290
Si Si3 0.945372 0.631697 0.364094
Si Si4 0.005917 0.716900 0.632650
Si Si5 0.904866 0.529835 0.169212
Si Si6 0.514108 0.038409 0.854100
Si Si7 0.325481 0.382751 0.339753
O O1 0.597856 0.253007 0.210303
O O2 0.978786 0.867749 0.202483
O O3 0.934988 0.340578 0.987757
O O4 0.000000 0.000000 0.000000
O O5 0.952498 0.760306 0.831406
O O6 0.592228 0.173370 0.801555
O O7 0.816596 0.297842 0.685176
O O8 0.582168 0.125928 0.969316
O O9 0.730586 0.774578 0.492595
O O10 0.883184 0.479364 0.415168
O O11 0.195704 0.396686 0.345410
O O12 0.158779 0.532526 0.685514
O O13 0.738572 0.801758 0.775587
O O14 0.000000 0.000000 0.500000
O O15 0.665846 0.727168 0.190997
#
# Coordination Sequence:
#
# PCOD8010098 Si02
#       7
#     2   2   2   2   2   2   2
#     4  12  25  42  67  99 134 170 217 273 325 390
#     4  10  21  41  67  97 130 169 218 273 317 388
#     4  11  25  44  67  96 134 178 219 266 331 395
#     4  11  24  42  63  93 131 170 219 272 326 388
#     4  11  23  41  65  99 127 171 221 269 328 384
#     4  10  21  37  65  94 130 167 214 271 324 383
#     4  11  25  45  68  96 133 179 219 268 330 388
#
# _framework density 22.477678000000001
#
# number of rings (size 3 to 8) (size 9 to 14) (size 15 to 20)
#    0.000    1.143    1.429    6.000    2.000    2.286 
#    0.000    4.286    0.000    0.000    0.000    0.000 
#    0.000    0.000    0.000    0.000    0.000    0.000 
#
# Total GULP energy -173575.788876 kJ/mol
# GULP energy per Si atom -12398.270634 kJ/mol
# Density = 2.242652 g / cm^3
# Si number density = 22.477678 Si / 1000 Ang^3
#
#
#
# Elastic Constant Matrix: (Units=GPa)
#
#
# Indices 1 2 3 4 5 6 
#
# 1 93.8306 40.8251 32.5244 -1.9948 22.3255 -23.4896
# 2 40.8251 84.8500 22.6872 9.0401 16.6214 -15.5680
# 3 32.5244 22.6872 92.5899 -8.5990 31.3100 -0.6742
# 4 -1.9948 9.0401 -8.5990 38.6621 3.9229 -1.7579
# 5 22.3255 16.6214 31.3100 3.9229 31.5778 -5.5382
# 6 -23.4896 -15.5680 -0.6742 -1.7579 -5.5382 44.7684
#
#
#
# Elastic Compliance Matrix: (Units=1/GPa)
#
#
# Indices 1 2 3 4 5 6 
#
# 1 0.016876 -0.005450 -0.002276 0.002535 -0.006019 0.006280
# 2 -0.005450 0.016126 -0.001725 -0.004127 -0.002007 0.002312
# 3 -0.002276 -0.001725 0.018271 0.005913 -0.016926 -0.003381
# 4 0.002535 -0.004127 0.005913 0.029201 -0.009110 0.000004
# 5 -0.006019 -0.002007 -0.016926 -0.009110 0.055311 0.002373
# 6 0.006280 0.002312 -0.003381 0.000004 0.002373 0.026679
#
#
# Mechanical properties :
#
#
# Convention : Reuss Voigt Hill
#
# Bulk Modulus (GPa) = 30.89155 51.48265 41.18710
# Shear Modulus (GPa) = 26.02076 34.68392 30.35234
#
# Velocity S-wave (km/s) = 3.40608 3.93241 3.67867
# Velocity P-wave (km/s) = 5.40755 6.60092 6.03381
#
# Compressibility (1/GPa) = 0.03237132
#
# Stress axis : x y z
#
# Youngs Moduli (GPa) = 59.25586 62.01244 54.73241
#
# Poissons Ratio (x) = 0.33796 0.12457
# Poissons Ratio (y) = 0.32294 0.09440
# Poissons Ratio (z) = 0.13487 0.10695
#
# Static dielectric constant tensor:
#      x y z
#    x 4.069990 -0.019290 0.210320 
#    y -0.019290 3.895620 -0.022090 
#    z 0.210320 -0.022090 4.323790 
# 
# 
# High freq. dielectric constant tensor:
#      x y z
#    x 1.889090 -0.002080 0.014900 
#    y -0.002080 1.871980 -0.005420 
#    z 0.014900 -0.005420 1.900970 
# 
# From -- ./inp_files/597768.got.cif
#   From: 2010.06.25/outbox.cif.g09.slc.cpg/sg2_299_cif.got.tgz:597768.got - 2010.06.27 13:26:56.
