data_PCOD8010478
_publ_section_title
;
Structure prediction by ZEFSAII (Michael W. Deem and Ramdas Pophale) SiO2 
 PCOD8010478
Probable space group: P -1
;
_chemical_formula_sum "Si O2"
_cell_formula_units_Z 12
_cell_length_a 11.911821
_cell_length_b 8.407816
_cell_length_c 15.818959
_cell_angle_alpha 113.046982
_cell_angle_beta 29.061116
_cell_angle_gamma 131.636324
_cell_volume 490.803792
_symmetry_space_group_name_H-M "P -1"
_symmetry_group_IT_number 2
_symmetry_cell_setting 'triclinic'
loop_
_space_group_symop_operation_xyz
x,y,z
-x,-y,-z
loop_
_atom_site_type_symbol
_atom_site_label
_atom_site_fract_x
_atom_site_fract_y
_atom_site_fract_z
Si Si1 0.969691 0.417221 0.638135
Si Si2 0.212355 0.238053 0.347774
Si Si3 0.198500 0.979151 0.020367
Si Si4 0.123679 0.256612 0.222537
Si Si5 0.025448 0.389191 0.038543
Si Si6 0.169806 0.433318 0.691323
O O1 0.091826 0.682376 0.622038
O O2 0.166863 0.416593 0.437056
O O3 0.039149 0.352072 0.665343
O O4 0.590181 0.216073 0.816819
O O5 0.096963 0.147466 0.308437
O O6 0.601349 0.411434 0.131374
O O7 0.000000 0.000000 0.500000
O O8 0.093383 0.862964 0.970410
O O9 0.116140 0.792524 0.106303
O O10 0.000182 0.050524 0.190336
O O11 0.500000 0.500000 0.000000
O O12 0.788255 0.341729 0.259201
O O13 0.000000 0.500000 0.000000
O O14 0.500000 0.500000 0.500000
#
# Coordination Sequence:
#
# PCOD8010478 Si02
#       6
#     2   2   2   2   2   2
#     4  11  22  40  63  92 127 170 213 264 321 382
#     4  12  23  41  69  97 126 171 219 263 314 384
#     4  10  21  39  63  93 126 168 214 264 317 378
#     4  10  23  42  62  92 132 173 211 259 323 383
#     4  10  21  38  60  95 128 160 212 272 315 367
#     4  11  22  40  64  93 127 168 216 266 317 384
#
# _framework density 24.449691000000001
#
# number of rings (size 3 to 8) (size 9 to 14) (size 15 to 20)
#    0.000    1.333    0.000    8.000    0.000    1.333 
#    0.000   10.833    0.000    4.000    0.000    1.167 
#    0.000    0.000    0.000    0.000    0.000    0.000 
#
# Total GULP energy -148713.514867 kJ/mol
# GULP energy per Si atom -12392.792906 kJ/mol
# Density = 2.439404 g / cm^3
# Si number density = 24.449691 Si / 1000 Ang^3
#
#
#
# Elastic Constant Matrix: (Units=GPa)
#
#
# Indices 1 2 3 4 5 6 
#
# 1 47.0619 17.0991 34.9601 2.1490 -10.9137 0.4291
# 2 17.0991 151.0135 45.7214 48.9979 -9.4618 10.2690
# 3 34.9601 45.7214 95.4917 41.4313 -11.0313 4.6022
# 4 2.1490 48.9979 41.4313 49.0284 -6.8952 5.3664
# 5 -10.9137 -9.4618 -11.0313 -6.8952 41.3118 4.2008
# 6 0.4291 10.2690 4.6022 5.3664 4.2008 39.0636
#
#
#
# Elastic Compliance Matrix: (Units=1/GPa)
#
#
# Indices 1 2 3 4 5 6 
#
# 1 0.038709 -0.004605 -0.020253 0.021109 0.007339 -0.000518
# 2 -0.004605 0.010458 0.001765 -0.011622 -0.000158 -0.001293
# 3 -0.020253 0.001765 0.027362 -0.024241 -0.001691 0.000047
# 4 0.021109 -0.011622 -0.024241 0.052568 0.005432 -0.002126
# 5 0.007339 -0.000158 -0.001691 0.005432 0.026918 -0.003481
# 6 -0.000518 -0.001293 0.000047 -0.002126 -0.003481 0.026606
#
#
# Mechanical properties :
#
#
# Convention : Reuss Voigt Hill
#
# Bulk Modulus (GPa) = 32.95580 54.34757 43.65168
# Shear Modulus (GPa) = 20.92755 38.93318 29.93037
#
# Velocity S-wave (km/s) = 2.92882 3.99479 3.50260
# Velocity P-wave (km/s) = 4.99456 6.59958 5.85235
#
# Compressibility (1/GPa) = 0.03034367
#
# Stress axis : x y z
#
# Youngs Moduli (GPa) = 25.83354 95.62278 36.54761
#
# Poissons Ratio (x) = 0.44037 0.74018
# Poissons Ratio (y) = 0.11897 -0.06452
# Poissons Ratio (z) = 0.52320 -0.16880
#
# Static dielectric constant tensor:
#      x y z
#    x 4.283470 0.160350 0.175530 
#    y 0.160350 5.924800 0.839110 
#    z 0.175530 0.839110 4.402560 
# 
# 
# High freq. dielectric constant tensor:
#      x y z
#    x 1.956110 0.004650 0.004470 
#    y 0.004650 1.990680 0.039090 
#    z 0.004470 0.039090 1.961250 
# 
# From -- ./inp_files/162018.got.cif
#   From: 2010.06.25/outbox.cif.g09.slc.cpg/sg2_82_cif.got.tgz:162018.got - 2010.06.27 13:26:56.
