data_PCOD8010047
_publ_section_title
;
Structure prediction by ZEFSAII (Michael W. Deem and Ramdas Pophale) SiO2 
 PCOD8010047
Probable space group: P -1
;
_chemical_formula_sum "Si O2"
_cell_formula_units_Z 16
_cell_length_a 9.700425
_cell_length_b 8.265296
_cell_length_c 12.339455
_cell_angle_alpha 128.422390
_cell_angle_beta 77.793283
_cell_angle_gamma 90.954295
_cell_volume 749.020378
_symmetry_space_group_name_H-M "P -1"
_symmetry_group_IT_number 2
_symmetry_cell_setting 'triclinic'
loop_
_space_group_symop_operation_xyz
x,y,z
-x,-y,-z
loop_
_atom_site_type_symbol
_atom_site_label
_atom_site_fract_x
_atom_site_fract_y
_atom_site_fract_z
Si Si1 0.941271 0.391336 0.803324
Si Si2 0.325851 0.789877 0.166040
Si Si3 0.353447 0.560675 0.678353
Si Si4 0.630967 0.730317 0.645256
Si Si5 0.081511 0.876486 0.839037
Si Si6 0.572190 0.556800 0.151971
Si Si7 0.170182 0.249819 0.870262
Si Si8 0.907911 0.573802 0.650839
O O1 0.838937 0.226964 0.790622
O O2 0.939441 0.417186 0.683752
O O3 0.097635 0.301507 0.786066
O O4 0.902390 0.614638 0.960961
O O5 0.411008 0.645745 0.184509
O O6 0.351432 0.027821 0.265329
O O7 0.377983 0.681782 0.997336
O O8 0.466890 0.712888 0.690505
O O9 0.328065 0.389478 0.523041
O O10 0.200019 0.691596 0.786598
O O11 0.416425 0.431920 0.717473
O O12 0.738730 0.615081 0.670314
O O13 0.955228 0.794557 0.761265
O O14 0.163652 0.011114 0.800482
O O15 0.000000 0.000000 0.000000
O O16 0.667055 0.715436 0.148141
O O17 0.000000 0.500000 0.500000
#
# Coordination Sequence:
#
# PCOD8010047 Si02
#       8
#     2   2   2   2   2   2   2   2
#     4  10  21  39  63  92 128 165 209 267 321 378
#     4  10  22  41  64  94 126 166 216 270 327 378
#     4  11  25  44  65  94 131 175 220 265 323 391
#     4  11  25  44  65  91 135 177 215 263 324 398
#     4  12  24  42  70  99 130 174 220 269 325 387
#     4  10  22  40  65  94 128 163 218 274 317 382
#     4  10  21  37  64  94 125 164 213 264 320 380
#     4  12  24  43  65  96 138 171 216 271 324 386
#
# _framework density 21.361236000000002
#
# number of rings (size 3 to 8) (size 9 to 14) (size 15 to 20)
#    0.000    1.250    2.500    3.000    5.250    1.000 
#    2.250    1.250    0.000    0.000    0.000    0.000 
#    0.000    0.000    0.000    0.000    0.000    0.000 
#
# Total GULP energy -198388.490846 kJ/mol
# GULP energy per Si atom -12399.280678 kJ/mol
# Density = 2.131262 g / cm^3
# Si number density = 21.361236 Si / 1000 Ang^3
#
#
#
# Elastic Constant Matrix: (Units=GPa)
#
#
# Indices 1 2 3 4 5 6 
#
# 1 87.7642 4.0840 38.1101 5.4752 13.7357 -3.1318
# 2 4.0840 82.5971 35.0952 -0.7089 16.5104 4.5707
# 3 38.1101 35.0952 103.6196 -7.4512 15.0026 -3.5548
# 4 5.4752 -0.7089 -7.4512 34.9047 -0.4382 17.5228
# 5 13.7357 16.5104 15.0026 -0.4382 36.8810 1.8987
# 6 -3.1318 4.5707 -3.5548 17.5228 1.8987 34.2564
#
#
#
# Elastic Compliance Matrix: (Units=1/GPa)
#
#
# Indices 1 2 3 4 5 6 
#
# 1 0.015038 0.002464 -0.005981 -0.005357 -0.004511 0.003416
# 2 0.002464 0.015513 -0.005447 -0.000335 -0.005551 -0.001931
# 3 -0.005981 -0.005447 0.014118 0.004002 -0.001012 -0.000346
# 4 -0.005357 -0.000335 0.004002 0.040953 0.002089 -0.021094
# 5 -0.004511 -0.005551 -0.001012 0.002089 0.031850 -0.002611
# 6 0.003416 -0.001931 -0.000346 -0.021094 -0.002611 0.040660
#
#
# Mechanical properties :
#
#
# Convention : Reuss Voigt Hill
#
# Bulk Modulus (GPa) = 37.39385 47.61771 42.50578
# Shear Modulus (GPa) = 27.03090 34.32118 30.67604
#
# Velocity S-wave (km/s) = 3.56113 4.01272 3.79365
# Velocity P-wave (km/s) = 5.86961 6.61886 6.25546
#
# Compressibility (1/GPa) = 0.02674237
#
# Stress axis : x y z
#
# Youngs Moduli (GPa) = 66.49610 64.46120 70.83395
#
# Poissons Ratio (x) = -0.15884 0.42363
# Poissons Ratio (y) = -0.16386 0.38584
# Poissons Ratio (z) = 0.39768 0.35112
#
# Static dielectric constant tensor:
#      x y z
#    x 4.114660 0.046340 0.155520 
#    y 0.046340 3.706200 -0.021440 
#    z 0.155520 -0.021440 3.704190 
# 
# 
# High freq. dielectric constant tensor:
#      x y z
#    x 1.861330 0.004730 0.015760 
#    y 0.004730 1.830520 -0.005410 
#    z 0.015760 -0.005410 1.825350 
# 
# From -- ./inp_files/261810.got.cif
#   From: 2010.06.25/outbox.cif.g09.slc.cpg/sg2_131_cif.got.tgz:261810.got - 2010.06.27 13:26:56.
