data_PCOD8010595
_publ_section_title
;
Structure prediction by ZEFSAII (Michael W. Deem and Ramdas Pophale) SiO2 
 PCOD8010595
Probable space group: P -1
;
_chemical_formula_sum "Si O2"
_cell_formula_units_Z 16
_cell_length_a 11.105258
_cell_length_b 16.028478
_cell_length_c 6.609413
_cell_angle_alpha 44.668402
_cell_angle_beta 93.208362
_cell_angle_gamma 109.137592
_cell_volume 753.038467
_symmetry_space_group_name_H-M "P -1"
_symmetry_group_IT_number 2
_symmetry_cell_setting 'triclinic'
loop_
_space_group_symop_operation_xyz
x,y,z
-x,-y,-z
loop_
_atom_site_type_symbol
_atom_site_label
_atom_site_fract_x
_atom_site_fract_y
_atom_site_fract_z
Si Si1 0.464558 0.886356 0.854071
Si Si2 0.635765 0.686741 0.802576
Si Si3 0.211551 0.285064 0.841605
Si Si4 0.041504 0.654009 0.242768
Si Si5 0.652528 0.495162 0.819758
Si Si6 0.746169 0.290629 0.140071
Si Si7 0.748898 0.154182 0.777093
Si Si8 0.291375 0.113696 0.881965
O O1 0.370548 0.754700 0.959370
O O2 0.500000 0.000000 0.500000
O O3 0.383244 0.909453 0.992422
O O4 0.594079 0.872853 0.970653
O O5 0.670380 0.578799 0.878998
O O6 0.642055 0.800607 0.456496
O O7 0.742433 0.747046 0.884377
O O8 0.491549 0.621833 0.000052
O O9 0.323129 0.416618 0.530382
O O10 0.191366 0.165399 0.893788
O O11 0.078244 0.303674 0.830053
O O12 0.134564 0.721937 0.325766
O O13 0.000000 0.500000 0.500000
O O14 0.120635 0.709184 0.946503
O O15 0.763079 0.436137 0.947951
O O16 0.706606 0.198105 0.488782
O O17 0.791666 0.035754 0.936146
#
# Coordination Sequence:
#
# PCOD8010595 Si02
#       8
#     2   2   2   2   2   2   2   2
#     4  11  23  40  69 102 137 168 211 268 336 397
#     4  10  23  38  65  97 137 172 210 271 339 393
#     4  11  24  43  66  91 135 178 221 277 325 383
#     4  11  26  47  65  96 130 176 234 279 320 382
#     4  10  21  38  62 100 127 170 220 266 334 400
#     4  11  23  40  70  97 132 174 217 279 330 387
#     4  11  26  42  68 101 132 173 225 267 332 397
#     4  11  24  42  67 103 135 171 217 266 338 405
#
# _framework density 21.247254999999999
#
# number of rings (size 3 to 8) (size 9 to 14) (size 15 to 20)
#    0.000    1.250    2.500    2.250    5.250    5.000 
#    0.000    1.250    0.000    0.000    0.000    0.000 
#    0.000    0.000    0.000    0.000    0.000    0.000 
#
# Total GULP energy -198408.616855 kJ/mol
# GULP energy per Si atom -12400.538553 kJ/mol
# Density = 2.119890 g / cm^3
# Si number density = 21.247255 Si / 1000 Ang^3
#
#
#
# Elastic Constant Matrix: (Units=GPa)
#
#
# Indices 1 2 3 4 5 6 
#
# 1 111.5253 58.8794 44.6121 5.4494 1.3276 -21.5710
# 2 58.8794 116.1387 49.9102 -11.0393 1.1021 -15.4375
# 3 44.6121 49.9102 130.9794 11.5890 8.7342 -11.5445
# 4 5.4494 -11.0393 11.5890 38.2333 -6.2020 3.8695
# 5 1.3276 1.1021 8.7342 -6.2020 26.5038 -4.7998
# 6 -21.5710 -15.4375 -11.5445 3.8695 -4.7998 36.4236
#
#
#
# Elastic Compliance Matrix: (Units=1/GPa)
#
#
# Indices 1 2 3 4 5 6 
#
# 1 0.014110 -0.006032 -0.001687 -0.003778 0.000248 0.005699
# 2 -0.006032 0.014084 -0.003996 0.006495 0.002697 0.000795
# 3 -0.001687 -0.003996 0.010495 -0.004841 -0.004234 0.000590
# 4 -0.003778 0.006495 -0.004841 0.031722 0.008342 -0.003290
# 5 0.000248 0.002697 -0.004234 0.008342 0.041780 0.004568
# 6 0.005699 0.000795 0.000590 -0.003290 0.004568 0.032305
#
#
# Mechanical properties :
#
#
# Convention : Reuss Voigt Hill
#
# Bulk Modulus (GPa) = 65.54504 73.93855 69.74180
# Shear Modulus (GPa) = 28.89936 33.91493 31.40715
#
# Velocity S-wave (km/s) = 3.69202 3.99959 3.84887
# Velocity P-wave (km/s) = 7.00645 7.49690 7.25582
#
# Compressibility (1/GPa) = 0.01525668
#
# Stress axis : x y z
#
# Youngs Moduli (GPa) = 70.87065 71.00500 95.28386
#
# Poissons Ratio (x) = 0.42833 0.16077
# Poissons Ratio (y) = 0.42752 0.38079
# Poissons Ratio (z) = 0.11958 0.28376
#
# Static dielectric constant tensor:
#      x y z
#    x 3.787500 -0.269010 -0.068270 
#    y -0.269010 4.046120 0.036680 
#    z -0.068270 0.036680 3.881690 
# 
# 
# High freq. dielectric constant tensor:
#      x y z
#    x 1.820460 -0.023820 -0.001160 
#    y -0.023820 1.845040 0.005120 
#    z -0.001160 0.005120 1.838020 
# 
# From -- ./inp_files/70784.got.cif
#   From: 2010.06.25/outbox.cif.g09.slc.cpg/sg2_36_cif.got.tgz:70784.got - 2010.06.27 13:26:56.
