data_PCOD8010814
_publ_section_title
;
Structure prediction by ZEFSAII (Michael W. Deem and Ramdas Pophale) SiO2 
 PCOD8010814
Probable space group: P -1
;
_chemical_formula_sum "Si O2"
_cell_formula_units_Z 16
_cell_length_a 19.919892
_cell_length_b 11.407127
_cell_length_c 5.611235
_cell_angle_alpha 94.263953
_cell_angle_beta 94.759433
_cell_angle_gamma 34.705339
_cell_volume 723.402795
_symmetry_space_group_name_H-M "P -1"
_symmetry_group_IT_number 2
_symmetry_cell_setting 'triclinic'
loop_
_space_group_symop_operation_xyz
x,y,z
-x,-y,-z
loop_
_atom_site_type_symbol
_atom_site_label
_atom_site_fract_x
_atom_site_fract_y
_atom_site_fract_z
Si Si1 0.758948 0.090610 0.867869
Si Si2 0.683880 0.586972 0.375622
Si Si3 0.218878 0.118380 0.541045
Si Si4 0.198741 0.393587 0.361579
Si Si5 0.409803 0.826034 0.906460
Si Si6 0.969999 0.671184 0.113133
Si Si7 0.450087 0.998504 0.203309
Si Si8 0.672586 0.465423 0.847645
O O1 0.758490 0.230746 0.859457
O O2 0.727395 0.068778 0.613063
O O3 0.658736 0.195080 0.044044
O O4 0.891015 0.859488 0.936813
O O5 0.792144 0.527951 0.401076
O O6 0.556040 0.837659 0.405895
O O7 0.703543 0.480867 0.605323
O O8 0.689242 0.516258 0.106526
O O9 0.179954 0.284525 0.398557
O O10 0.102114 0.240721 0.653153
O O11 0.325800 0.011697 0.719454
O O12 0.088292 0.578615 0.184155
O O13 0.326185 0.237866 0.258531
O O14 0.538181 0.611577 0.808486
O O15 0.421811 0.901864 0.133394
O O16 0.000000 0.500000 0.000000
O O17 0.500000 0.000000 0.000000
#
# Coordination Sequence:
#
# PCOD8010814 Si02
#       8
#     2   2   2   2   2   2   2   2
#     4  11  24  43  65  96 135 175 226 286 335 403
#     4  11  26  44  67 101 136 183 225 274 340 409
#     4  11  22  39  67 102 130 170 225 284 351 397
#     4  12  21  41  68  97 134 174 224 280 347 406
#     4  10  21  38  64 100 131 175 224 273 348 405
#     4  11  24  42  65 104 132 170 226 286 350 397
#     4  11  21  41  67 104 142 173 218 284 344 411
#     4  11  26  45  67  96 141 183 230 274 334 410
#
# _framework density 22.117692000000002
#
# number of rings (size 3 to 8) (size 9 to 14) (size 15 to 20)
#    0.000    1.000    2.500    4.875    5.250    1.500 
#    0.000    1.250    0.000    0.000    0.000    0.000 
#    0.000    0.000    0.000    0.000    0.000    0.000 
#
# Total GULP energy -198257.220723 kJ/mol
# GULP energy per Si atom -12391.076295 kJ/mol
# Density = 2.206735 g / cm^3
# Si number density = 22.117692 Si / 1000 Ang^3
#
#
#
# Elastic Constant Matrix: (Units=GPa)
#
#
# Indices 1 2 3 4 5 6 
#
# 1 92.3712 49.1205 35.6581 -12.1938 22.5214 -5.9690
# 2 49.1205 112.2560 27.9614 -14.9030 9.7556 -1.4963
# 3 35.6581 27.9614 91.9760 -6.4708 1.8569 -7.4612
# 4 -12.1938 -14.9030 -6.4708 27.7311 -3.1288 6.1509
# 5 22.5214 9.7556 1.8569 -3.1288 31.5191 -12.0050
# 6 -5.9690 -1.4963 -7.4612 6.1509 -12.0050 40.2422
#
#
#
# Elastic Compliance Matrix: (Units=1/GPa)
#
#
# Indices 1 2 3 4 5 6 
#
# 1 0.019157 -0.005542 -0.005466 0.003350 -0.012292 -0.002557
# 2 -0.005542 0.012180 -0.001367 0.004076 0.000227 -0.001178
# 3 -0.005466 -0.001367 0.013552 -0.000128 0.004686 0.003069
# 4 0.003350 0.004076 -0.000128 0.040850 -0.001955 -0.006202
# 5 -0.012292 0.000227 0.004686 -0.001955 0.044815 0.012722
# 6 -0.002557 -0.001178 0.003069 -0.006202 0.012722 0.029739
#
#
# Mechanical properties :
#
#
# Convention : Reuss Voigt Hill
#
# Bulk Modulus (GPa) = 49.65620 58.00925 53.83272
# Shear Modulus (GPa) = 26.07480 32.15605 29.11542
#
# Velocity S-wave (km/s) = 3.43725 3.81709 3.63214
# Velocity P-wave (km/s) = 6.18487 6.76102 6.47935
#
# Compressibility (1/GPa) = 0.02013847
#
# Stress axis : x y z
#
# Youngs Moduli (GPa) = 52.20007 82.10350 73.78764
#
# Poissons Ratio (x) = 0.45504 0.40330
# Poissons Ratio (y) = 0.28931 0.10090
# Poissons Ratio (z) = 0.28531 0.11227
#
# Static dielectric constant tensor:
#      x y z
#    x 4.335130 -0.251070 0.098590 
#    y -0.251070 4.092530 -0.077820 
#    z 0.098590 -0.077820 4.022860 
# 
# 
# High freq. dielectric constant tensor:
#      x y z
#    x 1.866100 -0.007570 0.015230 
#    y -0.007570 1.860760 -0.010840 
#    z 0.015230 -0.010840 1.874600 
# 
# From -- ./inp_files/83234.got.cif
#   From: 2010.06.25/outbox.cif.g09.slc.cpg/sg2_42_cif.got.tgz:83234.got - 2010.06.27 13:26:56.
