data_PCOD8010618
_publ_section_title
;
Structure prediction by ZEFSAII (Michael W. Deem and Ramdas Pophale) SiO2 
 PCOD8010618
Probable space group: P -1
;
_chemical_formula_sum "Si O2"
_cell_formula_units_Z 16
_cell_length_a 9.448420
_cell_length_b 15.565551
_cell_length_c 8.388958
_cell_angle_alpha 137.483608
_cell_angle_beta 94.093889
_cell_angle_gamma 73.392940
_cell_volume 780.304168
_symmetry_space_group_name_H-M "P -1"
_symmetry_group_IT_number 2
_symmetry_cell_setting 'triclinic'
loop_
_space_group_symop_operation_xyz
x,y,z
-x,-y,-z
loop_
_atom_site_type_symbol
_atom_site_label
_atom_site_fract_x
_atom_site_fract_y
_atom_site_fract_z
Si Si1 0.177921 0.532943 0.185524
Si Si2 0.117899 0.827444 0.471071
Si Si3 0.136538 0.463747 0.734837
Si Si4 0.361141 0.219904 0.239700
Si Si5 0.667501 0.054323 0.164906
Si Si6 0.791037 0.286399 0.017590
Si Si7 0.118467 0.955684 0.090615
Si Si8 0.538661 0.604227 0.759917
O O1 0.139408 0.693028 0.389428
O O2 0.332296 0.472605 0.210709
O O3 0.042971 0.504710 0.230413
O O4 0.200749 0.464844 0.919536
O O5 0.236721 0.895254 0.632927
O O6 0.138836 0.799078 0.248811
O O7 0.945138 0.930398 0.621829
O O8 0.220215 0.319957 0.463014
O O9 0.167319 0.577930 0.784232
O O10 0.496207 0.158546 0.294337
O O11 0.409151 0.292516 0.196571
O O12 0.318091 0.097536 0.991982
O O13 0.722626 0.049473 0.977840
O O14 0.865045 0.193336 0.047862
O O15 0.611061 0.318827 0.045011
O O16 0.000000 0.000000 0.000000
O O17 0.500000 0.500000 0.500000
#
# Coordination Sequence:
#
# PCOD8010618 Si02
#       8
#     2   2   2   2   2   2   2   2
#     4  10  24  41  66  98 126 168 206 267 325 370
#     4  10  22  39  65  89 127 167 212 256 315 378
#     4  10  23  43  65  96 129 162 214 264 321 379
#     4  11  22  39  62  89 128 166 208 263 308 379
#     4  10  22  39  60  91 123 169 215 249 317 374
#     4  11  23  40  65  97 124 167 212 262 319 376
#     4  10  21  38  62  87 122 161 206 258 305 371
#     4  12  24  41  65  97 133 163 212 264 316 383
#
# _framework density 20.504822999999998
#
# number of rings (size 3 to 8) (size 9 to 14) (size 15 to 20)
#    0.000    1.500    2.500    1.875    3.500    3.500 
#    0.000    3.125    0.000    0.000    0.000    0.000 
#    0.000    0.000    0.000    0.000    0.000    0.000 
#
# Total GULP energy -198419.096414 kJ/mol
# GULP energy per Si atom -12401.193526 kJ/mol
# Density = 2.045815 g / cm^3
# Si number density = 20.504823 Si / 1000 Ang^3
#
#
#
# Elastic Constant Matrix: (Units=GPa)
#
#
# Indices 1 2 3 4 5 6 
#
# 1 87.4580 47.2958 20.9370 4.7544 -3.2490 1.1604
# 2 47.2958 126.3079 23.7322 23.5377 1.7409 6.8928
# 3 20.9370 23.7322 70.6576 10.3352 -6.8568 1.3294
# 4 4.7544 23.5377 10.3352 29.1374 2.7076 2.9977
# 5 -3.2490 1.7409 -6.8568 2.7076 41.4623 2.4745
# 6 1.1604 6.8928 1.3294 2.9977 2.4745 40.0045
#
#
#
# Elastic Compliance Matrix: (Units=1/GPa)
#
#
# Indices 1 2 3 4 5 6 
#
# 1 0.015072 -0.005695 -0.002942 0.003081 0.000711 0.000367
# 2 -0.005695 0.011838 -0.001139 -0.008056 -0.000534 -0.001200
# 3 -0.002942 -0.001139 0.016365 -0.004659 0.002833 -0.000088
# 4 0.003081 -0.008056 -0.004659 0.042403 -0.002867 -0.001547
# 5 0.000711 -0.000534 0.002833 -0.002867 0.024933 -0.001350
# 6 0.000367 -0.001200 -0.000088 -0.001547 -0.001350 0.025396
#
#
# Mechanical properties :
#
#
# Convention : Reuss Voigt Hill
#
# Bulk Modulus (GPa) = 42.15366 52.03927 47.09647
# Shear Modulus (GPa) = 30.58722 34.95142 32.76932
#
# Velocity S-wave (km/s) = 3.86645 4.13309 4.00200
# Velocity P-wave (km/s) = 6.36672 6.94340 6.66130
#
# Compressibility (1/GPa) = 0.02372273
#
# Stress axis : x y z
#
# Youngs Moduli (GPa) = 66.34784 84.47487 61.10522
#
# Poissons Ratio (x) = 0.48108 0.17977
# Poissons Ratio (y) = 0.37784 0.06962
# Poissons Ratio (z) = 0.19519 0.09625
#
# Static dielectric constant tensor:
#      x y z
#    x 4.062440 0.214680 -0.376020 
#    y 0.214680 3.704050 0.132460 
#    z -0.376020 0.132460 3.957890 
# 
# 
# High freq. dielectric constant tensor:
#      x y z
#    x 1.807740 0.012060 -0.015580 
#    y 0.012060 1.803360 0.013940 
#    z -0.015580 0.013940 1.805060 
# 
# From -- ./inp_files/209345.got.cif
#   From: 2010.06.25/outbox.cif.g09.slc.cpg/sg2_105_cif.got.tgz:209345.got - 2010.06.27 13:26:56.
