data_PCOD8010083
_publ_section_title
;
Structure prediction by ZEFSAII (Michael W. Deem and Ramdas Pophale) SiO2 
 PCOD8010083
Probable space group: P -1
;
_chemical_formula_sum "Si O2"
_cell_formula_units_Z 16
_cell_length_a 14.395090
_cell_length_b 14.748064
_cell_length_c 9.822517
_cell_angle_alpha 73.736365
_cell_angle_beta 86.828289
_cell_angle_gamma 151.461100
_cell_volume 720.964879
_symmetry_space_group_name_H-M "P -1"
_symmetry_group_IT_number 2
_symmetry_cell_setting 'triclinic'
loop_
_space_group_symop_operation_xyz
x,y,z
-x,-y,-z
loop_
_atom_site_type_symbol
_atom_site_label
_atom_site_fract_x
_atom_site_fract_y
_atom_site_fract_z
Si Si1 0.193346 0.219660 0.776063
Si Si2 0.365084 0.702196 0.255315
Si Si3 0.427448 0.115658 0.115312
Si Si4 0.856099 0.610943 0.351623
Si Si5 0.235060 0.186096 0.493585
Si Si6 0.845867 0.283140 0.385501
Si Si7 0.577966 0.829978 0.622486
Si Si8 0.417792 0.931731 0.761108
O O1 0.106615 0.241907 0.728186
O O2 0.167747 0.129117 0.683270
O O3 0.490326 0.500861 0.688378
O O4 0.000000 0.000000 0.000000
O O5 0.293936 0.551033 0.427415
O O6 0.590403 0.983219 0.178598
O O7 0.136346 0.559015 0.298876
O O8 0.459904 0.737972 0.096645
O O9 0.470098 0.231266 0.185594
O O10 0.572738 0.155047 0.117420
O O11 0.124285 0.809584 0.249933
O O12 0.700048 0.420359 0.318064
O O13 0.266137 0.106435 0.486540
O O14 0.000000 0.000000 0.500000
O O15 0.671828 0.184258 0.538057
O O16 0.747163 0.082528 0.484970
O O17 0.829802 0.303982 0.221161
#
# Coordination Sequence:
#
# PCOD8010083 Si02
#       8
#     2   2   2   2   2   2   2   2
#     4  10  24  46  67 100 130 167 214 269 326 391
#     4  12  23  39  65  92 124 171 213 263 312 368
#     4  11  25  39  62  97 127 166 219 259 305 381
#     4  11  23  43  66  88 131 165 206 262 320 378
#     4  10  22  42  72  94 129 170 212 265 327 395
#     4  10  21  37  65  89 125 168 211 257 311 372
#     4  10  21  43  60  93 128 167 207 259 319 369
#     4  10  21  39  60  92 127 170 212 257 315 366
#
# _framework density 22.192481999999998
#
# number of rings (size 3 to 8) (size 9 to 14) (size 15 to 20)
#    0.000    1.500    3.750    1.500    0.000    5.000 
#    4.500    0.000    0.000    0.000    0.000    0.000 
#    0.000    0.000    0.000    0.000    0.000    0.000 
#
# Total GULP energy -198387.249543 kJ/mol
# GULP energy per Si atom -12399.203096 kJ/mol
# Density = 2.214197 g / cm^3
# Si number density = 22.192482 Si / 1000 Ang^3
#
#
#
# Elastic Constant Matrix: (Units=GPa)
#
#
# Indices 1 2 3 4 5 6 
#
# 1 77.4754 28.6032 28.3113 11.7639 7.4309 -3.0209
# 2 28.6032 114.1652 44.1436 21.6933 -0.6256 22.1819
# 3 28.3113 44.1436 137.9269 26.6258 6.5815 -4.2917
# 4 11.7639 21.6933 26.6258 30.5138 -2.4202 -3.5247
# 5 7.4309 -0.6256 6.5815 -2.4202 26.6859 3.4139
# 6 -3.0209 22.1819 -4.2917 -3.5247 3.4139 38.1762
#
#
#
# Elastic Compliance Matrix: (Units=1/GPa)
#
#
# Indices 1 2 3 4 5 6 
#
# 1 0.015678 -0.003709 -0.001251 -0.002295 -0.004796 0.003472
# 2 -0.003709 0.013972 -0.002790 -0.006968 0.002645 -0.009606
# 3 -0.001251 -0.002790 0.009779 -0.006034 -0.002974 0.002331
# 4 -0.002295 -0.006968 -0.006034 0.045082 0.005171 0.006889
# 5 -0.004796 0.002645 -0.002974 0.005171 0.040766 -0.005419
# 6 0.003472 -0.009606 0.002331 0.006889 -0.005419 0.033433
#
#
# Mechanical properties :
#
#
# Convention : Reuss Voigt Hill
#
# Bulk Modulus (GPa) = 41.79127 59.07597 50.43362
# Shear Modulus (GPa) = 27.44422 34.30915 30.87668
#
# Velocity S-wave (km/s) = 3.52041 3.93616 3.73408
# Velocity P-wave (km/s) = 5.94950 6.88007 6.43164
#
# Compressibility (1/GPa) = 0.02392844
#
# Stress axis : x y z
#
# Youngs Moduli (GPa) = 63.78486 71.56946 102.25646
#
# Poissons Ratio (x) = 0.26545 0.12793
# Poissons Ratio (y) = 0.23658 0.28535
# Poissons Ratio (z) = 0.07980 0.19971
#
# Static dielectric constant tensor:
#      x y z
#    x 3.859990 0.211950 -0.096180 
#    y 0.211950 4.320220 0.356080 
#    z -0.096180 0.356080 3.969420 
# 
# 
# High freq. dielectric constant tensor:
#      x y z
#    x 1.862260 0.012930 -0.006380 
#    y 0.012930 1.888310 0.020530 
#    z -0.006380 0.020530 1.859880 
# 
# From -- ./inp_files/315083.got.cif
#   From: 2010.06.25/outbox.cif.g09.slc.cpg/sg2_158_cif.got.tgz:315083.got - 2010.06.27 13:26:56.
