data_PCOD8010591
_publ_section_title
;
Structure prediction by ZEFSAII (Michael W. Deem and Ramdas Pophale) SiO2 
 PCOD8010591
Probable space group: P -1
;
_chemical_formula_sum "Si O2"
_cell_formula_units_Z 12
_cell_length_a 14.306549
_cell_length_b 14.549845
_cell_length_c 9.679100
_cell_angle_alpha 124.780345
_cell_angle_beta 123.026696
_cell_angle_gamma 19.766113
_cell_volume 559.388912
_symmetry_space_group_name_H-M "P -1"
_symmetry_group_IT_number 2
_symmetry_cell_setting 'triclinic'
loop_
_space_group_symop_operation_xyz
x,y,z
-x,-y,-z
loop_
_atom_site_type_symbol
_atom_site_label
_atom_site_fract_x
_atom_site_fract_y
_atom_site_fract_z
Si Si1 0.066069 0.344500 0.030714
Si Si2 0.350410 0.681735 0.402290
Si Si3 0.016449 0.797522 0.311910
Si Si4 0.551890 0.885614 0.232864
Si Si5 0.767745 0.445241 0.441544
Si Si6 0.659660 0.008944 0.571659
O O1 0.792094 0.584982 0.109926
O O2 0.339550 0.123152 0.148169
O O3 0.000000 0.500000 0.000000
O O4 0.131323 0.165324 0.858598
O O5 0.500000 0.500000 0.500000
O O6 0.578769 0.505462 0.317624
O O7 0.150847 0.759573 0.272963
O O8 0.188003 0.944703 0.533159
O O9 0.222984 0.549877 0.378573
O O10 0.381522 0.971804 0.282361
O O11 0.710751 0.844699 0.394220
O O12 0.617944 0.686570 0.456542
O O13 0.073627 0.155923 0.374292
#
# Coordination Sequence:
#
# PCOD8010591 Si02
#       6
#     2   2   2   2   2   2
#     4  12  25  39  64  92 132 156 195 246 319 371
#     4   9  20  36  63  94 120 158 204 251 311 343
#     4  10  21  38  61  98 125 156 197 257 310 364
#     4  11  25  41  57  91 120 174 197 248 302 354
#     4  11  20  36  65  92 113 158 206 260 291 347
#     4  11  22  40  63  82 126 159 221 243 282 366
#
# _framework density 21.451981
#
# number of rings (size 3 to 8) (size 9 to 14) (size 15 to 20)
#    0.000    1.333    1.667    4.500    4.667    2.667 
#    0.000    0.000    0.000    6.000    0.000    0.000 
#    0.000    0.000    0.000    0.000    0.000    0.000 
#
# Total GULP energy -148689.993312 kJ/mol
# GULP energy per Si atom -12390.832776 kJ/mol
# Density = 2.140316 g / cm^3
# Si number density = 21.451981 Si / 1000 Ang^3
#
#
#
# Elastic Constant Matrix: (Units=GPa)
#
#
# Indices 1 2 3 4 5 6 
#
# 1 114.4477 20.7711 31.3094 2.0793 0.0318 -15.1490
# 2 20.7711 92.0177 13.9720 -4.6868 -0.6522 -3.0204
# 3 31.3094 13.9720 58.3316 1.4921 3.0527 3.1588
# 4 2.0793 -4.6868 1.4921 20.4833 2.8887 -1.6885
# 5 0.0318 -0.6522 3.0527 2.8887 25.4897 -0.0523
# 6 -15.1490 -3.0204 3.1588 -1.6885 -0.0523 44.9786
#
#
#
# Elastic Compliance Matrix: (Units=1/GPa)
#
#
# Indices 1 2 3 4 5 6 
#
# 1 0.011170 -0.001535 -0.005865 -0.000831 0.000752 0.004041
# 2 -0.001535 0.011704 -0.002096 0.003000 0.000213 0.000529
# 3 -0.005865 -0.002096 0.021154 -0.001384 -0.002430 -0.003656
# 4 -0.000831 0.003000 -0.001384 0.050624 -0.005490 0.001913
# 5 0.000752 0.000213 -0.002430 -0.005490 0.040150 0.000279
# 6 0.004041 0.000529 -0.003656 0.001913 0.000279 0.023958
#
#
# Mechanical properties :
#
#
# Convention : Reuss Voigt Hill
#
# Bulk Modulus (GPa) = 39.94218 44.10021 42.02119
# Shear Modulus (GPa) = 26.86761 31.43996 29.15379
#
# Velocity S-wave (km/s) = 3.54284 3.83247 3.69050
# Velocity P-wave (km/s) = 5.94940 6.33924 6.14741
#
# Compressibility (1/GPa) = 0.02503619
#
# Stress axis : x y z
#
# Youngs Moduli (GPa) = 89.52187 85.44117 47.27256
#
# Poissons Ratio (x) = 0.13118 0.27725
# Poissons Ratio (y) = 0.13745 0.09908
# Poissons Ratio (z) = 0.52503 0.17907
#
# Static dielectric constant tensor:
#      x y z
#    x 4.703690 -0.310800 0.197830 
#    y -0.310800 3.366720 0.139480 
#    z 0.197830 0.139480 3.410190 
# 
# 
# High freq. dielectric constant tensor:
#      x y z
#    x 1.865170 -0.003870 -0.004890 
#    y -0.003870 1.859130 -0.011290 
#    z -0.004890 -0.011290 1.776760 
# 
# From -- ./inp_files/29928.got.cif
#   From: 2010.06.25/outbox.cif.g09.slc.cpg/sg2_15_cif.got.tgz:29928.got - 2010.06.27 13:26:56.
