data_PCOD8010698
_publ_section_title
;
Structure prediction by ZEFSAII (Michael W. Deem and Ramdas Pophale) SiO2 
 PCOD8010698
Probable space group: P -1
;
_chemical_formula_sum "Si O2"
_cell_formula_units_Z 16
_cell_length_a 14.199621
_cell_length_b 11.635205
_cell_length_c 9.098000
_cell_angle_alpha 57.889175
_cell_angle_beta 56.588015
_cell_angle_gamma 101.298359
_cell_volume 768.138871
_symmetry_space_group_name_H-M "P -1"
_symmetry_group_IT_number 2
_symmetry_cell_setting 'triclinic'
loop_
_space_group_symop_operation_xyz
x,y,z
-x,-y,-z
loop_
_atom_site_type_symbol
_atom_site_label
_atom_site_fract_x
_atom_site_fract_y
_atom_site_fract_z
Si Si1 0.026642 0.391768 0.954288
Si Si2 0.160517 0.469182 0.291998
Si Si3 0.888798 0.014991 0.416795
Si Si4 0.360126 0.171010 0.666417
Si Si5 0.664859 0.640927 0.686197
Si Si6 0.289437 0.512700 0.838458
Si Si7 0.208923 0.159566 0.078588
Si Si8 0.123686 0.739573 0.133414
O O1 0.201411 0.486796 0.782595
O O2 0.000989 0.392533 0.801777
O O3 0.000000 0.500000 0.000000
O O4 0.890813 0.172826 0.261871
O O5 0.264746 0.452604 0.311849
O O6 0.209147 0.666948 0.144378
O O7 0.979597 0.298323 0.612012
O O8 0.180092 0.453042 0.113612
O O9 0.760532 0.824870 0.574190
O O10 0.853843 0.987363 0.638128
O O11 0.056069 0.091031 0.175791
O O12 0.338622 0.296523 0.515412
O O13 0.541650 0.276070 0.433323
O O14 0.313864 0.156167 0.884417
O O15 0.253551 0.961310 0.834221
O O16 0.500000 0.500000 0.000000
O O17 0.313656 0.370494 0.907838
#
# Coordination Sequence:
#
# PCOD8010698 Si02
#       8
#     2   2   2   2   2   2   2   2
#     4  11  23  42  67  92 129 179 227 268 324 409
#     4  11  24  44  68  96 140 176 223 276 337 397
#     4  10  21  38  62  95 122 173 225 268 327 391
#     4  12  25  41  68 104 133 173 227 279 336 404
#     4  12  23  41  64 100 137 173 218 282 343 389
#     4  11  23  43  65  97 133 177 213 282 342 386
#     4  10  22  39  67  92 132 170 223 276 335 392
#     4  11  26  44  70 100 131 182 231 273 330 404
#
# _framework density 20.829567000000001
#
# number of rings (size 3 to 8) (size 9 to 14) (size 15 to 20)
#    0.000    1.000    5.000    1.125    7.000    1.500 
#    2.250    0.000    0.000    3.750    0.000    0.000 
#    0.000    0.000    0.000    0.000    0.000    0.000 
#
# Total GULP energy -198344.851170 kJ/mol
# GULP energy per Si atom -12396.553198 kJ/mol
# Density = 2.078216 g / cm^3
# Si number density = 20.829567 Si / 1000 Ang^3
#
#
#
# Elastic Constant Matrix: (Units=GPa)
#
#
# Indices 1 2 3 4 5 6 
#
# 1 106.5854 38.0770 47.2261 -7.9781 2.3717 -12.0231
# 2 38.0770 97.1455 47.9386 2.3599 -10.0464 -3.6802
# 3 47.2261 47.9386 116.0189 -7.4577 -6.8092 1.3416
# 4 -7.9781 2.3599 -7.4577 30.3711 3.2471 2.6922
# 5 2.3717 -10.0464 -6.8092 3.2471 28.0819 -9.8842
# 6 -12.0231 -3.6802 1.3416 2.6922 -9.8842 33.8056
#
#
#
# Elastic Compliance Matrix: (Units=1/GPa)
#
#
# Indices 1 2 3 4 5 6 
#
# 1 0.012940 -0.003313 -0.003905 0.002631 -0.002291 0.003517
# 2 -0.003313 0.014692 -0.004671 -0.004010 0.005789 0.002618
# 3 -0.003905 -0.004671 0.012359 0.002535 0.000503 -0.002442
# 4 0.002631 -0.004010 0.002535 0.035660 -0.006716 -0.004405
# 5 -0.002291 0.005789 0.000503 -0.006716 0.043351 0.013005
# 6 0.003517 0.002618 -0.002442 -0.004405 0.013005 0.035367
#
#
# Mechanical properties :
#
#
# Convention : Reuss Voigt Hill
#
# Bulk Modulus (GPa) = 61.66797 65.13704 63.40250
# Shear Modulus (GPa) = 27.24040 30.88559 29.06300
#
# Velocity S-wave (km/s) = 3.62024 3.85486 3.73939
# Velocity P-wave (km/s) = 6.86623 7.15210 7.01062
#
# Compressibility (1/GPa) = 0.01621587
#
# Stress axis : x y z
#
# Youngs Moduli (GPa) = 77.27743 68.06224 80.91117
#
# Poissons Ratio (x) = 0.22548 0.31592
# Poissons Ratio (y) = 0.25601 0.37790
# Poissons Ratio (z) = 0.30174 0.31789
#
# Static dielectric constant tensor:
#      x y z
#    x 4.041420 0.185680 0.005230 
#    y 0.185680 3.346940 0.465540 
#    z 0.005230 0.465540 3.001060 
# 
# 
# High freq. dielectric constant tensor:
#      x y z
#    x 1.806940 0.000420 0.012940 
#    y 0.000420 1.812530 -0.004280 
#    z 0.012940 -0.004280 1.818260 
# 
# From -- ./inp_files/208428.got.cif
#   From: 2010.06.25/outbox.cif.g09.slc.cpg/sg2_105_cif.got.tgz:208428.got - 2010.06.27 13:26:56.
