data_PCOD8010029
_publ_section_title
;
Structure prediction by ZEFSAII (Michael W. Deem and Ramdas Pophale) SiO2 
 PCOD8010029
Probable space group: P -1
;
_chemical_formula_sum "Si O2"
_cell_formula_units_Z 14
_cell_length_a 10.959572
_cell_length_b 26.573764
_cell_length_c 8.871270
_cell_angle_alpha 150.948661
_cell_angle_beta 137.833052
_cell_angle_gamma 32.663672
_cell_volume 676.979293
_symmetry_space_group_name_H-M "P -1"
_symmetry_group_IT_number 2
_symmetry_cell_setting 'triclinic'
loop_
_space_group_symop_operation_xyz
x,y,z
-x,-y,-z
loop_
_atom_site_type_symbol
_atom_site_label
_atom_site_fract_x
_atom_site_fract_y
_atom_site_fract_z
Si Si1 0.679454 0.644672 0.190176
Si Si2 0.071103 0.212433 0.723453
Si Si3 0.004465 0.655698 0.301545
Si Si4 0.749788 0.060865 0.884154
Si Si5 0.449077 0.618122 0.351008
Si Si6 0.660527 0.287821 0.195400
Si Si7 0.377026 0.246016 0.258658
O O1 0.589086 0.744792 0.508495
O O2 0.821544 0.674356 0.296412
O O3 0.820400 0.495610 0.978673
O O4 0.466713 0.674931 0.980914
O O5 0.118270 0.265495 0.756841
O O6 0.810542 0.261440 0.614966
O O7 0.245851 0.057350 0.485211
O O8 0.143538 0.261888 0.059142
O O9 0.112986 0.721856 0.651538
O O10 0.687059 0.163940 0.965408
O O11 0.586985 0.118569 0.033053
O O12 0.000000 0.000000 0.000000
O O13 0.471559 0.598323 0.500358
O O14 0.636594 0.636125 0.519288
O O15 0.500000 0.500000 0.000000
#
# Coordination Sequence:
#
# PCOD8010029 Si02
#       7
#     2   2   2   2   2   2   2
#     4  11  24  38  56  94 127 160 193 237 311 374
#     4  11  22  41  66  89 117 160 210 252 301 349
#     4  10  21  39  62  83 125 164 193 238 303 365
#     4  11  20  44  68  86 113 160 213 258 302 346
#     4  10  21  37  64  92 117 157 210 255 291 351
#     4  10  21  40  64  84 122 161 195 248 305 356
#     4  11  23  37  62  92 122 156 205 257 295 360
#
# _framework density 20.680101000000001
#
# number of rings (size 3 to 8) (size 9 to 14) (size 15 to 20)
#    0.000    1.429    4.286    4.286    0.000    5.714 
#    0.000    3.571    0.000    0.000    0.000    0.000 
#    0.000    0.000    0.000    0.000    0.000    0.000 
#
# Total GULP energy -173450.015173 kJ/mol
# GULP energy per Si atom -12389.286798 kJ/mol
# Density = 2.063303 g / cm^3
# Si number density = 20.680101 Si / 1000 Ang^3
#
#
#
# Elastic Constant Matrix: (Units=GPa)
#
#
# Indices 1 2 3 4 5 6 
#
# 1 59.0093 7.1595 31.1770 -2.5866 9.5255 2.9839
# 2 7.1595 40.4685 38.2426 -5.5492 1.8996 3.3802
# 3 31.1770 38.2426 147.0289 -9.2783 0.3429 8.3061
# 4 -2.5866 -5.5492 -9.2783 51.0394 5.3876 2.6834
# 5 9.5255 1.8996 0.3429 5.3876 29.6030 2.7089
# 6 2.9839 3.3802 8.3061 2.6834 2.7089 21.5213
#
#
#
# Elastic Compliance Matrix: (Units=1/GPa)
#
#
# Indices 1 2 3 4 5 6 
#
# 1 0.020343 0.001164 -0.004501 0.001077 -0.006713 -0.000555
# 2 0.001164 0.033297 -0.008629 0.002501 -0.002680 -0.002036
# 3 -0.004501 -0.008629 0.010161 0.000591 0.001984 -0.002266
# 4 0.001077 0.002501 0.000591 0.020598 -0.004003 -0.002834
# 5 -0.006713 -0.002680 0.001984 -0.004003 0.037147 -0.003591
# 6 -0.000555 -0.002036 -0.002266 -0.002834 -0.003591 0.048542
#
#
# Mechanical properties :
#
#
# Convention : Reuss Voigt Hill
#
# Bulk Modulus (GPa) = 25.08214 44.40719 34.74467
# Shear Modulus (GPa) = 24.11863 31.76125 27.93994
#
# Velocity S-wave (km/s) = 3.41878 3.92323 3.67966
# Velocity P-wave (km/s) = 5.26679 6.48400 5.90683
#
# Compressibility (1/GPa) = 0.03986900
#
# Stress axis : x y z
#
# Youngs Moduli (GPa) = 49.15816 30.03249 98.41741
#
# Poissons Ratio (x) = -0.03496 0.44301
# Poissons Ratio (y) = -0.05722 0.84919
# Poissons Ratio (z) = 0.22128 0.25914
#
# Static dielectric constant tensor:
#      x y z
#    x 3.859650 -0.295730 0.014840 
#    y -0.295730 0.676320 -2.861660 
#    z 0.014840 -2.861660 1.275940 
# 
# 
# High freq. dielectric constant tensor:
#      x y z
#    x 1.805750 -0.005490 0.022580 
#    y -0.005490 1.785980 -0.006710 
#    z 0.022580 -0.006710 1.827340 
# 
# From -- ./inp_files/285882.got.cif
#   From: 2010.06.25/outbox.cif.g09.slc.cpg/sg2_143_cif.got.tgz:285882.got - 2010.06.27 13:26:56.
