data_PCOD8010479
_publ_section_title
;
Structure prediction by ZEFSAII (Michael W. Deem and Ramdas Pophale) SiO2 
 PCOD8010479
Probable space group: P -1
;
_chemical_formula_sum "Si O2"
_cell_formula_units_Z 14
_cell_length_a 12.105845
_cell_length_b 5.201906
_cell_length_c 10.804837
_cell_angle_alpha 100.528752
_cell_angle_beta 131.964731
_cell_angle_gamma 71.364444
_cell_volume 478.941021
_symmetry_space_group_name_H-M "P -1"
_symmetry_group_IT_number 2
_symmetry_cell_setting 'triclinic'
loop_
_space_group_symop_operation_xyz
x,y,z
-x,-y,-z
loop_
_atom_site_type_symbol
_atom_site_label
_atom_site_fract_x
_atom_site_fract_y
_atom_site_fract_z
Si Si1 0.917233 0.828875 0.342014
Si Si2 0.517707 0.125090 0.713511
Si Si3 0.161103 0.377526 0.240880
Si Si4 0.185661 0.335270 0.981829
Si Si5 0.340611 0.678371 0.951552
Si Si6 0.325445 0.834430 0.413549
Si Si7 0.779374 0.502723 0.381163
O O1 0.852868 0.901055 0.158236
O O2 0.785386 0.745348 0.313478
O O3 0.071300 0.563938 0.421743
O O4 0.000000 0.000000 0.500000
O O5 0.455580 0.860988 0.613830
O O6 0.378914 0.397352 0.655880
O O7 0.595723 0.234229 0.666146
O O8 0.624022 0.070043 0.916513
O O9 0.206668 0.134184 0.351642
O O10 0.979350 0.453250 0.094889
O O11 0.232271 0.620361 0.360892
O O12 0.245332 0.249748 0.159749
O O13 0.283192 0.499773 0.994089
O O14 0.230629 0.748475 0.748514
O O15 0.500000 0.500000 0.000000
#
# Coordination Sequence:
#
# PCOD8010479 Si02
#       7
#     2   2   2   2   2   2   2
#     4  10  21  38  60  96 124 172 221 276 333 392
#     4  10  21  40  66  95 130 181 219 279 335 406
#     4  11  25  46  69 103 134 179 226 281 339 394
#     4  10  22  41  66  99 136 175 226 281 338 402
#     4   9  18  40  67  95 134 176 225 272 340 403
#     4  11  25  44  70 100 136 176 228 279 335 402
#     4   9  20  39  63  88 131 169 221 274 331 399
#
# _framework density 29.231158000000001
#
# number of rings (size 3 to 8) (size 9 to 14) (size 15 to 20)
#    0.000    2.000    1.429    0.857    2.000    5.714 
#    5.143    0.000    0.000    6.857    0.000    0.000 
#    0.000    0.000    0.000    0.000    0.000    0.000 
#
# Total GULP energy -173496.338838 kJ/mol
# GULP energy per Si atom -12392.595631 kJ/mol
# Density = 2.916463 g / cm^3
# Si number density = 29.231158 Si / 1000 Ang^3
#
#
#
# Elastic Constant Matrix: (Units=GPa)
#
#
# Indices 1 2 3 4 5 6 
#
# 1 133.9031 18.6413 34.8028 3.2483 17.4090 2.2827
# 2 18.6413 84.8525 51.2496 22.9157 0.0465 8.7224
# 3 34.8028 51.2496 233.6633 -12.7988 -13.4185 3.0342
# 4 3.2483 22.9157 -12.7988 51.5419 -0.9266 2.6824
# 5 17.4090 0.0465 -13.4185 -0.9266 38.4793 2.1456
# 6 2.2827 8.7224 3.0342 2.6824 2.1456 31.4901
#
#
#
# Elastic Compliance Matrix: (Units=1/GPa)
#
#
# Indices 1 2 3 4 5 6 
#
# 1 0.008523 -0.000919 -0.001349 -0.000547 -0.004344 0.000109
# 2 -0.000919 0.017076 -0.004082 -0.008385 -0.001036 -0.003485
# 3 -0.001349 -0.004082 0.005711 0.003355 0.002676 0.000210
# 4 -0.000547 -0.008385 0.003355 0.024041 0.002015 -0.000146
# 5 -0.004344 -0.001036 0.002676 0.002015 0.029037 -0.001806
# 6 0.000109 -0.003485 0.000210 -0.000146 -0.001806 0.032829
#
#
# Mechanical properties :
#
#
# Convention : Reuss Voigt Hill
#
# Bulk Modulus (GPa) = 53.73423 73.53404 63.63414
# Shear Modulus (GPa) = 36.73280 47.48393 42.10837
#
# Velocity S-wave (km/s) = 3.54875 4.03479 3.79955
# Velocity P-wave (km/s) = 5.93413 6.84958 6.40822
#
# Compressibility (1/GPa) = 0.01861011
#
# Stress axis : x y z
#
# Youngs Moduli (GPa) = 117.33226 58.56283 175.11493
#
# Poissons Ratio (x) = 0.05381 0.23619
# Poissons Ratio (y) = 0.10780 0.71480
# Poissons Ratio (z) = 0.15826 0.23905
#
# Static dielectric constant tensor:
#      x y z
#    x 5.846100 -1.140700 -0.322610 
#    y -1.140700 6.225700 0.018660 
#    z -0.322610 0.018660 5.506410 
# 
# 
# High freq. dielectric constant tensor:
#      x y z
#    x 2.205710 -0.052230 -0.008550 
#    y -0.052230 2.194460 -0.006810 
#    z -0.008550 -0.006810 2.240990 
# 
# From -- ./inp_files/118875.got.cif
#   From: 2010.06.25/outbox.cif.g09.slc.cpg/sg2_60_cif.got.tgz:118875.got - 2010.06.27 13:26:56.
