data_PCOD8010351
_publ_section_title
;
Structure prediction by ZEFSAII (Michael W. Deem and Ramdas Pophale) SiO2 
 PCOD8010351
Probable space group: P -1
;
_chemical_formula_sum "Si O2"
_cell_formula_units_Z 16
_cell_length_a 9.659800
_cell_length_b 13.895946
_cell_length_c 13.638063
_cell_angle_alpha 53.839691
_cell_angle_beta 149.303704
_cell_angle_gamma 125.168243
_cell_volume 743.985082
_symmetry_space_group_name_H-M "P -1"
_symmetry_group_IT_number 2
_symmetry_cell_setting 'triclinic'
loop_
_space_group_symop_operation_xyz
x,y,z
-x,-y,-z
loop_
_atom_site_type_symbol
_atom_site_label
_atom_site_fract_x
_atom_site_fract_y
_atom_site_fract_z
Si Si1 0.819379 0.318170 0.214650
Si Si2 0.935179 0.097295 0.289153
Si Si3 0.757025 0.247433 0.688976
Si Si4 0.687908 0.836498 0.905648
Si Si5 0.690525 0.509804 0.515647
Si Si6 0.271713 0.212571 0.259381
Si Si7 0.260312 0.486370 0.103246
Si Si8 0.540497 0.955877 0.260725
O O1 0.926325 0.220065 0.270055
O O2 0.575203 0.262355 0.170134
O O3 0.072898 0.374571 0.403584
O O4 0.715663 0.424211 0.027070
O O5 0.997730 0.137833 0.190306
O O6 0.179927 0.028831 0.514582
O O7 0.644459 0.004252 0.185577
O O8 0.823537 0.388806 0.665284
O O9 0.539580 0.212104 0.490176
O O10 0.624318 0.180990 0.748749
O O11 0.040618 0.204519 0.859861
O O12 0.698376 0.853743 0.784560
O O13 0.664903 0.963367 0.865154
O O14 0.500000 0.500000 0.500000
O O15 0.529804 0.524289 0.309740
O O16 0.230391 0.349134 0.129740
O O17 0.000000 0.500000 0.000000
#
# Coordination Sequence:
#
# PCOD8010351 Si02
#       8
#     2   2   2   2   2   2   2   2
#     4  11  22  39  59  90 119 152 194 236 293 345
#     4   9  18  37  62  85 115 151 194 247 289 336
#     4  10  22  38  58  85 119 156 193 235 293 346
#     4  11  24  38  61  85 118 158 195 238 285 351
#     4  11  21  35  61  89 118 151 191 240 289 345
#     4  10  21  38  59  87 117 152 194 236 294 341
#     4  11  20  35  60  86 119 153 184 236 290 347
#     4   9  19  38  61  84 114 154 197 242 290 336
#
# _framework density 21.505807000000001
#
# number of rings (size 3 to 8) (size 9 to 14) (size 15 to 20)
#    0.000    1.750    2.500    2.625    0.000    5.000 
#    0.000    3.125    0.000    6.000    0.000    0.000 
#    0.000    0.000    0.000    0.000    0.000    0.000 
#
# Total GULP energy -198367.448580 kJ/mol
# GULP energy per Si atom -12397.965536 kJ/mol
# Density = 2.145686 g / cm^3
# Si number density = 21.505807 Si / 1000 Ang^3
#
#
#
# Elastic Constant Matrix: (Units=GPa)
#
#
# Indices 1 2 3 4 5 6 
#
# 1 106.5520 14.9611 23.9653 -4.3457 8.7501 19.2067
# 2 14.9611 63.0341 19.2381 -1.2829 4.7611 25.4483
# 3 23.9653 19.2381 87.4010 -16.2646 15.9165 2.7591
# 4 -4.3457 -1.2829 -16.2646 30.8005 1.6755 5.7204
# 5 8.7501 4.7611 15.9165 1.6755 33.8486 -2.7670
# 6 19.2067 25.4483 2.7591 5.7204 -2.7670 25.8656
#
#
#
# Elastic Compliance Matrix: (Units=1/GPa)
#
#
# Indices 1 2 3 4 5 6 
#
# 1 0.012337 0.003708 -0.002440 0.003361 -0.003850 -0.013704
# 2 0.003708 0.031030 -0.004399 0.006323 -0.006421 -0.034899
# 3 -0.002440 -0.004399 0.015579 0.007648 -0.006282 0.002115
# 4 0.003361 0.006323 0.007648 0.041383 -0.009010 -0.019649
# 5 -0.003850 -0.006421 -0.006282 -0.009010 0.036125 0.015703
# 6 -0.013704 -0.034899 0.002115 -0.019649 0.015703 0.088974
#
#
# Mechanical properties :
#
#
# Convention : Reuss Voigt Hill
#
# Bulk Modulus (GPa) = 18.98068 41.47959 30.23014
# Shear Modulus (GPa) = 20.06007 31.35776 25.70892
#
# Velocity S-wave (km/s) = 3.05745 3.82266 3.46127
# Velocity P-wave (km/s) = 4.61617 6.23002 5.48280
#
# Compressibility (1/GPa) = 0.05268516
#
# Stress axis : x y z
#
# Youngs Moduli (GPa) = 81.05911 32.22670 64.18715
#
# Poissons Ratio (x) = -0.11951 0.15660
# Poissons Ratio (y) = -0.30060 0.28238
# Poissons Ratio (z) = 0.19776 0.14178
#
# Static dielectric constant tensor:
#      x y z
#    x 3.808640 0.367210 -0.009430 
#    y 0.367210 4.351670 -0.430830 
#    z -0.009430 -0.430830 4.450400 
# 
# 
# High freq. dielectric constant tensor:
#      x y z
#    x 1.829440 0.015630 0.013050 
#    y 0.015630 1.851020 -0.012140 
#    z 0.013050 -0.012140 1.850580 
# 
# From -- ./inp_files/271817.got.cif
#   From: 2010.06.25/outbox.cif.g09.slc.cpg/sg2_136_cif.got.tgz:271817.got - 2010.06.27 13:26:56.
