data_PCOD8010423
_publ_section_title
;
Structure prediction by ZEFSAII (Michael W. Deem and Ramdas Pophale) SiO2 
 PCOD8010423
Probable space group: P -1
;
_chemical_formula_sum "Si O2"
_cell_formula_units_Z 16
_cell_length_a 22.707946
_cell_length_b 14.821283
_cell_length_c 22.716438
_cell_angle_alpha 150.808558
_cell_angle_beta 167.373456
_cell_angle_gamma 30.299312
_cell_volume 810.351898
_symmetry_space_group_name_H-M "P -1"
_symmetry_group_IT_number 2
_symmetry_cell_setting 'triclinic'
loop_
_space_group_symop_operation_xyz
x,y,z
-x,-y,-z
loop_
_atom_site_type_symbol
_atom_site_label
_atom_site_fract_x
_atom_site_fract_y
_atom_site_fract_z
Si Si1 0.811748 0.833652 0.426437
Si Si2 0.193420 0.742541 0.322607
Si Si3 0.244817 0.403252 0.261905
Si Si4 0.350175 0.622433 0.806122
Si Si5 0.762568 0.754550 0.465478
Si Si6 0.224960 0.900354 0.073832
Si Si7 0.162562 0.324755 0.268703
Si Si8 0.631063 0.378389 0.843145
O O1 0.879476 0.782778 0.531244
O O2 0.057699 0.733513 0.570488
O O3 0.787766 0.053340 0.517557
O O4 0.530950 0.762660 0.093909
O O5 0.178765 0.609600 0.288834
O O6 0.443151 0.672533 0.484451
O O7 0.928079 0.740822 0.022371
O O8 0.173536 0.419370 0.269950
O O9 0.317754 0.452775 0.722147
O O10 0.488359 0.551163 0.839374
O O11 0.490723 0.897027 0.289767
O O12 0.994359 0.787019 0.756946
O O13 0.317387 0.806061 0.171962
O O14 0.101212 0.111385 0.081843
O O15 0.444028 0.334537 0.581575
O O16 0.914971 0.432415 0.125133
#
# Coordination Sequence:
#
# PCOD8010423 Si02
#       8
#     2   2   2   2   2   2   2   2
#     4  12  21  36  59  80 108 148 186 219 271 327
#     4  10  21  38  60  88 115 136 169 223 283 335
#     4  10  21  38  60  88 115 136 169 223 283 335
#     4  11  23  37  52  77 112 150 189 225 260 308
#     4  11  21  35  54  82 114 142 180 225 273 326
#     4  11  21  35  54  82 114 142 180 225 273 326
#     4  12  21  36  59  80 108 148 186 219 271 327
#     4  11  23  37  52  77 112 150 189 225 260 308
#
# _framework density 19.744509000000001
#
# number of rings (size 3 to 8) (size 9 to 14) (size 15 to 20)
#    0.000    1.000    0.000    9.750    0.000    0.000 
#    0.000    0.000    0.000    4.500    0.000    0.000 
#    0.000    0.000    0.000    0.000    0.000    0.000 
#
# Total GULP energy -198518.293255 kJ/mol
# GULP energy per Si atom -12407.393328 kJ/mol
# Density = 1.969957 g / cm^3
# Si number density = 19.744509 Si / 1000 Ang^3
#
#
#
# Elastic Constant Matrix: (Units=GPa)
#
#
# Indices 1 2 3 4 5 6 
#
# 1 107.8559 41.3822 24.4485 -2.6889 9.6747 5.4263
# 2 41.3822 81.5680 27.5218 11.7916 -0.7454 -3.5366
# 3 24.4485 27.5218 106.1146 -0.5611 -1.3412 4.4000
# 4 -2.6889 11.7916 -0.5611 26.1106 -14.1547 4.5085
# 5 9.6747 -0.7454 -1.3412 -14.1547 29.7576 -5.4857
# 6 5.4263 -3.5366 4.4000 4.5085 -5.4857 20.8476
#
#
#
# Elastic Compliance Matrix: (Units=1/GPa)
#
#
# Indices 1 2 3 4 5 6 
#
# 1 0.012931 -0.007044 -0.000929 0.003425 -0.003925 -0.006138
# 2 -0.007044 0.019106 -0.003743 -0.011596 -0.001443 0.007993
# 3 -0.000929 -0.003743 0.010769 0.003254 0.001703 -0.002922
# 4 0.003425 -0.011596 0.003254 0.059269 0.025138 -0.009748
# 5 -0.003925 -0.001443 0.001703 0.025138 0.048297 0.007690
# 6 -0.006138 0.007993 -0.002922 -0.009748 0.007690 0.055669
#
#
# Mechanical properties :
#
#
# Convention : Reuss Voigt Hill
#
# Bulk Modulus (GPa) = 51.61954 53.58260 52.60107
# Shear Modulus (GPa) = 21.19261 28.82222 25.00741
#
# Velocity S-wave (km/s) = 3.27974 3.82482 3.56272
# Velocity P-wave (km/s) = 6.36732 6.83393 6.60475
#
# Compressibility (1/GPa) = 0.01937251
#
# Stress axis : x y z
#
# Youngs Moduli (GPa) = 77.33242 52.33911 92.86207
#
# Poissons Ratio (x) = 0.36867 0.08630
# Poissons Ratio (y) = 0.54473 0.34762
# Poissons Ratio (z) = 0.07187 0.19593
#
# Static dielectric constant tensor:
#      x y z
#    x 3.587130 -0.130750 0.149630 
#    y -0.130750 3.484330 -0.090880 
#    z 0.149630 -0.090880 3.768970 
# 
# 
# High freq. dielectric constant tensor:
#      x y z
#    x 1.761380 -0.011010 0.006230 
#    y -0.011010 1.752020 -0.007410 
#    z 0.006230 -0.007410 1.793410 
# 
# From -- ./inp_files/534327.got.cif
#   From: 2010.06.25/outbox.cif.g09.slc.cpg/sg2_268_cif.got.tgz:534327.got - 2010.06.27 13:26:56.
