data_PCOD8010336
_publ_section_title
;
Structure prediction by ZEFSAII (Michael W. Deem and Ramdas Pophale) SiO2 
 PCOD8010336
Probable space group: P -1
;
_chemical_formula_sum "Si O2"
_cell_formula_units_Z 16
_cell_length_a 8.615900
_cell_length_b 16.957802
_cell_length_c 6.263392
_cell_angle_alpha 76.326479
_cell_angle_beta 93.485394
_cell_angle_gamma 122.808450
_cell_volume 744.809260
_symmetry_space_group_name_H-M "P -1"
_symmetry_group_IT_number 2
_symmetry_cell_setting 'triclinic'
loop_
_space_group_symop_operation_xyz
x,y,z
-x,-y,-z
loop_
_atom_site_type_symbol
_atom_site_label
_atom_site_fract_x
_atom_site_fract_y
_atom_site_fract_z
Si Si1 0.979983 0.241057 0.109698
Si Si2 0.657735 0.696105 0.637957
Si Si3 0.906415 0.018581 0.784859
Si Si4 0.262173 0.108532 0.523381
Si Si5 0.998949 0.402937 0.254982
Si Si6 0.722420 0.466378 0.138348
Si Si7 0.305122 0.964415 0.909653
Si Si8 0.177169 0.361843 0.665667
O O1 0.051546 0.265287 0.856638
O O2 0.796526 0.132182 0.182420
O O3 0.146815 0.252198 0.257052
O O4 0.918983 0.312892 0.141211
O O5 0.606640 0.775222 0.522663
O O6 0.493032 0.620204 0.829836
O O7 0.672960 0.646157 0.456324
O O8 0.060392 0.087525 0.583013
O O9 0.749611 0.922672 0.705068
O O10 0.811016 0.066597 0.860421
O O11 0.000000 0.000000 0.000000
O O12 0.323818 0.053339 0.720308
O O13 0.036667 0.373020 0.502411
O O14 0.850916 0.431613 0.268175
O O15 0.194865 0.491717 0.117007
O O16 0.719633 0.546470 0.229085
O O17 0.500000 0.000000 0.000000
#
# Coordination Sequence:
#
# PCOD8010336 Si02
#       8
#     2   2   2   2   2   2   2   2
#     4  10  22  39  58  85 118 154 196 244 291 347
#     4  11  22  36  60  89 117 152 199 243 289 347
#     4   9  18  36  59  80 111 151 193 237 288 343
#     4  10  21  38  59  85 118 156 195 243 294 346
#     4   9  21  40  60  85 121 155 189 237 295 351
#     4  10  21  38  60  89 119 152 193 239 289 348
#     4  11  24  40  60  87 120 157 199 246 298 353
#     4  10  21  38  61  86 118 155 191 239 293 347
#
# _framework density 21.482009999999999
#
# number of rings (size 3 to 8) (size 9 to 14) (size 15 to 20)
#    0.000    2.000    0.000    3.750    0.000   10.000 
#    0.000    0.000    0.000    0.000    0.000    0.000 
#    0.000    0.000    0.000    0.000    0.000    0.000 
#
# Total GULP energy -198263.344522 kJ/mol
# GULP energy per Si atom -12391.459033 kJ/mol
# Density = 2.143312 g / cm^3
# Si number density = 21.482010 Si / 1000 Ang^3
#
#
#
# Elastic Constant Matrix: (Units=GPa)
#
#
# Indices 1 2 3 4 5 6 
#
# 1 69.8954 48.3265 18.9341 -3.3085 8.7729 3.7417
# 2 48.3265 129.9368 25.1397 -8.7863 8.1658 -0.7271
# 3 18.9341 25.1397 88.1038 -3.1272 8.0138 -2.7278
# 4 -3.3085 -8.7863 -3.1272 25.7306 -5.0247 5.9298
# 5 8.7729 8.1658 8.0138 -5.0247 25.5304 0.5847
# 6 3.7417 -0.7271 -2.7278 5.9298 0.5847 32.0216
#
#
#
# Elastic Compliance Matrix: (Units=1/GPa)
#
#
# Indices 1 2 3 4 5 6 
#
# 1 0.020300 -0.006914 -0.002106 -0.000206 -0.004084 -0.002596
# 2 -0.006914 0.010727 -0.001462 0.002463 -0.000122 0.000473
# 3 -0.002106 -0.001462 0.012512 -0.000105 -0.002788 0.001349
# 4 -0.000206 0.002463 -0.000105 0.043080 0.007979 -0.008052
# 5 -0.004084 -0.000122 -0.002788 0.007979 0.043103 -0.002028
# 6 -0.002596 0.000473 0.001349 -0.008052 -0.002028 0.033186
#
#
# Mechanical properties :
#
#
# Convention : Reuss Voigt Hill
#
# Bulk Modulus (GPa) = 44.29706 52.52629 48.41168
# Shear Modulus (GPa) = 26.12366 29.69225 27.90796
#
# Velocity S-wave (km/s) = 3.49100 3.72182 3.60826
# Velocity P-wave (km/s) = 6.07575 6.55543 6.32014
#
# Compressibility (1/GPa) = 0.02257486
#
# Stress axis : x y z
#
# Youngs Moduli (GPa) = 49.26090 93.21899 79.92632
#
# Poissons Ratio (x) = 0.64456 0.16831
# Poissons Ratio (y) = 0.34061 0.11684
# Poissons Ratio (z) = 0.10374 0.13627
#
# Static dielectric constant tensor:
#      x y z
#    x 3.637380 -0.313070 -0.067480 
#    y -0.313070 3.879910 0.023980 
#    z -0.067480 0.023980 3.747170 
# 
# 
# High freq. dielectric constant tensor:
#      x y z
#    x 1.829190 -0.019680 -0.005860 
#    y -0.019680 1.838850 -0.004300 
#    z -0.005860 -0.004300 1.846860 
# 
# From -- ./inp_files/47515.got.cif
#   From: 2010.06.25/outbox.cif.g09.slc.cpg/sg2_24_cif.got.tgz:47515.got - 2010.06.27 13:26:56.
