data_PCOD8010887
_publ_section_title
;
Structure prediction by ZEFSAII (Michael W. Deem and Ramdas Pophale) SiO2 
 PCOD8010887
Probable space group: P -1
;
_chemical_formula_sum "Si O2"
_cell_formula_units_Z 16
_cell_length_a 11.309307
_cell_length_b 6.590711
_cell_length_c 11.106394
_cell_angle_alpha 81.753096
_cell_angle_beta 109.521668
_cell_angle_gamma 115.182124
_cell_volume 706.087521
_symmetry_space_group_name_H-M "P -1"
_symmetry_group_IT_number 2
_symmetry_cell_setting 'triclinic'
loop_
_space_group_symop_operation_xyz
x,y,z
-x,-y,-z
loop_
_atom_site_type_symbol
_atom_site_label
_atom_site_fract_x
_atom_site_fract_y
_atom_site_fract_z
Si Si1 0.102907 0.819965 0.858116
Si Si2 0.149090 0.032062 0.600779
Si Si3 0.259423 0.171628 0.056145
Si Si4 0.674977 0.371999 0.077386
Si Si5 0.654381 0.180877 0.341380
Si Si6 0.413798 0.874413 0.154345
Si Si7 0.355389 0.471643 0.512520
Si Si8 0.204780 0.426860 0.225697
O O1 0.194930 0.679711 0.908244
O O2 0.953718 0.624880 0.823509
O O3 0.133105 0.991019 0.741600
O O4 0.126447 0.970457 0.973334
O O5 0.274956 0.272493 0.597018
O O6 0.201706 0.844093 0.584073
O O7 0.000000 0.000000 0.500000
O O8 0.230740 0.239620 0.172868
O O9 0.385620 0.098164 0.115022
O O10 0.303726 0.376591 0.961131
O O11 0.650220 0.330718 0.213331
O O12 0.554414 0.205847 0.959951
O O13 0.617965 0.289879 0.436941
O O14 0.539195 0.932794 0.287427
O O15 0.282677 0.673918 0.180661
O O16 0.500000 0.500000 0.500000
O O17 0.244895 0.410499 0.376118
#
# Coordination Sequence:
#
# PCOD8010887 Si02
#       8
#     2   2   2   2   2   2   2   2
#     4  10  21  41  64  94 129 168 219 274 327 390
#     4  11  24  47  70  98 132 175 226 276 329 394
#     4  10  21  38  64  94 129 172 215 266 338 392
#     4   9  21  40  64  96 128 165 217 276 328 393
#     4  11  24  43  69  96 134 176 221 275 336 385
#     4  10  22  39  62  96 131 169 215 272 330 392
#     4  12  26  44  68  98 136 178 227 270 326 401
#     4  11  23  39  59  93 133 172 218 271 320 390
#
# _framework density 22.660081999999999
#
# number of rings (size 3 to 8) (size 9 to 14) (size 15 to 20)
#    0.000    1.500    1.250    3.000    0.000   10.500 
#    2.250    0.000    0.000    0.000    0.000    0.000 
#    0.000    0.000    0.000    0.000    0.000    0.000 
#
# Total GULP energy -198259.206234 kJ/mol
# GULP energy per Si atom -12391.200390 kJ/mol
# Density = 2.260851 g / cm^3
# Si number density = 22.660082 Si / 1000 Ang^3
#
#
#
# Elastic Constant Matrix: (Units=GPa)
#
#
# Indices 1 2 3 4 5 6 
#
# 1 105.3225 47.9001 43.5808 15.2837 7.0704 -0.6121
# 2 47.9001 101.7982 35.9860 1.0132 10.5146 -3.0117
# 3 43.5808 35.9860 106.6513 18.5857 3.7418 -15.9107
# 4 15.2837 1.0132 18.5857 41.0605 2.2179 -6.3992
# 5 7.0704 10.5146 3.7418 2.2179 32.1608 6.7569
# 6 -0.6121 -3.0117 -15.9107 -6.3992 6.7569 38.5961
#
#
#
# Elastic Compliance Matrix: (Units=1/GPa)
#
#
# Indices 1 2 3 4 5 6 
#
# 1 0.013934 -0.005303 -0.003577 -0.003780 -0.000177 -0.002263
# 2 -0.005303 0.013630 -0.002725 0.003208 -0.003401 0.000983
# 3 -0.003577 -0.002725 0.013126 -0.003794 -0.000557 0.004610
# 4 -0.003780 0.003208 -0.003794 0.028115 -0.002498 0.003725
# 5 -0.000177 -0.003401 -0.000557 -0.002498 0.033921 -0.006850
# 6 -0.002263 0.000983 0.004610 0.003725 -0.006850 0.029668
#
#
# Mechanical properties :
#
#
# Convention : Reuss Voigt Hill
#
# Bulk Modulus (GPa) = 57.20939 63.18954 60.19947
# Shear Modulus (GPa) = 30.97303 34.78382 32.87843
#
# Velocity S-wave (km/s) = 3.70111 3.92219 3.81325
# Velocity P-wave (km/s) = 6.60044 6.96117 6.78320
#
# Compressibility (1/GPa) = 0.01747965
#
# Stress axis : x y z
#
# Youngs Moduli (GPa) = 71.76812 73.36533 76.18406
#
# Poissons Ratio (x) = 0.38905 0.27253
# Poissons Ratio (y) = 0.38058 0.20762
# Poissons Ratio (z) = 0.25673 0.19994
#
# Static dielectric constant tensor:
#      x y z
#    x 4.110250 0.038550 0.203210 
#    y 0.038550 3.979820 -0.026560 
#    z 0.203210 -0.026560 4.580480 
# 
# 
# High freq. dielectric constant tensor:
#      x y z
#    x 1.892580 0.002260 0.004090 
#    y 0.002260 1.894430 -0.003450 
#    z 0.004090 -0.003450 1.905960 
# 
# From -- ./inp_files/70720.got.cif
#   From: 2010.06.25/outbox.cif.g09.slc.cpg/sg2_36_cif.got.tgz:70720.got - 2010.06.27 13:26:56.
