data_PCOD8010403
_publ_section_title
;
Structure prediction by ZEFSAII (Michael W. Deem and Ramdas Pophale) SiO2 
 PCOD8010403
Probable space group: P -1
;
_chemical_formula_sum "Si O2"
_cell_formula_units_Z 14
_cell_length_a 9.235687
_cell_length_b 10.863955
_cell_length_c 8.395265
_cell_angle_alpha 98.447028
_cell_angle_beta 79.638701
_cell_angle_gamma 122.140190
_cell_volume 700.298897
_symmetry_space_group_name_H-M "P -1"
_symmetry_group_IT_number 2
_symmetry_cell_setting 'triclinic'
loop_
_space_group_symop_operation_xyz
x,y,z
-x,-y,-z
loop_
_atom_site_type_symbol
_atom_site_label
_atom_site_fract_x
_atom_site_fract_y
_atom_site_fract_z
Si Si1 0.250970 0.884941 0.897254
Si Si2 0.916697 0.595269 0.996133
Si Si3 0.277006 0.320939 0.714492
Si Si4 0.773499 0.822157 0.610147
Si Si5 0.145103 0.007259 0.671769
Si Si6 0.422034 0.580260 0.121959
Si Si7 0.537957 0.829173 0.904920
O O1 0.250061 0.949694 0.737021
O O2 0.377783 0.823831 0.847975
O O3 0.060007 0.758900 0.957813
O O4 0.316627 0.006975 0.044952
O O5 0.803023 0.591126 0.170706
O O6 0.786403 0.523608 0.856308
O O7 0.000000 0.500000 0.000000
O O8 0.255793 0.311953 0.524122
O O9 0.482072 0.386110 0.719902
O O10 0.172673 0.155334 0.775843
O O11 0.615259 0.765157 0.751581
O O12 0.945311 0.880829 0.690601
O O13 0.788969 0.952644 0.517991
O O14 0.500000 0.500000 0.000000
O O15 0.469770 0.730598 0.055981
#
# Coordination Sequence:
#
# PCOD8010403 Si02
#       7
#     2   2   2   2   2   2   2
#     4  11  23  35  62  88 118 150 193 243 282 340
#     4  11  22  38  59  85 121 150 190 241 288 340
#     4   9  19  39  59  84 111 152 190 236 284 337
#     4   9  20  36  60  88 117 143 194 245 283 340
#     4   9  19  37  58  94 110 148 195 239 292 328
#     4  10  21  38  60  86 116 153 195 233 284 344
#     4  11  21  38  60  93 112 151 195 237 290 336
#
# _framework density 19.991461999999999
#
# number of rings (size 3 to 8) (size 9 to 14) (size 15 to 20)
#    0.857    1.143    2.857    0.857    4.000    1.714 
#    0.000    4.286    0.000    1.714    0.000    0.000 
#    0.000    0.000    0.000    0.000    0.000    0.000 
#
# Total GULP energy -173463.737088 kJ/mol
# GULP energy per Si atom -12390.266935 kJ/mol
# Density = 1.994596 g / cm^3
# Si number density = 19.991462 Si / 1000 Ang^3
#
#
#
# Elastic Constant Matrix: (Units=GPa)
#
#
# Indices 1 2 3 4 5 6 
#
# 1 113.2237 30.6435 27.9982 15.6036 18.4610 15.3310
# 2 30.6435 73.4104 7.9016 12.3749 4.1402 15.4697
# 3 27.9982 7.9016 48.4423 12.2364 2.4689 9.5751
# 4 15.6036 12.3749 12.2364 31.7203 3.0905 7.5623
# 5 18.4610 4.1402 2.4689 3.0905 28.7000 -0.0535
# 6 15.3310 15.4697 9.5751 7.5623 -0.0535 38.5397
#
#
#
# Elastic Compliance Matrix: (Units=1/GPa)
#
#
# Indices 1 2 3 4 5 6 
#
# 1 0.012873 -0.003693 -0.005706 -0.001539 -0.007094 -0.001928
# 2 -0.003693 0.016699 0.001380 -0.004121 0.000283 -0.004767
# 3 -0.005706 0.001380 0.026094 -0.007192 0.001995 -0.003353
# 4 -0.001539 -0.004121 -0.007192 0.037641 -0.001856 -0.003335
# 5 -0.007094 0.000283 0.001995 -0.001856 0.039399 0.002632
# 6 -0.001928 -0.004767 -0.003353 -0.003335 0.002632 0.030119
#
#
# Mechanical properties :
#
#
# Convention : Reuss Voigt Hill
#
# Bulk Modulus (GPa) = 25.23609 40.90700 33.07154
# Shear Modulus (GPa) = 26.03195 31.02754 28.52975
#
# Velocity S-wave (km/s) = 3.61245 3.94387 3.78179
# Velocity P-wave (km/s) = 5.48184 6.42226 5.97060
#
# Compressibility (1/GPa) = 0.03962580
#
# Stress axis : x y z
#
# Youngs Moduli (GPa) = 77.68442 59.88542 38.32324
#
# Poissons Ratio (x) = 0.22117 0.21867
# Poissons Ratio (y) = 0.28691 -0.05287
# Poissons Ratio (z) = 0.44327 -0.08262
#
# Static dielectric constant tensor:
#      x y z
#    x 4.113580 0.810290 0.572370 
#    y 0.810290 4.591100 0.516690 
#    z 0.572370 0.516690 3.475650 
# 
# 
# High freq. dielectric constant tensor:
#      x y z
#    x 1.777210 0.014660 0.026470 
#    y 0.014660 1.784620 0.012330 
#    z 0.026470 0.012330 1.745950 
# 
# From -- ./inp_files/179109.got.cif
#   From: 2010.06.25/outbox.cif.g09.slc.cpg/sg2_90_cif.got.tgz:179109.got - 2010.06.27 13:26:56.
