data_PCOD8010447
_publ_section_title
;
Structure prediction by ZEFSAII (Michael W. Deem and Ramdas Pophale) SiO2 
 PCOD8010447
Probable space group: P -1
;
_chemical_formula_sum "Si O2"
_cell_formula_units_Z 14
_cell_length_a 8.383679
_cell_length_b 15.952356
_cell_length_c 16.276841
_cell_angle_alpha 154.702934
_cell_angle_beta 135.699503
_cell_angle_gamma 44.318451
_cell_volume 632.369322
_symmetry_space_group_name_H-M "P -1"
_symmetry_group_IT_number 2
_symmetry_cell_setting 'triclinic'
loop_
_space_group_symop_operation_xyz
x,y,z
-x,-y,-z
loop_
_atom_site_type_symbol
_atom_site_label
_atom_site_fract_x
_atom_site_fract_y
_atom_site_fract_z
Si Si1 0.548310 0.489273 0.240762
Si Si2 0.862879 0.411114 0.598565
Si Si3 0.378358 0.353747 0.430704
Si Si4 0.596191 0.920086 0.162020
Si Si5 0.746389 0.083196 0.515403
Si Si6 0.063334 0.968329 0.293148
Si Si7 0.268826 0.587178 0.939343
O O1 0.706533 0.556924 0.431226
O O2 0.324516 0.674461 0.307039
O O3 0.695212 0.445785 0.173312
O O4 0.477499 0.286794 0.064698
O O5 0.627661 0.417751 0.568925
O O6 0.808645 0.551321 0.622573
O O7 0.053826 0.482839 0.790218
O O8 0.975232 0.184114 0.409545
O O9 0.417213 0.111207 0.223239
O O10 0.852736 0.893332 0.193257
O O11 0.585705 0.970444 0.300916
O O12 0.740383 0.026826 0.559429
O O13 0.000000 0.000000 0.500000
O O14 0.181765 0.822779 0.135282
O O15 0.500000 0.500000 0.000000
#
# Coordination Sequence:
#
# PCOD8010447 Si02
#       7
#     2   2   2   2   2   2   2
#     4  11  22  39  61  90 127 162 201 258 307 370
#     4  10  23  43  68  88 126 161 209 266 298 364
#     4   9  21  45  68  93 113 163 219 259 306 345
#     4   9  20  37  65  91 117 157 212 263 301 357
#     4   9  19  34  56  88 117 158 208 249 305 352
#     4  10  21  38  60  90 121 167 206 249 311 359
#     4  12  26  40  57  95 133 168 200 241 321 380
#
# _framework density 22.138961999999999
#
# number of rings (size 3 to 8) (size 9 to 14) (size 15 to 20)
#    0.000    2.000    1.429    1.714    2.000    6.857 
#    0.000    5.714    0.000    0.000    0.000    0.000 
#    0.000    0.000    0.000    0.000    0.000    0.000 
#
# Total GULP energy -173525.442135 kJ/mol
# GULP energy per Si atom -12394.674438 kJ/mol
# Density = 2.208857 g / cm^3
# Si number density = 22.138962 Si / 1000 Ang^3
#
#
#
# Elastic Constant Matrix: (Units=GPa)
#
#
# Indices 1 2 3 4 5 6 
#
# 1 53.1518 29.1442 23.3050 4.5932 -23.8550 2.5403
# 2 29.1442 116.4726 51.4488 15.3582 -2.6683 2.6460
# 3 23.3050 51.4488 97.3984 22.1028 -20.6438 -14.9576
# 4 4.5932 15.3582 22.1028 37.5776 -6.1424 1.7440
# 5 -23.8550 -2.6683 -20.6438 -6.1424 40.8788 -1.9699
# 6 2.5403 2.6460 -14.9576 1.7440 -1.9699 20.5679
#
#
#
# Elastic Compliance Matrix: (Units=1/GPa)
#
#
# Indices 1 2 3 4 5 6 
#
# 1 0.030826 -0.007300 -0.000699 0.002569 0.017452 -0.001923
# 2 -0.007300 0.014290 -0.008529 -0.000899 -0.008147 -0.007843
# 3 -0.000699 -0.008529 0.021792 -0.008535 0.009658 0.018681
# 4 0.002569 -0.000899 -0.008535 0.032358 0.001558 -0.009003
# 5 0.017452 -0.008147 0.009658 0.001558 0.039689 0.009586
# 6 -0.001923 -0.007843 0.018681 -0.009003 0.009586 0.065133
#
#
# Mechanical properties :
#
#
# Convention : Reuss Voigt Hill
#
# Bulk Modulus (GPa) = 29.53991 52.75765 41.14878
# Shear Modulus (GPa) = 20.12661 30.67983 25.40322
#
# Velocity S-wave (km/s) = 3.01841 3.72665 3.39107
# Velocity P-wave (km/s) = 5.05169 6.51147 5.82747
#
# Compressibility (1/GPa) = 0.03385251
#
# Stress axis : x y z
#
# Youngs Moduli (GPa) = 32.44025 69.97966 45.88749
#
# Poissons Ratio (x) = 0.51084 0.03208
# Poissons Ratio (y) = 0.23681 0.39137
# Poissons Ratio (z) = 0.02268 0.59686
#
# Static dielectric constant tensor:
#      x y z
#    x 3.899280 0.123070 -0.281090 
#    y 0.123070 4.157880 -0.031730 
#    z -0.281090 -0.031730 4.089410 
# 
# 
# High freq. dielectric constant tensor:
#      x y z
#    x 1.854610 0.003570 -0.019640 
#    y 0.003570 1.872810 0.013640 
#    z -0.019640 0.013640 1.870750 
# 
# From -- ./inp_files/90284.got.cif
#   From: 2010.06.25/outbox.cif.g09.slc.cpg/sg2_46_cif.got.tgz:90284.got - 2010.06.27 13:26:56.
