data_PCOD8010947
_publ_section_title
;
Structure prediction by ZEFSAII (Michael W. Deem and Ramdas Pophale) SiO2 
 PCOD8010947
Probable space group: P -1
;
_chemical_formula_sum "Si O2"
_cell_formula_units_Z 12
_cell_length_a 11.577293
_cell_length_b 12.527117
_cell_length_c 8.102095
_cell_angle_alpha 121.477056
_cell_angle_beta 107.418339
_cell_angle_gamma 120.256774
_cell_volume 559.025452
_symmetry_space_group_name_H-M "P -1"
_symmetry_group_IT_number 2
_symmetry_cell_setting 'triclinic'
loop_
_space_group_symop_operation_xyz
x,y,z
-x,-y,-z
loop_
_atom_site_type_symbol
_atom_site_label
_atom_site_fract_x
_atom_site_fract_y
_atom_site_fract_z
Si Si1 0.979114 0.682974 0.198455
Si Si2 0.772075 0.819387 0.823217
Si Si3 0.971336 0.430598 0.192004
Si Si4 0.652283 0.219624 0.147470
Si Si5 0.619276 0.541785 0.817995
Si Si6 0.679531 0.865623 0.139551
O O1 0.976101 0.579432 0.258734
O O2 0.748405 0.545039 0.971754
O O3 0.135335 0.925978 0.502481
O O4 0.059749 0.688297 0.069004
O O5 0.718504 0.646864 0.762057
O O6 0.615588 0.703394 0.507444
O O7 0.750952 0.919371 0.020538
O O8 0.000000 0.000000 0.000000
O O9 0.779994 0.249646 0.088454
O O10 0.188606 0.583047 0.497197
O O11 0.522542 0.218051 0.998926
O O12 0.500000 0.000000 0.000000
O O13 0.623964 0.678651 0.029704
#
# Coordination Sequence:
#
# PCOD8010947 Si02
#       6
#     2   2   2   2   2   2
#     4  11  21  44  61  98 133 159 211 263 327 369
#     4   9  20  39  62  91 120 170 210 247 311 380
#     4  10  25  40  67  90 127 173 207 266 310 370
#     4  11  22  45  64  90 123 172 222 251 305 386
#     4   9  21  40  63  88 131 158 204 269 304 376
#     4  10  21  38  65  90 127 165 207 261 313 377
#
# _framework density 21.465927000000001
#
# number of rings (size 3 to 8) (size 9 to 14) (size 15 to 20)
#    1.000    1.000    1.667    1.500    0.000    3.333 
#    3.000    1.667    0.000    0.000    0.000    0.000 
#    0.000    0.000    0.000    0.000    0.000    0.000 
#
# Total GULP energy -148789.750979 kJ/mol
# GULP energy per Si atom -12399.145915 kJ/mol
# Density = 2.141707 g / cm^3
# Si number density = 21.465927 Si / 1000 Ang^3
#
#
#
# Elastic Constant Matrix: (Units=GPa)
#
#
# Indices 1 2 3 4 5 6 
#
# 1 93.3472 18.2918 56.3537 9.2758 15.6896 -1.1008
# 2 18.2918 49.9417 21.9382 8.9005 3.8137 12.8144
# 3 56.3537 21.9382 158.7955 3.6966 9.8416 12.2727
# 4 9.2758 8.9005 3.6966 25.0626 0.4057 11.7205
# 5 15.6896 3.8137 9.8416 0.4057 50.5476 -2.5801
# 6 -1.1008 12.8144 12.2727 11.7205 -2.5801 35.4759
#
#
#
# Elastic Compliance Matrix: (Units=1/GPa)
#
#
# Indices 1 2 3 4 5 6 
#
# 1 0.015768 -0.003511 -0.005177 -0.006292 -0.003296 0.005387
# 2 -0.003511 0.024550 -0.001444 -0.003785 -0.000823 -0.007287
# 3 -0.005177 -0.001444 0.008551 0.002826 -0.000153 -0.003542
# 4 -0.006292 -0.003785 0.002826 0.050909 0.000433 -0.016594
# 5 -0.003296 -0.000823 -0.000153 0.000433 0.020978 0.001631
# 6 0.005387 -0.007287 -0.003542 -0.016594 0.001631 0.037814
#
#
# Mechanical properties :
#
#
# Convention : Reuss Voigt Hill
#
# Bulk Modulus (GPa) = 34.95447 55.02797 44.99122
# Shear Modulus (GPa) = 26.54368 35.91728 31.23048
#
# Velocity S-wave (km/s) = 3.52028 4.09494 3.81843
# Velocity P-wave (km/s) = 5.73081 6.93172 6.35967
#
# Compressibility (1/GPa) = 0.02860864
#
# Stress axis : x y z
#
# Youngs Moduli (GPa) = 63.41781 40.73241 116.94068
#
# Poissons Ratio (x) = 0.14300 0.60535
# Poissons Ratio (y) = 0.22264 0.16881
# Poissons Ratio (z) = 0.32828 0.05880
#
# Static dielectric constant tensor:
#      x y z
#    x 3.832260 -0.059150 0.031590 
#    y -0.059150 3.525940 -0.096540 
#    z 0.031590 -0.096540 3.900640 
# 
# 
# High freq. dielectric constant tensor:
#      x y z
#    x 1.844220 -0.001240 0.008670 
#    y -0.001240 1.814020 -0.005710 
#    z 0.008670 -0.005710 1.852060 
# 
# From -- ./inp_files/236312.got.cif
#   From: 2010.06.25/outbox.cif.g09.slc.cpg/sg2_119_cif.got.tgz:236312.got - 2010.06.27 13:26:56.
