data_PCOD8010630
_publ_section_title
;
Structure prediction by ZEFSAII (Michael W. Deem and Ramdas Pophale) SiO2 
 PCOD8010630
Probable space group: P -1
;
_chemical_formula_sum "Si O2"
_cell_formula_units_Z 16
_cell_length_a 11.629691
_cell_length_b 13.005627
_cell_length_c 15.975680
_cell_angle_alpha 154.218523
_cell_angle_beta 56.762689
_cell_angle_gamma 132.574967
_cell_volume 759.709331
_symmetry_space_group_name_H-M "P -1"
_symmetry_group_IT_number 2
_symmetry_cell_setting 'triclinic'
loop_
_space_group_symop_operation_xyz
x,y,z
-x,-y,-z
loop_
_atom_site_type_symbol
_atom_site_label
_atom_site_fract_x
_atom_site_fract_y
_atom_site_fract_z
Si Si1 0.335150 0.464199 0.510973
Si Si2 0.187699 0.434603 0.249739
Si Si3 0.361347 0.935214 0.443715
Si Si4 0.377686 0.803333 0.583860
Si Si5 0.141939 0.145347 0.659160
Si Si6 0.879680 0.569103 0.277632
Si Si7 0.061102 0.913127 0.147779
Si Si8 0.889780 0.070610 0.190971
O O1 0.500000 0.500000 0.500000
O O2 0.371570 0.703598 0.606578
O O3 0.250319 0.511997 0.658139
O O4 0.229876 0.167803 0.294216
O O5 0.217326 0.632625 0.303243
O O6 0.325353 0.563104 0.359541
O O7 0.016674 0.352825 0.300279
O O8 0.184820 0.164539 0.021354
O O9 0.500000 0.000000 0.500000
O O10 0.440354 0.960600 0.338524
O O11 0.301096 0.153722 0.635089
O O12 0.254651 0.910969 0.697727
O O13 0.189097 0.382293 0.745590
O O14 0.052344 0.201767 0.810644
O O15 0.040711 0.845997 0.438630
O O16 0.914532 0.323617 0.073343
O O17 0.981331 0.010646 0.182584
#
# Coordination Sequence:
#
# PCOD8010630 Si02
#       8
#     2   2   2   2   2   2   2   2
#     4  11  25  41  60  88 126 169 214 254 309 374
#     4  10  22  38  61  95 126 158 209 258 311 368
#     4  10  21  38  62  88 128 165 198 251 317 370
#     4  11  23  40  63  90 131 171 202 256 318 366
#     4  10  21  41  63  92 124 160 210 258 311 371
#     4  10  23  40  66  89 120 164 214 263 304 365
#     4  11  22  39  67  93 122 161 210 264 314 368
#     4  11  23  37  67  98 122 159 214 259 313 372
#
# _framework density 21.060686
#
# number of rings (size 3 to 8) (size 9 to 14) (size 15 to 20)
#    0.000    1.500    1.250    3.750    7.000    1.000 
#    0.000    6.250    0.000    0.000    0.000    0.000 
#    0.000    0.000    0.000    0.000    0.000    0.000 
#
# Total GULP energy -198398.563905 kJ/mol
# GULP energy per Si atom -12399.910244 kJ/mol
# Density = 2.101275 g / cm^3
# Si number density = 21.060686 Si / 1000 Ang^3
#
#
#
# Elastic Constant Matrix: (Units=GPa)
#
#
# Indices 1 2 3 4 5 6 
#
# 1 125.7199 45.3019 41.6208 -5.5375 -20.0999 -8.6764
# 2 45.3019 185.5992 46.7003 -3.6845 -16.2974 -13.7441
# 3 41.6208 46.7003 88.1169 -13.0635 -11.8992 1.2874
# 4 -5.5375 -3.6845 -13.0635 24.1118 -4.0068 -3.3804
# 5 -20.0999 -16.2974 -11.8992 -4.0068 26.6858 -4.3046
# 6 -8.6764 -13.7441 1.2874 -3.3804 -4.3046 28.7642
#
#
#
# Elastic Compliance Matrix: (Units=1/GPa)
#
#
# Indices 1 2 3 4 5 6 
#
# 1 0.010972 -0.000779 -0.003502 0.002342 0.007298 0.004461
# 2 -0.000779 0.006832 -0.002862 0.000313 0.002943 0.003635
# 3 -0.003502 -0.002862 0.016233 0.007950 0.003780 -0.001651
# 4 0.002342 0.000313 0.007950 0.049949 0.014374 0.008521
# 5 0.007298 0.002943 0.003780 0.014374 0.050661 0.012709
# 6 0.004461 0.003635 -0.001651 0.008521 0.012709 0.040825
#
#
# Mechanical properties :
#
#
# Convention : Reuss Voigt Hill
#
# Bulk Modulus (GPa) = 50.63280 74.07577 62.35428
# Shear Modulus (GPa) = 25.46568 33.63323 29.54945
#
# Velocity S-wave (km/s) = 3.48107 4.00054 3.74981
# Velocity P-wave (km/s) = 6.34434 7.52250 6.95840
#
# Compressibility (1/GPa) = 0.01975005
#
# Stress axis : x y z
#
# Youngs Moduli (GPa) = 91.13913 146.36812 61.60395
#
# Poissons Ratio (x) = 0.11406 0.21574
# Poissons Ratio (y) = 0.07102 0.17632
# Poissons Ratio (z) = 0.31918 0.41893
#
# Static dielectric constant tensor:
#      x y z
#    x 3.748640 0.022660 0.028460 
#    y 0.022660 4.555050 0.010070 
#    z 0.028460 0.010070 3.689970 
# 
# 
# High freq. dielectric constant tensor:
#      x y z
#    x 1.821540 -0.005650 -0.005570 
#    y -0.005650 1.850430 -0.006600 
#    z -0.005570 -0.006600 1.806060 
# 
# From -- ./inp_files/519366.got.cif
#   From: 2010.06.25/outbox.cif.g09.slc.cpg/sg2_260_cif.got.tgz:519366.got - 2010.06.27 13:26:56.
