data_PCOD8010562
_publ_section_title
;
Structure prediction by ZEFSAII (Michael W. Deem and Ramdas Pophale) SiO2 
 PCOD8010562
Probable space group: P -1
;
_chemical_formula_sum "Si O2"
_cell_formula_units_Z 14
_cell_length_a 8.990777
_cell_length_b 14.818194
_cell_length_c 12.110263
_cell_angle_alpha 128.551851
_cell_angle_beta 146.272116
_cell_angle_gamma 63.842547
_cell_volume 689.348322
_symmetry_space_group_name_H-M "P -1"
_symmetry_group_IT_number 2
_symmetry_cell_setting 'triclinic'
loop_
_space_group_symop_operation_xyz
x,y,z
-x,-y,-z
loop_
_atom_site_type_symbol
_atom_site_label
_atom_site_fract_x
_atom_site_fract_y
_atom_site_fract_z
Si Si1 0.211215 0.118881 0.736693
Si Si2 0.885024 0.829478 0.034707
Si Si3 0.364254 0.695508 0.222551
Si Si4 0.541279 0.642476 0.528454
Si Si5 0.933027 0.483815 0.719554
Si Si6 0.706982 0.056316 0.075666
Si Si7 0.128528 0.263813 0.589069
O O1 0.186728 0.175218 0.884115
O O2 0.163228 0.217583 0.697695
O O3 0.513682 0.087524 0.881419
O O4 0.000000 0.000000 0.500000
O O5 0.179351 0.795342 0.175042
O O6 0.892125 0.959454 0.086184
O O7 0.647440 0.742338 0.759511
O O8 0.510108 0.699640 0.434316
O O9 0.589297 0.725328 0.291158
O O10 0.188189 0.567668 0.995747
O O11 0.756874 0.554356 0.585802
O O12 0.248918 0.575124 0.336332
O O13 0.040116 0.389793 0.636719
O O14 0.896226 0.176127 0.316757
O O15 0.500000 0.000000 0.000000
#
# Coordination Sequence:
#
# PCOD8010562 Si02
#       7
#     2   2   2   2   2   2   2
#     4  11  22  40  68  92 120 162 213 260 302 371
#     4  10  22  40  65  92 125 162 212 257 305 374
#     4  11  25  40  62  95 131 168 203 254 321 367
#     4  10  22  41  66  91 125 166 211 258 309 366
#     4  10  22  41  64  92 123 165 219 255 300 373
#     4  10  21  38  61  92 119 160 210 252 310 358
#     4  12  24  40  64  95 130 165 206 261 314 367
#
# _framework density 20.309035999999999
#
# number of rings (size 3 to 8) (size 9 to 14) (size 15 to 20)
#    0.000    1.429    2.857    3.429    2.000    6.857 
#    0.000    1.429    0.000    0.000    0.000    0.000 
#    0.000    0.000    0.000    0.000    0.000    0.000 
#
# Total GULP energy -173622.067208 kJ/mol
# GULP energy per Si atom -12401.576229 kJ/mol
# Density = 2.026281 g / cm^3
# Si number density = 20.309036 Si / 1000 Ang^3
#
#
#
# Elastic Constant Matrix: (Units=GPa)
#
#
# Indices 1 2 3 4 5 6 
#
# 1 85.0065 39.4162 58.0577 5.7287 8.9551 -16.1503
# 2 39.4162 126.4214 63.5705 -2.3162 -10.1908 -38.0469
# 3 58.0577 63.5705 147.2731 -0.2898 -8.3312 -11.1129
# 4 5.7287 -2.3162 -0.2898 30.0158 -7.7609 -1.8257
# 5 8.9551 -10.1908 -8.3312 -7.7609 17.1237 -2.4470
# 6 -16.1503 -38.0469 -11.1129 -1.8257 -2.4470 26.1509
#
#
#
# Elastic Compliance Matrix: (Units=1/GPa)
#
#
# Indices 1 2 3 4 5 6 
#
# 1 0.023147 -0.005117 -0.008284 -0.011128 -0.024183 0.000290
# 2 -0.005117 0.023542 -0.004320 0.010964 0.024167 0.032282
# 3 -0.008284 -0.004320 0.011995 0.003182 0.008281 -0.005307
# 4 -0.011128 0.010964 0.003182 0.047116 0.037712 0.017249
# 5 -0.024183 0.024167 0.008281 0.037712 0.111814 0.036841
# 6 0.000290 0.032282 -0.005307 0.017249 0.036841 0.087783
#
#
# Mechanical properties :
#
#
# Convention : Reuss Voigt Hill
#
# Bulk Modulus (GPa) = 43.02666 75.64329 59.33497
# Shear Modulus (GPa) = 14.34362 27.83517 21.08939
#
# Velocity S-wave (km/s) = 2.66045 3.70615 3.22595
# Velocity P-wave (km/s) = 5.53799 7.45929 6.56926
#
# Compressibility (1/GPa) = 0.02324141
#
# Stress axis : x y z
#
# Youngs Moduli (GPa) = 43.20185 42.47675 83.36866
#
# Poissons Ratio (x) = 0.21736 0.69065
# Poissons Ratio (y) = 0.22107 0.36016
# Poissons Ratio (z) = 0.35789 0.18350
#
# Static dielectric constant tensor:
#      x y z
#    x 3.424010 -0.195740 0.076260 
#    y -0.195740 4.239040 -0.222010 
#    z 0.076260 -0.222010 3.823370 
# 
# 
# High freq. dielectric constant tensor:
#      x y z
#    x 1.764720 -0.013860 0.002990 
#    y -0.013860 1.812230 -0.006080 
#    z 0.002990 -0.006080 1.810000 
# 
# From -- ./inp_files/27485.got.cif
#   From: 2010.06.25/outbox.cif.g09.slc.cpg/sg2_14_cif.got.tgz:27485.got - 2010.06.27 13:26:56.
