data_PCOD8010752
_publ_section_title
;
Structure prediction by ZEFSAII (Michael W. Deem and Ramdas Pophale) SiO2 
 PCOD8010752
Probable space group: P -1
;
_chemical_formula_sum "Si O2"
_cell_formula_units_Z 16
_cell_length_a 9.336169
_cell_length_b 12.055169
_cell_length_c 15.916118
_cell_angle_alpha 39.964744
_cell_angle_beta 41.989300
_cell_angle_gamma 59.455173
_cell_volume 761.834445
_symmetry_space_group_name_H-M "P -1"
_symmetry_group_IT_number 2
_symmetry_cell_setting 'triclinic'
loop_
_space_group_symop_operation_xyz
x,y,z
-x,-y,-z
loop_
_atom_site_type_symbol
_atom_site_label
_atom_site_fract_x
_atom_site_fract_y
_atom_site_fract_z
Si Si1 0.702007 0.555813 0.318794
Si Si2 0.812453 0.241748 0.739725
Si Si3 0.880926 0.719874 0.854062
Si Si4 0.751431 0.601744 0.623575
Si Si5 0.693072 0.396805 0.234308
Si Si6 0.315637 0.943330 0.262570
Si Si7 0.972807 0.681109 0.648820
Si Si8 0.206127 0.040810 0.947679
O O1 0.500000 0.500000 0.500000
O O2 0.654630 0.468624 0.300893
O O3 0.907922 0.488613 0.309760
O O4 0.771385 0.758298 0.155101
O O5 0.705129 0.392072 0.747791
O O6 0.056379 0.314670 0.567590
O O7 0.674246 0.183331 0.749637
O O8 0.830478 0.076761 0.885830
O O9 0.136137 0.741678 0.755471
O O10 0.853106 0.699864 0.777613
O O11 0.770532 0.884285 0.835447
O O12 0.766931 0.546777 0.047866
O O13 0.542162 0.693719 0.639657
O O14 0.791652 0.649059 0.675482
O O15 0.148203 0.853333 0.456856
O O16 0.554338 0.986677 0.176057
O O17 0.000000 0.000000 0.000000
#
# Coordination Sequence:
#
# PCOD8010752 Si02
#       8
#     2   2   2   2   2   2   2   2
#     4  11  22  39  62  88 126 162 204 251 320 367
#     4  10  22  37  61  91 126 159 198 251 320 376
#     4  10  22  40  60  85 119 166 218 240 297 373
#     4  10  21  38  63  91 123 157 205 257 314 359
#     4  10  22  39  64  86 116 169 206 255 296 370
#     4  11  21  40  60  85 124 165 200 249 311 371
#     4  10  22  39  62  89 120 168 202 253 302 369
#     4  12  24  35  60  95 125 155 202 261 309 361
#
# _framework density 21.001939
#
# number of rings (size 3 to 8) (size 9 to 14) (size 15 to 20)
#    0.000    1.500    1.250    3.750    5.250    0.500 
#    0.000    6.250    0.000    0.000    0.000    0.000 
#    0.000    0.000    0.000    0.000    0.000    0.000 
#
# Total GULP energy -198352.333927 kJ/mol
# GULP energy per Si atom -12397.020870 kJ/mol
# Density = 2.095414 g / cm^3
# Si number density = 21.001939 Si / 1000 Ang^3
#
#
#
# Elastic Constant Matrix: (Units=GPa)
#
#
# Indices 1 2 3 4 5 6 
#
# 1 142.4145 34.4457 30.1381 9.9833 -25.0309 -12.2693
# 2 34.4457 59.2128 14.1907 -2.4003 -11.6391 -8.0167
# 3 30.1381 14.1907 75.0959 -3.6919 6.8216 6.1010
# 4 9.9833 -2.4003 -3.6919 33.7950 -2.6764 12.6259
# 5 -25.0309 -11.6391 6.8216 -2.6764 35.4825 7.4044
# 6 -12.2693 -8.0167 6.1010 12.6259 7.4044 29.1483
#
#
#
# Elastic Compliance Matrix: (Units=1/GPa)
#
#
# Indices 1 2 3 4 5 6 
#
# 1 0.010798 -0.003415 -0.004948 -0.005591 0.005863 0.005574
# 2 -0.003415 0.021036 -0.003223 0.001264 0.004512 0.003329
# 3 -0.004948 -0.003223 0.017321 0.005440 -0.005913 -0.007449
# 4 -0.005591 0.001264 0.005440 0.040090 0.002881 -0.021242
# 5 0.005863 0.004512 -0.005913 0.002881 0.036306 -0.005524
# 6 0.005574 0.003329 -0.007449 -0.021242 -0.005524 0.049732
#
#
# Mechanical properties :
#
#
# Convention : Reuss Voigt Hill
#
# Bulk Modulus (GPa) = 38.48748 48.25249 43.36998
# Shear Modulus (GPa) = 24.14110 32.88175 28.51142
#
# Velocity S-wave (km/s) = 3.39406 3.96113 3.68851
# Velocity P-wave (km/s) = 5.80732 6.62916 6.23181
#
# Compressibility (1/GPa) = 0.02598247
#
# Stress axis : x y z
#
# Youngs Moduli (GPa) = 92.61359 47.53785 57.73343
#
# Poissons Ratio (x) = 0.16233 0.28569
# Poissons Ratio (y) = 0.31626 0.18606
# Poissons Ratio (z) = 0.45829 0.15320
#
# Static dielectric constant tensor:
#      x y z
#    x 4.174970 -0.193080 -0.009410 
#    y -0.193080 3.771720 -0.024470 
#    z -0.009410 -0.024470 3.935000 
# 
# 
# High freq. dielectric constant tensor:
#      x y z
#    x 1.832540 -0.014400 0.008540 
#    y -0.014400 1.806820 0.006280 
#    z 0.008540 0.006280 1.831290 
# 
# From -- ./inp_files/308183.got.cif
#   From: 2010.06.25/outbox.cif.g09.slc.cpg/sg2_155_cif.got.tgz:308183.got - 2010.06.27 13:26:56.
