data_PCOD8010462
_publ_section_title
;
Structure prediction by ZEFSAII (Michael W. Deem and Ramdas Pophale) SiO2 
 PCOD8010462
Probable space group: P -1
;
_chemical_formula_sum "Si O2"
_cell_formula_units_Z 16
_cell_length_a 10.748463
_cell_length_b 6.923056
_cell_length_c 12.096229
_cell_angle_alpha 114.904527
_cell_angle_beta 105.530195
_cell_angle_gamma 72.337991
_cell_volume 767.652129
_symmetry_space_group_name_H-M "P -1"
_symmetry_group_IT_number 2
_symmetry_cell_setting 'triclinic'
loop_
_space_group_symop_operation_xyz
x,y,z
-x,-y,-z
loop_
_atom_site_type_symbol
_atom_site_label
_atom_site_fract_x
_atom_site_fract_y
_atom_site_fract_z
Si Si1 0.998008 0.923027 0.719982
Si Si2 0.777141 0.923641 0.311096
Si Si3 0.895766 0.351276 0.932331
Si Si4 0.324638 0.549208 0.269021
Si Si5 0.361782 0.438569 0.482776
Si Si6 0.814282 0.411856 0.170827
Si Si7 0.719774 0.971716 0.563398
Si Si8 0.382751 0.701691 0.750575
O O1 0.068426 0.705284 0.748452
O O2 0.867695 0.876525 0.620055
O O3 0.090030 0.991804 0.663495
O O4 0.963365 0.114272 0.847694
O O5 0.805655 0.667813 0.235994
O O6 0.725927 0.991133 0.437932
O O7 0.659962 0.040705 0.226783
O O8 0.781887 0.475496 0.853066
O O9 0.836119 0.323301 0.030866
O O10 0.000000 0.500000 0.000000
O O11 0.272345 0.488644 0.362700
O O12 0.460371 0.382603 0.229394
O O13 0.344966 0.796510 0.340710
O O14 0.500000 0.500000 0.500000
O O15 0.375309 0.187152 0.460082
O O16 0.306913 0.585297 0.610787
O O17 0.676142 0.352303 0.159607
#
# Coordination Sequence:
#
# PCOD8010462 Si02
#       8
#     2   2   2   2   2   2   2   2
#     4  10  24  40  63  95 124 167 217 262 313 380
#     4  11  21  39  62  96 129 168 205 260 321 381
#     4  11  23  44  68  89 125 170 215 265 313 373
#     4  10  24  42  63  95 129 166 215 261 308 378
#     4  10  21  38  60  92 129 162 204 256 311 376
#     4  11  23  41  66  87 128 172 208 264 317 364
#     4  11  22  37  65  96 129 170 206 258 325 377
#     4  10  22  41  62  94 129 163 210 259 315 382
#
# _framework density 20.842772
#
# number of rings (size 3 to 8) (size 9 to 14) (size 15 to 20)
#    0.000    1.500    3.750    0.750    1.750    5.000 
#    0.000    0.625    0.000    0.000    0.000    0.000 
#    0.000    0.000    0.000    0.000    0.000    0.000 
#
# Total GULP energy -198393.299536 kJ/mol
# GULP energy per Si atom -12399.581221 kJ/mol
# Density = 2.079533 g / cm^3
# Si number density = 20.842772 Si / 1000 Ang^3
#
#
#
# Elastic Constant Matrix: (Units=GPa)
#
#
# Indices 1 2 3 4 5 6 
#
# 1 107.4969 55.3161 45.6316 -7.2215 -7.7381 2.1773
# 2 55.3161 145.3374 30.2807 -6.6873 3.8138 2.1383
# 3 45.6316 30.2807 78.2616 -15.8758 -8.2656 17.0974
# 4 -7.2215 -6.6873 -15.8758 32.4801 2.1502 -4.5118
# 5 -7.7381 3.8138 -8.2656 2.1502 30.6661 -5.5203
# 6 2.1773 2.1383 17.0974 -4.5118 -5.5203 38.4609
#
#
#
# Elastic Compliance Matrix: (Units=1/GPa)
#
#
# Indices 1 2 3 4 5 6 
#
# 1 0.014741 -0.004206 -0.007544 -0.001041 0.002829 0.003037
# 2 -0.004206 0.008800 -0.001103 0.000495 -0.002499 -0.000062
# 3 -0.007544 -0.001103 0.020942 0.007130 0.001992 -0.007699
# 4 -0.001041 0.000495 0.007130 0.034297 -0.000665 0.000790
# 5 0.002829 -0.002499 0.001992 -0.000665 0.034943 0.004030
# 6 0.003037 -0.000062 -0.007699 0.000790 0.004030 0.029925
#
#
# Mechanical properties :
#
#
# Convention : Reuss Voigt Hill
#
# Bulk Modulus (GPa) = 53.25225 65.95029 59.60127
# Shear Modulus (GPa) = 28.47173 33.64591 31.05882
#
# Velocity S-wave (km/s) = 3.69999 4.02216 3.86443
# Velocity P-wave (km/s) = 6.62255 7.29937 6.96918
#
# Compressibility (1/GPa) = 0.01877855
#
# Stress axis : x y z
#
# Youngs Moduli (GPa) = 67.83721 113.63300 47.75197
#
# Poissons Ratio (x) = 0.47790 0.36022
# Poissons Ratio (y) = 0.28530 0.05267
# Poissons Ratio (z) = 0.51174 0.12533
#
# Static dielectric constant tensor:
#      x y z
#    x 3.695300 -0.037020 -0.277550 
#    y -0.037020 3.961520 -0.217390 
#    z -0.277550 -0.217390 4.001740 
# 
# 
# High freq. dielectric constant tensor:
#      x y z
#    x 1.811460 -0.004260 -0.018690 
#    y -0.004260 1.833500 -0.010020 
#    z -0.018690 -0.010020 1.805010 
# 
# From -- ./inp_files/67165.got.cif
#   From: 2010.06.25/outbox.cif.g09.slc.cpg/sg2_34_cif.got.tgz:67165.got - 2010.06.27 13:26:56.
