data_PCOD8010822
_publ_section_title
;
Structure prediction by ZEFSAII (Michael W. Deem and Ramdas Pophale) SiO2 
 PCOD8010822
Probable space group: P -1
;
_chemical_formula_sum "Si O2"
_cell_formula_units_Z 14
_cell_length_a 13.743020
_cell_length_b 14.538826
_cell_length_c 12.977911
_cell_angle_alpha 20.727149
_cell_angle_beta 128.045375
_cell_angle_gamma 130.899596
_cell_volume 693.605453
_symmetry_space_group_name_H-M "P -1"
_symmetry_group_IT_number 2
_symmetry_cell_setting 'triclinic'
loop_
_space_group_symop_operation_xyz
x,y,z
-x,-y,-z
loop_
_atom_site_type_symbol
_atom_site_label
_atom_site_fract_x
_atom_site_fract_y
_atom_site_fract_z
Si Si1 0.331170 0.096906 0.983947
Si Si2 0.700815 0.858181 0.324483
Si Si3 0.143456 0.656653 0.796228
Si Si4 0.620623 0.273348 0.980605
Si Si5 0.997108 0.085072 0.265323
Si Si6 0.182726 0.487897 0.573596
Si Si7 0.067732 0.457205 0.744779
O O1 0.333015 0.124308 0.834279
O O2 0.477819 0.177326 0.034966
O O3 0.260713 0.296982 0.779130
O O4 0.262118 0.796527 0.289493
O O5 0.640563 0.555755 0.640188
O O6 0.852936 0.941359 0.354974
O O7 0.638238 0.057313 0.135927
O O8 0.151936 0.662847 0.669856
O O9 0.083687 0.888602 0.554818
O O10 0.284565 0.704055 0.884702
O O11 0.050893 0.360264 0.079435
O O12 0.005265 0.164434 0.065609
O O13 0.158579 0.422038 0.747768
O O14 0.046596 0.424065 0.493050
#
# Coordination Sequence:
#
# PCOD8010822 Si02
#       7
#     2   2   2   2   2   2   2
#     4  12  24  43  59  94 120 161 205 250 281 378
#     4  12  23  41  63  90 117 166 199 258 293 349
#     4  10  22  40  59  91 127 157 195 251 292 369
#     4  12  26  40  62  84 129 166 204 234 303 348
#     4  10  21  38  64  87 128 145 203 251 302 347
#     4  11  23  39  71  89 120 155 200 247 324 333
#     4   9  23  40  66  95 121 149 194 265 301 361
#
# _framework density 20.184384999999999
#
# number of rings (size 3 to 8) (size 9 to 14) (size 15 to 20)
#    0.857    0.286    1.429    5.143    2.000    4.571 
#    0.000    1.429    0.000    0.000    0.000    0.000 
#    0.000    0.000    0.000    0.000    0.000    0.000 
#
# Total GULP energy -173607.954503 kJ/mol
# GULP energy per Si atom -12400.568179 kJ/mol
# Density = 2.013844 g / cm^3
# Si number density = 20.184385 Si / 1000 Ang^3
#
#
#
# Elastic Constant Matrix: (Units=GPa)
#
#
# Indices 1 2 3 4 5 6 
#
# 1 115.6618 30.6413 60.5872 5.0543 13.6411 8.2505
# 2 30.6413 112.6011 -15.0921 -26.6062 -19.5181 1.1375
# 3 60.5872 -15.0921 176.6642 8.1439 44.8056 16.8419
# 4 5.0543 -26.6062 8.1439 50.3712 18.6196 16.7190
# 5 13.6411 -19.5181 44.8056 18.6196 52.4141 18.7279
# 6 8.2505 1.1375 16.8419 16.7190 18.7279 30.7601
#
#
#
# Elastic Compliance Matrix: (Units=1/GPa)
#
#
# Indices 1 2 3 4 5 6 
#
# 1 0.012420 -0.004895 -0.004536 -0.003408 -0.000499 0.001490
# 2 -0.004895 0.013157 0.002069 0.007950 0.004133 -0.007144
# 3 -0.004536 0.002069 0.008981 0.002913 -0.006193 -0.001590
# 4 -0.003408 0.007950 0.002913 0.030417 -0.004080 -0.015023
# 5 -0.000499 0.004133 -0.006193 -0.004080 0.032582 -0.014248
# 6 0.001490 -0.007144 -0.001590 -0.015023 -0.014248 0.050085
#
#
# Mechanical properties :
#
#
# Convention : Reuss Voigt Hill
#
# Bulk Modulus (GPa) = 50.41681 61.91110 56.16396
# Shear Modulus (GPa) = 29.58979 48.62847 39.10913
#
# Velocity S-wave (km/s) = 3.83296 4.91370 4.40659
# Velocity P-wave (km/s) = 6.67990 7.93296 7.33325
#
# Compressibility (1/GPa) = 0.01983466
#
# Stress axis : x y z
#
# Youngs Moduli (GPa) = 80.51378 76.00419 111.34954
#
# Poissons Ratio (x) = 0.37201 0.50508
# Poissons Ratio (y) = 0.39409 -0.23037
# Poissons Ratio (z) = 0.36521 -0.15725
#
# Static dielectric constant tensor:
#      x y z
#    x 3.654950 0.009800 -0.022670 
#    y 0.009800 3.726640 -0.020680 
#    z -0.022670 -0.020680 3.696720 
# 
# 
# High freq. dielectric constant tensor:
#      x y z
#    x 1.780530 -0.002880 0.003830 
#    y -0.002880 1.792150 -0.001050 
#    z 0.003830 -0.001050 1.801260 
# 
# From -- ./inp_files/481481.got.cif
#   From: 2010.06.25/outbox.cif.g09.slc.cpg/sg2_241_cif.got.tgz:481481.got - 2010.06.27 13:26:56.
