data_PCOD8010230
_publ_section_title
;
Structure prediction by ZEFSAII (Michael W. Deem and Ramdas Pophale) SiO2 
 PCOD8010230
Probable space group: P -1
;
_chemical_formula_sum "Si O2"
_cell_formula_units_Z 14
_cell_length_a 23.104501
_cell_length_b 28.637117
_cell_length_c 8.745498
_cell_angle_alpha 40.211667
_cell_angle_beta 139.228414
_cell_angle_gamma 169.077942
_cell_volume 706.506471
_symmetry_space_group_name_H-M "P -1"
_symmetry_group_IT_number 2
_symmetry_cell_setting 'triclinic'
loop_
_space_group_symop_operation_xyz
x,y,z
-x,-y,-z
loop_
_atom_site_type_symbol
_atom_site_label
_atom_site_fract_x
_atom_site_fract_y
_atom_site_fract_z
Si Si1 0.266836 0.879232 0.512146
Si Si2 0.970001 0.757701 0.725868
Si Si3 0.650817 0.757665 0.075943
Si Si4 0.850585 0.243647 0.760055
Si Si5 0.528987 0.241392 0.134315
Si Si6 0.766288 0.878988 0.658717
Si Si7 0.249467 0.499678 0.346267
O O1 0.139345 0.752771 0.411466
O O2 0.006592 0.661480 0.660439
O O3 0.564151 0.066431 0.687986
O O4 0.338783 0.020138 0.300116
O O5 0.657553 0.522989 0.783959
O O6 0.895024 0.676287 0.606186
O O7 0.160086 0.978878 0.546553
O O8 0.176989 0.857549 0.969094
O O9 0.678646 0.858941 0.951911
O O10 0.639584 0.753509 0.881222
O O11 0.937676 0.935187 0.263116
O O12 0.159373 0.524504 0.730608
O O13 0.605449 0.323926 0.907803
O O14 0.504723 0.660253 0.558590
#
# Coordination Sequence:
#
# PCOD8010230 Si02
#       7
#     2   2   2   2   2   2   2
#     4  11  20  38  58  78 111 146 176 224 269 315
#     4  10  21  38  55  81 112 141 177 228 269 310
#     4   9  21  37  57  82 108 141 185 218 267 327
#     4   9  21  37  57  82 108 141 185 218 267 327
#     4  10  21  38  55  81 112 141 177 228 269 310
#     4  11  20  38  58  78 111 146 176 224 269 315
#     4  10  22  34  56  84 106 142 188 214 264 332
#
# _framework density 19.815814
#
# number of rings (size 3 to 8) (size 9 to 14) (size 15 to 20)
#    0.000    2.286    0.000    4.286    0.000    4.571 
#    0.000   18.571    0.000    0.000    0.000    0.000 
#    0.000    0.000    0.000    0.000    0.000    0.000 
#
# Total GULP energy -173641.642495 kJ/mol
# GULP energy per Si atom -12402.974464 kJ/mol
# Density = 1.977071 g / cm^3
# Si number density = 19.815814 Si / 1000 Ang^3
#
#
#
# Elastic Constant Matrix: (Units=GPa)
#
#
# Indices 1 2 3 4 5 6 
#
# 1 76.0673 29.5404 41.4548 14.7800 -9.8139 10.3299
# 2 29.5404 46.9418 25.1708 12.0357 -5.7604 8.3152
# 3 41.4548 25.1708 65.8166 13.7061 -4.7544 11.4672
# 4 14.7800 12.0357 13.7061 18.6132 1.3768 0.2355
# 5 -9.8139 -5.7604 -4.7544 1.3768 31.4900 2.1724
# 6 10.3299 8.3152 11.4672 0.2355 2.1724 18.8048
#
#
#
# Elastic Compliance Matrix: (Units=1/GPa)
#
#
# Indices 1 2 3 4 5 6 
#
# 1 0.023761 -0.006124 -0.009660 -0.008140 0.005527 -0.004991
# 2 -0.006124 0.033039 -0.003946 -0.013832 0.004780 -0.009218
# 3 -0.009660 -0.003946 0.026369 -0.009174 0.001275 -0.009060
# 4 -0.008140 -0.013832 -0.009174 0.076489 -0.010934 0.016487
# 5 0.005527 0.004780 0.001275 -0.010934 0.035707 -0.009915
# 6 -0.004991 -0.009218 -0.009060 0.016487 -0.009915 0.066459
#
#
# Mechanical properties :
#
#
# Convention : Reuss Voigt Hill
#
# Bulk Modulus (GPa) = 22.87928 42.35085 32.61507
# Shear Modulus (GPa) = 15.83010 19.95892 17.89451
#
# Velocity S-wave (km/s) = 2.82948 3.17712 3.00833
# Velocity P-wave (km/s) = 4.71653 5.90571 5.34430
#
# Compressibility (1/GPa) = 0.04370766
#
# Stress axis : x y z
#
# Youngs Moduli (GPa) = 42.08499 30.26770 37.92374
#
# Poissons Ratio (x) = 0.18535 0.36636
# Poissons Ratio (y) = 0.25772 0.14966
# Poissons Ratio (z) = 0.40655 0.11945
#
# Static dielectric constant tensor:
#      x y z
#    x 3.662590 0.131510 -0.083750 
#    y 0.131510 3.538880 0.170430 
#    z -0.083750 0.170430 3.605510 
# 
# 
# High freq. dielectric constant tensor:
#      x y z
#    x 1.779240 0.007180 -0.008250 
#    y 0.007180 1.771770 0.009680 
#    z -0.008250 0.009680 1.774880 
# 
# From -- ./inp_files/224830.got.cif
#   From: 2010.06.25/outbox.cif.g09.slc.cpg/sg2_113_cif.got.tgz:224830.got - 2010.06.27 13:26:56.
