data_PCOD8010321
_publ_section_title
;
Structure prediction by ZEFSAII (Michael W. Deem and Ramdas Pophale) SiO2 
 PCOD8010321
Probable space group: P -1
;
_chemical_formula_sum "Si O2"
_cell_formula_units_Z 10
_cell_length_a 6.377371
_cell_length_b 8.626869
_cell_length_c 11.397272
_cell_angle_alpha 85.572850
_cell_angle_beta 94.011115
_cell_angle_gamma 126.869046
_cell_volume 499.921845
_symmetry_space_group_name_H-M "P -1"
_symmetry_group_IT_number 2
_symmetry_cell_setting 'triclinic'
loop_
_space_group_symop_operation_xyz
x,y,z
-x,-y,-z
loop_
_atom_site_type_symbol
_atom_site_label
_atom_site_fract_x
_atom_site_fract_y
_atom_site_fract_z
Si Si1 0.902503 0.136241 0.246745
Si Si2 0.944145 0.458299 0.364669
Si Si3 0.483469 0.385010 0.214117
Si Si4 0.440435 0.726693 0.210469
Si Si5 0.257420 0.704070 0.963747
O O1 0.828008 0.181907 0.117298
O O2 0.887006 0.253242 0.344799
O O3 0.195294 0.196301 0.250247
O O4 0.696497 0.906365 0.276653
O O5 0.190382 0.631630 0.290629
O O6 0.000000 0.500000 0.500000
O O7 0.686466 0.443023 0.324003
O O8 0.480596 0.567635 0.180761
O O9 0.559939 0.327946 0.103590
O O10 0.399548 0.811110 0.085399
O O11 0.000000 0.500000 0.000000
#
# Coordination Sequence:
#
# PCOD8010321 Si02
#       5
#     2   2   2   2   2
#     4  10  23  37  58  91 117 148 194 232 283 345
#     4  10  23  43  61  79 115 155 193 242 289 332
#     4  10  21  38  59  83 118 150 193 232 288 338
#     4  11  22  37  60  88 118 152 190 234 283 341
#     4  11  19  38  59  86 124 153 182 229 288 345
#
# _framework density 20.003126000000002
#
# number of rings (size 3 to 8) (size 9 to 14) (size 15 to 20)
#    0.000    1.600    6.000    1.200    0.000    8.000 
#    0.000    2.000    0.000    0.000    0.000    0.000 
#    0.000    0.000    0.000    0.000    0.000    0.000 
#
# Total GULP energy -123996.316668 kJ/mol
# GULP energy per Si atom -12399.631667 kJ/mol
# Density = 1.995760 g / cm^3
# Si number density = 20.003126 Si / 1000 Ang^3
#
#
#
# Elastic Constant Matrix: (Units=GPa)
#
#
# Indices 1 2 3 4 5 6 
#
# 1 120.4179 33.9414 41.7390 -2.1430 2.1804 34.0765
# 2 33.9414 116.8025 20.6241 16.2408 -1.2744 35.1226
# 3 41.7390 20.6241 145.1300 17.0165 5.5073 14.8061
# 4 -2.1430 16.2408 17.0165 17.5806 1.1170 6.9333
# 5 2.1804 -1.2744 5.5073 1.1170 17.4701 3.7841
# 6 34.0765 35.1226 14.8061 6.9333 3.7841 24.5419
#
#
#
# Elastic Compliance Matrix: (Units=1/GPa)
#
#
# Indices 1 2 3 4 5 6 
#
# 1 0.018481 0.003066 -0.004534 0.016392 0.005398 -0.032776
# 2 0.003066 0.016860 -0.000165 -0.004396 0.007282 -0.028167
# 3 -0.004534 -0.000165 0.009130 -0.010841 -0.002603 0.004487
# 4 0.016392 -0.004396 -0.010841 0.087038 0.003065 -0.034989
# 5 0.005398 0.007282 -0.002603 0.003065 0.063574 -0.027014
# 6 -0.032776 -0.028167 0.004487 -0.034989 -0.027014 0.137911
#
#
# Mechanical properties :
#
#
# Convention : Reuss Voigt Hill
#
# Bulk Modulus (GPa) = 24.26862 63.88437 44.07650
# Shear Modulus (GPa) = 14.28592 30.98825 22.63709
#
# Velocity S-wave (km/s) = 2.67532 3.94022 3.36769
# Velocity P-wave (km/s) = 4.65853 7.25996 6.09954
#
# Compressibility (1/GPa) = 0.04120548
#
# Stress axis : x y z
#
# Youngs Moduli (GPa) = 54.10978 59.31039 109.53083
#
# Poissons Ratio (x) = -0.18183 0.49658
# Poissons Ratio (y) = -0.16588 0.01806
# Poissons Ratio (z) = 0.24532 0.00978
#
# Static dielectric constant tensor:
#      x y z
#    x 3.972740 0.081060 -0.014630 
#    y 0.081060 3.845650 0.281690 
#    z -0.014630 0.281690 3.728100 
# 
# 
# High freq. dielectric constant tensor:
#      x y z
#    x 1.786720 0.017890 -0.000200 
#    y 0.017890 1.782380 0.011940 
#    z -0.000200 0.011940 1.765060 
# 
# From -- ./inp_files/2319.got.cif
#   From: 2010.06.25/outbox.cif.g09.slc.cpg/sg2_2_cif.got.tgz:2319.got - 2010.06.27 13:26:56.
