data_PCOD8010913
_publ_section_title
;
Structure prediction by ZEFSAII (Michael W. Deem and Ramdas Pophale) SiO2 
 PCOD8010913
Probable space group: P -1
;
_chemical_formula_sum "Si O2"
_cell_formula_units_Z 12
_cell_length_a 12.631857
_cell_length_b 14.166826
_cell_length_c 5.104880
_cell_angle_alpha 55.534143
_cell_angle_beta 67.747745
_cell_angle_gamma 47.621400
_cell_volume 556.371168
_symmetry_space_group_name_H-M "P -1"
_symmetry_group_IT_number 2
_symmetry_cell_setting 'triclinic'
loop_
_space_group_symop_operation_xyz
x,y,z
-x,-y,-z
loop_
_atom_site_type_symbol
_atom_site_label
_atom_site_fract_x
_atom_site_fract_y
_atom_site_fract_z
Si Si1 0.162439 0.885277 0.113181
Si Si2 0.375627 0.325762 0.668527
Si Si3 0.698840 0.101643 0.539686
Si Si4 0.109270 0.536161 0.306461
Si Si5 0.824253 0.382964 0.394749
Si Si6 0.598033 0.928856 0.770971
O O1 0.200583 0.946821 0.222295
O O2 0.192921 0.741586 0.426770
O O3 0.258545 0.843998 0.829184
O O4 0.000000 0.000000 0.000000
O O5 0.538710 0.232568 0.569780
O O6 0.271210 0.387782 0.414949
O O7 0.333560 0.462150 0.670770
O O8 0.334606 0.238391 0.018952
O O9 0.712972 0.962891 0.633439
O O10 0.080487 0.645626 0.393519
O O11 0.000000 0.500000 0.500000
O O12 0.089693 0.615135 0.931279
O O13 0.500000 0.000000 0.500000
O O14 0.500000 0.000000 0.000000
#
# Coordination Sequence:
#
# PCOD8010913 Si02
#       6
#     2   2   2   2   2   2
#     4  12  27  46  65  91 136 177 226 266 318 401
#     4   9  24  39  70  97 134 156 224 271 325 386
#     4  11  24  43  68  97 127 181 215 268 335 375
#     4  10  22  41  64  97 134 163 209 264 333 386
#     4  10  24  42  65  98 128 169 221 266 323 384
#     4  10  21  38  64  98 132 162 208 266 326 384
#
# _framework density 21.568335000000001
#
# number of rings (size 3 to 8) (size 9 to 14) (size 15 to 20)
#    1.000    0.667    0.000    4.000    7.000    4.000 
#    0.000    0.000    0.000    0.000    0.000    0.000 
#    0.000    0.000    0.000    0.000    0.000    0.000 
#
# Total GULP energy -148700.655519 kJ/mol
# GULP energy per Si atom -12391.721293 kJ/mol
# Density = 2.151924 g / cm^3
# Si number density = 21.568335 Si / 1000 Ang^3
#
#
#
# Elastic Constant Matrix: (Units=GPa)
#
#
# Indices 1 2 3 4 5 6 
#
# 1 138.3820 46.2483 52.5002 3.2047 0.1989 11.0605
# 2 46.2483 74.2312 63.7324 -2.6795 -1.3224 9.6661
# 3 52.5002 63.7324 155.9771 12.3412 -11.6170 3.0853
# 4 3.2047 -2.6795 12.3412 51.4558 6.5196 2.7943
# 5 0.1989 -1.3224 -11.6170 6.5196 37.8169 8.6979
# 6 11.0605 9.6661 3.0853 2.7943 8.6979 32.5732
#
#
#
# Elastic Compliance Matrix: (Units=1/GPa)
#
#
# Indices 1 2 3 4 5 6 
#
# 1 0.009364 -0.004593 -0.001220 -0.000424 -0.000137 -0.001628
# 2 -0.004593 0.024739 -0.008901 0.004157 -0.001432 -0.004913
# 3 -0.001220 -0.008901 0.010957 -0.003516 0.003339 0.001428
# 4 -0.000424 0.004157 -0.003516 0.021136 -0.004246 -0.001436
# 5 -0.000137 -0.001432 0.003339 -0.004246 0.029866 -0.007456
# 6 -0.001628 -0.004913 0.001428 -0.001436 -0.007456 0.034690
#
#
# Mechanical properties :
#
#
# Convention : Reuss Voigt Hill
#
# Bulk Modulus (GPa) = 63.96342 77.06133 70.51238
# Shear Modulus (GPa) = 30.23130 38.10980 34.17055
#
# Velocity S-wave (km/s) = 3.74793 4.20805 3.98464
# Velocity P-wave (km/s) = 6.96059 7.70823 7.34393
#
# Compressibility (1/GPa) = 0.01563394
#
# Stress axis : x y z
#
# Youngs Moduli (GPa) = 106.78973 40.42166 91.26281
#
# Poissons Ratio (x) = 0.18564 0.11132
# Poissons Ratio (y) = 0.49045 0.81233
# Poissons Ratio (z) = 0.13026 0.35979
#
# Static dielectric constant tensor:
#      x y z
#    x 4.254820 0.500530 -0.801730 
#    y 0.500530 3.916450 -0.542600 
#    z -0.801730 -0.542600 5.496910 
# 
# 
# High freq. dielectric constant tensor:
#      x y z
#    x 1.840920 0.014940 -0.001240 
#    y 0.014940 1.835160 0.006280 
#    z -0.001240 0.006280 1.862540 
# 
# From -- ./inp_files/75258.got.cif
#   From: 2010.06.25/outbox.cif.g09.slc.cpg/sg2_38_cif.got.tgz:75258.got - 2010.06.27 13:26:56.
