data_PCOD8010286
_publ_section_title
;
Structure prediction by ZEFSAII (Michael W. Deem and Ramdas Pophale) SiO2 
 PCOD8010286
Probable space group: P -1
;
_chemical_formula_sum "Si O2"
_cell_formula_units_Z 14
_cell_length_a 13.383115
_cell_length_b 9.145125
_cell_length_c 13.251320
_cell_angle_alpha 99.291623
_cell_angle_beta 31.322130
_cell_angle_gamma 80.080963
_cell_volume 662.739650
_symmetry_space_group_name_H-M "P -1"
_symmetry_group_IT_number 2
_symmetry_cell_setting 'triclinic'
loop_
_space_group_symop_operation_xyz
x,y,z
-x,-y,-z
loop_
_atom_site_type_symbol
_atom_site_label
_atom_site_fract_x
_atom_site_fract_y
_atom_site_fract_z
Si Si1 0.729614 0.095617 0.130658
Si Si2 0.481137 0.844191 0.087028
Si Si3 0.809070 0.634717 0.307392
Si Si4 0.790860 0.483138 0.888672
Si Si5 0.018954 0.740325 0.971774
Si Si6 0.789227 0.752131 0.634527
Si Si7 0.630138 0.237394 0.025484
O O1 0.444593 0.213883 0.406215
O O2 0.857141 0.889634 0.040317
O O3 0.783884 0.079693 0.961468
O O4 0.817769 0.206506 0.117464
O O5 0.568573 0.696920 0.084588
O O6 0.723995 0.796331 0.815646
O O7 0.310230 0.842138 0.149954
O O8 0.326512 0.046404 0.295143
O O9 0.845465 0.744803 0.204219
O O10 0.024696 0.541242 0.191782
O O11 0.809439 0.468758 0.243233
O O12 0.669568 0.391839 0.023972
O O13 0.929039 0.389895 0.651640
O O14 0.653246 0.669045 0.699844
#
# Coordination Sequence:
#
# PCOD8010286 Si02
#       7
#     2   2   2   2   2   2   2
#     4  11  21  42  60  82 115 151 184 237 283 328
#     4   9  21  40  56  86 116 148 190 231 273 339
#     4  11  22  38  60  88 112 146 191 234 278 342
#     4  12  21  36  62  83 117 153 181 231 290 322
#     4  10  24  39  61  83 113 148 190 235 284 332
#     4   9  21  39  56  81 117 148 188 234 268 334
#     4  10  21  38  58  85 118 145 194 229 271 346
#
# _framework density 21.124434999999998
#
# number of rings (size 3 to 8) (size 9 to 14) (size 15 to 20)
#    0.857    0.857    2.857    1.714    2.000    0.571 
#    0.000    1.429    0.000    0.000    0.000    0.000 
#    0.000    0.000    0.000    0.000    0.000    0.000 
#
# Total GULP energy -173452.238535 kJ/mol
# GULP energy per Si atom -12389.445610 kJ/mol
# Density = 2.107636 g / cm^3
# Si number density = 21.124435 Si / 1000 Ang^3
#
#
#
# Elastic Constant Matrix: (Units=GPa)
#
#
# Indices 1 2 3 4 5 6 
#
# 1 77.4462 31.3796 6.5704 -3.0383 -20.5929 -9.5709
# 2 31.3796 110.6646 18.0447 -1.0662 -12.0237 -3.7234
# 3 6.5704 18.0447 41.2171 4.4041 -5.7733 5.2864
# 4 -3.0383 -1.0662 4.4041 18.1773 -1.2270 -3.3886
# 5 -20.5929 -12.0237 -5.7733 -1.2270 18.5296 2.6933
# 6 -9.5709 -3.7234 5.2864 -3.3886 2.6933 32.9275
#
#
#
# Elastic Compliance Matrix: (Units=1/GPa)
#
#
# Indices 1 2 3 4 5 6 
#
# 1 0.020423 -0.003378 -0.000106 0.005439 0.020181 0.004480
# 2 -0.003378 0.010947 -0.004245 0.001411 0.001986 0.000920
# 3 -0.000106 -0.004245 0.028732 -0.007997 0.006492 -0.006478
# 4 0.005439 0.001411 -0.007997 0.060035 0.007192 0.008614
# 5 0.020181 0.001986 0.006492 0.007192 0.080297 -0.000780
# 6 0.004480 0.000920 -0.006478 0.008614 -0.000780 0.033766
#
#
# Mechanical properties :
#
#
# Convention : Reuss Voigt Hill
#
# Bulk Modulus (GPa) = 22.39908 37.92416 30.16162
# Shear Modulus (GPa) = 18.90090 25.48241 22.19166
#
# Velocity S-wave (km/s) = 2.99447 3.47695 3.24469
# Velocity P-wave (km/s) = 4.75207 5.84043 5.32414
#
# Compressibility (1/GPa) = 0.04464469
#
# Stress axis : x y z
#
# Youngs Moduli (GPa) = 48.96428 91.35221 34.80493
#
# Poissons Ratio (x) = 0.30859 0.00368
# Poissons Ratio (y) = 0.16540 0.14773
# Poissons Ratio (z) = 0.00518 0.38775
#
# Static dielectric constant tensor:
#      x y z
#    x 3.770430 -0.089780 -0.003250 
#    y -0.089780 3.974290 -0.061160 
#    z -0.003250 -0.061160 3.422710 
# 
# 
# High freq. dielectric constant tensor:
#      x y z
#    x 1.824590 -0.003450 -0.004250 
#    y -0.003450 1.844270 -0.004980 
#    z -0.004250 -0.004980 1.790390 
# 
# From -- ./inp_files/212078.got.cif
#   From: 2010.06.25/outbox.cif.g09.slc.cpg/sg2_107_cif.got.tgz:212078.got - 2010.06.27 13:26:56.
