data_PCOD8010420
_publ_section_title
;
Structure prediction by ZEFSAII (Michael W. Deem and Ramdas Pophale) SiO2 
 PCOD8010420
Probable space group: P -1
;
_chemical_formula_sum "Si O2"
_cell_formula_units_Z 14
_cell_length_a 8.030900
_cell_length_b 11.503426
_cell_length_c 12.009393
_cell_angle_alpha 94.291395
_cell_angle_beta 55.184043
_cell_angle_gamma 62.927980
_cell_volume 721.076133
_symmetry_space_group_name_H-M "P -1"
_symmetry_group_IT_number 2
_symmetry_cell_setting 'triclinic'
loop_
_space_group_symop_operation_xyz
x,y,z
-x,-y,-z
loop_
_atom_site_type_symbol
_atom_site_label
_atom_site_fract_x
_atom_site_fract_y
_atom_site_fract_z
Si Si1 0.838300 0.305474 0.266999
Si Si2 0.505560 0.308429 0.012164
Si Si3 0.026810 0.581219 0.339176
Si Si4 0.849041 0.658822 0.018439
Si Si5 0.025773 0.232370 0.816589
Si Si6 0.049941 0.984830 0.109469
Si Si7 0.274725 0.523514 0.463213
O O1 0.571597 0.403859 0.309482
O O2 0.781313 0.353166 0.420777
O O3 0.021364 0.335412 0.141848
O O4 0.965845 0.134469 0.206058
O O5 0.646058 0.145132 0.999413
O O6 0.711120 0.344157 0.941605
O O7 0.254672 0.430277 0.184201
O O8 0.423310 0.298041 0.916641
O O9 0.127972 0.609320 0.413131
O O10 0.892138 0.723220 0.320068
O O11 0.807201 0.569517 0.457610
O O12 0.841194 0.760113 0.123770
O O13 0.000000 0.500000 0.000000
O O14 0.106164 0.067484 0.773931
O O15 0.000000 0.000000 0.000000
#
# Coordination Sequence:
#
# PCOD8010420 Si02
#       7
#     2   2   2   2   2   2   2
#     4  11  21  41  53  89 120 151 207 237 292 360
#     4  10  22  35  63  92 116 152 190 252 311 344
#     4  11  19  40  56  91 112 154 206 234 303 345
#     4  12  21  35  63  95 118 147 196 254 307 348
#     4  10  22  37  60  91 123 147 190 260 300 350
#     4  10  21  38  60  87 123 160 182 250 321 341
#     4  10  23  35  63  77 118 168 193 250 273 354
#
# _framework density 19.415424999999999
#
# number of rings (size 3 to 8) (size 9 to 14) (size 15 to 20)
#    0.857    0.571    4.286    2.143    2.000    0.571 
#    0.000    1.429    0.000    0.000    0.000    0.000 
#    0.000    0.000    0.000    0.000    0.000    0.000 
#
# Total GULP energy -173471.494400 kJ/mol
# GULP energy per Si atom -12390.821029 kJ/mol
# Density = 1.937124 g / cm^3
# Si number density = 19.415425 Si / 1000 Ang^3
#
#
#
# Elastic Constant Matrix: (Units=GPa)
#
#
# Indices 1 2 3 4 5 6 
#
# 1 117.6998 21.6556 13.4120 -6.7036 15.4795 -9.8190
# 2 21.6556 117.7306 25.2476 0.4565 20.5817 0.1251
# 3 13.4120 25.2476 38.7836 -8.4425 12.4628 0.2685
# 4 -6.7036 0.4565 -8.4425 23.8644 -0.8290 5.3863
# 5 15.4795 20.5817 12.4628 -0.8290 16.5357 -3.1947
# 6 -9.8190 0.1251 0.2685 5.3863 -3.1947 31.6159
#
#
#
# Elastic Compliance Matrix: (Units=1/GPa)
#
#
# Indices 1 2 3 4 5 6 
#
# 1 0.009943 -0.000365 -0.000098 0.002047 -0.008309 0.001902
# 2 -0.000365 0.011381 -0.004195 -0.001983 -0.010933 -0.000890
# 3 -0.000098 -0.004195 0.039750 0.014452 -0.024952 -0.005335
# 4 0.002047 -0.001983 0.014452 0.049293 -0.009578 -0.008845
# 5 -0.008309 -0.010933 -0.024952 -0.009578 0.102046 0.009618
# 6 0.001902 -0.000890 -0.005335 -0.008845 0.009618 0.034748
#
#
# Mechanical properties :
#
#
# Convention : Reuss Voigt Hill
#
# Bulk Modulus (GPa) = 19.32095 43.87160 31.59628
# Shear Modulus (GPa) = 18.26633 28.66314 23.46473
#
# Velocity S-wave (km/s) = 3.07060 3.84644 3.48021
# Velocity P-wave (km/s) = 4.74809 6.50939 5.69722
#
# Compressibility (1/GPa) = 0.05175728
#
# Stress axis : x y z
#
# Youngs Moduli (GPa) = 100.57745 87.86805 25.15740
#
# Poissons Ratio (x) = 0.03209 0.00247
# Poissons Ratio (y) = 0.03673 0.10553
# Poissons Ratio (z) = 0.00986 0.36857
#
# Static dielectric constant tensor:
#      x y z
#    x 4.232400 -0.070460 -0.092570 
#    y -0.070460 3.571940 -0.002620 
#    z -0.092570 -0.002620 3.624460 
# 
# 
# High freq. dielectric constant tensor:
#      x y z
#    x 1.777410 0.000970 0.008440 
#    y 0.000970 1.750700 -0.016530 
#    z 0.008440 -0.016530 1.719990 
# 
# From -- ./inp_files/256761.got.cif
#   From: 2010.06.25/outbox.cif.g09.slc.cpg/sg2_129_cif.got.tgz:256761.got - 2010.06.27 13:26:56.
