data_PCOD8010686
_publ_section_title
;
Structure prediction by ZEFSAII (Michael W. Deem and Ramdas Pophale) SiO2 
 PCOD8010686
Probable space group: P -1
;
_chemical_formula_sum "Si O2"
_cell_formula_units_Z 16
_cell_length_a 19.218171
_cell_length_b 19.841926
_cell_length_c 6.641507
_cell_angle_alpha 116.802104
_cell_angle_beta 106.506939
_cell_angle_gamma 20.628687
_cell_volume 715.775871
_symmetry_space_group_name_H-M "P -1"
_symmetry_group_IT_number 2
_symmetry_cell_setting 'triclinic'
loop_
_space_group_symop_operation_xyz
x,y,z
-x,-y,-z
loop_
_atom_site_type_symbol
_atom_site_label
_atom_site_fract_x
_atom_site_fract_y
_atom_site_fract_z
Si Si1 0.810081 0.015784 0.071563
Si Si2 0.549892 0.004145 0.733020
Si Si3 0.464958 0.324790 0.521317
Si Si4 0.240158 0.686270 0.000578
Si Si5 0.439276 0.605556 0.789016
Si Si6 0.367075 0.969142 0.500831
Si Si7 0.691025 0.738029 0.724711
Si Si8 0.044089 0.660023 0.526722
O O1 0.695437 0.098315 0.289927
O O2 0.632343 0.237736 0.097227
O O3 0.000749 0.887765 0.110497
O O4 0.900820 0.853443 0.815764
O O5 0.736254 0.776075 0.712058
O O6 0.500000 0.000000 0.500000
O O7 0.614213 0.020654 0.704582
O O8 0.346207 0.219176 0.007181
O O9 0.404507 0.467200 0.730686
O O10 0.497641 0.241083 0.635242
O O11 0.273785 0.477331 0.424720
O O12 0.242432 0.757976 0.956537
O O13 0.334730 0.615076 0.198710
O O14 0.500000 0.500000 0.500000
O O15 0.459320 0.937165 0.699504
O O16 0.102287 0.212502 0.623314
O O17 0.893149 0.482347 0.508513
#
# Coordination Sequence:
#
# PCOD8010686 Si02
#       8
#     2   2   2   2   2   2   2   2
#     4  11  23  42  66  90 128 168 206 258 313 370
#     4   9  19  40  68  89 128 166 200 265 312 360
#     4  10  22  43  59  92 131 161 211 258 307 375
#     4  10  23  43  64  94 125 164 210 258 313 371
#     4  11  22  42  68  93 127 164 208 262 311 369
#     4  10  21  38  62  93 125 165 205 254 314 365
#     4   9  20  42  63  94 128 157 213 260 305 378
#     4  10  23  39  63  93 121 166 208 254 313 368
#
# _framework density 22.353363999999999
#
# number of rings (size 3 to 8) (size 9 to 14) (size 15 to 20)
#    0.000    2.000    1.250    1.125    3.500    2.000 
#   11.250    5.625    0.000    0.000    0.000    0.000 
#    0.000    0.000    0.000    0.000    0.000    0.000 
#
# Total GULP energy -198209.725435 kJ/mol
# GULP energy per Si atom -12388.107840 kJ/mol
# Density = 2.230249 g / cm^3
# Si number density = 22.353364 Si / 1000 Ang^3
#
#
#
# Elastic Constant Matrix: (Units=GPa)
#
#
# Indices 1 2 3 4 5 6 
#
# 1 86.5127 30.0957 28.4860 -3.2829 -9.5315 22.5997
# 2 30.0957 103.7296 36.8919 -6.3793 -2.6697 -0.3468
# 3 28.4860 36.8919 95.1311 -2.9163 -6.7161 12.5548
# 4 -3.2829 -6.3793 -2.9163 32.1269 3.6390 7.8835
# 5 -9.5315 -2.6697 -6.7161 3.6390 30.0049 5.8092
# 6 22.5997 -0.3468 12.5548 7.8835 5.8092 52.8090
#
#
#
# Elastic Compliance Matrix: (Units=1/GPa)
#
#
# Indices 1 2 3 4 5 6 
#
# 1 0.016105 -0.003744 -0.001952 0.001900 0.005538 -0.007346
# 2 -0.003744 0.012205 -0.004042 0.001214 -0.001667 0.002645
# 3 -0.001952 -0.004042 0.013207 0.000581 0.002426 -0.002685
# 4 0.001900 0.001214 0.000581 0.033244 -0.002091 -0.005676
# 5 0.005538 -0.001667 0.002426 -0.002091 0.037036 -0.006719
# 6 -0.007346 0.002645 -0.002685 -0.005676 -0.006719 0.024322
#
#
# Mechanical properties :
#
#
# Convention : Reuss Voigt Hill
#
# Bulk Modulus (GPa) = 45.36743 52.92451 49.14597
# Shear Modulus (GPa) = 30.68595 35.64816 33.16706
#
# Velocity S-wave (km/s) = 3.70911 3.99777 3.85614
# Velocity P-wave (km/s) = 6.21956 6.71098 6.46994
#
# Compressibility (1/GPa) = 0.02204224
#
# Stress axis : x y z
#
# Youngs Moduli (GPa) = 62.09179 81.93655 75.71729
#
# Poissons Ratio (x) = 0.30673 0.14781
# Poissons Ratio (y) = 0.23244 0.30602
# Poissons Ratio (z) = 0.12121 0.33115
#
# Static dielectric constant tensor:
#      x y z
#    x 4.598180 0.142860 -0.017560 
#    y 0.142860 4.225320 -0.078720 
#    z -0.017560 -0.078720 3.690950 
# 
# 
# High freq. dielectric constant tensor:
#      x y z
#    x 1.900660 0.012960 0.014600 
#    y 0.012960 1.878170 -0.004840 
#    z 0.014600 -0.004840 1.851210 
# 
# From -- ./inp_files/120462.got.cif
#   From: 2010.06.25/outbox.cif.g09.slc.cpg/sg2_61_cif.got.tgz:120462.got - 2010.06.27 13:26:56.
