data_PCOD8010856
_publ_section_title
;
Structure prediction by ZEFSAII (Michael W. Deem and Ramdas Pophale) SiO2 
 PCOD8010856
Probable space group: P -1
;
_chemical_formula_sum "Si O2"
_cell_formula_units_Z 16
_cell_length_a 13.908093
_cell_length_b 14.284907
_cell_length_c 11.645297
_cell_angle_alpha 30.706475
_cell_angle_beta 40.922589
_cell_angle_gamma 44.967339
_cell_volume 762.223580
_symmetry_space_group_name_H-M "P -1"
_symmetry_group_IT_number 2
_symmetry_cell_setting 'triclinic'
loop_
_space_group_symop_operation_xyz
x,y,z
-x,-y,-z
loop_
_atom_site_type_symbol
_atom_site_label
_atom_site_fract_x
_atom_site_fract_y
_atom_site_fract_z
Si Si1 0.851131 0.681616 0.670994
Si Si2 0.125033 0.533570 0.731022
Si Si3 0.538625 0.830859 0.791866
Si Si4 0.957713 0.208623 0.270139
Si Si5 0.191223 0.707011 0.914240
Si Si6 0.325314 0.583552 0.295122
Si Si7 0.952157 0.217598 0.804535
Si Si8 0.512816 0.760908 0.630071
O O1 0.710224 0.841176 0.662622
O O2 0.981573 0.662926 0.665947
O O3 0.913418 0.706463 0.460488
O O4 0.769213 0.504678 0.936959
O O5 0.154842 0.653747 0.689410
O O6 0.266314 0.513799 0.541208
O O7 0.095528 0.324062 0.006081
O O8 0.543553 0.730383 0.768877
O O9 0.446448 0.040216 0.653778
O O10 0.453956 0.703326 0.084133
O O11 0.880950 0.175044 0.254022
O O12 0.000000 0.000000 0.500000
O O13 0.337435 0.776094 0.751950
O O14 0.067209 0.713427 0.119761
O O15 0.199993 0.720223 0.193768
O O16 0.384643 0.400579 0.361030
O O17 0.000000 0.000000 0.000000
#
# Coordination Sequence:
#
# PCOD8010856 Si02
#       8
#     2   2   2   2   2   2   2   2
#     4  10  21  38  64  91 129 160 196 256 308 366
#     4   9  23  44  63  96 118 156 211 258 310 359
#     4  11  22  37  62  91 130 170 198 242 308 380
#     4  10  23  41  69  88 118 161 210 263 307 355
#     4  11  21  40  62  92 122 165 206 253 310 364
#     4  11  22  42  63  90 134 161 198 255 306 374
#     4  11  23  36  58  97 130 157 203 251 304 373
#     4  11  23  37  59  92 131 167 205 240 308 377
#
# _framework density 20.991216000000001
#
# number of rings (size 3 to 8) (size 9 to 14) (size 15 to 20)
#    0.000    1.500    2.500    2.250    7.000    3.000 
#    0.000    0.625    0.000    1.500    0.000    0.000 
#    0.000    0.000    0.000    0.000    0.000    0.000 
#
# Total GULP energy -198306.448157 kJ/mol
# GULP energy per Si atom -12394.153010 kJ/mol
# Density = 2.094344 g / cm^3
# Si number density = 20.991216 Si / 1000 Ang^3
#
#
#
# Elastic Constant Matrix: (Units=GPa)
#
#
# Indices 1 2 3 4 5 6 
#
# 1 46.2342 -0.9352 23.9728 7.2510 5.2891 -10.5119
# 2 -0.9352 81.7363 53.2455 1.0950 -0.1534 -12.9507
# 3 23.9728 53.2455 134.2251 11.6316 9.5994 -6.0914
# 4 7.2510 1.0950 11.6316 28.2044 -2.2175 0.8186
# 5 5.2891 -0.1534 9.5994 -2.2175 29.9039 1.6412
# 6 -10.5119 -12.9507 -6.0914 0.8186 1.6412 25.9811
#
#
#
# Elastic Compliance Matrix: (Units=1/GPa)
#
#
# Indices 1 2 3 4 5 6 
#
# 1 0.029975 0.007060 -0.006661 -0.005999 -0.004370 0.014550
# 2 0.007060 0.019663 -0.008735 0.000809 0.001139 0.010512
# 3 -0.006661 -0.008735 0.012411 -0.003181 -0.002875 -0.003858
# 4 -0.005999 0.000809 -0.003181 0.038812 0.005202 -0.004321
# 5 -0.004370 0.001139 -0.002875 0.005202 0.035764 -0.004297
# 6 0.014550 0.010512 -0.003858 -0.004321 -0.004297 0.049120
#
#
# Mechanical properties :
#
#
# Convention : Reuss Voigt Hill
#
# Bulk Modulus (GPa) = 22.03854 46.08463 34.06159
# Shear Modulus (GPa) = 22.98398 29.21205 26.09802
#
# Velocity S-wave (km/s) = 3.31257 3.73451 3.52985
# Velocity P-wave (km/s) = 5.01523 6.37160 5.73366
#
# Compressibility (1/GPa) = 0.04537506
#
# Stress axis : x y z
#
# Youngs Moduli (GPa) = 33.36146 50.85803 80.57190
#
# Poissons Ratio (x) = -0.35906 0.53672
# Poissons Ratio (y) = -0.23553 0.70382
# Poissons Ratio (z) = 0.22223 0.44426
#
# Static dielectric constant tensor:
#      x y z
#    x 3.809390 0.053840 0.150980 
#    y 0.053840 3.854070 0.062260 
#    z 0.150980 0.062260 4.072030 
# 
# 
# High freq. dielectric constant tensor:
#      x y z
#    x 1.799240 -0.000840 -0.000230 
#    y -0.000840 1.817480 -0.010610 
#    z -0.000230 -0.010610 1.837530 
# 
# From -- ./inp_files/454310.got.cif
#   From: 2010.06.25/outbox.cif.g09.slc.cpg/sg2_228_cif.got.tgz:454310.got - 2010.06.27 13:26:56.
