data_PCOD8010090
_publ_section_title
;
Structure prediction by ZEFSAII (Michael W. Deem and Ramdas Pophale) SiO2 
 PCOD8010090
Probable space group: P -1
;
_chemical_formula_sum "Si O2"
_cell_formula_units_Z 16
_cell_length_a 11.882276
_cell_length_b 14.951072
_cell_length_c 11.724185
_cell_angle_alpha 36.715011
_cell_angle_beta 142.022048
_cell_angle_gamma 122.270104
_cell_volume 738.572358
_symmetry_space_group_name_H-M "P -1"
_symmetry_group_IT_number 2
_symmetry_cell_setting 'triclinic'
loop_
_space_group_symop_operation_xyz
x,y,z
-x,-y,-z
loop_
_atom_site_type_symbol
_atom_site_label
_atom_site_fract_x
_atom_site_fract_y
_atom_site_fract_z
Si Si1 0.172720 0.240713 0.740667
Si Si2 0.892268 0.652289 0.829858
Si Si3 0.205456 0.830818 0.538876
Si Si4 0.301263 0.106300 0.761628
Si Si5 0.363670 0.958486 0.339914
Si Si6 0.388066 0.403908 0.890190
Si Si7 0.403832 0.354482 0.214002
Si Si8 0.990988 0.066035 0.299056
O O1 0.303564 0.219364 0.754121
O O2 0.954950 0.265217 0.499152
O O3 0.211712 0.386191 0.690264
O O4 0.246422 0.096537 0.029925
O O5 0.774273 0.786348 0.516692
O O6 0.763276 0.593503 0.879376
O O7 0.025475 0.747459 0.904803
O O8 0.000000 0.500000 0.000000
O O9 0.206918 0.897415 0.345114
O O10 0.412517 0.723080 0.845820
O O11 0.165505 0.968697 0.460149
O O12 0.190878 0.981554 0.846706
O O13 0.500000 0.000000 0.000000
O O14 0.499107 0.827088 0.503858
O O15 0.500000 0.000000 0.500000
O O16 0.324846 0.398422 0.977281
O O17 0.424726 0.565143 0.715640
O O18 0.000000 0.000000 0.500000
#
# Coordination Sequence:
#
# PCOD8010090 Si02
#       8
#     2   2   2   2   2   2   2   2
#     4  11  22  38  65  93 127 159 217 261 323 380
#     4  11  24  41  67  94 133 172 214 272 321 390
#     4  10  21  37  65  93 125 160 220 260 321 382
#     4  10  23  41  64  95 125 171 221 264 322 389
#     4  11  19  38  65  91 121 168 206 268 317 374
#     4  10  23  41  66  92 130 173 202 276 326 382
#     4  10  22  40  64  92 127 169 215 250 336 381
#     4   9  21  37  61  92 123 169 213 257 322 385
#
# _framework density 21.663415000000001
#
# number of rings (size 3 to 8) (size 9 to 14) (size 15 to 20)
#    0.000    1.750    2.500    1.875    8.750    0.000 
#    0.000   10.625    0.000    0.000    0.000    0.000 
#    0.000    0.000    0.000    0.000    0.000    0.000 
#
# Total GULP energy -198210.269792 kJ/mol
# GULP energy per Si atom -12388.141862 kJ/mol
# Density = 2.161411 g / cm^3
# Si number density = 21.663415 Si / 1000 Ang^3
#
#
#
# Elastic Constant Matrix: (Units=GPa)
#
#
# Indices 1 2 3 4 5 6 
#
# 1 133.1549 35.0947 16.3934 -3.8705 10.6660 -14.4718
# 2 35.0947 136.4963 14.7669 -7.5142 3.7629 -4.1375
# 3 16.3934 14.7669 50.3044 -6.9579 7.1012 0.6415
# 4 -3.8705 -7.5142 -6.9579 30.5398 -3.7006 0.0400
# 5 10.6660 3.7629 7.1012 -3.7006 28.6254 -7.9073
# 6 -14.4718 -4.1375 0.6415 0.0400 -7.9073 31.1078
#
#
#
# Elastic Compliance Matrix: (Units=1/GPa)
#
#
# Indices 1 2 3 4 5 6 
#
# 1 0.008769 -0.001877 -0.002139 -0.000028 -0.001531 0.003485
# 2 -0.001877 0.008061 -0.001606 0.001416 0.000306 0.000308
# 3 -0.002139 -0.001606 0.022296 0.003832 -0.004829 -0.002901
# 4 -0.000028 0.001416 0.003832 0.034396 0.003586 0.000964
# 5 -0.001531 0.000306 -0.004829 0.003586 0.039758 0.009530
# 6 0.003485 0.000308 -0.002901 0.000964 0.009530 0.036289
#
#
# Mechanical properties :
#
#
# Convention : Reuss Voigt Hill
#
# Bulk Modulus (GPa) = 35.86436 50.27394 43.06915
# Shear Modulus (GPa) = 29.39330 34.96795 32.18063
#
# Velocity S-wave (km/s) = 3.68750 4.02200 3.85838
# Velocity P-wave (km/s) = 5.89249 6.69522 6.30664
#
# Compressibility (1/GPa) = 0.02788283
#
# Stress axis : x y z
#
# Youngs Moduli (GPa) = 114.04368 124.04827 44.85076
#
# Poissons Ratio (x) = 0.23281 0.09593
# Poissons Ratio (y) = 0.21404 0.07203
# Poissons Ratio (z) = 0.24391 0.19923
#
# Static dielectric constant tensor:
#      x y z
#    x 3.733270 0.559120 0.266710 
#    y 0.559120 4.011540 -0.308130 
#    z 0.266710 -0.308130 3.435150 
# 
# 
# High freq. dielectric constant tensor:
#      x y z
#    x 1.866910 -0.004880 -0.000050 
#    y -0.004880 1.862410 -0.007370 
#    z -0.000050 -0.007370 1.814620 
# 
# From -- ./inp_files/433748.got.cif
#   From: 2010.06.25/outbox.cif.g09.slc.cpg/sg2_217_cif.got.tgz:433748.got - 2010.06.27 13:26:56.
