data_PCOD8010825
_publ_section_title
;
Structure prediction by ZEFSAII (Michael W. Deem and Ramdas Pophale) SiO2 
 PCOD8010825
Probable space group: P -1
;
_chemical_formula_sum "Si O2"
_cell_formula_units_Z 14
_cell_length_a 21.795137
_cell_length_b 11.709808
_cell_length_c 9.633597
_cell_angle_alpha 35.938024
_cell_angle_beta 144.256421
_cell_angle_gamma 151.403856
_cell_volume 644.720370
_symmetry_space_group_name_H-M "P -1"
_symmetry_group_IT_number 2
_symmetry_cell_setting 'triclinic'
loop_
_space_group_symop_operation_xyz
x,y,z
-x,-y,-z
loop_
_atom_site_type_symbol
_atom_site_label
_atom_site_fract_x
_atom_site_fract_y
_atom_site_fract_z
Si Si1 0.381072 0.602724 0.229456
Si Si2 0.161084 0.317558 0.860974
Si Si3 0.385253 0.192022 0.744680
Si Si4 0.407446 0.885780 0.257238
Si Si5 0.104658 0.734241 0.580976
Si Si6 0.704956 0.239282 0.539554
Si Si7 0.893961 0.195021 0.783677
O O1 0.409831 0.450112 0.530346
O O2 0.522343 0.806293 0.204768
O O3 0.351188 0.738935 0.150000
O O4 0.252507 0.420500 0.068260
O O5 0.247969 0.515697 0.700952
O O6 0.018531 0.258584 0.678637
O O7 0.118040 0.050069 0.998087
O O8 0.222348 0.964434 0.662230
O O9 0.424445 0.140714 0.014797
O O10 0.300698 0.711580 0.356084
O O11 0.556666 0.980635 0.475022
O O12 0.166126 0.775920 0.497307
O O13 0.050454 0.467091 0.812735
O O14 0.807834 0.180922 0.766632
#
# Coordination Sequence:
#
# PCOD8010825 Si02
#       7
#     2   2   2   2   2   2   2
#     4  11  24  37  66  98 125 153 205 263 312 352
#     4  11  22  40  66  94 124 159 206 258 303 364
#     4  11  23  39  62  99 125 155 204 261 312 353
#     4  11  24  40  62  88 133 163 201 253 308 371
#     4  10  22  36  64  97 121 162 205 249 312 363
#     4  10  24  42  60  91 122 174 205 239 313 376
#     4  10  21  38  64  88 124 161 206 249 296 368
#
# _framework density 21.714841
#
# number of rings (size 3 to 8) (size 9 to 14) (size 15 to 20)
#    0.000    1.429    2.857    1.714    8.000    1.143 
#    0.000    5.714    0.000    5.143    0.000    0.000 
#    0.000    0.000    0.000    0.000    0.000    0.000 
#
# Total GULP energy -173484.146382 kJ/mol
# GULP energy per Si atom -12391.724742 kJ/mol
# Density = 2.166542 g / cm^3
# Si number density = 21.714841 Si / 1000 Ang^3
#
#
#
# Elastic Constant Matrix: (Units=GPa)
#
#
# Indices 1 2 3 4 5 6 
#
# 1 99.9706 41.8746 38.6394 -15.9768 -6.9153 9.8869
# 2 41.8746 95.3950 23.1970 -7.9992 4.8655 6.2444
# 3 38.6394 23.1970 83.7238 -16.0626 -3.9142 0.3223
# 4 -15.9768 -7.9992 -16.0626 35.0483 6.0207 3.9874
# 5 -6.9153 4.8655 -3.9142 6.0207 30.5656 -4.2939
# 6 9.8869 6.2444 0.3223 3.9874 -4.2939 25.5592
#
#
#
# Elastic Compliance Matrix: (Units=1/GPa)
#
#
# Indices 1 2 3 4 5 6 
#
# 1 0.015161 -0.004976 -0.004776 0.003756 0.002196 -0.004806
# 2 -0.004976 0.013443 -0.001396 0.001089 -0.003965 -0.002178
# 3 -0.004776 -0.001396 0.015379 0.004314 0.000458 0.001399
# 4 0.003756 0.001089 0.004314 0.034573 -0.006747 -0.008300
# 5 0.002196 -0.003965 0.000458 -0.006747 0.036251 0.007256
# 6 -0.004806 -0.002178 0.001399 -0.008300 0.007256 0.044012
#
#
# Mechanical properties :
#
#
# Convention : Reuss Voigt Hill
#
# Bulk Modulus (GPa) = 46.11439 54.05683 50.08561
# Shear Modulus (GPa) = 26.54712 29.92653 28.23683
#
# Velocity S-wave (km/s) = 3.50027 3.71639 3.60994
# Velocity P-wave (km/s) = 6.13337 6.58509 6.36324
#
# Compressibility (1/GPa) = 0.02168521
#
# Stress axis : x y z
#
# Youngs Moduli (GPa) = 65.95985 74.39087 65.02387
#
# Poissons Ratio (x) = 0.37016 0.31058
# Poissons Ratio (y) = 0.32821 0.09078
# Poissons Ratio (z) = 0.31505 0.10386
#
# Static dielectric constant tensor:
#      x y z
#    x 3.804050 0.248050 0.053390 
#    y 0.248050 3.971300 -0.188700 
#    z 0.053390 -0.188700 3.938830 
# 
# 
# High freq. dielectric constant tensor:
#      x y z
#    x 1.835790 0.022440 0.013950 
#    y 0.022440 1.854850 -0.015420 
#    z 0.013950 -0.015420 1.850570 
# 
# From -- ./inp_files/261058.got.cif
#   From: 2010.06.25/outbox.cif.g09.slc.cpg/sg2_131_cif.got.tgz:261058.got - 2010.06.27 13:26:56.
