data_PCOD8010601
_publ_section_title
;
Structure prediction by ZEFSAII (Michael W. Deem and Ramdas Pophale) SiO2 
 PCOD8010601
Probable space group: P -1
;
_chemical_formula_sum "Si O2"
_cell_formula_units_Z 16
_cell_length_a 15.637706
_cell_length_b 9.208127
_cell_length_c 11.131101
_cell_angle_alpha 52.768209
_cell_angle_beta 105.955627
_cell_angle_gamma 139.087483
_cell_volume 782.990721
_symmetry_space_group_name_H-M "P -1"
_symmetry_group_IT_number 2
_symmetry_cell_setting 'triclinic'
loop_
_space_group_symop_operation_xyz
x,y,z
-x,-y,-z
loop_
_atom_site_type_symbol
_atom_site_label
_atom_site_fract_x
_atom_site_fract_y
_atom_site_fract_z
Si Si1 0.847224 0.135015 0.393622
Si Si2 0.572916 0.805659 0.864788
Si Si3 0.778546 0.628184 0.653763
Si Si4 0.466106 0.744348 0.087636
Si Si5 0.724435 0.934917 0.190010
Si Si6 0.856336 0.344474 0.831753
Si Si7 0.644992 0.044699 0.516408
Si Si8 0.650554 0.417306 0.451527
O O1 0.769125 0.109452 0.487538
O O2 0.997339 0.467136 0.270554
O O3 0.875009 0.960578 0.510268
O O4 0.752332 0.019415 0.298038
O O5 0.733321 0.074405 0.835351
O O6 0.567019 0.852587 0.701933
O O7 0.500000 0.500000 0.000000
O O8 0.472600 0.760825 0.937181
O O9 0.681817 0.539911 0.771291
O O10 0.854444 0.559477 0.752356
O O11 0.695941 0.452300 0.588080
O O12 0.576767 0.781478 0.169819
O O13 0.500000 0.000000 0.000000
O O14 0.718639 0.708633 0.280082
O O15 0.847634 0.220511 0.016055
O O16 0.704072 0.339666 0.422686
O O17 0.518105 0.847176 0.471609
#
# Coordination Sequence:
#
# PCOD8010601 Si02
#       8
#     2   2   2   2   2   2   2   2
#     4  11  24  37  64  86 121 162 203 235 299 358
#     4  11  22  37  60  88 122 155 194 248 304 342
#     4  11  20  40  61  92 116 157 199 252 294 348
#     4  11  19  36  64  92 119 147 200 256 298 337
#     4  10  21  39  61  87 115 157 199 251 295 344
#     4  11  22  41  60  87 124 158 199 247 291 356
#     4  11  21  39  58  90 122 158 195 245 297 355
#     4  10  21  38  62  84 122 155 196 250 301 342
#
# _framework density 20.434470000000001
#
# number of rings (size 3 to 8) (size 9 to 14) (size 15 to 20)
#    0.000    1.250    3.750    4.500    0.000    3.500 
#    0.000    0.625    0.000    0.000    0.000    0.000 
#    0.000    0.000    0.000    0.000    0.000    0.000 
#
# Total GULP energy -198271.854426 kJ/mol
# GULP energy per Si atom -12391.990902 kJ/mol
# Density = 2.038796 g / cm^3
# Si number density = 20.434470 Si / 1000 Ang^3
#
#
#
# Elastic Constant Matrix: (Units=GPa)
#
#
# Indices 1 2 3 4 5 6 
#
# 1 107.3454 34.2603 54.6504 -12.7502 -1.1015 -21.7611
# 2 34.2603 55.9046 25.7975 -12.1376 -7.4223 -17.5438
# 3 54.6504 25.7975 130.8201 -7.0720 2.6025 -13.1823
# 4 -12.7502 -12.1376 -7.0720 29.4774 -1.6475 -2.0725
# 5 -1.1015 -7.4223 2.6025 -1.6475 40.1851 -4.6130
# 6 -21.7611 -17.5438 -13.1823 -2.0725 -4.6130 25.9979
#
#
#
# Elastic Compliance Matrix: (Units=1/GPa)
#
#
# Indices 1 2 3 4 5 6 
#
# 1 0.014973 -0.003127 -0.004524 0.004792 0.001326 0.008746
# 2 -0.003127 0.030898 -0.002297 0.012674 0.008539 0.019594
# 3 -0.004524 -0.002297 0.009919 -0.000636 -0.001284 -0.000586
# 4 0.004792 0.012674 -0.000636 0.042585 0.006180 0.016733
# 5 0.001326 0.008539 -0.001284 0.006180 0.028180 0.011714
# 6 0.008746 0.019594 -0.000586 0.016733 0.011714 0.062123
#
#
# Mechanical properties :
#
#
# Convention : Reuss Voigt Hill
#
# Bulk Modulus (GPa) = 27.86016 58.16515 43.01266
# Shear Modulus (GPa) = 22.67174 31.08955 26.88064
#
# Velocity S-wave (km/s) = 3.33451 3.90478 3.63086
# Velocity P-wave (km/s) = 5.33749 6.98969 6.21870
#
# Compressibility (1/GPa) = 0.03589355
#
# Stress axis : x y z
#
# Youngs Moduli (GPa) = 66.78717 32.36447 100.81430
#
# Poissons Ratio (x) = 0.10120 0.45612
# Poissons Ratio (y) = 0.20883 0.23158
# Poissons Ratio (z) = 0.30217 0.07435
#
# Static dielectric constant tensor:
#      x y z
#    x 3.346200 -0.240890 0.075610 
#    y -0.240890 3.597730 -0.029110 
#    z 0.075610 -0.029110 4.013540 
# 
# 
# High freq. dielectric constant tensor:
#      x y z
#    x 1.786510 -0.016770 0.007650 
#    y -0.016770 1.786280 -0.004960 
#    z 0.007650 -0.004960 1.818080 
# 
# From -- ./inp_files/175352.got.cif
#   From: 2010.06.25/outbox.cif.g09.slc.cpg/sg2_88_cif.got.tgz:175352.got - 2010.06.27 13:26:56.
