data_PCOD8010574
_publ_section_title
;
Structure prediction by ZEFSAII (Michael W. Deem and Ramdas Pophale) SiO2 
 PCOD8010574
Probable space group: P -1
;
_chemical_formula_sum "Si O2"
_cell_formula_units_Z 16
_cell_length_a 11.284986
_cell_length_b 20.900796
_cell_length_c 11.675659
_cell_angle_alpha 34.048877
_cell_angle_beta 55.144063
_cell_angle_gamma 31.251440
_cell_volume 705.632759
_symmetry_space_group_name_H-M "P -1"
_symmetry_group_IT_number 2
_symmetry_cell_setting 'triclinic'
loop_
_space_group_symop_operation_xyz
x,y,z
-x,-y,-z
loop_
_atom_site_type_symbol
_atom_site_label
_atom_site_fract_x
_atom_site_fract_y
_atom_site_fract_z
Si Si1 0.238662 0.670649 0.632749
Si Si2 0.597978 0.796360 0.380414
Si Si3 0.971793 0.375218 0.893013
Si Si4 0.456956 0.922814 0.021757
Si Si5 0.768507 0.290450 0.012154
Si Si6 0.696411 0.090617 0.407977
Si Si7 0.120843 0.950630 0.125242
Si Si8 0.212701 0.442070 0.024774
O O1 0.763701 0.242016 0.601966
O O2 0.976998 0.856757 0.573792
O O3 0.495489 0.528489 0.775985
O O4 0.248254 0.531121 0.793033
O O5 0.830329 0.554799 0.618252
O O6 0.446374 0.881821 0.217965
O O7 0.391814 0.913720 0.421667
O O8 0.716706 0.847932 0.237424
O O9 0.867063 0.457985 0.955385
O O10 0.266288 0.219039 0.963782
O O11 0.934858 0.271040 0.021758
O O12 0.348405 0.890090 0.055736
O O13 0.710649 0.218208 0.230977
O O14 0.920346 0.146104 0.030166
O O15 0.491962 0.198015 0.256199
O O16 0.000000 0.000000 0.000000
O O17 0.000000 0.500000 0.000000
#
# Coordination Sequence:
#
# PCOD8010574 Si02
#       8
#     2   2   2   2   2   2   2   2
#     4  10  22  42  66  89 125 166 204 260 314 363
#     4  10  21  38  61  93 126 162 206 259 310 362
#     4  11  23  40  65  92 124 165 206 260 314 363
#     4  11  23  39  60  88 125 165 211 254 306 373
#     4  10  22  42  65  95 123 154 212 262 311 374
#     4   9  21  40  65  95 126 162 206 258 315 369
#     4  11  26  43  63  91 125 166 208 253 308 374
#     4  10  23  41  64  96 128 163 209 255 309 372
#
# _framework density 22.674683000000002
#
# number of rings (size 3 to 8) (size 9 to 14) (size 15 to 20)
#    0.000    1.750    0.000    3.375    0.000   13.500 
#    0.000    8.125    0.000    0.000    0.000    0.000 
#    0.000    0.000    0.000    0.000    0.000    0.000 
#
# Total GULP energy -198338.689225 kJ/mol
# GULP energy per Si atom -12396.168077 kJ/mol
# Density = 2.262307 g / cm^3
# Si number density = 22.674683 Si / 1000 Ang^3
#
#
#
# Elastic Constant Matrix: (Units=GPa)
#
#
# Indices 1 2 3 4 5 6 
#
# 1 176.5114 40.5107 51.7968 9.6612 -2.8074 -20.6386
# 2 40.5107 48.7198 22.8611 -3.3782 7.3015 -8.5692
# 3 51.7968 22.8611 131.7511 6.3718 -6.6705 -7.9766
# 4 9.6612 -3.3782 6.3718 37.7870 -10.4716 2.2188
# 5 -2.8074 7.3015 -6.6705 -10.4716 24.6466 -0.6920
# 6 -20.6386 -8.5692 -7.9766 2.2188 -0.6920 37.5138
#
#
#
# Elastic Compliance Matrix: (Units=1/GPa)
#
#
# Indices 1 2 3 4 5 6 
#
# 1 0.007947 -0.005586 -0.001819 -0.002037 0.001283 0.002853
# 2 -0.005586 0.028588 -0.003163 0.001846 -0.009107 0.002507
# 3 -0.001819 -0.003163 0.009047 -0.000541 0.002957 0.000287
# 4 -0.002037 0.001846 -0.000541 0.030725 0.012061 -0.002408
# 5 0.001283 -0.009107 0.002957 0.012061 0.049327 -0.000549
# 6 0.002853 0.002507 0.000287 -0.002408 -0.000549 0.028993
#
#
# Mechanical properties :
#
#
# Convention : Reuss Voigt Hill
#
# Bulk Modulus (GPa) = 40.90522 65.25772 53.08147
# Shear Modulus (GPa) = 27.18720 36.11039 31.64880
#
# Velocity S-wave (km/s) = 3.46643 3.99500 3.74006
# Velocity P-wave (km/s) = 5.83958 7.07972 6.48934
#
# Compressibility (1/GPa) = 0.02444676
#
# Stress axis : x y z
#
# Youngs Moduli (GPa) = 125.84154 34.97954 110.53176
#
# Poissons Ratio (x) = 0.19539 0.20102
# Poissons Ratio (y) = 0.70291 0.34963
# Poissons Ratio (z) = 0.22887 0.11064
#
# Static dielectric constant tensor:
#      x y z
#    x 3.974530 -0.315350 -0.179820 
#    y -0.315350 4.034930 -0.085260 
#    z -0.179820 -0.085260 4.785470 
# 
# 
# High freq. dielectric constant tensor:
#      x y z
#    x 1.879640 -0.027280 -0.008210 
#    y -0.027280 1.889170 0.000130 
#    z -0.008210 0.000130 1.919730 
# 
# From -- ./inp_files/438629.got.cif
#   From: 2010.06.25/outbox.cif.g09.slc.cpg/sg2_220_cif.got.tgz:438629.got - 2010.06.27 13:26:56.
