data_PCOD8010036
_publ_section_title
;
Structure prediction by ZEFSAII (Michael W. Deem and Ramdas Pophale) SiO2 
 PCOD8010036
Probable space group: P -1
;
_chemical_formula_sum "Si O2"
_cell_formula_units_Z 14
_cell_length_a 9.189686
_cell_length_b 9.569786
_cell_length_c 18.077330
_cell_angle_alpha 151.022614
_cell_angle_beta 55.267934
_cell_angle_gamma 121.443793
_cell_volume 631.883418
_symmetry_space_group_name_H-M "P -1"
_symmetry_group_IT_number 2
_symmetry_cell_setting 'triclinic'
loop_
_space_group_symop_operation_xyz
x,y,z
-x,-y,-z
loop_
_atom_site_type_symbol
_atom_site_label
_atom_site_fract_x
_atom_site_fract_y
_atom_site_fract_z
Si Si1 0.288483 0.840943 0.941742
Si Si2 0.244179 0.821566 0.568415
Si Si3 0.247311 0.907909 0.232648
Si Si4 0.863889 0.756054 0.322178
Si Si5 0.394708 0.977657 0.372638
Si Si6 0.880926 0.757688 0.710665
Si Si7 0.488957 0.652906 0.934652
O O1 0.182192 0.584291 0.810880
O O2 0.426216 0.689336 0.885199
O O3 0.156679 0.024037 0.112746
O O4 0.383060 0.056762 0.953997
O O5 0.215082 0.561221 0.395782
O O6 0.094195 0.758230 0.645186
O O7 0.218285 0.125702 0.675858
O O8 0.437661 0.835062 0.555396
O O9 0.383219 0.036559 0.315338
O O10 0.076014 0.783072 0.269549
O O11 0.196366 0.156648 0.306959
O O12 0.333061 0.654629 0.042236
O O13 0.785019 0.928270 0.493094
O O14 0.409748 0.636735 0.222218
#
# Coordination Sequence:
#
# PCOD8010036 Si02
#       7
#     2   2   2   2   2   2   2
#     4  10  21  38  65  88 120 150 204 248 296 342
#     4  10  21  37  64  93 115 154 206 247 292 341
#     4  10  24  41  61  85 127 159 195 237 304 357
#     4  11  23  39  64  90 117 160 199 244 295 349
#     4  12  23  38  63  89 122 156 201 242 294 357
#     4   9  21  40  61  90 122 154 195 251 297 348
#     4  10  22  39  63  88 119 155 200 251 289 346
#
# _framework density 22.155985000000001
#
# number of rings (size 3 to 8) (size 9 to 14) (size 15 to 20)
#    0.000    1.714    1.429    2.143    8.000    2.286 
#    0.000    0.714    0.000    0.000    0.000    0.000 
#    0.000    0.000    0.000    0.000    0.000    0.000 
#
# Total GULP energy -173568.334612 kJ/mol
# GULP energy per Si atom -12397.738187 kJ/mol
# Density = 2.210556 g / cm^3
# Si number density = 22.155985 Si / 1000 Ang^3
#
#
#
# Elastic Constant Matrix: (Units=GPa)
#
#
# Indices 1 2 3 4 5 6 
#
# 1 52.0962 29.3258 24.3622 -7.3126 2.6696 8.1069
# 2 29.3258 83.1686 50.3610 -2.1066 -2.4671 18.4044
# 3 24.3622 50.3610 148.7416 0.1379 -14.3265 15.9156
# 4 -7.3126 -2.1066 0.1379 38.0004 7.5844 7.4384
# 5 2.6696 -2.4671 -14.3265 7.5844 23.4564 -1.0112
# 6 8.1069 18.4044 15.9156 7.4384 -1.0112 23.7185
#
#
#
# Elastic Compliance Matrix: (Units=1/GPa)
#
#
# Indices 1 2 3 4 5 6 
#
# 1 0.026228 -0.006941 -0.002180 0.007087 -0.007539 -0.004660
# 2 -0.006941 0.019493 -0.004441 0.001998 -0.000968 -0.010441
# 3 -0.002180 -0.004441 0.009293 -0.001632 0.005930 -0.001280
# 4 0.007087 0.001998 -0.001632 0.033068 -0.012880 -0.013797
# 5 -0.007539 -0.000968 0.005930 -0.012880 0.051416 0.005581
# 6 -0.004660 -0.010441 -0.001280 -0.013797 0.005581 0.057280
#
#
# Mechanical properties :
#
#
# Convention : Reuss Voigt Hill
#
# Bulk Modulus (GPa) = 35.85446 54.67825 45.26636
# Shear Modulus (GPa) = 21.44102 29.03220 25.23661
#
# Velocity S-wave (km/s) = 3.11421 3.62381 3.37863
# Velocity P-wave (km/s) = 5.39898 6.49936 5.97456
#
# Compressibility (1/GPa) = 0.02789053
#
# Stress axis : x y z
#
# Youngs Moduli (GPa) = 38.12677 51.30117 107.60381
#
# Poissons Ratio (x) = 0.35609 0.23456
# Poissons Ratio (y) = 0.26465 0.47786
# Poissons Ratio (z) = 0.08311 0.22782
#
# Static dielectric constant tensor:
#      x y z
#    x 3.735570 0.225260 -0.171590 
#    y 0.225260 4.023640 -0.003700 
#    z -0.171590 -0.003700 3.987480 
# 
# 
# High freq. dielectric constant tensor:
#      x y z
#    x 1.844940 0.019440 -0.013630 
#    y 0.019440 1.866040 -0.002530 
#    z -0.013630 -0.002530 1.882600 
# 
# From -- ./inp_files/155351.got.cif
#   From: 2010.06.25/outbox.cif.g09.slc.cpg/sg2_78_cif.got.tgz:155351.got - 2010.06.27 13:26:56.
