data_PCOD8010347
_publ_section_title
;
Structure prediction by ZEFSAII (Michael W. Deem and Ramdas Pophale) SiO2 
 PCOD8010347
Probable space group: P -1
;
_chemical_formula_sum "Si O2"
_cell_formula_units_Z 16
_cell_length_a 8.121892
_cell_length_b 17.597590
_cell_length_c 12.909393
_cell_angle_alpha 26.287845
_cell_angle_beta 73.285432
_cell_angle_gamma 87.644256
_cell_volume 672.725138
_symmetry_space_group_name_H-M "P -1"
_symmetry_group_IT_number 2
_symmetry_cell_setting 'triclinic'
loop_
_space_group_symop_operation_xyz
x,y,z
-x,-y,-z
loop_
_atom_site_type_symbol
_atom_site_label
_atom_site_fract_x
_atom_site_fract_y
_atom_site_fract_z
Si Si1 0.244504 0.374605 0.774964
Si Si2 0.000744 0.976002 0.228223
Si Si3 0.199897 0.401272 0.380903
Si Si4 0.016128 0.174548 0.354898
Si Si5 0.567615 0.440711 0.162935
Si Si6 0.843103 0.267427 0.101426
Si Si7 0.612287 0.994428 0.298446
Si Si8 0.384767 0.643790 0.238088
O O1 0.317480 0.579477 0.447899
O O2 0.426077 0.379516 0.798669
O O3 0.057436 0.321633 0.945946
O O4 0.188093 0.199398 0.912203
O O5 0.989851 0.823998 0.326599
O O6 0.017068 0.889641 0.442071
O O7 0.806084 0.991813 0.229641
O O8 0.404420 0.401748 0.327487
O O9 0.180532 0.540470 0.127796
O O10 0.200232 0.492516 0.381533
O O11 0.221887 0.383732 0.048984
O O12 0.000000 0.000000 0.500000
O O13 0.843004 0.207187 0.295394
O O14 0.570094 0.235414 0.391714
O O15 0.500000 0.500000 0.000000
O O16 0.658142 0.085835 0.295078
O O17 0.565355 0.130668 0.064415
#
# Coordination Sequence:
#
# PCOD8010347 Si02
#       8
#     2   2   2   2   2   2   2   2
#     4  10  21  41  63  85 119 159 198 256 291 354
#     4  10  21  38  59  86 125 154 199 244 295 353
#     4  10  22  38  58  94 119 156 202 240 294 362
#     4  12  20  37  62  87 120 164 193 242 303 347
#     4  11  20  39  61  85 127 155 190 247 291 348
#     4  10  21  38  60  87 123 161 201 237 298 357
#     4   9  19  38  58  87 117 155 197 239 291 355
#     4  10  22  40  64  89 113 158 206 244 305 344
#
# _framework density 23.783859
#
# number of rings (size 3 to 8) (size 9 to 14) (size 15 to 20)
#    0.000    1.750    5.000    0.750    0.000    6.500 
#    2.250    3.125    0.000    8.250    0.000    0.000 
#    0.000    0.000    0.000    0.000    0.000    0.000 
#
# Total GULP energy -198232.216484 kJ/mol
# GULP energy per Si atom -12389.513530 kJ/mol
# Density = 2.372973 g / cm^3
# Si number density = 23.783859 Si / 1000 Ang^3
#
#
#
# Elastic Constant Matrix: (Units=GPa)
#
#
# Indices 1 2 3 4 5 6 
#
# 1 57.3393 20.6411 42.3727 -3.6765 22.9822 17.0289
# 2 20.6411 51.1703 39.9707 -20.1537 7.3596 13.0005
# 3 42.3727 39.9707 151.6599 -18.9791 23.0339 19.6198
# 4 -3.6765 -20.1537 -18.9791 45.3118 9.6666 -5.5849
# 5 22.9822 7.3596 23.0339 9.6666 43.7594 3.6533
# 6 17.0289 13.0005 19.6198 -5.5849 3.6533 29.4447
#
#
#
# Elastic Compliance Matrix: (Units=1/GPa)
#
#
# Indices 1 2 3 4 5 6 
#
# 1 0.030177 -0.004475 -0.003955 -0.000024 -0.012062 -0.011350
# 2 -0.004475 0.031134 -0.004370 0.011513 -0.002650 -0.005734
# 3 -0.003955 -0.004370 0.009726 0.002190 -0.002664 -0.001518
# 4 -0.000024 0.011513 0.002190 0.030247 -0.009794 0.000424
# 5 -0.012062 -0.002650 -0.002664 -0.009794 0.032866 0.003986
# 6 -0.011350 -0.005734 -0.001518 0.000424 0.003986 0.043654
#
#
# Mechanical properties :
#
#
# Convention : Reuss Voigt Hill
#
# Bulk Modulus (GPa) = 22.00869 51.79316 36.90093
# Shear Modulus (GPa) = 22.87828 34.18219 28.53023
#
# Velocity S-wave (km/s) = 3.10486 3.79516 3.46723
# Velocity P-wave (km/s) = 4.70396 6.40532 5.61940
#
# Compressibility (1/GPa) = 0.04543659
#
# Stress axis : x y z
#
# Youngs Moduli (GPa) = 33.13792 32.11969 102.82246
#
# Poissons Ratio (x) = 0.14373 0.40663
# Poissons Ratio (y) = 0.14829 0.44935
# Poissons Ratio (z) = 0.13105 0.14037
#
# Static dielectric constant tensor:
#      x y z
#    x 4.365380 0.352290 0.132890 
#    y 0.352290 4.246330 -0.426720 
#    z 0.132890 -0.426720 4.657560 
# 
# 
# High freq. dielectric constant tensor:
#      x y z
#    x 1.936770 0.021760 0.014070 
#    y 0.021760 1.919010 -0.020150 
#    z 0.014070 -0.020150 1.948980 
# 
# From -- ./inp_files/507825.got.cif
#   From: 2010.06.25/outbox.cif.g09.slc.cpg/sg2_254_cif.got.tgz:507825.got - 2010.06.27 13:26:56.
