data_PCOD8010903
_publ_section_title
;
Structure prediction by ZEFSAII (Michael W. Deem and Ramdas Pophale) SiO2 
 PCOD8010903
Probable space group: P -1
;
_chemical_formula_sum "Si O2"
_cell_formula_units_Z 16
_cell_length_a 12.293178
_cell_length_b 13.857103
_cell_length_c 8.760061
_cell_angle_alpha 75.994171
_cell_angle_beta 143.733513
_cell_angle_gamma 120.240348
_cell_volume 722.254239
_symmetry_space_group_name_H-M "P -1"
_symmetry_group_IT_number 2
_symmetry_cell_setting 'triclinic'
loop_
_space_group_symop_operation_xyz
x,y,z
-x,-y,-z
loop_
_atom_site_type_symbol
_atom_site_label
_atom_site_fract_x
_atom_site_fract_y
_atom_site_fract_z
Si Si1 0.104228 0.379759 0.343785
Si Si2 0.681034 0.852515 0.035230
Si Si3 0.042317 0.654303 0.152397
Si Si4 0.648060 0.090130 0.501783
Si Si5 0.363507 0.609678 0.680898
Si Si6 0.300972 0.234777 0.601837
Si Si7 0.773934 0.429699 0.113513
Si Si8 0.894648 0.980133 0.725442
O O1 0.339411 0.491759 0.629116
O O2 0.120667 0.266089 0.429983
O O3 0.064273 0.389028 0.117102
O O4 0.916366 0.377814 0.231818
O O5 0.692367 0.848954 0.230999
O O6 0.915870 0.951824 0.208256
O O7 0.494660 0.877427 0.774034
O O8 0.609422 0.722067 0.938084
O O9 0.133475 0.792461 0.230485
O O10 0.250461 0.643374 0.409034
O O11 0.866981 0.564148 0.113687
O O12 0.729130 0.024176 0.511940
O O13 0.500000 0.000000 0.500000
O O14 0.234168 0.579465 0.708144
O O15 0.535590 0.352226 0.798545
O O16 0.233494 0.159303 0.399312
O O17 0.000000 0.000000 0.000000
#
# Coordination Sequence:
#
# PCOD8010903 Si02
#       8
#     2   2   2   2   2   2   2   2
#     4  11  22  38  64  92 133 166 203 263 315 374
#     4  10  24  44  64  95 130 163 216 265 311 377
#     4  10  21  38  64  97 122 165 213 258 321 371
#     4  11  24  43  69  92 124 170 214 262 321 369
#     4   9  20  40  66  96 127 166 210 255 320 384
#     4  11  27  41  62 100 128 168 216 257 318 385
#     4  10  22  41  65  93 132 164 208 263 314 383
#     4  12  25  42  67  93 126 170 214 265 311 377
#
# _framework density 22.152863
#
# number of rings (size 3 to 8) (size 9 to 14) (size 15 to 20)
#    0.000    1.500    1.250    4.125    1.750    9.000 
#    0.000    0.000    0.000    0.000    0.000    0.000 
#    0.000    0.000    0.000    0.000    0.000    0.000 
#
# Total GULP energy -198308.231573 kJ/mol
# GULP energy per Si atom -12394.264473 kJ/mol
# Density = 2.210244 g / cm^3
# Si number density = 22.152863 Si / 1000 Ang^3
#
#
#
# Elastic Constant Matrix: (Units=GPa)
#
#
# Indices 1 2 3 4 5 6 
#
# 1 65.9196 51.3484 44.8737 0.7203 0.3860 -21.7258
# 2 51.3484 126.6405 48.0762 12.0029 -3.5174 -11.8988
# 3 44.8737 48.0762 100.3283 4.9085 -14.2097 -6.8803
# 4 0.7203 12.0029 4.9085 42.1435 5.1168 -3.7400
# 5 0.3860 -3.5174 -14.2097 5.1168 38.3176 4.7510
# 6 -21.7258 -11.8988 -6.8803 -3.7400 4.7510 43.6592
#
#
#
# Elastic Compliance Matrix: (Units=1/GPa)
#
#
# Indices 1 2 3 4 5 6 
#
# 1 0.035016 -0.009156 -0.011703 0.005635 -0.008077 0.014447
# 2 -0.009156 0.012420 -0.001624 -0.003520 0.001332 -0.001874
# 3 -0.011703 -0.001624 0.016796 -0.002567 0.007112 -0.004613
# 4 0.005635 -0.003520 -0.002567 0.025957 -0.005324 0.004243
# 5 -0.008077 0.001332 0.007112 -0.005324 0.030431 -0.006303
# 6 0.014447 -0.001874 -0.004613 0.004243 -0.006303 0.029905
#
#
# Mechanical properties :
#
#
# Convention : Reuss Voigt Hill
#
# Bulk Modulus (GPa) = 51.90386 64.60946 58.25666
# Shear Modulus (GPa) = 24.76322 34.73007 29.74665
#
# Velocity S-wave (km/s) = 3.34703 3.96377 3.66839
# Velocity P-wave (km/s) = 6.19819 7.08359 6.65563
#
# Compressibility (1/GPa) = 0.01926639
#
# Stress axis : x y z
#
# Youngs Moduli (GPa) = 28.55865 80.51657 59.53696
#
# Poissons Ratio (x) = 0.73721 0.69675
# Poissons Ratio (y) = 0.26148 0.09668
# Poissons Ratio (z) = 0.33422 0.13075
#
# Static dielectric constant tensor:
#      x y z
#    x 3.735250 -0.111460 -0.070660 
#    y -0.111460 4.284910 0.237180 
#    z -0.070660 0.237180 4.230240 
# 
# 
# High freq. dielectric constant tensor:
#      x y z
#    x 1.848130 -0.000190 -0.011720 
#    y -0.000190 1.881240 0.008420 
#    z -0.011720 0.008420 1.886720 
# 
# From -- ./inp_files/270265.got.cif
#   From: 2010.06.25/outbox.cif.g09.slc.cpg/sg2_136_cif.got.tgz:270265.got - 2010.06.27 13:26:56.
