data_PCOD8010401
_publ_section_title
;
Structure prediction by ZEFSAII (Michael W. Deem and Ramdas Pophale) SiO2 
 PCOD8010401
Probable space group: P -1
;
_chemical_formula_sum "Si O2"
_cell_formula_units_Z 16
_cell_length_a 8.883641
_cell_length_b 23.071656
_cell_length_c 6.256941
_cell_angle_alpha 128.168633
_cell_angle_beta 95.126337
_cell_angle_gamma 116.905945
_cell_volume 764.483599
_symmetry_space_group_name_H-M "P -1"
_symmetry_group_IT_number 2
_symmetry_cell_setting 'triclinic'
loop_
_space_group_symop_operation_xyz
x,y,z
-x,-y,-z
loop_
_atom_site_type_symbol
_atom_site_label
_atom_site_fract_x
_atom_site_fract_y
_atom_site_fract_z
Si Si1 0.329441 0.045172 0.983570
Si Si2 0.706153 0.397254 0.658238
Si Si3 0.066964 0.469498 0.628327
Si Si4 0.097838 0.252949 0.666213
Si Si5 0.713400 0.544092 0.704287
Si Si6 0.699051 0.798602 0.723583
Si Si7 0.034867 0.876652 0.266492
Si Si8 0.283376 0.906213 0.989167
O O1 0.326554 0.999783 0.102164
O O2 0.337623 0.134337 0.241062
O O3 0.520897 0.081896 0.953687
O O4 0.129331 0.965577 0.643376
O O5 0.695972 0.464996 0.660142
O O6 0.498323 0.289452 0.380410
O O7 0.876281 0.394667 0.586225
O O8 0.759231 0.437171 0.997872
O O9 0.153163 0.423819 0.420733
O O10 0.000000 0.500000 0.500000
O O11 0.242915 0.242232 0.540197
O O12 0.076376 0.221963 0.838891
O O13 0.883462 0.189536 0.384729
O O14 0.192273 0.363738 0.922775
O O15 0.500000 0.500000 0.500000
O O16 0.875465 0.865208 0.067903
O O17 0.212108 0.895297 0.196860
#
# Coordination Sequence:
#
# PCOD8010401 Si02
#       8
#     2   2   2   2   2   2   2   2
#     4  10  21  38  60  86 115 149 190 241 290 344
#     4  10  22  40  60  86 119 157 197 241 294 345
#     4   9  21  40  60  83 116 154 197 243 289 344
#     4  10  23  38  56  85 118 152 195 240 284 343
#     4  11  22  38  61  88 121 158 196 242 291 345
#     4  11  23  37  58  86 117 151 193 238 288 346
#     4  10  21  39  59  84 115 150 192 237 290 350
#     4   9  21  40  60  85 115 149 192 238 293 349
#
# _framework density 20.929158000000001
#
# number of rings (size 3 to 8) (size 9 to 14) (size 15 to 20)
#    0.000    2.000    0.000    2.250    0.000   14.500 
#    0.000    0.000    0.000    0.000    0.000    0.000 
#    0.000    0.000    0.000    0.000    0.000    0.000 
#
# Total GULP energy -198425.894734 kJ/mol
# GULP energy per Si atom -12401.618421 kJ/mol
# Density = 2.088152 g / cm^3
# Si number density = 20.929158 Si / 1000 Ang^3
#
#
#
# Elastic Constant Matrix: (Units=GPa)
#
#
# Indices 1 2 3 4 5 6 
#
# 1 117.5091 35.0928 44.3042 10.5682 -6.1076 11.7201
# 2 35.0928 79.2367 30.4413 7.1800 -8.6788 10.8409
# 3 44.3042 30.4413 81.6199 7.5509 -10.4603 0.6524
# 4 10.5682 7.1800 7.5509 40.7271 0.5464 0.3073
# 5 -6.1076 -8.6788 -10.4603 0.5464 31.9138 0.8088
# 6 11.7201 10.8409 0.6524 0.3073 0.8088 31.6532
#
#
#
# Elastic Compliance Matrix: (Units=1/GPa)
#
#
# Indices 1 2 3 4 5 6 
#
# 1 0.011729 -0.002591 -0.005235 -0.001590 -0.000064 -0.003331
# 2 -0.002591 0.016451 -0.004207 -0.001450 0.002742 -0.004644
# 3 -0.005235 -0.004207 0.017186 -0.001154 0.003432 0.002948
# 4 -0.001590 -0.001450 -0.001154 0.025450 -0.001536 0.000901
# 5 -0.000064 0.002742 0.003432 -0.001536 0.033265 -0.001821
# 6 -0.003331 -0.004644 0.002948 0.000901 -0.001821 0.034393
#
#
# Mechanical properties :
#
#
# Convention : Reuss Voigt Hill
#
# Bulk Modulus (GPa) = 46.94634 55.33805 51.14219
# Shear Modulus (GPa) = 29.47431 32.09400 30.78415
#
# Velocity S-wave (km/s) = 3.75679 3.92019 3.83936
# Velocity P-wave (km/s) = 6.42633 6.85482 6.64403
#
# Compressibility (1/GPa) = 0.02130092
#
# Stress axis : x y z
#
# Youngs Moduli (GPa) = 85.25650 60.78638 58.18837
#
# Poissons Ratio (x) = 0.15748 0.30462
# Poissons Ratio (y) = 0.22088 0.24478
# Poissons Ratio (z) = 0.44632 0.25571
#
# Static dielectric constant tensor:
#      x y z
#    x 3.809670 0.345120 -0.019490 
#    y 0.345120 3.803670 -0.138840 
#    z -0.019490 -0.138840 3.786120 
# 
# 
# High freq. dielectric constant tensor:
#      x y z
#    x 1.827450 0.014740 0.008790 
#    y 0.014740 1.816060 -0.006610 
#    z 0.008790 -0.006610 1.815660 
# 
# From -- ./inp_files/55276.got.cif
#   From: 2010.06.25/outbox.cif.g09.slc.cpg/sg2_28_cif.got.tgz:55276.got - 2010.06.27 13:26:56.
