data_PCOD8010700
_publ_section_title
;
Structure prediction by ZEFSAII (Michael W. Deem and Ramdas Pophale) SiO2 
 PCOD8010700
Probable space group: P -1
;
_chemical_formula_sum "Si O2"
_cell_formula_units_Z 16
_cell_length_a 10.011853
_cell_length_b 33.681582
_cell_length_c 5.181656
_cell_angle_alpha 122.826745
_cell_angle_beta 120.504402
_cell_angle_gamma 34.684925
_cell_volume 828.543582
_symmetry_space_group_name_H-M "P -1"
_symmetry_group_IT_number 2
_symmetry_cell_setting 'triclinic'
loop_
_space_group_symop_operation_xyz
x,y,z
-x,-y,-z
loop_
_atom_site_type_symbol
_atom_site_label
_atom_site_fract_x
_atom_site_fract_y
_atom_site_fract_z
Si Si1 0.252742 0.538974 0.800469
Si Si2 0.840862 0.536948 0.723520
Si Si3 0.791280 0.648525 0.012705
Si Si4 0.873353 0.938099 0.159251
Si Si5 0.636120 0.832032 0.038687
Si Si6 0.624367 0.897339 0.750986
Si Si7 0.892215 0.076653 0.165156
Si Si8 0.848017 0.686122 0.709308
O O1 0.308175 0.477232 0.485196
O O2 0.123292 0.606446 0.719000
O O3 0.500000 0.500000 0.000000
O O4 0.075454 0.573589 0.993869
O O5 0.000000 0.500000 0.500000
O O6 0.678182 0.622223 0.857607
O O7 0.000000 0.500000 0.000000
O O8 0.735014 0.695183 0.361953
O O9 0.696177 0.696126 0.827662
O O10 0.051102 0.909806 0.464787
O O11 0.643982 0.023710 0.262371
O O12 0.803385 0.899469 0.969631
O O13 0.999467 0.917858 0.940446
O O14 0.691900 0.853616 0.406222
O O15 0.647546 0.858621 0.882041
O O16 0.387519 0.862444 0.931307
O O17 0.836022 0.745457 0.925019
O O18 0.000000 0.000000 0.000000
#
# Coordination Sequence:
#
# PCOD8010700 Si02
#       8
#     2   2   2   2   2   2   2   2
#     4   9  20  34  59  86 107 138 183 239 277 320
#     4  10  16  32  55  80 105 138 176 223 267 328
#     4   9  18  35  56  78 109 145 181 226 271 344
#     4  11  22  38  60  88 118 145 196 250 288 337
#     4  12  23  37  62  83 115 160 194 235 285 352
#     4  11  22  38  61  86 114 159 191 233 299 345
#     4  12  21  37  59  91 116 144 197 249 282 327
#     4  10  21  36  56  80 112 146 191 219 284 347
#
# _framework density 19.310994999999998
#
# number of rings (size 3 to 8) (size 9 to 14) (size 15 to 20)
#    0.750    0.750    3.750    2.625    0.000    2.500 
#    0.000    0.000    8.250    0.000    0.000    0.000 
#    0.000    0.000    0.000    0.000    0.000    0.000 
#
# Total GULP energy -198301.447468 kJ/mol
# GULP energy per Si atom -12393.840467 kJ/mol
# Density = 1.926704 g / cm^3
# Si number density = 19.310995 Si / 1000 Ang^3
#
#
#
# Elastic Constant Matrix: (Units=GPa)
#
#
# Indices 1 2 3 4 5 6 
#
# 1 53.5153 6.1770 28.2859 6.3918 5.7458 6.5492
# 2 6.1770 78.7730 25.2682 2.1354 13.1443 16.9405
# 3 28.2859 25.2682 161.2688 12.7823 1.1808 8.9131
# 4 6.3918 2.1354 12.7823 43.6335 6.6779 0.5127
# 5 5.7458 13.1443 1.1808 6.6779 37.9737 -6.1103
# 6 6.5492 16.9405 8.9131 0.5127 -6.1103 24.0959
#
#
#
# Elastic Compliance Matrix: (Units=1/GPa)
#
#
# Indices 1 2 3 4 5 6 
#
# 1 0.021913 0.001765 -0.003582 -0.001446 -0.004692 -0.007031
# 2 0.001765 0.017869 -0.002331 0.001081 -0.008896 -0.014459
# 3 -0.003582 -0.002331 0.007303 -0.001730 0.001478 0.000323
# 4 -0.001446 0.001081 -0.001730 0.024305 -0.004603 -0.001411
# 5 -0.004692 -0.008896 0.001478 -0.004603 0.033389 0.015548
# 6 -0.007031 -0.014459 0.000323 -0.001411 0.015548 0.057431
#
#
# Mechanical properties :
#
#
# Convention : Reuss Voigt Hill
#
# Bulk Modulus (GPa) = 25.78111 45.89101 35.83606
# Shear Modulus (GPa) = 27.25769 36.72902 31.99335
#
# Velocity S-wave (km/s) = 3.76108 4.36589 4.07473
# Velocity P-wave (km/s) = 5.67807 7.01644 6.38244
#
# Compressibility (1/GPa) = 0.03878809
#
# Stress axis : x y z
#
# Youngs Moduli (GPa) = 45.63504 55.96420 136.93262
#
# Poissons Ratio (x) = -0.09878 0.49055
# Poissons Ratio (y) = -0.08054 0.31915
# Poissons Ratio (z) = 0.16348 0.13044
#
# Static dielectric constant tensor:
#      x y z
#    x 3.478600 0.315160 0.021640 
#    y 0.315160 3.477700 0.195850 
#    z 0.021640 0.195850 3.769880 
# 
# 
# High freq. dielectric constant tensor:
#      x y z
#    x 1.730050 0.035660 -0.004520 
#    y 0.035660 1.734510 0.003530 
#    z -0.004520 0.003530 1.772350 
# 
# From -- ./inp_files/56279.got.cif
#   From: 2010.06.25/outbox.cif.g09.slc.cpg/sg2_29_cif.got.tgz:56279.got - 2010.06.27 13:26:56.
