data_PCOD8010490
_publ_section_title
;
Structure prediction by ZEFSAII (Michael W. Deem and Ramdas Pophale) SiO2 
 PCOD8010490
Probable space group: P -1
;
_chemical_formula_sum "Si O2"
_cell_formula_units_Z 16
_cell_length_a 8.962980
_cell_length_b 25.059404
_cell_length_c 22.537671
_cell_angle_alpha 162.114189
_cell_angle_beta 150.404955
_cell_angle_gamma 37.449817
_cell_volume 748.698451
_symmetry_space_group_name_H-M "P -1"
_symmetry_group_IT_number 2
_symmetry_cell_setting 'triclinic'
loop_
_space_group_symop_operation_xyz
x,y,z
-x,-y,-z
loop_
_atom_site_type_symbol
_atom_site_label
_atom_site_fract_x
_atom_site_fract_y
_atom_site_fract_z
Si Si1 0.624547 0.466853 0.152315
Si Si2 0.400643 0.710509 0.844393
Si Si3 0.071750 0.202544 0.723873
Si Si4 0.272271 0.369703 0.517511
Si Si5 0.709738 0.335995 0.837659
Si Si6 0.960707 0.662883 0.923059
Si Si7 0.281366 0.877166 0.597693
Si Si8 0.232424 0.049010 0.420305
O O1 0.685596 0.619155 0.384813
O O2 0.404244 0.500850 0.058217
O O3 0.957467 0.456386 0.228625
O O4 0.432642 0.278680 0.913363
O O5 0.350634 0.573126 0.736491
O O6 0.600297 0.623963 0.774225
O O7 0.080364 0.723883 0.717861
O O8 0.573606 0.910276 0.135907
O O9 0.992398 0.305782 0.863356
O O10 0.846316 0.219573 0.609680
O O11 0.000000 0.000000 0.500000
O O12 0.473737 0.239029 0.419666
O O13 0.404392 0.172779 0.557794
O O14 0.835573 0.368684 0.982539
O O15 0.034607 0.861537 0.131145
O O16 0.996174 0.850112 0.516459
O O17 0.500000 0.000000 0.500000
#
# Coordination Sequence:
#
# PCOD8010490 Si02
#       8
#     2   2   2   2   2   2   2   2
#     4  12  24  37  59  96 125 156 202 256 309 375
#     4  10  24  44  67  88 120 168 215 262 303 364
#     4  12  22  36  59  91 128 160 194 254 316 375
#     4  11  24  43  64  93 123 162 217 259 309 361
#     4  11  21  35  56  92 125 156 199 247 309 378
#     4  10  21  38  61  83 125 164 200 249 308 369
#     4  11  22  40  67  89 124 164 209 257 308 371
#     4   9  19  37  56  87 120 163 199 241 307 371
#
# _framework density 21.370418999999998
#
# number of rings (size 3 to 8) (size 9 to 14) (size 15 to 20)
#    0.000    1.250    1.250    7.125    3.500    0.500 
#    0.000    0.000    0.000    1.500    0.000    0.000 
#    0.000    0.000    0.000    0.000    0.000    0.000 
#
# Total GULP energy -198279.081538 kJ/mol
# GULP energy per Si atom -12392.442596 kJ/mol
# Density = 2.132178 g / cm^3
# Si number density = 21.370419 Si / 1000 Ang^3
#
#
#
# Elastic Constant Matrix: (Units=GPa)
#
#
# Indices 1 2 3 4 5 6 
#
# 1 125.7530 40.0469 23.0663 -6.1710 -1.6632 -27.0541
# 2 40.0469 90.5072 11.1176 -1.1734 -1.1707 -23.1060
# 3 23.0663 11.1176 50.4593 -3.3156 3.2296 -1.5672
# 4 -6.1710 -1.1734 -3.3156 27.1678 -6.6843 7.1547
# 5 -1.6632 -1.1707 3.2296 -6.6843 28.3338 7.2674
# 6 -27.0541 -23.1060 -1.5672 7.1547 7.2674 39.1882
#
#
#
# Elastic Compliance Matrix: (Units=1/GPa)
#
#
# Indices 1 2 3 4 5 6 
#
# 1 0.010839 -0.002845 -0.004109 0.000243 -0.000411 0.005673
# 2 -0.002845 0.014298 -0.001678 -0.002587 -0.001846 0.007214
# 3 -0.004109 -0.001678 0.022211 0.002119 -0.001564 -0.003035
# 4 0.000243 -0.002587 0.002119 0.043202 0.012817 -0.011538
# 5 -0.000411 -0.001846 -0.001564 0.012817 0.041329 -0.011439
# 6 0.005673 0.007214 -0.003035 -0.011538 -0.011439 0.037794
#
#
# Mechanical properties :
#
#
# Convention : Reuss Voigt Hill
#
# Bulk Modulus (GPa) = 33.24037 46.13127 39.68582
# Shear Modulus (GPa) = 25.38520 31.77053 28.57786
#
# Velocity S-wave (km/s) = 3.45028 3.85991 3.66083
# Velocity P-wave (km/s) = 5.60899 6.44193 6.03984
#
# Compressibility (1/GPa) = 0.03008390
#
# Stress axis : x y z
#
# Youngs Moduli (GPa) = 92.26132 69.94001 45.02234
#
# Poissons Ratio (x) = 0.19898 0.18502
# Poissons Ratio (y) = 0.26248 0.07553
# Poissons Ratio (z) = 0.37914 0.11733
#
# Static dielectric constant tensor:
#      x y z
#    x 3.893360 0.101870 0.492940 
#    y 0.101870 3.985290 0.143160 
#    z 0.492940 0.143160 3.842490 
# 
# 
# High freq. dielectric constant tensor:
#      x y z
#    x 1.848590 -0.012130 0.017500 
#    y -0.012130 1.828910 0.018280 
#    z 0.017500 0.018280 1.818200 
# 
# From -- ./inp_files/274191.got.cif
#   From: 2010.06.25/outbox.cif.g09.slc.cpg/sg2_138_cif.got.tgz:274191.got - 2010.06.27 13:26:56.
