data_PCOD8010669
_publ_section_title
;
Structure prediction by ZEFSAII (Michael W. Deem and Ramdas Pophale) SiO2 
 PCOD8010669
Probable space group: P -1
;
_chemical_formula_sum "Si O2"
_cell_formula_units_Z 16
_cell_length_a 15.695154
_cell_length_b 7.900371
_cell_length_c 11.726541
_cell_angle_alpha 61.445184
_cell_angle_beta 71.505548
_cell_angle_gamma 35.480815
_cell_volume 733.884684
_symmetry_space_group_name_H-M "P -1"
_symmetry_group_IT_number 2
_symmetry_cell_setting 'triclinic'
loop_
_space_group_symop_operation_xyz
x,y,z
-x,-y,-z
loop_
_atom_site_type_symbol
_atom_site_label
_atom_site_fract_x
_atom_site_fract_y
_atom_site_fract_z
Si Si1 0.885114 0.799159 0.784725
Si Si2 0.136115 0.896086 0.513836
Si Si3 0.180897 0.144416 0.820491
Si Si4 0.526298 0.778058 0.429418
Si Si5 0.265333 0.285786 0.234436
Si Si6 0.997405 0.689198 0.361991
Si Si7 0.713203 0.304032 0.887899
Si Si8 0.453316 0.822852 0.682847
O O1 0.802730 0.728727 0.835936
O O2 0.062644 0.474413 0.835531
O O3 0.858800 0.926480 0.627332
O O4 0.835284 0.031059 0.829896
O O5 0.298337 0.525900 0.567201
O O6 0.097027 0.995916 0.629691
O O7 0.000000 0.000000 0.500000
O O8 0.082401 0.183975 0.766350
O O9 0.285848 0.095280 0.711305
O O10 0.278007 0.848710 0.957860
O O11 0.473480 0.725014 0.572532
O O12 0.424807 0.912665 0.317093
O O13 0.482855 0.071451 0.380385
O O14 0.274045 0.499363 0.131545
O O15 0.166746 0.455724 0.337604
O O16 0.000000 0.500000 0.500000
O O17 0.557523 0.525503 0.820274
#
# Coordination Sequence:
#
# PCOD8010669 Si02
#       8
#     2   2   2   2   2   2   2   2
#     4  11  23  40  63  96 123 169 205 263 310 366
#     4  12  23  38  63  95 128 155 207 259 318 375
#     4  11  23  40  65  88 127 169 209 253 312 372
#     4  10  22  37  63  95 125 164 201 260 322 363
#     4  10  23  41  63  92 133 159 213 258 306 380
#     4  11  22  39  61  91 125 160 200 262 316 361
#     4  11  23  43  63  91 124 173 213 252 310 369
#     4  10  21  38  62  92 125 166 208 257 309 374
#
# _framework density 21.801787999999998
#
# number of rings (size 3 to 8) (size 9 to 14) (size 15 to 20)
#    0.000    1.250    3.750    3.000    3.500    3.500 
#    0.000    2.500    0.000    3.750    0.000    0.000 
#    0.000    0.000    0.000    0.000    0.000    0.000 
#
# Total GULP energy -198223.212095 kJ/mol
# GULP energy per Si atom -12388.950756 kJ/mol
# Density = 2.175217 g / cm^3
# Si number density = 21.801788 Si / 1000 Ang^3
#
#
#
# Elastic Constant Matrix: (Units=GPa)
#
#
# Indices 1 2 3 4 5 6 
#
# 1 60.3443 33.8874 13.6403 -1.2473 -0.6528 -6.9288
# 2 33.8874 114.3154 22.9915 -11.6069 6.7648 -24.4342
# 3 13.6403 22.9915 81.4339 -14.3090 9.5541 -7.0690
# 4 -1.2473 -11.6069 -14.3090 29.5959 -5.1851 0.9380
# 5 -0.6528 6.7648 9.5541 -5.1851 23.6803 -0.0450
# 6 -6.9288 -24.4342 -7.0690 0.9380 -0.0450 38.1364
#
#
#
# Elastic Compliance Matrix: (Units=1/GPa)
#
#
# Indices 1 2 3 4 5 6 
#
# 1 0.020467 -0.006084 -0.002480 -0.002210 0.002818 -0.000581
# 2 -0.006084 0.012723 -0.001059 0.003554 -0.002584 0.006759
# 3 -0.002480 -0.001059 0.014646 0.005742 -0.004415 0.001440
# 4 -0.002210 0.003554 0.005742 0.038693 0.005083 0.001994
# 5 0.002818 -0.002584 -0.004415 0.005083 0.045935 -0.002033
# 6 -0.000581 0.006759 0.001440 0.001994 -0.002033 0.030662
#
#
# Mechanical properties :
#
#
# Convention : Reuss Voigt Hill
#
# Bulk Modulus (GPa) = 34.97606 44.12576 39.55091
# Shear Modulus (GPa) = 26.05514 30.65414 28.35464
#
# Velocity S-wave (km/s) = 3.46076 3.75379 3.61025
# Velocity P-wave (km/s) = 5.66098 6.25071 5.96314
#
# Compressibility (1/GPa) = 0.02859099
#
# Stress axis : x y z
#
# Youngs Moduli (GPa) = 48.86009 78.59976 68.27754
#
# Poissons Ratio (x) = 0.47818 0.16933
# Poissons Ratio (y) = 0.29725 0.07227
# Poissons Ratio (z) = 0.12117 0.08320
#
# Static dielectric constant tensor:
#      x y z
#    x 3.950710 -0.024770 0.139730 
#    y -0.024770 3.790520 -0.132070 
#    z 0.139730 -0.132070 3.822260 
# 
# 
# High freq. dielectric constant tensor:
#      x y z
#    x 1.844580 -0.012070 0.004940 
#    y -0.012070 1.865900 -0.008810 
#    z 0.004940 -0.008810 1.842560 
# 
# From -- ./inp_files/207662.got.cif
#   From: 2010.06.25/outbox.cif.g09.slc.cpg/sg2_104_cif.got.tgz:207662.got - 2010.06.27 13:26:56.
