data_PCOD8010290
_publ_section_title
;
Structure prediction by ZEFSAII (Michael W. Deem and Ramdas Pophale) SiO2 
 PCOD8010290
Probable space group: P -1
;
_chemical_formula_sum "Si O2"
_cell_formula_units_Z 14
_cell_length_a 9.204512
_cell_length_b 18.701981
_cell_length_c 14.766587
_cell_angle_alpha 160.513191
_cell_angle_beta 71.886694
_cell_angle_gamma 119.121460
_cell_volume 638.305093
_symmetry_space_group_name_H-M "P -1"
_symmetry_group_IT_number 2
_symmetry_cell_setting 'triclinic'
loop_
_space_group_symop_operation_xyz
x,y,z
-x,-y,-z
loop_
_atom_site_type_symbol
_atom_site_label
_atom_site_fract_x
_atom_site_fract_y
_atom_site_fract_z
Si Si1 0.181497 0.401081 0.533020
Si Si2 0.312956 0.081717 0.194954
Si Si3 0.491278 0.190486 0.663457
Si Si4 0.742556 0.429358 0.476113
Si Si5 0.569594 0.014559 0.767431
Si Si6 0.139143 0.537074 0.319417
Si Si7 0.182261 0.266550 0.828261
O O1 0.172868 0.158996 0.289833
O O2 0.183175 0.378817 0.396943
O O3 0.999560 0.383399 0.579934
O O4 0.370274 0.686447 0.875147
O O5 0.530202 0.333956 0.426812
O O6 0.297734 0.016464 0.227758
O O7 0.252780 0.821702 0.840225
O O8 0.402960 0.045762 0.411286
O O9 0.344470 0.234299 0.788735
O O10 0.500000 0.000000 0.500000
O O11 0.707342 0.472670 0.948903
O O12 0.886990 0.586305 0.721604
O O13 0.351597 0.815882 0.605048
O O14 0.102634 0.318659 0.993797
O O15 0.000000 0.000000 0.500000
#
# Coordination Sequence:
#
# PCOD8010290 Si02
#       7
#     2   2   2   2   2   2   2
#     4  11  20  35  62  86 113 158 196 234 294 358
#     4   9  19  36  59  83 116 156 193 238 292 354
#     4  10  22  41  66  91 119 161 207 250 303 365
#     4   9  19  36  54  84 121 151 193 243 291 349
#     4   9  21  40  57  85 121 150 192 246 295 353
#     4  10  21  38  58  86 121 153 194 246 298 355
#     4  10  22  42  63  89 126 161 199 254 309 358
#
# _framework density 21.933084999999998
#
# number of rings (size 3 to 8) (size 9 to 14) (size 15 to 20)
#    0.000    2.286    0.000    2.571    0.000    5.714 
#    0.000   15.714    0.000    0.000    0.000    0.000 
#    0.000    0.000    0.000    0.000    0.000    0.000 
#
# Total GULP energy -173617.546110 kJ/mol
# GULP energy per Si atom -12401.253294 kJ/mol
# Density = 2.188316 g / cm^3
# Si number density = 21.933085 Si / 1000 Ang^3
#
#
#
# Elastic Constant Matrix: (Units=GPa)
#
#
# Indices 1 2 3 4 5 6 
#
# 1 104.3262 62.8649 46.8386 -13.6341 -27.2494 -15.5548
# 2 62.8649 117.8358 52.6451 -13.8071 -20.2307 -20.6702
# 3 46.8386 52.6451 96.6923 -7.8092 1.9211 -22.6111
# 4 -13.6341 -13.8071 -7.8092 35.5225 -6.7356 -7.4413
# 5 -27.2494 -20.2307 1.9211 -6.7356 39.8427 2.4263
# 6 -15.5548 -20.6702 -22.6111 -7.4413 2.4263 29.3655
#
#
#
# Elastic Compliance Matrix: (Units=1/GPa)
#
#
# Indices 1 2 3 4 5 6 
#
# 1 0.019670 -0.003965 -0.006073 0.007924 0.012835 0.003900
# 2 -0.003965 0.015526 -0.004728 0.005912 0.006023 0.006189
# 3 -0.006073 -0.004728 0.017833 -0.000111 -0.007908 0.007812
# 4 0.007924 0.005912 -0.000111 0.039738 0.014099 0.017178
# 5 0.012835 0.006023 -0.007908 0.014099 0.039379 0.005267
# 6 0.003900 0.006189 0.007812 0.017178 0.005267 0.050408
#
#
# Mechanical properties :
#
#
# Convention : Reuss Voigt Hill
#
# Bulk Modulus (GPa) = 42.55566 71.50572 57.03069
# Shear Modulus (GPa) = 22.73577 31.37986 27.05781
#
# Velocity S-wave (km/s) = 3.22312 3.78657 3.51615
# Velocity P-wave (km/s) = 5.77026 7.19653 6.52250
#
# Compressibility (1/GPa) = 0.02349864
#
# Stress axis : x y z
#
# Youngs Moduli (GPa) = 50.83794 64.40785 56.07652
#
# Poissons Ratio (x) = 0.25536 0.34054
# Poissons Ratio (y) = 0.20156 0.26512
# Poissons Ratio (z) = 0.30873 0.30450
#
# Static dielectric constant tensor:
#      x y z
#    x 3.864820 0.088330 0.143750 
#    y 0.088330 4.115250 -0.219610 
#    z 0.143750 -0.219610 4.040740 
# 
# 
# High freq. dielectric constant tensor:
#      x y z
#    x 1.862410 0.009650 0.009240 
#    y 0.009650 1.857920 -0.005010 
#    z 0.009240 -0.005010 1.861930 
# 
# From -- ./inp_files/507156.got.cif
#   From: 2010.06.25/outbox.cif.g09.slc.cpg/sg2_254_cif.got.tgz:507156.got - 2010.06.27 13:26:56.
