data_PCOD8010681
_publ_section_title
;
Structure prediction by ZEFSAII (Michael W. Deem and Ramdas Pophale) SiO2 
 PCOD8010681
Probable space group: P -1
;
_chemical_formula_sum "Si O2"
_cell_formula_units_Z 16
_cell_length_a 12.267996
_cell_length_b 20.077056
_cell_length_c 5.293267
_cell_angle_alpha 59.700374
_cell_angle_beta 119.604295
_cell_angle_gamma 128.931211
_cell_volume 844.710907
_symmetry_space_group_name_H-M "P -1"
_symmetry_group_IT_number 2
_symmetry_cell_setting 'triclinic'
loop_
_space_group_symop_operation_xyz
x,y,z
-x,-y,-z
loop_
_atom_site_type_symbol
_atom_site_label
_atom_site_fract_x
_atom_site_fract_y
_atom_site_fract_z
Si Si1 0.450645 0.397521 0.656690
Si Si2 0.555243 0.686795 0.681694
Si Si3 0.145513 0.812799 0.876446
Si Si4 0.302374 0.847040 0.479220
Si Si5 0.846806 0.923144 0.063961
Si Si6 0.435116 0.144020 0.456299
Si Si7 0.286321 0.993351 0.917842
Si Si8 0.175527 0.252393 0.417516
O O1 0.500000 0.500000 0.500000
O O2 0.519202 0.369561 0.553457
O O3 0.274936 0.336355 0.555211
O O4 0.502130 0.378992 0.017983
O O5 0.510487 0.761718 0.523268
O O6 0.731448 0.734385 0.758039
O O7 0.214933 0.801295 0.720945
O O8 0.185683 0.916189 0.748603
O O9 0.972320 0.747814 0.805980
O O10 0.210091 0.788273 0.241893
O O11 0.453305 0.846621 0.654575
O O12 0.331479 0.948770 0.282251
O O13 0.723510 0.892032 0.770248
O O14 0.861031 0.838938 0.314719
O O15 0.805248 0.962098 0.180673
O O16 0.000000 0.000000 0.000000
O O17 0.429417 0.072031 0.791451
#
# Coordination Sequence:
#
# PCOD8010681 Si02
#       8
#     2   2   2   2   2   2   2   2
#     4  10  21  38  62  93 120 143 180 235 306 368
#     4  10  22  36  61  89 118 146 186 237 301 352
#     4  10  24  39  54  82 112 158 204 238 279 336
#     4  10  25  38  56  76 114 162 212 237 275 326
#     4  12  24  34  58  84 126 160 197 243 296 340
#     4  12  22  38  55  82 117 158 198 247 281 337
#     4  10  22  36  53  77 115 157 209 240 277 328
#     4  10  22  37  60  87 124 146 196 236 300 351
#
# _framework density 18.941390999999999
#
# number of rings (size 3 to 8) (size 9 to 14) (size 15 to 20)
#    1.500    0.000    2.500    3.000    5.250    2.000 
#    0.000    0.000    0.000    0.000    0.000    5.250 
#    0.000    0.000    0.000    0.000    0.000    0.000 
#
# Total GULP energy -198272.826925 kJ/mol
# GULP energy per Si atom -12392.051683 kJ/mol
# Density = 1.889828 g / cm^3
# Si number density = 18.941391 Si / 1000 Ang^3
#
#
#
# Elastic Constant Matrix: (Units=GPa)
#
#
# Indices 1 2 3 4 5 6 
#
# 1 92.1110 29.4275 14.7300 4.3100 -13.8030 -4.7023
# 2 29.4275 86.7917 21.2862 -7.0443 -1.8160 -6.7735
# 3 14.7300 21.2862 70.2819 2.0859 -19.7143 -2.3891
# 4 4.3100 -7.0443 2.0859 20.2775 -1.0536 -5.2877
# 5 -13.8030 -1.8160 -19.7143 -1.0536 33.2611 6.2499
# 6 -4.7023 -6.7735 -2.3891 -5.2877 6.2499 15.6930
#
#
#
# Elastic Compliance Matrix: (Units=1/GPa)
#
#
# Indices 1 2 3 4 5 6 
#
# 1 0.013402 -0.005086 0.000425 -0.004897 0.005768 -0.002062
# 2 -0.005086 0.016020 -0.005424 0.009549 -0.006064 0.010198
# 3 0.000425 -0.005424 0.019138 -0.004815 0.012154 -0.005763
# 4 -0.004897 0.009549 -0.004815 0.060344 -0.007171 0.025110
# 5 0.005768 -0.006064 0.012154 -0.007171 0.042563 -0.018406
# 6 -0.002062 0.010198 -0.005763 0.025110 -0.018406 0.082420
#
#
# Mechanical properties :
#
#
# Convention : Reuss Voigt Hill
#
# Bulk Modulus (GPa) = 35.22337 42.23021 38.72679
# Shear Modulus (GPa) = 18.97379 26.09572 22.53476
#
# Velocity S-wave (km/s) = 3.16841 3.71578 3.45296
# Velocity P-wave (km/s) = 5.65875 6.38380 6.03218
#
# Compressibility (1/GPa) = 0.02839024
#
# Stress axis : x y z
#
# Youngs Moduli (GPa) = 74.61833 62.42022 52.25095
#
# Poissons Ratio (x) = 0.31745 -0.02219
# Poissons Ratio (y) = 0.37949 0.28341
# Poissons Ratio (z) = -0.03169 0.33857
#
# Static dielectric constant tensor:
#      x y z
#    x 3.517110 -0.040730 -0.228110 
#    y -0.040730 3.191920 0.109080 
#    z -0.228110 0.109080 3.378780 
# 
# 
# High freq. dielectric constant tensor:
#      x y z
#    x 1.732150 -0.006900 -0.019050 
#    y -0.006900 1.700720 0.009900 
#    z -0.019050 0.009900 1.726560 
# 
# From -- ./inp_files/82065.got.cif
#   From: 2010.06.25/outbox.cif.g09.slc.cpg/sg2_42_cif.got.tgz:82065.got - 2010.06.27 13:26:56.
