data_PCOD8010248
_publ_section_title
;
Structure prediction by ZEFSAII (Michael W. Deem and Ramdas Pophale) SiO2 
 PCOD8010248
Probable space group: P -1
;
_chemical_formula_sum "Si O2"
_cell_formula_units_Z 16
_cell_length_a 8.932441
_cell_length_b 25.526134
_cell_length_c 10.152791
_cell_angle_alpha 154.589885
_cell_angle_beta 72.241090
_cell_angle_gamma 118.112487
_cell_volume 830.464695
_symmetry_space_group_name_H-M "P -1"
_symmetry_group_IT_number 2
_symmetry_cell_setting 'triclinic'
loop_
_space_group_symop_operation_xyz
x,y,z
-x,-y,-z
loop_
_atom_site_type_symbol
_atom_site_label
_atom_site_fract_x
_atom_site_fract_y
_atom_site_fract_z
Si Si1 0.939383 0.043034 0.915939
Si Si2 0.527265 0.701780 0.900063
Si Si3 0.638509 0.592988 0.994187
Si Si4 0.051278 0.737918 0.773753
Si Si5 0.388711 0.702045 0.666076
Si Si6 0.146308 0.191876 0.790799
Si Si7 0.322045 0.496587 0.695033
Si Si8 0.726239 0.829938 0.702932
O O1 0.960811 0.943993 0.577784
O O2 0.787928 0.953426 0.860245
O O3 0.883307 0.148058 0.100662
O O4 0.131826 0.131750 0.131645
O O5 0.456783 0.754383 0.915660
O O6 0.363108 0.620179 0.860527
O O7 0.601319 0.601355 0.601196
O O8 0.698259 0.825074 0.209229
O O9 0.653498 0.455450 0.705146
O O10 0.432302 0.559239 0.943664
O O11 0.759434 0.668868 0.006647
O O12 0.706731 0.689878 0.323788
O O13 0.210985 0.710941 0.710769
O O14 0.890620 0.593058 0.431673
O O15 0.992256 0.794067 0.043597
O O16 0.539782 0.804587 0.757200
#
# Coordination Sequence:
#
# PCOD8010248 Si02
#       8
#     2   2   2   2   2   2   2   2
#     4  10  21  38  57  73  97 141 188 216 240 296
#     4   8  15  30  52  76 102 132 167 207 253 306
#     4   9  18  35  58  79 101 135 176 214 253 303
#     4  11  21  32  52  82 112 134 160 213 272 313
#     4  11  21  32  52  82 112 134 160 213 272 313
#     4   9  18  35  58  79 101 135 176 214 253 303
#     4   8  15  30  52  76 102 132 167 207 253 306
#     4  10  21  38  57  73  97 141 188 216 240 296
#
# _framework density 19.26632
#
# number of rings (size 3 to 8) (size 9 to 14) (size 15 to 20)
#    0.000    2.500    0.000    5.250    0.000    2.500 
#    0.000    5.000    0.000    9.000    0.000    0.000 
#    0.000    0.000    0.000    0.000    0.000    0.000 
#
# Total GULP energy -198347.707007 kJ/mol
# GULP energy per Si atom -12396.731688 kJ/mol
# Density = 1.922247 g / cm^3
# Si number density = 19.266320 Si / 1000 Ang^3
#
#
#
# Elastic Constant Matrix: (Units=GPa)
#
#
# Indices 1 2 3 4 5 6 
#
# 1 148.4234 76.9324 56.8114 4.0251 12.3461 -2.3593
# 2 76.9324 114.8201 41.5089 10.8141 1.8380 -2.2230
# 3 56.8114 41.5089 88.6780 -5.7281 32.2048 -4.2347
# 4 4.0251 10.8141 -5.7281 12.5757 -5.0025 5.8164
# 5 12.3461 1.8380 32.2048 -5.0025 24.4591 -0.8024
# 6 -2.3593 -2.2230 -4.2347 5.8164 -0.8024 20.4696
#
#
#
# Elastic Compliance Matrix: (Units=1/GPa)
#
#
# Indices 1 2 3 4 5 6 
#
# 1 0.011726 -0.005942 -0.005265 -0.000395 0.001372 -0.000217
# 2 -0.005942 0.017111 -0.008711 -0.014459 0.010354 0.003886
# 3 -0.005265 -0.008711 0.033536 0.008184 -0.039120 0.001526
# 4 -0.000395 -0.014459 0.008184 0.116022 0.013178 -0.032374
# 5 0.001372 0.010354 -0.039120 0.013178 0.093392 -0.006894
# 6 -0.000217 0.003886 0.001526 -0.032374 -0.006894 0.058494
#
#
# Mechanical properties :
#
#
# Convention : Reuss Voigt Hill
#
# Bulk Modulus (GPa) = 44.37245 78.04741 61.20993
# Shear Modulus (GPa) = 13.24052 23.27878 18.25965
#
# Velocity S-wave (km/s) = 2.62436 3.47978 3.08189
# Velocity P-wave (km/s) = 5.68015 7.53279 6.67109
#
# Compressibility (1/GPa) = 0.02253651
#
# Stress axis : x y z
#
# Youngs Moduli (GPa) = 85.28137 58.44129 29.81908
#
# Poissons Ratio (x) = 0.34728 0.15699
# Poissons Ratio (y) = 0.50677 0.25976
# Poissons Ratio (z) = 0.44898 0.50908
#
# Static dielectric constant tensor:
#      x y z
#    x 3.397450 -0.121910 0.644220 
#    y -0.121910 3.774640 0.010560 
#    z 0.644220 0.010560 3.709550 
# 
# 
# High freq. dielectric constant tensor:
#      x y z
#    x 1.720210 -0.007790 0.041610 
#    y -0.007790 1.766060 0.006090 
#    z 0.041610 0.006090 1.734580 
# 
# From -- ./inp_files/179136.got.cif
#   From: 2010.06.25/outbox.cif.g09.slc.cpg/sg2_90_cif.got.tgz:179136.got - 2010.06.27 13:26:56.
