data_PCOD8010861
_publ_section_title
;
Structure prediction by ZEFSAII (Michael W. Deem and Ramdas Pophale) SiO2 
 PCOD8010861
Probable space group: P -1
;
_chemical_formula_sum "Si O2"
_cell_formula_units_Z 14
_cell_length_a 9.179898
_cell_length_b 20.909229
_cell_length_c 17.966844
_cell_angle_alpha 19.205202
_cell_angle_beta 36.916202
_cell_angle_gamma 46.450072
_cell_volume 642.217106
_symmetry_space_group_name_H-M "P -1"
_symmetry_group_IT_number 2
_symmetry_cell_setting 'triclinic'
loop_
_space_group_symop_operation_xyz
x,y,z
-x,-y,-z
loop_
_atom_site_type_symbol
_atom_site_label
_atom_site_fract_x
_atom_site_fract_y
_atom_site_fract_z
Si Si1 0.679476 0.920286 0.289874
Si Si2 0.988791 0.643523 0.278125
Si Si3 0.967918 0.304944 0.554508
Si Si4 0.032493 0.709978 0.596347
Si Si5 0.728342 0.476438 0.101516
Si Si6 0.432077 0.488608 0.713548
Si Si7 0.452816 0.089981 0.065527
O O1 0.425962 0.753838 0.614252
O O2 0.903514 0.817693 0.307342
O O3 0.583902 0.954128 0.209800
O O4 0.791472 0.133980 0.053962
O O5 0.039284 0.540010 0.294990
O O6 0.696941 0.648639 0.395447
O O7 0.000000 0.500000 0.500000
O O8 0.070535 0.300303 0.434309
O O9 0.658609 0.201781 0.795375
O O10 0.201032 0.560183 0.700161
O O11 0.194611 0.945012 0.291871
O O12 0.783605 0.634224 0.835948
O O13 0.556460 0.521278 0.189526
O O14 0.000000 0.500000 0.000000
O O15 0.383496 0.256181 0.961611
#
# Coordination Sequence:
#
# PCOD8010861 Si02
#       7
#     2   2   2   2   2   2   2
#     4  12  22  39  66  93 122 157 212 256 298 368
#     4  11  22  37  64  99 118 156 206 259 313 348
#     4  11  25  39  65  94 130 158 197 264 312 362
#     4  11  24  44  58  92 132 166 202 244 315 366
#     4  10  22  41  63  88 123 168 206 250 296 369
#     4  10  21  38  64  92 122 159 209 257 295 365
#     4  11  22  37  69  95 115 163 210 254 311 351
#
# _framework density 21.799481
#
# number of rings (size 3 to 8) (size 9 to 14) (size 15 to 20)
#    0.000    1.143    5.714    2.571    0.000    4.571 
#    0.000    0.714    0.000    0.000    0.000    0.000 
#    0.000    0.000    0.000    0.000    0.000    0.000 
#
# Total GULP energy -173534.758114 kJ/mol
# GULP energy per Si atom -12395.339865 kJ/mol
# Density = 2.174986 g / cm^3
# Si number density = 21.799481 Si / 1000 Ang^3
#
#
#
# Elastic Constant Matrix: (Units=GPa)
#
#
# Indices 1 2 3 4 5 6 
#
# 1 54.0766 26.9953 22.5139 -3.7636 -11.1528 17.5110
# 2 26.9953 74.0452 46.4077 -16.6410 -9.7352 20.8968
# 3 22.5139 46.4077 156.6253 -9.1872 -41.0363 22.9785
# 4 -3.7636 -16.6410 -9.1872 19.3455 3.1224 1.5990
# 5 -11.1528 -9.7352 -41.0363 3.1224 35.6001 -2.6827
# 6 17.5110 20.8968 22.9785 1.5990 -2.6827 39.1097
#
#
#
# Elastic Compliance Matrix: (Units=1/GPa)
#
#
# Indices 1 2 3 4 5 6 
#
# 1 0.025463 -0.007312 0.001467 -0.001152 0.007180 -0.007816
# 2 -0.007312 0.025683 -0.005076 0.019523 -0.003471 -0.008503
# 3 0.001467 -0.005076 0.011321 -0.000307 0.011865 -0.003770
# 4 -0.001152 0.019523 -0.000307 0.069562 -0.002438 -0.012746
# 5 0.007180 -0.003471 0.011865 -0.002438 0.042882 -0.005290
# 6 -0.007816 -0.008503 -0.003770 -0.012746 -0.005290 0.035986
#
#
# Mechanical properties :
#
#
# Convention : Reuss Voigt Hill
#
# Bulk Modulus (GPa) = 24.61428 52.95345 38.78386
# Shear Modulus (GPa) = 20.30210 31.39973 25.85091
#
# Velocity S-wave (km/s) = 3.05505 3.79936 3.44735
# Velocity P-wave (km/s) = 4.87444 6.60233 5.80306
#
# Compressibility (1/GPa) = 0.04062683
#
# Stress axis : x y z
#
# Youngs Moduli (GPa) = 39.27193 38.93638 88.32877
#
# Poissons Ratio (x) = 0.28469 -0.12955
# Poissons Ratio (y) = 0.28714 0.44832
# Poissons Ratio (z) = -0.05760 0.19762
#
# Static dielectric constant tensor:
#      x y z
#    x 3.783470 0.081560 -0.171530 
#    y 0.081560 4.041750 0.169400 
#    z -0.171530 0.169400 4.388170 
# 
# 
# High freq. dielectric constant tensor:
#      x y z
#    x 1.839770 0.003350 -0.019460 
#    y 0.003350 1.843070 -0.006570 
#    z -0.019460 -0.006570 1.861820 
# 
# From -- ./inp_files/389622.got.cif
#   From: 2010.06.25/outbox.cif.g09.slc.cpg/sg2_195_cif.got.tgz:389622.got - 2010.06.27 13:26:56.
