data_PCOD8010758
_publ_section_title
;
Structure prediction by ZEFSAII (Michael W. Deem and Ramdas Pophale) SiO2 
 PCOD8010758
Probable space group: P -1
;
_chemical_formula_sum "Si O2"
_cell_formula_units_Z 14
_cell_length_a 14.875028
_cell_length_b 13.712658
_cell_length_c 8.899892
_cell_angle_alpha 70.266341
_cell_angle_beta 49.769319
_cell_angle_gamma 29.280620
_cell_volume 540.000414
_symmetry_space_group_name_H-M "P -1"
_symmetry_group_IT_number 2
_symmetry_cell_setting 'triclinic'
loop_
_space_group_symop_operation_xyz
x,y,z
-x,-y,-z
loop_
_atom_site_type_symbol
_atom_site_label
_atom_site_fract_x
_atom_site_fract_y
_atom_site_fract_z
Si Si1 0.217355 0.802122 0.040066
Si Si2 0.035969 0.629489 0.684311
Si Si3 0.780825 0.290649 0.597766
Si Si4 0.244691 0.304380 0.217107
Si Si5 0.643503 0.278125 0.489031
Si Si6 0.604977 0.114666 0.167625
Si Si7 0.105160 0.573246 0.965571
O O1 0.212980 0.722743 0.223165
O O2 0.441915 0.591188 0.778426
O O3 0.280766 0.864051 0.010807
O O4 0.882709 0.061685 0.214054
O O5 0.036177 0.755333 0.628033
O O6 0.321710 0.353809 0.446426
O O7 0.020650 0.592026 0.886598
O O8 0.759828 0.808165 0.794856
O O9 0.826989 0.150618 0.515500
O O10 0.536574 0.105423 0.089440
O O11 0.000000 0.500000 0.500000
O O12 0.137738 0.468172 0.119147
O O13 0.500000 0.500000 0.500000
O O14 0.416952 0.371181 0.706323
O O15 0.852393 0.857704 0.128917
#
# Coordination Sequence:
#
# PCOD8010758 Si02
#       7
#     2   2   2   2   2   2   2
#     4  10  21  39  63  93 127 165 209 259 315 385
#     4  10  22  41  64  94 128 164 217 265 315 380
#     4  10  21  38  63  91 127 168 207 259 319 376
#     4  10  24  45  67  92 126 167 220 269 317 380
#     4  12  22  37  61  93 129 163 202 255 318 380
#     4  10  22  43  67  92 129 169 212 265 320 381
#     4  12  24  42  67  96 127 171 213 264 326 376
#
# _framework density 25.925903999999999
#
# number of rings (size 3 to 8) (size 9 to 14) (size 15 to 20)
#    0.000    1.429    2.857    1.714    0.000    6.857 
#    0.000    4.286    0.000    0.000    0.000    0.000 
#    0.000    0.000    0.000    0.000    0.000    0.000 
#
# Total GULP energy -173467.113781 kJ/mol
# GULP energy per Si atom -12390.508127 kJ/mol
# Density = 2.586690 g / cm^3
# Si number density = 25.925904 Si / 1000 Ang^3
#
#
#
# Elastic Constant Matrix: (Units=GPa)
#
#
# Indices 1 2 3 4 5 6 
#
# 1 103.1224 -13.2477 23.6418 -0.5564 -8.9985 5.2379
# 2 -13.2477 46.5546 6.8593 -13.5871 -16.2717 -9.4736
# 3 23.6418 6.8593 105.0240 -1.7581 -23.7194 -4.0027
# 4 -0.5564 -13.5871 -1.7581 49.5794 -3.6625 -2.9037
# 5 -8.9985 -16.2717 -23.7194 -3.6625 32.8046 5.9429
# 6 5.2379 -9.4736 -4.0027 -2.9037 5.9429 32.0377
#
#
#
# Elastic Compliance Matrix: (Units=1/GPa)
#
#
# Indices 1 2 3 4 5 6 
#
# 1 0.011326 0.005531 -0.001802 0.001877 0.004973 -0.001194
# 2 0.005531 0.034431 0.001392 0.011398 0.019635 0.006842
# 3 -0.001802 0.001392 0.011881 0.001475 0.008827 0.000687
# 4 0.001877 0.011398 0.001475 0.024270 0.009269 0.003728
# 5 0.004973 0.019635 0.008827 0.009269 0.049408 -0.002229
# 6 -0.001194 0.006842 0.000687 0.003728 -0.002229 0.034269
#
#
# Mechanical properties :
#
#
# Convention : Reuss Voigt Hill
#
# Bulk Modulus (GPa) = 14.73159 32.13421 23.43290
# Shear Modulus (GPa) = 28.09514 38.71420 33.40467
#
# Velocity S-wave (km/s) = 3.29549 3.86847 3.59342
# Velocity P-wave (km/s) = 4.49164 5.68990 5.12590
#
# Compressibility (1/GPa) = 0.06788133
#
# Stress axis : x y z
#
# Youngs Moduli (GPa) = 88.29580 29.04368 84.17030
#
# Poissons Ratio (x) = -0.16065 0.15164
# Poissons Ratio (y) = -0.48840 -0.11719
# Poissons Ratio (z) = 0.15907 -0.04044
#
# Static dielectric constant tensor:
#      x y z
#    x 5.106180 -0.416980 0.216820 
#    y -0.416980 5.280550 0.354440 
#    z 0.216820 0.354440 5.035890 
# 
# 
# High freq. dielectric constant tensor:
#      x y z
#    x 2.038740 -0.015110 0.010990 
#    y -0.015110 2.045490 0.021570 
#    z 0.010990 0.021570 2.067340 
# 
# From -- ./inp_files/314841.got.cif
#   From: 2010.06.25/outbox.cif.g09.slc.cpg/sg2_158_cif.got.tgz:314841.got - 2010.06.27 13:26:56.
