data_PCOD8010187
_publ_section_title
;
Structure prediction by ZEFSAII (Michael W. Deem and Ramdas Pophale) SiO2 
 PCOD8010187
Probable space group: P -1
;
_chemical_formula_sum "Si O2"
_cell_formula_units_Z 14
_cell_length_a 19.882449
_cell_length_b 8.977085
_cell_length_c 10.962549
_cell_angle_alpha 129.100104
_cell_angle_beta 41.851337
_cell_angle_gamma 151.449395
_cell_volume 622.224006
_symmetry_space_group_name_H-M "P -1"
_symmetry_group_IT_number 2
_symmetry_cell_setting 'triclinic'
loop_
_space_group_symop_operation_xyz
x,y,z
-x,-y,-z
loop_
_atom_site_type_symbol
_atom_site_label
_atom_site_fract_x
_atom_site_fract_y
_atom_site_fract_z
Si Si1 0.770953 0.162286 0.398367
Si Si2 0.173761 0.191473 0.915940
Si Si3 0.038901 0.968349 0.234954
Si Si4 0.455785 0.855215 0.756904
Si Si5 0.617984 0.844006 0.974417
Si Si6 0.909174 0.112496 0.617584
Si Si7 0.746019 0.270518 0.225218
O O1 0.704210 0.148607 0.355361
O O2 0.940253 0.513543 0.392022
O O3 0.792961 0.969296 0.263979
O O4 0.627399 0.999589 0.604317
O O5 0.321596 0.549269 0.862409
O O6 0.000000 0.000000 0.000000
O O7 0.174757 0.202396 0.067846
O O8 0.928285 0.629641 0.158452
O O9 0.115697 0.041147 0.300857
O O10 0.929892 0.998174 0.417425
O O11 0.384344 0.767708 0.669321
O O12 0.481890 0.113124 0.905682
O O13 0.741323 0.077852 0.042738
O O14 0.500000 0.500000 0.000000
O O15 0.734203 0.958600 0.762067
#
# Coordination Sequence:
#
# PCOD8010187 Si02
#       7
#     2   2   2   2   2   2   2
#     4  11  22  40  68  92 127 168 216 261 309 375
#     4  12  22  42  64  92 131 169 210 255 321 386
#     4  10  21  37  68  92 126 165 211 261 311 372
#     4  10  23  39  63  95 130 162 210 260 318 379
#     4  10  22  38  64  93 128 159 209 266 314 367
#     4  10  22  39  64  96 121 162 218 263 310 362
#     4   9  20  39  65  93 123 161 218 257 312 363
#
# _framework density 22.499938
#
# number of rings (size 3 to 8) (size 9 to 14) (size 15 to 20)
#    0.857    0.857    1.429    3.429    6.000    2.286 
#    0.000    3.571    0.000    0.000    0.000    0.000 
#    0.000    0.000    0.000    0.000    0.000    0.000 
#
# Total GULP energy -173524.078168 kJ/mol
# GULP energy per Si atom -12394.577012 kJ/mol
# Density = 2.244873 g / cm^3
# Si number density = 22.499938 Si / 1000 Ang^3
#
#
#
# Elastic Constant Matrix: (Units=GPa)
#
#
# Indices 1 2 3 4 5 6 
#
# 1 43.7324 27.7452 25.1551 -5.3179 -15.2120 -12.4761
# 2 27.7452 170.1002 78.6054 -4.9107 -12.8113 -21.6681
# 3 25.1551 78.6054 150.5330 -4.0433 -37.9459 -13.2459
# 4 -5.3179 -4.9107 -4.0433 41.8094 7.0647 -2.8861
# 5 -15.2120 -12.8113 -37.9459 7.0647 33.2822 2.5345
# 6 -12.4761 -21.6681 -13.2459 -2.8861 2.5345 26.0654
#
#
#
# Elastic Compliance Matrix: (Units=1/GPa)
#
#
# Indices 1 2 3 4 5 6 
#
# 1 0.032839 -0.002929 0.000472 0.002562 0.012921 0.012551
# 2 -0.002929 0.008772 -0.004675 0.001131 -0.003838 0.004013
# 3 0.000472 -0.004675 0.012242 -0.001347 0.012569 0.001189
# 4 0.002562 0.001131 -0.001347 0.025550 -0.005723 0.004868
# 5 0.012921 -0.003838 0.012569 -0.005723 0.049722 0.003913
# 6 0.012551 0.004013 0.001189 0.004868 0.003913 0.048471
#
#
# Mechanical properties :
#
#
# Convention : Reuss Voigt Hill
#
# Bulk Modulus (GPa) = 25.25908 69.70857 47.48382
# Shear Modulus (GPa) = 24.38357 35.75538 30.06948
#
# Velocity S-wave (km/s) = 3.29556 3.99072 3.65968
# Velocity P-wave (km/s) = 5.07263 7.23072 6.24560
#
# Compressibility (1/GPa) = 0.03958973
#
# Stress axis : x y z
#
# Youngs Moduli (GPa) = 30.45129 114.00274 81.68409
#
# Poissons Ratio (x) = 0.33386 -0.03853
# Poissons Ratio (y) = 0.08918 0.38187
# Poissons Ratio (z) = -0.01436 0.53296
#
# Static dielectric constant tensor:
#      x y z
#    x 3.771170 -0.180660 -0.154060 
#    y -0.180660 3.957470 0.076040 
#    z -0.154060 0.076040 4.192700 
# 
# 
# High freq. dielectric constant tensor:
#      x y z
#    x 1.853720 -0.007560 -0.017060 
#    y -0.007560 1.891650 0.000830 
#    z -0.017060 0.000830 1.894030 
# 
# From -- ./inp_files/474304.got.cif
#   From: 2010.06.25/outbox.cif.g09.slc.cpg/sg2_238_cif.got.tgz:474304.got - 2010.06.27 13:26:56.
