data_PCOD8010788
_publ_section_title
;
Structure prediction by ZEFSAII (Michael W. Deem and Ramdas Pophale) SiO2 
 PCOD8010788
Probable space group: P -1
;
_chemical_formula_sum "Si O2"
_cell_formula_units_Z 16
_cell_length_a 11.865785
_cell_length_b 12.415132
_cell_length_c 9.024696
_cell_angle_alpha 123.484674
_cell_angle_beta 124.625440
_cell_angle_gamma 93.749031
_cell_volume 760.802849
_symmetry_space_group_name_H-M "P -1"
_symmetry_group_IT_number 2
_symmetry_cell_setting 'triclinic'
loop_
_space_group_symop_operation_xyz
x,y,z
-x,-y,-z
loop_
_atom_site_type_symbol
_atom_site_label
_atom_site_fract_x
_atom_site_fract_y
_atom_site_fract_z
Si Si1 0.941636 0.749570 0.022150
Si Si2 0.768400 0.381046 0.324159
Si Si3 0.147931 0.979270 0.566077
Si Si4 0.809873 0.967286 0.043209
Si Si5 0.177805 0.571835 0.262470
Si Si6 0.021982 0.721637 0.748662
Si Si7 0.484083 0.847415 0.536297
Si Si8 0.461777 0.140130 0.754168
O O1 0.868677 0.851613 0.013336
O O2 0.063841 0.809428 0.301035
O O3 0.798366 0.571202 0.810465
O O4 0.052588 0.763920 0.976878
O O5 0.805016 0.361766 0.507758
O O6 0.843607 0.560835 0.472228
O O7 0.840134 0.306353 0.217761
O O8 0.578042 0.280086 0.060693
O O9 0.232928 0.994054 0.798028
O O10 0.281802 0.097999 0.636320
O O11 0.000000 0.000000 0.500000
O O12 0.646416 0.878758 0.758843
O O13 0.956776 0.131273 0.209018
O O14 0.320962 0.696725 0.360824
O O15 0.000000 0.500000 0.000000
O O16 0.499097 0.810807 0.349738
O O17 0.474166 0.993217 0.673828
#
# Coordination Sequence:
#
# PCOD8010788 Si02
#       8
#     2   2   2   2   2   2   2   2
#     4  10  23  41  62  91 130 172 213 260 318 390
#     4  10  23  38  63  97 132 163 211 273 320 375
#     4  10  23  40  65  92 128 170 211 263 316 386
#     4  11  22  40  65  92 126 172 217 256 323 388
#     4  11  25  40  65  96 128 169 213 266 327 379
#     4  10  21  38  63  94 127 170 209 260 326 371
#     4  11  25  38  66  95 125 173 210 274 319 375
#     4  11  23  41  63  97 132 159 222 268 320 376
#
# _framework density 21.030415999999999
#
# number of rings (size 3 to 8) (size 9 to 14) (size 15 to 20)
#    0.000    1.500    1.250    2.625   10.500    2.500 
#    0.000    1.250    0.000    9.000    0.000    0.000 
#    0.000    0.000    0.000    0.000    0.000    0.000 
#
# Total GULP energy -198291.834388 kJ/mol
# GULP energy per Si atom -12393.239649 kJ/mol
# Density = 2.098255 g / cm^3
# Si number density = 21.030416 Si / 1000 Ang^3
#
#
#
# Elastic Constant Matrix: (Units=GPa)
#
#
# Indices 1 2 3 4 5 6 
#
# 1 122.3958 46.9352 71.5779 2.4962 -5.9327 27.3256
# 2 46.9352 120.0282 60.1607 12.4543 -1.7366 22.6513
# 3 71.5779 60.1607 162.1060 -3.7092 -9.7405 17.2392
# 4 2.4962 12.4543 -3.7092 34.4877 6.6752 1.4579
# 5 -5.9327 -1.7366 -9.7405 6.6752 39.8591 1.7768
# 6 27.3256 22.6513 17.2392 1.4579 1.7768 37.4976
#
#
#
# Elastic Compliance Matrix: (Units=1/GPa)
#
#
# Indices 1 2 3 4 5 6 
#
# 1 0.012811 -0.001507 -0.004358 -0.000811 0.001199 -0.006447
# 2 -0.001507 0.011901 -0.003361 -0.004445 0.000413 -0.004393
# 3 -0.004358 -0.003361 0.009378 0.002297 0.001078 0.000755
# 4 -0.000811 -0.004445 0.002297 0.031850 -0.005142 0.001225
# 5 0.001199 0.000413 0.001078 -0.005142 0.026529 -0.002676
# 6 -0.006447 -0.004393 0.000755 0.001225 -0.002676 0.033752
#
#
# Mechanical properties :
#
#
# Convention : Reuss Voigt Hill
#
# Bulk Modulus (GPa) = 63.94985 84.65306 74.30146
# Shear Modulus (GPa) = 33.35867 37.42598 35.39233
#
# Velocity S-wave (km/s) = 3.98705 4.22312 4.10678
# Velocity P-wave (km/s) = 7.18816 8.00748 7.60886
#
# Compressibility (1/GPa) = 0.01563725
#
# Stress axis : x y z
#
# Youngs Moduli (GPa) = 78.05912 84.02330 106.63564
#
# Poissons Ratio (x) = 0.12661 0.46475
# Poissons Ratio (y) = 0.11762 0.35843
# Poissons Ratio (z) = 0.34020 0.28242
#
# Static dielectric constant tensor:
#      x y z
#    x 3.883400 0.259450 -0.336010 
#    y 0.259450 3.904250 0.113270 
#    z -0.336010 0.113270 4.284360 
# 
# 
# High freq. dielectric constant tensor:
#      x y z
#    x 1.822070 0.017950 -0.018090 
#    y 0.017950 1.815550 0.008770 
#    z -0.018090 0.008770 1.842140 
# 
# From -- ./inp_files/263208.got.cif
#   From: 2010.06.25/outbox.cif.g09.slc.cpg/sg2_132_cif.got.tgz:263208.got - 2010.06.27 13:26:56.
