data_PCOD8010404
_publ_section_title
;
Structure prediction by ZEFSAII (Michael W. Deem and Ramdas Pophale) SiO2 
 PCOD8010404
Probable space group: P -1
;
_chemical_formula_sum "Si O2"
_cell_formula_units_Z 14
_cell_length_a 11.123501
_cell_length_b 12.447585
_cell_length_c 8.460491
_cell_angle_alpha 77.753236
_cell_angle_beta 138.265860
_cell_angle_gamma 77.988178
_cell_volume 629.677611
_symmetry_space_group_name_H-M "P -1"
_symmetry_group_IT_number 2
_symmetry_cell_setting 'triclinic'
loop_
_space_group_symop_operation_xyz
x,y,z
-x,-y,-z
loop_
_atom_site_type_symbol
_atom_site_label
_atom_site_fract_x
_atom_site_fract_y
_atom_site_fract_z
Si Si1 0.037511 0.804416 0.021146
Si Si2 0.457243 0.687215 0.656749
Si Si3 0.597694 0.251249 0.061294
Si Si4 0.176384 0.269109 0.606725
Si Si5 0.697494 0.816134 0.908913
Si Si6 0.234833 0.607063 0.016794
Si Si7 0.741330 0.981852 0.418148
O O1 0.225196 0.795637 0.313883
O O2 0.139765 0.661114 0.081584
O O3 0.828527 0.845498 0.907675
O O4 0.944743 0.918102 0.760083
O O5 0.427578 0.678270 0.817610
O O6 0.618839 0.733115 0.767449
O O7 0.555516 0.543104 0.721163
O O8 0.709218 0.293141 0.033421
O O9 0.745268 0.091619 0.283462
O O10 0.363397 0.295034 0.747483
O O11 0.242197 0.129103 0.642443
O O12 0.949833 0.389062 0.272491
O O13 0.143112 0.268714 0.762339
O O14 0.485942 0.950449 0.729838
#
# Coordination Sequence:
#
# PCOD8010404 Si02
#       7
#     2   2   2   2   2   2   2
#     4  11  23  37  58  85 119 157 186 233 291 341
#     4  10  23  40  58  86 117 153 198 233 278 343
#     4  10  21  38  62  86 113 151 192 242 287 330
#     4   9  20  38  61  85 113 151 191 239 287 333
#     4  10  21  38  60  86 117 151 188 237 291 340
#     4  11  23  38  59  87 117 153 196 234 281 342
#     4   9  20  40  62  87 115 148 193 237 289 344
#
# _framework density 22.233601
#
# number of rings (size 3 to 8) (size 9 to 14) (size 15 to 20)
#    0.000    2.286    0.000    3.857    0.000   10.857 
#    0.000   11.429    0.000    0.857    0.000    0.000 
#    0.000    0.000    0.000    0.000    0.000    0.000 
#
# Total GULP energy -173573.522401 kJ/mol
# GULP energy per Si atom -12398.108743 kJ/mol
# Density = 2.218300 g / cm^3
# Si number density = 22.233601 Si / 1000 Ang^3
#
#
#
# Elastic Constant Matrix: (Units=GPa)
#
#
# Indices 1 2 3 4 5 6 
#
# 1 56.0043 16.1122 22.4789 6.0896 6.0155 12.8425
# 2 16.1122 60.0858 20.4109 10.9425 4.3233 3.8001
# 3 22.4789 20.4109 119.5965 16.6454 9.6362 22.8653
# 4 6.0896 10.9425 16.6454 28.2079 -4.6259 3.6041
# 5 6.0155 4.3233 9.6362 -4.6259 16.5508 2.9836
# 6 12.8425 3.8001 22.8653 3.6041 2.9836 21.0146
#
#
#
# Elastic Compliance Matrix: (Units=1/GPa)
#
#
# Indices 1 2 3 4 5 6 
#
# 1 0.022783 -0.004379 -0.000623 -0.002291 -0.005378 -0.011297
# 2 -0.004379 0.019850 -0.001749 -0.006917 -0.005029 0.002890
# 3 -0.000623 -0.001749 0.012135 -0.006001 -0.006148 -0.010605
# 4 -0.002291 -0.006917 -0.006001 0.045469 0.019081 -0.001327
# 5 -0.005378 -0.005029 -0.006148 0.019081 0.073099 -0.002766
# 6 -0.011297 0.002890 -0.010605 -0.001327 -0.002766 0.066126
#
#
# Mechanical properties :
#
#
# Convention : Reuss Voigt Hill
#
# Bulk Modulus (GPa) = 24.23333 39.29897 31.76615
# Shear Modulus (GPa) = 18.74622 24.93363 21.83992
#
# Velocity S-wave (km/s) = 2.90685 3.35242 3.13756
# Velocity P-wave (km/s) = 4.71057 5.71829 5.23872
#
# Compressibility (1/GPa) = 0.04126549
#
# Stress axis : x y z
#
# Youngs Moduli (GPa) = 43.89254 50.37750 82.40540
#
# Poissons Ratio (x) = 0.22061 0.05133
# Poissons Ratio (y) = 0.19221 0.14415
# Poissons Ratio (z) = 0.02734 0.08813
#
# Static dielectric constant tensor:
#      x y z
#    x 3.728180 -0.181400 0.027330 
#    y -0.181400 3.798510 0.125530 
#    z 0.027330 0.125530 4.281450 
# 
# 
# High freq. dielectric constant tensor:
#      x y z
#    x 1.858250 -0.015980 0.005880 
#    y -0.015980 1.865880 0.009430 
#    z 0.005880 0.009430 1.891220 
# 
# From -- ./inp_files/258308.got.cif
#   From: 2010.06.25/outbox.cif.g09.slc.cpg/sg2_130_cif.got.tgz:258308.got - 2010.06.27 13:26:56.
