data_PCOD8010613
_publ_section_title
;
Structure prediction by ZEFSAII (Michael W. Deem and Ramdas Pophale) SiO2 
 PCOD8010613
Probable space group: P -1
;
_chemical_formula_sum "Si O2"
_cell_formula_units_Z 14
_cell_length_a 17.955931
_cell_length_b 11.085110
_cell_length_c 9.128198
_cell_angle_alpha 105.046274
_cell_angle_beta 45.320685
_cell_angle_gamma 139.929685
_cell_volume 660.015671
_symmetry_space_group_name_H-M "P -1"
_symmetry_group_IT_number 2
_symmetry_cell_setting 'triclinic'
loop_
_space_group_symop_operation_xyz
x,y,z
-x,-y,-z
loop_
_atom_site_type_symbol
_atom_site_label
_atom_site_fract_x
_atom_site_fract_y
_atom_site_fract_z
Si Si1 0.292470 0.056835 0.052409
Si Si2 0.092858 0.054322 0.735991
Si Si3 0.534617 0.171256 0.332810
Si Si4 0.807801 0.248323 0.110352
Si Si5 0.714035 0.694247 0.977612
Si Si6 0.413278 0.567273 0.447863
Si Si7 0.400703 0.174061 0.252237
O O1 0.234358 0.146690 0.166261
O O2 0.299985 0.014798 0.195152
O O3 0.509751 0.264379 0.737718
O O4 0.143187 0.822543 0.083362
O O5 0.212750 0.296679 0.588976
O O6 0.238327 0.082019 0.547838
O O7 0.916414 0.841828 0.803246
O O8 0.000000 0.000000 0.000000
O O9 0.704411 0.240388 0.139067
O O10 0.622421 0.390456 0.342494
O O11 0.488096 0.148529 0.218892
O O12 0.334671 0.930779 0.615535
O O13 0.000000 0.500000 0.000000
O O14 0.587432 0.640406 0.261410
O O15 0.575609 0.441561 0.032984
#
# Coordination Sequence:
#
# PCOD8010613 Si02
#       7
#     2   2   2   2   2   2   2
#     4   9  21  42  59  87 122 163 194 246 296 357
#     4  11  21  31  57  91 122 163 195 238 287 350
#     4  10  21  38  62  87 113 156 196 254 297 345
#     4  10  23  42  64  83 112 155 209 248 299 349
#     4   9  20  36  57  88 124 160 189 232 299 353
#     4   8  19  36  56  81 121 151 201 235 285 351
#     4  11  22  39  59  90 130 151 198 243 299 361
#
# _framework density 21.211618000000001
#
# number of rings (size 3 to 8) (size 9 to 14) (size 15 to 20)
#    0.857    1.429    0.000    2.143    2.000    4.571 
#    0.000    0.714    0.000    0.000    0.000    0.000 
#    0.000    0.000    0.000    0.000    0.000    0.000 
#
# Total GULP energy -173443.300656 kJ/mol
# GULP energy per Si atom -12388.807190 kJ/mol
# Density = 2.116334 g / cm^3
# Si number density = 21.211618 Si / 1000 Ang^3
#
#
#
# Elastic Constant Matrix: (Units=GPa)
#
#
# Indices 1 2 3 4 5 6 
#
# 1 127.9216 36.3152 25.2694 -1.2172 6.2193 10.8595
# 2 36.3152 105.8077 31.1346 -13.8560 3.2005 11.5507
# 3 25.2694 31.1346 53.1305 -7.4498 -1.7549 11.0461
# 4 -1.2172 -13.8560 -7.4498 21.7607 10.5695 0.5387
# 5 6.2193 3.2005 -1.7549 10.5695 24.8104 2.7200
# 6 10.8595 11.5507 11.0461 0.5387 2.7200 29.7969
#
#
#
# Elastic Compliance Matrix: (Units=1/GPa)
#
#
# Indices 1 2 3 4 5 6 
#
# 1 0.009223 -0.002240 -0.003037 -0.001132 -0.001624 -0.001198
# 2 -0.002240 0.013338 -0.005197 0.009166 -0.005199 -0.002119
# 3 -0.003037 -0.005197 0.025351 0.004347 0.002091 -0.006546
# 4 -0.001132 0.009166 0.004347 0.067343 -0.028915 -0.003330
# 5 -0.001624 -0.005199 0.002091 -0.028915 0.054133 -0.002586
# 6 -0.001198 -0.002119 -0.006546 -0.003330 -0.002586 0.037542
#
#
# Mechanical properties :
#
#
# Convention : Reuss Voigt Hill
#
# Bulk Modulus (GPa) = 37.08619 52.47759 44.78189
# Shear Modulus (GPa) = 21.10903 28.21629 24.66266
#
# Velocity S-wave (km/s) = 3.15804 3.65119 3.41353
# Velocity P-wave (km/s) = 5.55153 6.52446 6.05756
#
# Compressibility (1/GPa) = 0.02696422
#
# Stress axis : x y z
#
# Youngs Moduli (GPa) = 108.42341 74.97357 39.44653
#
# Poissons Ratio (x) = 0.16795 0.11980
# Poissons Ratio (y) = 0.24288 0.20499
# Poissons Ratio (z) = 0.32929 0.38961
#
# Static dielectric constant tensor:
#      x y z
#    x 3.651010 -0.081980 -0.015930 
#    y -0.081980 3.768100 -0.147460 
#    z -0.015930 -0.147460 3.597640 
# 
# 
# High freq. dielectric constant tensor:
#      x y z
#    x 1.811100 0.001850 0.001850 
#    y 0.001850 1.825730 -0.008570 
#    z 0.001850 -0.008570 1.806130 
# 
# From -- ./inp_files/333352.got.cif
#   From: 2010.06.25/outbox.cif.g09.slc.cpg/sg2_167_cif.got.tgz:333352.got - 2010.06.27 13:26:56.
