data_PCOD8010886
_publ_section_title
;
Structure prediction by ZEFSAII (Michael W. Deem and Ramdas Pophale) SiO2 
 PCOD8010886
Probable space group: P -1
;
_chemical_formula_sum "Si O2"
_cell_formula_units_Z 16
_cell_length_a 15.689808
_cell_length_b 17.513516
_cell_length_c 5.312822
_cell_angle_alpha 107.659333
_cell_angle_beta 90.000020
_cell_angle_gamma 39.295339
_cell_volume 811.600174
_symmetry_space_group_name_H-M "P -1"
_symmetry_group_IT_number 2
_symmetry_cell_setting 'triclinic'
loop_
_space_group_symop_operation_xyz
x,y,z
-x,-y,-z
loop_
_atom_site_type_symbol
_atom_site_label
_atom_site_fract_x
_atom_site_fract_y
_atom_site_fract_z
Si Si1 0.472185 0.427933 0.427937
Si Si2 0.335654 0.857486 0.857486
Si Si3 0.361866 0.274781 0.274782
Si Si4 0.343635 0.454097 0.954099
Si Si5 0.994230 0.322305 0.822300
Si Si6 0.761498 0.993478 0.493479
Si Si7 0.448619 0.190369 0.690370
Si Si8 0.960900 0.437363 0.437357
O O1 0.500000 0.500000 0.500000
O O2 0.630444 0.262943 0.262946
O O3 0.385146 0.471235 0.722763
O O4 0.385143 0.471235 0.219718
O O5 0.494784 0.778732 0.778736
O O6 0.242429 0.950004 0.702246
O O7 0.242428 0.950003 0.197760
O O8 0.370189 0.213499 0.465314
O O9 0.215388 0.439751 0.439756
O O10 0.370186 0.213503 0.961686
O O11 0.422604 0.307014 0.807011
O O12 0.171266 0.577697 0.077696
O O13 0.030151 0.345684 0.594930
O O14 0.091963 0.168831 0.668831
O O15 0.030150 0.345689 0.096423
O O16 0.621021 0.040948 0.540952
O O17 0.000000 0.500000 0.500000
#
# Coordination Sequence:
#
# PCOD8010886 Si02
#       8
#     2   2   2   2   2   2   2   2
#     4  12  22  34  59  92 117 141 190 244 283 329
#     4  10  17  35  56  79 108 148 190 229 282 324
#     4  10  16  32  56  80  97 145 192 227 258 330
#     4  12  19  38  59  85 111 148 198 234 275 328
#     4  12  23  38  60  88 112 147 196 232 275 340
#     4  10  20  32  58  84 108 142 190 242 262 327
#     4  10  16  32  59  77 101 139 190 230 268 311
#     4  12  23  37  57  86 121 148 180 237 296 333
#
# _framework density 19.714138999999999
#
# number of rings (size 3 to 8) (size 9 to 14) (size 15 to 20)
#    0.000    1.000    7.500    2.250    0.000    0.000 
#    0.000    0.000    0.000   22.500    0.000    0.000 
#    0.000    0.000    0.000    0.000    0.000    0.000 
#
# Total GULP energy -198299.003342 kJ/mol
# GULP energy per Si atom -12393.687709 kJ/mol
# Density = 1.966927 g / cm^3
# Si number density = 19.714139 Si / 1000 Ang^3
#
#
#
# Elastic Constant Matrix: (Units=GPa)
#
#
# Indices 1 2 3 4 5 6 
#
# 1 62.7161 40.0411 40.5857 0.7201 8.1539 12.3397
# 2 40.0411 105.3551 70.9819 -13.7007 -0.5636 15.1589
# 3 40.5857 70.9819 160.8820 -41.6092 1.5238 14.8817
# 4 0.7201 -13.7007 -41.6092 55.1246 6.2086 -6.9224
# 5 8.1539 -0.5636 1.5238 6.2086 14.1375 2.7477
# 6 12.3397 15.1589 14.8817 -6.9224 2.7477 17.5859
#
#
#
# Elastic Compliance Matrix: (Units=1/GPa)
#
#
# Indices 1 2 3 4 5 6 
#
# 1 0.026034 -0.006549 -0.003974 -0.004942 -0.010829 -0.009513
# 2 -0.006549 0.016457 -0.005465 -0.001579 0.007014 -0.006683
# 3 -0.003974 -0.005465 0.011590 0.007928 -0.002903 0.001266
# 4 -0.004942 -0.001579 0.007928 0.026411 -0.011675 0.010340
# 5 -0.010829 0.007014 -0.002903 -0.011675 0.085407 -0.013931
# 6 -0.009513 -0.006683 0.001266 0.010340 -0.013931 0.074475
#
#
# Mechanical properties :
#
#
# Convention : Reuss Voigt Hill
#
# Bulk Modulus (GPa) = 45.23877 70.24115 57.73996
# Shear Modulus (GPa) = 17.87513 29.19257 23.53385
#
# Velocity S-wave (km/s) = 3.01444 3.85228 3.45882
# Velocity P-wave (km/s) = 5.92562 7.44943 6.73079
#
# Compressibility (1/GPa) = 0.02210493
#
# Stress axis : x y z
#
# Youngs Moduli (GPa) = 38.41121 60.76602 86.27816
#
# Poissons Ratio (x) = 0.39795 0.34286
# Poissons Ratio (y) = 0.25155 0.47153
# Poissons Ratio (z) = 0.15264 0.33210
#
# Static dielectric constant tensor:
#      x y z
#    x 3.075590 0.069460 -0.252170 
#    y 0.069460 4.194080 -0.973410 
#    z -0.252170 -0.973410 5.027840 
# 
# 
# High freq. dielectric constant tensor:
#      x y z
#    x 1.705650 -0.002430 -0.014290 
#    y -0.002430 1.778320 -0.025860 
#    z -0.014290 -0.025860 1.798860 
# 
# From -- ./inp_files/99445.got.cif
#   From: 2010.06.25/outbox.cif.g09.slc.cpg/sg2_50_cif.got.tgz:99445.got - 2010.06.27 13:26:56.
