data_PCOD8010526
_publ_section_title
;
Structure prediction by ZEFSAII (Michael W. Deem and Ramdas Pophale) SiO2 
 PCOD8010526
Probable space group: P -1
;
_chemical_formula_sum "Si O2"
_cell_formula_units_Z 14
_cell_length_a 10.790774
_cell_length_b 12.032285
_cell_length_c 11.187671
_cell_angle_alpha 55.892845
_cell_angle_beta 125.326547
_cell_angle_gamma 142.551872
_cell_volume 705.303483
_symmetry_space_group_name_H-M "P -1"
_symmetry_group_IT_number 2
_symmetry_cell_setting 'triclinic'
loop_
_space_group_symop_operation_xyz
x,y,z
-x,-y,-z
loop_
_atom_site_type_symbol
_atom_site_label
_atom_site_fract_x
_atom_site_fract_y
_atom_site_fract_z
Si Si1 0.643877 0.473924 0.317336
Si Si2 0.085593 0.437438 0.794908
Si Si3 0.969074 0.387148 0.163538
Si Si4 0.777638 0.767539 0.920384
Si Si5 0.643630 0.979301 0.154985
Si Si6 0.198304 0.146973 0.854776
Si Si7 0.326862 0.672470 0.345253
O O1 0.795904 0.477793 0.316257
O O2 0.427457 0.373873 0.189286
O O3 0.764149 0.686155 0.286886
O O4 0.595185 0.364969 0.476332
O O5 0.172503 0.611806 0.822698
O O6 0.831519 0.303544 0.717487
O O7 0.120658 0.315482 0.949706
O O8 0.198513 0.498732 0.284277
O O9 0.864265 0.181815 0.195301
O O10 0.000000 0.500000 0.000000
O O11 0.713766 0.796094 0.994097
O O12 0.947584 0.963833 0.828115
O O13 0.678960 0.886312 0.133904
O O14 0.535393 0.857416 0.287533
O O15 0.500000 0.000000 0.000000
#
# Coordination Sequence:
#
# PCOD8010526 Si02
#       7
#     2   2   2   2   2   2   2
#     4  11  23  41  63  90 126 162 199 254 313 358
#     4   9  20  42  64  87 123 160 205 254 297 355
#     4  10  21  38  61  89 120 153 203 251 294 353
#     4  10  21  40  66  91 119 159 209 254 295 364
#     4  12  23  38  65  91 120 161 208 251 299 364
#     4  10  23  38  62  92 121 162 205 249 304 360
#     4  10  24  40  62  95 121 160 202 252 313 359
#
# _framework density 19.849610999999999
#
# number of rings (size 3 to 8) (size 9 to 14) (size 15 to 20)
#    0.857    0.857    1.429    3.857    4.000    2.857 
#    0.000    2.143    0.000    0.000    0.000    0.000 
#    0.000    0.000    0.000    0.000    0.000    0.000 
#
# Total GULP energy -173543.195917 kJ/mol
# GULP energy per Si atom -12395.942566 kJ/mol
# Density = 1.980443 g / cm^3
# Si number density = 19.849611 Si / 1000 Ang^3
#
#
#
# Elastic Constant Matrix: (Units=GPa)
#
#
# Indices 1 2 3 4 5 6 
#
# 1 102.8313 24.0694 47.7072 -16.4679 -7.8948 -9.8381
# 2 24.0694 93.7920 37.8006 -12.4053 -6.2435 5.4602
# 3 47.7072 37.8006 102.4939 -17.9651 -19.0648 7.5793
# 4 -16.4679 -12.4053 -17.9651 25.8676 6.3897 -3.0679
# 5 -7.8948 -6.2435 -19.0648 6.3897 26.8953 -4.3485
# 6 -9.8381 5.4602 7.5793 -3.0679 -4.3485 37.1470
#
#
#
# Elastic Compliance Matrix: (Units=1/GPa)
#
#
# Indices 1 2 3 4 5 6 
#
# 1 0.013894 -0.000923 -0.005713 0.005207 -0.000558 0.005346
# 2 -0.000923 0.012863 -0.003878 0.002976 -0.000936 -0.001208
# 3 -0.005713 -0.003878 0.016072 0.003450 0.007501 -0.003059
# 4 0.005207 0.002976 0.003450 0.047717 -0.006112 0.003463
# 5 -0.000558 -0.000936 0.007501 -0.006112 0.044073 0.003114
# 6 0.005346 -0.001208 -0.003059 0.003463 0.003114 0.029788
#
#
# Mechanical properties :
#
#
# Convention : Reuss Voigt Hill
#
# Bulk Modulus (GPa) = 45.86733 57.58575 51.72654
# Shear Modulus (GPa) = 25.94692 30.61797 28.28244
#
# Velocity S-wave (km/s) = 3.61941 3.93172 3.77880
# Velocity P-wave (km/s) = 6.37373 7.04878 6.71974
#
# Compressibility (1/GPa) = 0.02180201
#
# Stress axis : x y z
#
# Youngs Moduli (GPa) = 71.97575 77.74159 62.21863
#
# Poissons Ratio (x) = 0.07172 0.35547
# Poissons Ratio (y) = 0.06640 0.24126
# Poissons Ratio (z) = 0.41122 0.30146
#
# Static dielectric constant tensor:
#      x y z
#    x 3.709280 -0.077080 -0.190870 
#    y -0.077080 3.790000 -0.033040 
#    z -0.190870 -0.033040 3.331960 
# 
# 
# High freq. dielectric constant tensor:
#      x y z
#    x 1.779610 -0.000320 -0.013080 
#    y -0.000320 1.773520 -0.005570 
#    z -0.013080 -0.005570 1.754560 
# 
# From -- ./inp_files/423083.got.cif
#   From: 2010.06.25/outbox.cif.g09.slc.cpg/sg2_212_cif.got.tgz:423083.got - 2010.06.27 13:26:56.
