data_PCOD8010328
_publ_section_title
;
Structure prediction by ZEFSAII (Michael W. Deem and Ramdas Pophale) SiO2 
 PCOD8010328
Probable space group: P -1
;
_chemical_formula_sum "Si O2"
_cell_formula_units_Z 10
_cell_length_a 17.278117
_cell_length_b 13.381841
_cell_length_c 17.710153
_cell_angle_alpha 25.464639
_cell_angle_beta 163.318127
_cell_angle_gamma 146.594187
_cell_volume 490.168897
_symmetry_space_group_name_H-M "P -1"
_symmetry_group_IT_number 2
_symmetry_cell_setting 'triclinic'
loop_
_space_group_symop_operation_xyz
x,y,z
-x,-y,-z
loop_
_atom_site_type_symbol
_atom_site_label
_atom_site_fract_x
_atom_site_fract_y
_atom_site_fract_z
Si Si1 0.788573 0.982518 0.560543
Si Si2 0.597398 0.931547 0.721091
Si Si3 0.372507 0.574030 0.562410
Si Si4 0.598340 0.328895 0.639033
Si Si5 0.153537 0.544801 0.789513
O O1 0.573110 0.875326 0.383493
O O2 0.661496 0.063571 0.468820
O O3 0.838534 0.209037 0.409080
O O4 0.074641 0.785763 0.970862
O O5 0.500000 0.000000 0.500000
O O6 0.756781 0.134014 0.758310
O O7 0.790486 0.661922 0.082004
O O8 0.462753 0.507801 0.605495
O O9 0.153879 0.429761 0.483232
O O10 0.638722 0.511477 0.907644
O O11 0.500000 0.500000 0.500000
#
# Coordination Sequence:
#
# PCOD8010328 Si02
#       5
#     2   2   2   2   2
#     4  11  23  38  60  90 115 146 194 240 284 336
#     4   9  19  36  59  86 119 157 185 220 280 351
#     4  10  21  38  59  84 116 157 193 224 278 350
#     4  11  23  43  62  80 110 155 199 240 283 337
#     4  11  21  37  58  90 123 147 181 238 287 336
#
# _framework density 20.401130999999999
#
# number of rings (size 3 to 8) (size 9 to 14) (size 15 to 20)
#    0.000    1.600    0.000    6.600    0.000    4.800 
#    0.000   16.000    0.000    0.000    0.000    0.000 
#    0.000    0.000    0.000    0.000    0.000    0.000 
#
# Total GULP energy -123977.004556 kJ/mol
# GULP energy per Si atom -12397.700456 kJ/mol
# Density = 2.035470 g / cm^3
# Si number density = 20.401131 Si / 1000 Ang^3
#
#
#
# Elastic Constant Matrix: (Units=GPa)
#
#
# Indices 1 2 3 4 5 6 
#
# 1 160.5818 64.6782 21.9680 -8.7941 1.0112 -2.0933
# 2 64.6782 93.9149 3.5525 7.2040 1.7594 19.6196
# 3 21.9680 3.5525 39.4350 8.3911 0.0885 -3.9137
# 4 -8.7941 7.2040 8.3911 32.6707 6.2642 -1.2915
# 5 1.0112 1.7594 0.0885 6.2642 22.0058 0.5396
# 6 -2.0933 19.6196 -3.9137 -1.2915 0.5396 43.5797
#
#
#
# Elastic Compliance Matrix: (Units=1/GPa)
#
#
# Indices 1 2 3 4 5 6 
#
# 1 0.011109 -0.008780 -0.006499 0.007126 -0.001912 0.004138
# 2 -0.008780 0.018999 0.004044 -0.008215 0.001424 -0.008873
# 3 -0.006499 0.004044 0.031013 -0.011175 0.003025 0.000284
# 4 0.007126 -0.008215 -0.011175 0.039484 -0.010972 0.004343
# 5 -0.001912 0.001424 0.003025 -0.010972 0.048562 -0.001388
# 6 0.004138 -0.008873 0.000284 0.004343 -0.001388 0.027311
#
#
# Mechanical properties :
#
#
# Convention : Reuss Voigt Hill
#
# Bulk Modulus (GPa) = 25.87238 52.70323 39.28780
# Shear Modulus (GPa) = 23.60371 33.23342 28.41856
#
# Velocity S-wave (km/s) = 3.40513 4.04046 3.73633
# Velocity P-wave (km/s) = 5.30747 6.90338 6.15735
#
# Compressibility (1/GPa) = 0.03865126
#
# Stress axis : x y z
#
# Youngs Moduli (GPa) = 90.01760 52.63516 32.24404
#
# Poissons Ratio (x) = 0.46213 0.20955
# Poissons Ratio (y) = 0.79035 -0.13039
# Poissons Ratio (z) = 0.58501 -0.21285
#
# Static dielectric constant tensor:
#      x y z
#    x 3.971140 -0.119710 0.013080 
#    y -0.119710 4.002630 -0.032340 
#    z 0.013080 -0.032340 3.612340 
# 
# 
# High freq. dielectric constant tensor:
#      x y z
#    x 1.810560 0.009470 -0.003940 
#    y 0.009470 1.801040 0.012340 
#    z -0.003940 0.012340 1.779140 
# 
# From -- ./inp_files/767.got.cif
#   From: 2010.06.25/outbox.cif.g09.slc.cpg/sg2_1_cif.got.tgz:767.got - 2010.06.27 13:26:56.
