data_PCOD8010416
_publ_section_title
;
Structure prediction by ZEFSAII (Michael W. Deem and Ramdas Pophale) SiO2 
 PCOD8010416
Probable space group: P -1
;
_chemical_formula_sum "Si O2"
_cell_formula_units_Z 16
_cell_length_a 8.337946
_cell_length_b 13.931505
_cell_length_c 14.092489
_cell_angle_alpha 148.929101
_cell_angle_beta 107.171669
_cell_angle_gamma 90.852158
_cell_volume 677.819553
_symmetry_space_group_name_H-M "P -1"
_symmetry_group_IT_number 2
_symmetry_cell_setting 'triclinic'
loop_
_space_group_symop_operation_xyz
x,y,z
-x,-y,-z
loop_
_atom_site_type_symbol
_atom_site_label
_atom_site_fract_x
_atom_site_fract_y
_atom_site_fract_z
Si Si1 0.081342 0.868063 0.067805
Si Si2 0.713977 0.181745 0.774880
Si Si3 0.657435 0.788770 0.932997
Si Si4 0.499742 0.693188 0.523826
Si Si5 0.455151 0.641925 0.960889
Si Si6 0.297690 0.783117 0.735154
Si Si7 0.416498 0.684282 0.293231
Si Si8 0.875276 0.464696 0.321661
O O1 0.094722 0.763309 0.082227
O O2 0.272092 0.116506 0.296869
O O3 0.067125 0.709429 0.847401
O O4 0.888944 0.879379 0.039602
O O5 0.764672 0.337583 0.821702
O O6 0.605973 0.928036 0.509618
O O7 0.559667 0.212669 0.837451
O O8 0.519949 0.539117 0.656728
O O9 0.614910 0.810596 0.054081
O O10 0.613418 0.953348 0.004381
O O11 0.421107 0.757794 0.653281
O O12 0.367100 0.652306 0.370200
O O13 0.526884 0.486050 0.880084
O O14 0.239141 0.489832 0.741762
O O15 0.279667 0.648277 0.712750
O O16 0.074567 0.691336 0.578936
#
# Coordination Sequence:
#
# PCOD8010416 Si02
#       8
#     2   2   2   2   2   2   2   2
#     4  10  21  41  64  89 128 157 200 252 298 356
#     4   9  18  35  61  89 119 158 193 245 298 351
#     4  11  23  38  64  91 119 163 203 243 303 356
#     4  10  22  42  61  91 120 162 198 252 299 355
#     4  10  21  38  60  87 121 158 199 244 300 355
#     4  11  23  42  63  87 125 158 205 255 294 364
#     4   9  18  34  63  88 116 156 201 236 303 352
#     4  10  23  42  63  90 119 164 203 248 308 352
#
# _framework density 23.605103
#
# number of rings (size 3 to 8) (size 9 to 14) (size 15 to 20)
#    0.000    2.000    1.250    2.625    5.250    2.500 
#    0.000    5.625    2.750    4.500    0.000    0.000 
#    0.000    0.000    0.000    0.000    0.000    0.000 
#
# Total GULP energy -198345.586483 kJ/mol
# GULP energy per Si atom -12396.599155 kJ/mol
# Density = 2.355138 g / cm^3
# Si number density = 23.605103 Si / 1000 Ang^3
#
#
#
# Elastic Constant Matrix: (Units=GPa)
#
#
# Indices 1 2 3 4 5 6 
#
# 1 83.1073 45.7852 16.8664 1.3773 -15.1911 -7.9695
# 2 45.7852 112.9995 29.1123 2.2445 -12.7361 -21.5517
# 3 16.8664 29.1123 87.4702 11.1696 -8.9198 -3.5904
# 4 1.3773 2.2445 11.1696 31.4521 -3.2915 -11.6796
# 5 -15.1911 -12.7361 -8.9198 -3.2915 35.6533 2.2771
# 6 -7.9695 -21.5517 -3.5904 -11.6796 2.2771 38.8155
#
#
#
# Elastic Compliance Matrix: (Units=1/GPa)
#
#
# Indices 1 2 3 4 5 6 
#
# 1 0.016276 -0.005913 -0.000752 0.000405 0.004683 -0.000163
# 2 -0.005913 0.013498 -0.003340 0.003162 0.001321 0.006845
# 3 -0.000752 -0.003340 0.013412 -0.005237 0.001514 -0.002433
# 4 0.000405 0.003162 -0.005237 0.038434 0.002725 0.012760
# 5 0.004683 0.001321 0.001514 0.002725 0.031092 0.000831
# 6 -0.000163 0.006845 -0.002433 0.012760 0.000831 0.033096
#
#
# Mechanical properties :
#
#
# Convention : Reuss Voigt Hill
#
# Bulk Modulus (GPa) = 43.14595 51.90054 47.52325
# Shear Modulus (GPa) = 28.81137 33.97173 31.39155
#
# Velocity S-wave (km/s) = 3.49744 3.79775 3.65068
# Velocity P-wave (km/s) = 5.88450 6.42381 6.16006
#
# Compressibility (1/GPa) = 0.02317715
#
# Stress axis : x y z
#
# Youngs Moduli (GPa) = 61.44006 74.08772 74.55799
#
# Poissons Ratio (x) = 0.43805 0.05603
# Poissons Ratio (y) = 0.36327 0.24905
# Poissons Ratio (z) = 0.04617 0.24748
#
# Static dielectric constant tensor:
#      x y z
#    x 4.154360 -0.129440 -0.058520 
#    y -0.129440 4.582640 -0.105690 
#    z -0.058520 -0.105690 4.312410 
# 
# 
# High freq. dielectric constant tensor:
#      x y z
#    x 1.929600 -0.016400 -0.010650 
#    y -0.016400 1.940690 -0.004270 
#    z -0.010650 -0.004270 1.937240 
# 
# From -- ./inp_files/505936.got.cif
#   From: 2010.06.25/outbox.cif.g09.slc.cpg/sg2_253_cif.got.tgz:505936.got - 2010.06.27 13:26:56.
