data_PCOD8010643
_publ_section_title
;
Structure prediction by ZEFSAII (Michael W. Deem and Ramdas Pophale) SiO2 
 PCOD8010643
Probable space group: P -1
;
_chemical_formula_sum "Si O2"
_cell_formula_units_Z 16
_cell_length_a 15.032952
_cell_length_b 19.997612
_cell_length_c 12.161653
_cell_angle_alpha 135.078234
_cell_angle_beta 153.353277
_cell_angle_gamma 29.047582
_cell_volume 749.684054
_symmetry_space_group_name_H-M "P -1"
_symmetry_group_IT_number 2
_symmetry_cell_setting 'triclinic'
loop_
_space_group_symop_operation_xyz
x,y,z
-x,-y,-z
loop_
_atom_site_type_symbol
_atom_site_label
_atom_site_fract_x
_atom_site_fract_y
_atom_site_fract_z
Si Si1 0.099567 0.325122 0.825573
Si Si2 0.834585 0.689826 0.451475
Si Si3 0.110144 0.546185 0.805572
Si Si4 0.165466 0.881441 0.380449
Si Si5 0.178060 0.701084 0.680466
Si Si6 0.122000 0.937262 0.939652
Si Si7 0.690062 0.016090 0.176825
Si Si8 0.870482 0.603074 0.829622
O O1 0.901898 0.309287 0.541681
O O2 0.044536 0.439156 0.825558
O O3 0.458918 0.169942 0.035348
O O4 0.007441 0.379262 0.912808
O O5 0.951050 0.543006 0.379481
O O6 0.929815 0.673205 0.663788
O O7 0.998875 0.706554 0.578463
O O8 0.476304 0.834728 0.208558
O O9 0.963566 0.629746 0.857140
O O10 0.465134 0.441959 0.069557
O O11 0.152926 0.987609 0.551476
O O12 0.507349 0.714969 0.563947
O O13 0.052321 0.932765 0.189583
O O14 0.944125 0.893052 0.222951
O O15 0.069581 0.848120 0.742860
O O16 0.000000 0.000000 0.000000
O O17 0.500000 0.000000 0.000000
#
# Coordination Sequence:
#
# PCOD8010643 Si02
#       8
#     2   2   2   2   2   2   2   2
#     4  10  21  40  64  92 128 160 207 256 314 371
#     4  10  21  40  62  90 127 165 211 262 311 374
#     4  10  21  38  62  90 130 165 207 258 318 367
#     4  10  22  40  63  88 128 163 206 258 318 368
#     4  11  22  39  65  92 120 171 215 253 318 382
#     4  11  24  41  65  92 123 170 214 265 319 371
#     4  10  21  41  64  92 122 166 207 254 314 382
#     4  10  21  41  62  94 130 164 204 264 311 370
#
# _framework density 21.342324000000001
#
# number of rings (size 3 to 8) (size 9 to 14) (size 15 to 20)
#    0.000    1.750    1.250    2.625    1.750    1.000 
#   11.250    0.000    0.000    0.000    0.000    0.000 
#    0.000    0.000    0.000    0.000    0.000    0.000 
#
# Total GULP energy -198403.245468 kJ/mol
# GULP energy per Si atom -12400.202842 kJ/mol
# Density = 2.129375 g / cm^3
# Si number density = 21.342324 Si / 1000 Ang^3
#
#
#
# Elastic Constant Matrix: (Units=GPa)
#
#
# Indices 1 2 3 4 5 6 
#
# 1 156.8715 37.9069 66.8456 -5.0730 6.2767 -9.9237
# 2 37.9069 72.1290 40.4391 -8.1594 1.6000 -3.8487
# 3 66.8456 40.4391 112.6931 2.2900 -8.9094 7.1481
# 4 -5.0730 -8.1594 2.2900 34.1757 -0.4324 -7.5842
# 5 6.2767 1.6000 -8.9094 -0.4324 47.9331 1.5837
# 6 -9.9237 -3.8487 7.1481 -7.5842 1.5837 19.4950
#
#
#
# Elastic Compliance Matrix: (Units=1/GPa)
#
#
# Indices 1 2 3 4 5 6 
#
# 1 0.010214 -0.000598 -0.006735 0.003848 -0.002841 0.009279
# 2 -0.000598 0.019868 -0.007699 0.007237 -0.002262 0.009440
# 3 -0.006735 -0.007699 0.017060 -0.007106 0.004720 -0.014352
# 4 0.003848 0.007237 -0.007106 0.036532 -0.002411 0.020401
# 5 -0.002841 -0.002262 0.004720 -0.002411 0.022376 -0.006379
# 6 0.009279 0.009440 -0.014352 0.020401 -0.006379 0.071599
#
#
# Mechanical properties :
#
#
# Convention : Reuss Voigt Hill
#
# Bulk Modulus (GPa) = 58.56314 70.23076 64.39695
# Shear Modulus (GPa) = 23.42937 33.42090 28.42514
#
# Velocity S-wave (km/s) = 3.31688 3.96149 3.65343
# Velocity P-wave (km/s) = 6.49372 7.34185 6.93077
#
# Compressibility (1/GPa) = 0.01707559
#
# Stress axis : x y z
#
# Youngs Moduli (GPa) = 97.90030 50.33342 58.61825
#
# Poissons Ratio (x) = 0.03012 0.39482
# Poissons Ratio (y) = 0.05859 0.45130
# Poissons Ratio (z) = 0.65941 0.38752
#
# Static dielectric constant tensor:
#      x y z
#    x 3.890910 -0.066240 -0.264020 
#    y -0.066240 3.773580 -0.120300 
#    z -0.264020 -0.120300 4.173090 
# 
# 
# High freq. dielectric constant tensor:
#      x y z
#    x 1.846480 -0.007400 -0.012830 
#    y -0.007400 1.817510 -0.009650 
#    z -0.012830 -0.009650 1.848120 
# 
# From -- ./inp_files/411269.got.cif
#   From: 2010.06.25/outbox.cif.g09.slc.cpg/sg2_206_cif.got.tgz:411269.got - 2010.06.27 13:26:56.
