data_PCOD8010794
_publ_section_title
;
Structure prediction by ZEFSAII (Michael W. Deem and Ramdas Pophale) SiO2 
 PCOD8010794
Probable space group: P -1
;
_chemical_formula_sum "Si O2"
_cell_formula_units_Z 16
_cell_length_a 24.417909
_cell_length_b 22.257664
_cell_length_c 9.364470
_cell_angle_alpha 28.228632
_cell_angle_beta 38.770241
_cell_angle_gamma 19.428265
_cell_volume 757.072737
_symmetry_space_group_name_H-M "P -1"
_symmetry_group_IT_number 2
_symmetry_cell_setting 'triclinic'
loop_
_space_group_symop_operation_xyz
x,y,z
-x,-y,-z
loop_
_atom_site_type_symbol
_atom_site_label
_atom_site_fract_x
_atom_site_fract_y
_atom_site_fract_z
Si Si1 0.770162 0.449411 0.231070
Si Si2 0.106312 0.157549 0.662362
Si Si3 0.214652 0.500518 0.217734
Si Si4 0.479272 0.972418 0.877667
Si Si5 0.630700 0.473344 0.976976
Si Si6 0.638067 0.985088 0.702846
Si Si7 0.375525 0.647075 0.309810
Si Si8 0.935516 0.955902 0.292104
O O1 0.714133 0.374774 0.482800
O O2 0.927912 0.268359 0.400036
O O3 0.845270 0.409506 0.012617
O O4 0.595300 0.740327 0.024963
O O5 0.194518 0.177903 0.387448
O O6 0.088324 0.112416 0.642301
O O7 0.921566 0.400795 0.607910
O O8 0.220169 0.945137 0.998396
O O9 0.259804 0.586882 0.999316
O O10 0.381294 0.199315 0.505488
O O11 0.605919 0.887528 0.905548
O O12 0.343192 0.060150 0.068706
O O13 0.527226 0.711706 0.602323
O O14 0.495704 0.536458 0.167240
O O15 0.751469 0.226658 0.161832
O O16 0.500000 0.500000 0.500000
O O17 0.000000 0.000000 0.000000
#
# Coordination Sequence:
#
# PCOD8010794 Si02
#       8
#     2   2   2   2   2   2   2   2
#     4  12  25  41  66  96 132 169 212 261 320 380
#     4  11  25  42  66  98 128 167 212 264 326 374
#     4  11  23  43  64  89 133 171 211 262 316 380
#     4  10  23  44  66  90 123 173 223 260 315 364
#     4  10  21  38  63  95 127 163 207 260 323 371
#     4   9  22  42  68  90 124 166 217 270 306 378
#     4  11  23  39  66  96 130 166 207 256 323 392
#     4  12  23  39  63  99 135 162 209 264 318 389
#
# _framework density 21.134032000000001
#
# number of rings (size 3 to 8) (size 9 to 14) (size 15 to 20)
#    0.000    1.250    3.750    1.125    7.000    2.500 
#    0.000    0.625    0.000    0.000    0.000    0.000 
#    0.000    0.000    0.000    0.000    0.000    0.000 
#
# Total GULP energy -198221.833825 kJ/mol
# GULP energy per Si atom -12388.864614 kJ/mol
# Density = 2.108593 g / cm^3
# Si number density = 21.134032 Si / 1000 Ang^3
#
#
#
# Elastic Constant Matrix: (Units=GPa)
#
#
# Indices 1 2 3 4 5 6 
#
# 1 47.5401 -3.1932 14.7236 13.7944 19.8639 0.2954
# 2 -3.1932 94.6999 20.3637 9.1799 -7.9882 7.4928
# 3 14.7236 20.3637 65.6534 19.7592 7.3521 9.3957
# 4 13.7944 9.1799 19.7592 25.2636 -5.5048 0.2707
# 5 19.8639 -7.9882 7.3521 -5.5048 32.7843 3.1012
# 6 0.2954 7.4928 9.3957 0.2707 3.1012 30.1051
#
#
#
# Elastic Compliance Matrix: (Units=1/GPa)
#
#
# Indices 1 2 3 4 5 6 
#
# 1 0.043689 0.001094 0.003594 -0.034261 -0.032941 0.001879
# 2 0.001094 0.011922 -0.003511 -0.001510 0.002981 -0.002176
# 3 0.003594 -0.003511 0.024249 -0.022141 -0.011685 -0.005327
# 4 -0.034261 -0.001510 -0.022141 0.084691 0.039310 0.002811
# 5 -0.032941 0.002981 -0.011685 0.039310 0.060728 -0.003381
# 6 0.001879 -0.002176 -0.005327 0.002811 -0.003381 0.035725
#
#
# Mechanical properties :
#
#
# Convention : Reuss Voigt Hill
#
# Bulk Modulus (GPa) = 12.16342 30.18684 21.17513
# Shear Modulus (GPa) = 17.47919 29.36388 23.42154
#
# Velocity S-wave (km/s) = 2.87899 3.73153 3.33263
# Velocity P-wave (km/s) = 4.10114 5.73413 4.98496
#
# Compressibility (1/GPa) = 0.08221375
#
# Stress axis : x y z
#
# Youngs Moduli (GPa) = 22.88924 83.88133 41.23877
#
# Poissons Ratio (x) = -0.09178 -0.14822
# Poissons Ratio (y) = -0.02505 0.14479
# Poissons Ratio (z) = -0.08227 0.29451
#
# Static dielectric constant tensor:
#      x y z
#    x 3.782840 -0.157810 0.003130 
#    y -0.157810 4.028170 0.219540 
#    z 0.003130 0.219540 4.581500 
# 
# 
# High freq. dielectric constant tensor:
#      x y z
#    x 1.811290 -0.001590 0.006090 
#    y -0.001590 1.836040 0.008010 
#    z 0.006090 0.008010 1.839340 
# 
# From -- ./inp_files/200856.got.cif
#   From: 2010.06.25/outbox.cif.g09.slc.cpg/sg2_101_cif.got.tgz:200856.got - 2010.06.27 13:26:56.
