data_PCOD8010975
_publ_section_title
;
Structure prediction by ZEFSAII (Michael W. Deem and Ramdas Pophale) SiO2 
 PCOD8010975
Probable space group: P -1
;
_chemical_formula_sum "Si O2"
_cell_formula_units_Z 16
_cell_length_a 15.822892
_cell_length_b 9.049955
_cell_length_c 13.799852
_cell_angle_alpha 104.467208
_cell_angle_beta 41.843487
_cell_angle_gamma 134.742452
_cell_volume 763.086269
_symmetry_space_group_name_H-M "P -1"
_symmetry_group_IT_number 2
_symmetry_cell_setting 'triclinic'
loop_
_space_group_symop_operation_xyz
x,y,z
-x,-y,-z
loop_
_atom_site_type_symbol
_atom_site_label
_atom_site_fract_x
_atom_site_fract_y
_atom_site_fract_z
Si Si1 0.310414 0.848712 0.997696
Si Si2 0.262855 0.848158 0.252399
Si Si3 0.413761 0.237670 0.639380
Si Si4 0.111081 0.370323 0.358381
Si Si5 0.030490 0.320443 0.082204
Si Si6 0.513631 0.707036 0.191956
Si Si7 0.130502 0.174896 0.130101
Si Si8 0.775866 0.640729 0.256430
O O1 0.505362 0.918143 0.858347
O O2 0.365182 0.021920 0.896577
O O3 0.270940 0.900239 0.140718
O O4 0.102217 0.556736 0.094160
O O5 0.179706 0.594395 0.287109
O O6 0.114353 0.825660 0.429147
O O7 0.510567 0.317905 0.676261
O O8 0.595059 0.378010 0.428425
O O9 0.324342 0.321624 0.716237
O O10 0.224649 0.933247 0.736064
O O11 0.279321 0.475897 0.310508
O O12 0.082016 0.213962 0.277225
O O13 0.134257 0.293982 0.057292
O O14 0.109445 0.368644 0.913185
O O15 0.640996 0.684568 0.038967
O O16 0.947911 0.872709 0.222355
#
# Coordination Sequence:
#
# PCOD8010975 Si02
#       8
#     2   2   2   2   2   2   2   2
#     4  10  22  38  68  87 124 173 202 258 321 369
#     4   9  20  42  59  92 125 161 219 250 303 389
#     4  10  21  39  61  91 129 162 209 262 309 367
#     4  10  21  38  65  93 126 163 206 264 311 372
#     4  11  20  41  67  91 119 175 211 251 306 380
#     4  11  22  40  60  94 136 160 199 268 321 365
#     4  11  20  40  66  93 124 169 210 255 316 372
#     4  10  21  39  64  90 124 168 215 258 300 372
#
# _framework density 20.967486999999998
#
# number of rings (size 3 to 8) (size 9 to 14) (size 15 to 20)
#    0.000    1.750    3.750    1.125    0.000    4.500 
#    2.250    1.875    0.000    0.000    0.000    0.000 
#    0.000    0.000    0.000    0.000    0.000    0.000 
#
# Total GULP energy -198464.300500 kJ/mol
# GULP energy per Si atom -12404.018781 kJ/mol
# Density = 2.091976 g / cm^3
# Si number density = 20.967487 Si / 1000 Ang^3
#
#
#
# Elastic Constant Matrix: (Units=GPa)
#
#
# Indices 1 2 3 4 5 6 
#
# 1 96.7554 28.0951 42.8351 8.2319 9.1089 24.7473
# 2 28.0951 85.9505 36.4361 4.5688 7.3798 23.5294
# 3 42.8351 36.4361 115.6385 -0.7108 13.4093 11.7977
# 4 8.2319 4.5688 -0.7108 21.7621 -2.9272 -1.9462
# 5 9.1089 7.3798 13.4093 -2.9272 30.1080 -0.5447
# 6 24.7473 23.5294 11.7977 -1.9462 -0.5447 20.3233
#
#
#
# Elastic Compliance Matrix: (Units=1/GPa)
#
#
# Indices 1 2 3 4 5 6 
#
# 1 0.020255 0.004595 -0.005389 -0.012205 -0.006551 -0.028200
# 2 0.004595 0.020839 -0.004797 -0.009554 -0.005797 -0.028007
# 3 -0.005389 -0.004797 0.011847 0.003657 -0.002014 0.005535
# 4 -0.012205 -0.009554 0.003657 0.056740 0.010456 0.029515
# 5 -0.006551 -0.005797 -0.002014 0.010456 0.038854 0.017900
# 6 -0.028200 -0.028007 0.005535 0.029515 0.017900 0.116061
#
#
# Mechanical properties :
#
#
# Convention : Reuss Voigt Hill
#
# Bulk Modulus (GPa) = 23.94781 57.00856 40.47818
# Shear Modulus (GPa) = 17.25941 27.17057 22.21499
#
# Velocity S-wave (km/s) = 2.87217 3.60369 3.25852
# Velocity P-wave (km/s) = 4.73765 6.67559 5.78830
#
# Compressibility (1/GPa) = 0.04175748
#
# Stress axis : x y z
#
# Youngs Moduli (GPa) = 49.37120 47.98698 84.41158
#
# Poissons Ratio (x) = -0.22049 0.45489
# Poissons Ratio (y) = -0.22685 0.40495
# Poissons Ratio (z) = 0.26606 0.23021
#
# Static dielectric constant tensor:
#      x y z
#    x 3.772550 0.116530 0.019440 
#    y 0.116530 3.553930 -0.127070 
#    z 0.019440 -0.127070 3.883100 
# 
# 
# High freq. dielectric constant tensor:
#      x y z
#    x 1.822410 0.013750 0.005440 
#    y 0.013750 1.802780 -0.007560 
#    z 0.005440 -0.007560 1.826100 
# 
# From -- ./inp_files/529897.got.cif
#   From: 2010.06.25/outbox.cif.g09.slc.cpg/sg2_265_cif.got.tgz:529897.got - 2010.06.27 13:26:56.
