data_PCOD8010960
_publ_section_title
;
Structure prediction by ZEFSAII (Michael W. Deem and Ramdas Pophale) SiO2 
 PCOD8010960
Probable space group: P -1
;
_chemical_formula_sum "Si O2"
_cell_formula_units_Z 16
_cell_length_a 9.455358
_cell_length_b 12.718507
_cell_length_c 8.996733
_cell_angle_alpha 56.366012
_cell_angle_beta 122.966197
_cell_angle_gamma 106.262552
_cell_volume 755.416156
_symmetry_space_group_name_H-M "P -1"
_symmetry_group_IT_number 2
_symmetry_cell_setting 'triclinic'
loop_
_space_group_symop_operation_xyz
x,y,z
-x,-y,-z
loop_
_atom_site_type_symbol
_atom_site_label
_atom_site_fract_x
_atom_site_fract_y
_atom_site_fract_z
Si Si1 0.055346 0.821913 0.537203
Si Si2 0.202964 0.421338 0.064490
Si Si3 0.698280 0.948384 0.233224
Si Si4 0.617476 0.073398 0.395896
Si Si5 0.558162 0.288159 0.387951
Si Si6 0.378766 0.832245 0.180075
Si Si7 0.131219 0.571967 0.617018
Si Si8 0.862661 0.322747 0.016217
O O1 0.179415 0.923799 0.452812
O O2 0.031160 0.697777 0.520527
O O3 0.147376 0.777366 0.777218
O O4 0.878471 0.888810 0.424225
O O5 0.202331 0.478767 0.856236
O O6 0.181752 0.532624 0.084281
O O7 0.375716 0.349596 0.261678
O O8 0.054855 0.320265 0.068517
O O9 0.567220 0.837230 0.210854
O O10 0.605847 0.024634 0.258582
O O11 0.718427 0.037719 0.030296
O O12 0.562458 0.221523 0.278721
O O13 0.500000 0.000000 0.500000
O O14 0.599878 0.180688 0.620216
O O15 0.701302 0.391888 0.404414
O O16 0.273507 0.714562 0.155225
O O17 0.000000 0.500000 0.500000
#
# Coordination Sequence:
#
# PCOD8010960 Si02
#       8
#     2   2   2   2   2   2   2   2
#     4  10  22  41  67  91 120 173 208 250 314 377
#     4  10  22  40  63  91 120 168 207 252 315 375
#     4  11  23  42  64  91 127 166 211 259 309 369
#     4  11  22  40  64  90 124 166 212 255 310 378
#     4  11  23  40  63  90 128 167 205 255 318 372
#     4  11  23  38  62  94 126 157 212 260 302 370
#     4  10  22  42  61  95 130 157 208 266 313 373
#     4  10  21  38  65  92 121 155 217 257 300 373
#
# _framework density 21.180378999999999
#
# number of rings (size 3 to 8) (size 9 to 14) (size 15 to 20)
#    0.000    1.500    2.500    2.250    0.000    1.500 
#    4.500    2.500    0.000    0.000    0.000    0.000 
#    0.000    0.000    0.000    0.000    0.000    0.000 
#
# Total GULP energy -198230.143218 kJ/mol
# GULP energy per Si atom -12389.383951 kJ/mol
# Density = 2.113217 g / cm^3
# Si number density = 21.180379 Si / 1000 Ang^3
#
#
#
# Elastic Constant Matrix: (Units=GPa)
#
#
# Indices 1 2 3 4 5 6 
#
# 1 141.7468 57.8911 52.0627 -2.9806 12.0613 20.5185
# 2 57.8911 91.6538 46.8707 10.7479 9.3572 21.7462
# 3 52.0627 46.8707 93.3792 4.8178 1.8775 -3.3964
# 4 -2.9806 10.7479 4.8178 20.5974 5.7436 0.9047
# 5 12.0613 9.3572 1.8775 5.7436 37.9276 -2.3610
# 6 20.5185 21.7462 -3.3964 0.9047 -2.3610 40.4499
#
#
#
# Elastic Compliance Matrix: (Units=1/GPa)
#
#
# Indices 1 2 3 4 5 6 
#
# 1 0.011590 -0.004210 -0.004754 0.006187 -0.003621 -0.004365
# 2 -0.004210 0.021537 -0.008327 -0.008652 -0.002882 -0.010117
# 3 -0.004754 -0.008327 0.017880 -0.001881 0.003504 0.008636
# 4 0.006187 -0.008652 -0.001881 0.056748 -0.008359 -0.000402
# 5 -0.003621 -0.002882 0.003504 -0.008359 0.029669 0.005599
# 6 -0.004365 -0.010117 0.008636 -0.000402 0.005599 0.033436
#
#
# Mechanical properties :
#
#
# Convention : Reuss Voigt Hill
#
# Bulk Modulus (GPa) = 60.88001 71.15873 66.01937
# Shear Modulus (GPa) = 23.70586 31.12532 27.41559
#
# Velocity S-wave (km/s) = 3.34913 3.83761 3.60166
# Velocity P-wave (km/s) = 6.61525 7.30108 6.96661
#
# Compressibility (1/GPa) = 0.01642575
#
# Stress axis : x y z
#
# Youngs Moduli (GPa) = 86.27830 46.43143 55.92851
#
# Poissons Ratio (x) = 0.19547 0.26590
# Poissons Ratio (y) = 0.36322 0.46571
# Poissons Ratio (z) = 0.41019 0.38663
#
# Static dielectric constant tensor:
#      x y z
#    x 4.041770 0.267160 -0.113590 
#    y 0.267160 3.992810 0.037020 
#    z -0.113590 0.037020 3.560800 
# 
# 
# High freq. dielectric constant tensor:
#      x y z
#    x 1.842030 0.029960 -0.005210 
#    y 0.029960 1.835240 0.004890 
#    z -0.005210 0.004890 1.809080 
# 
# From -- ./inp_files/185351.got.cif
#   From: 2010.06.25/outbox.cif.g09.slc.cpg/sg2_93_cif.got.tgz:185351.got - 2010.06.27 13:26:56.
