data_PCOD8010805
_publ_section_title
;
Structure prediction by ZEFSAII (Michael W. Deem and Ramdas Pophale) SiO2 
 PCOD8010805
Probable space group: P -1
;
_chemical_formula_sum "Si O2"
_cell_formula_units_Z 12
_cell_length_a 8.316658
_cell_length_b 13.797705
_cell_length_c 7.648283
_cell_angle_alpha 116.444526
_cell_angle_beta 128.758432
_cell_angle_gamma 44.951744
_cell_volume 483.519302
_symmetry_space_group_name_H-M "P -1"
_symmetry_group_IT_number 2
_symmetry_cell_setting 'triclinic'
loop_
_space_group_symop_operation_xyz
x,y,z
-x,-y,-z
loop_
_atom_site_type_symbol
_atom_site_label
_atom_site_fract_x
_atom_site_fract_y
_atom_site_fract_z
Si Si1 0.066705 0.221610 0.005642
Si Si2 0.685011 0.452160 0.421252
Si Si3 0.922611 0.507486 0.149685
Si Si4 0.451388 0.684950 0.187842
Si Si5 0.587598 0.121080 0.419422
Si Si6 0.066472 0.826538 0.501049
O O1 0.368490 0.111287 0.180128
O O2 0.994411 0.364160 0.133635
O O3 0.027434 0.211174 0.764258
O O4 0.864243 0.210158 0.967083
O O5 0.500000 0.500000 0.500000
O O6 0.510237 0.550452 0.219960
O O7 0.908431 0.469631 0.596463
O O8 0.826463 0.289522 0.369300
O O9 0.614243 0.631941 0.075085
O O10 0.000000 0.500000 0.000000
O O11 0.530397 0.766625 0.416540
O O12 0.703437 0.163242 0.382308
O O13 0.819836 0.969923 0.527958
#
# Coordination Sequence:
#
# PCOD8010805 Si02
#       6
#     2   2   2   2   2   2
#     4  11  20  38  65  94 129 168 215 259 325 380
#     4  12  20  40  64  99 129 163 214 265 321 382
#     4  12  23  40  65  94 130 167 217 278 321 373
#     4  11  24  40  65  97 130 166 219 268 320 381
#     4  10  21  39  64  94 133 177 209 261 320 384
#     4  10  21  38  63  97 134 172 215 256 318 394
#
# _framework density 24.818034999999998
#
# number of rings (size 3 to 8) (size 9 to 14) (size 15 to 20)
#    0.000    1.000    6.667    1.500    0.000    0.000 
#    0.000    0.833    0.000    1.000    0.000    0.000 
#    0.000    0.000    0.000    0.000    0.000    0.000 
#
# Total GULP energy -148718.069009 kJ/mol
# GULP energy per Si atom -12393.172417 kJ/mol
# Density = 2.476155 g / cm^3
# Si number density = 24.818035 Si / 1000 Ang^3
#
#
#
# Elastic Constant Matrix: (Units=GPa)
#
#
# Indices 1 2 3 4 5 6 
#
# 1 98.6871 36.8544 45.7145 1.6626 8.5262 -33.4748
# 2 36.8544 134.6074 21.3272 5.4062 -3.9236 -8.4792
# 3 45.7145 21.3272 73.5201 -13.1469 24.5013 -8.2934
# 4 1.6626 5.4062 -13.1469 20.8718 -10.1701 5.8734
# 5 8.5262 -3.9236 24.5013 -10.1701 40.3946 6.0712
# 6 -33.4748 -8.4792 -8.2934 5.8734 6.0712 37.6139
#
#
#
# Elastic Compliance Matrix: (Units=1/GPa)
#
#
# Indices 1 2 3 4 5 6 
#
# 1 0.027485 -0.002886 -0.015278 -0.020794 -0.005750 0.024617
# 2 -0.002886 0.008588 -0.001920 -0.001733 0.002347 -0.001164
# 3 -0.015278 -0.001920 0.028679 0.018295 -0.008366 -0.009213
# 4 -0.020794 -0.001733 0.018295 0.078418 0.017363 -0.029911
# 5 -0.005750 0.002347 -0.008366 0.017363 0.037938 -0.015268
# 6 0.024617 -0.001164 -0.009213 -0.029911 -0.015268 0.053335
#
#
# Mechanical properties :
#
#
# Convention : Reuss Voigt Hill
#
# Bulk Modulus (GPa) = 40.67782 57.17854 48.92818
# Shear Modulus (GPa) = 17.67993 33.30394 25.49194
#
# Velocity S-wave (km/s) = 2.67194 3.66720 3.20840
# Velocity P-wave (km/s) = 5.09363 6.40471 5.78642
#
# Compressibility (1/GPa) = 0.02458342
#
# Stress axis : x y z
#
# Youngs Moduli (GPa) = 36.38299 116.44019 34.86877
#
# Poissons Ratio (x) = 0.33609 0.53274
# Poissons Ratio (y) = 0.10501 0.06694
# Poissons Ratio (z) = 0.55587 0.22354
#
# Static dielectric constant tensor:
#      x y z
#    x 4.081270 -0.198280 -0.031890 
#    y -0.198280 4.704690 0.055140 
#    z -0.031890 0.055140 3.637500 
# 
# 
# High freq. dielectric constant tensor:
#      x y z
#    x 1.975290 -0.022420 0.033410 
#    y -0.022420 1.983260 0.010140 
#    z 0.033410 0.010140 1.983020 
# 
# From -- ./inp_files/191418.got.cif
#   From: 2010.06.25/outbox.cif.g09.slc.cpg/sg2_96_cif.got.tgz:191418.got - 2010.06.27 13:26:56.
