data_PCOD8010096
_publ_section_title
;
Structure prediction by ZEFSAII (Michael W. Deem and Ramdas Pophale) SiO2 
 PCOD8010096
Probable space group: P -1
;
_chemical_formula_sum "Si O2"
_cell_formula_units_Z 16
_cell_length_a 8.982426
_cell_length_b 11.115767
_cell_length_c 10.582904
_cell_angle_alpha 71.123503
_cell_angle_beta 61.858869
_cell_angle_gamma 54.444644
_cell_volume 756.244090
_symmetry_space_group_name_H-M "P -1"
_symmetry_group_IT_number 2
_symmetry_cell_setting 'triclinic'
loop_
_space_group_symop_operation_xyz
x,y,z
-x,-y,-z
loop_
_atom_site_type_symbol
_atom_site_label
_atom_site_fract_x
_atom_site_fract_y
_atom_site_fract_z
Si Si1 0.922106 0.632736 0.161225
Si Si2 0.492687 0.085349 0.099953
Si Si3 0.428826 0.321380 0.562969
Si Si4 0.747452 0.007076 0.628948
Si Si5 0.066993 0.851411 0.350239
Si Si6 0.302971 0.392818 0.972981
Si Si7 0.564384 0.452567 0.684254
Si Si8 0.897070 0.920445 0.128077
O O1 0.795372 0.640849 0.333446
O O2 0.783605 0.658146 0.088656
O O3 0.987857 0.753685 0.098857
O O4 0.130847 0.482107 0.113564
O O5 0.317460 0.100922 0.250730
O O6 0.673691 0.002783 0.148819
O O7 0.466425 0.243671 0.025956
O O8 0.500000 0.000000 0.000000
O O9 0.581278 0.143739 0.563844
O O10 0.489239 0.399388 0.616211
O O11 0.438503 0.395115 0.400340
O O12 0.799860 0.074942 0.706162
O O13 0.937073 0.890630 0.514416
O O14 0.210375 0.674775 0.331589
O O15 0.919780 0.923440 0.268219
O O16 0.413686 0.478583 0.851462
O O17 0.000000 0.000000 0.000000
#
# Coordination Sequence:
#
# PCOD8010096 Si02
#       8
#     2   2   2   2   2   2   2   2
#     4  10  21  39  59  95 126 161 217 261 316 381
#     4  12  21  40  67  92 129 167 215 264 320 382
#     4   9  17  36  61  86 119 162 209 257 307 372
#     4  10  21  40  65  93 122 170 219 260 313 386
#     4  10  23  39  60  95 128 163 217 263 320 379
#     4  10  21  37  65  94 122 166 216 260 312 385
#     4   9  18  36  59  86 122 161 205 258 313 368
#     4  12  24  40  63  93 135 169 207 273 327 374
#
# _framework density 21.157191999999998
#
# number of rings (size 3 to 8) (size 9 to 14) (size 15 to 20)
#    0.000    1.750    2.500    3.000    1.750    1.500 
#    4.500    4.375    0.000    0.000    0.000    0.000 
#    0.000    0.000    0.000    0.000    0.000    0.000 
#
# Total GULP energy -198302.696727 kJ/mol
# GULP energy per Si atom -12393.918545 kJ/mol
# Density = 2.110904 g / cm^3
# Si number density = 21.157192 Si / 1000 Ang^3
#
#
#
# Elastic Constant Matrix: (Units=GPa)
#
#
# Indices 1 2 3 4 5 6 
#
# 1 79.2716 30.1545 41.3723 -3.4130 0.3348 -9.8928
# 2 30.1545 82.4990 45.0135 -9.6772 -5.1703 -8.7212
# 3 41.3723 45.0135 93.4679 -14.9313 -25.3006 -2.3559
# 4 -3.4130 -9.6772 -14.9313 33.9944 -1.5296 -7.4943
# 5 0.3348 -5.1703 -25.3006 -1.5296 33.9250 -8.3071
# 6 -9.8928 -8.7212 -2.3559 -7.4943 -8.3071 31.1660
#
#
#
# Elastic Compliance Matrix: (Units=1/GPa)
#
#
# Indices 1 2 3 4 5 6 
#
# 1 0.018579 -0.002158 -0.009568 -0.002853 -0.007302 0.001938
# 2 -0.002158 0.017577 -0.007610 0.002160 -0.001985 0.003649
# 3 -0.009568 -0.007610 0.025587 0.009954 0.019535 0.004368
# 4 -0.002853 0.002160 0.009954 0.037514 0.012615 0.012834
# 5 -0.007302 -0.001985 0.019535 0.012615 0.047912 0.014408
# 6 0.001938 0.003649 0.004368 0.012834 0.014408 0.040979
#
#
# Mechanical properties :
#
#
# Convention : Reuss Voigt Hill
#
# Bulk Modulus (GPa) = 43.34353 54.25767 48.80060
# Shear Modulus (GPa) = 21.32099 29.06363 25.19231
#
# Velocity S-wave (km/s) = 3.17794 3.71037 3.45443
# Velocity P-wave (km/s) = 5.83066 6.63750 6.24712
#
# Compressibility (1/GPa) = 0.02307150
#
# Stress axis : x y z
#
# Youngs Moduli (GPa) = 53.82375 56.89275 39.08214
#
# Poissons Ratio (x) = 0.12276 0.37394
# Poissons Ratio (y) = 0.11614 0.29742
# Poissons Ratio (z) = 0.51499 0.43296
#
# Static dielectric constant tensor:
#      x y z
#    x 0.215600 -0.840800 -0.038100 
#    y -0.840800 3.686840 -0.146130 
#    z -0.038100 -0.146130 4.054730 
# 
# 
# High freq. dielectric constant tensor:
#      x y z
#    x 1.812910 -0.011570 -0.021350 
#    y -0.011570 1.821250 -0.007500 
#    z -0.021350 -0.007500 1.827380 
# 
# From -- ./inp_files/273484.got.cif
#   From: 2010.06.25/outbox.cif.g09.slc.cpg/sg2_137_cif.got.tgz:273484.got - 2010.06.27 13:26:56.
