data_PCOD8010555
_publ_section_title
;
Structure prediction by ZEFSAII (Michael W. Deem and Ramdas Pophale) SiO2 
 PCOD8010555
Probable space group: P -1
;
_chemical_formula_sum "Si O2"
_cell_formula_units_Z 14
_cell_length_a 11.925252
_cell_length_b 8.825341
_cell_length_c 11.531676
_cell_angle_alpha 107.990572
_cell_angle_beta 41.096746
_cell_angle_gamma 85.404433
_cell_volume 656.909948
_symmetry_space_group_name_H-M "P -1"
_symmetry_group_IT_number 2
_symmetry_cell_setting 'triclinic'
loop_
_space_group_symop_operation_xyz
x,y,z
-x,-y,-z
loop_
_atom_site_type_symbol
_atom_site_label
_atom_site_fract_x
_atom_site_fract_y
_atom_site_fract_z
Si Si1 0.095831 0.801329 0.323698
Si Si2 0.494500 0.320392 0.431432
Si Si3 0.426391 0.792139 0.908055
Si Si4 0.788300 0.549672 0.722505
Si Si5 0.365542 0.126942 0.909374
Si Si6 0.174542 0.035081 0.837295
Si Si7 0.769386 0.840137 0.419466
O O1 0.196321 0.644863 0.306577
O O2 0.936815 0.772710 0.370156
O O3 0.267074 0.781435 0.105292
O O4 0.000000 0.000000 0.500000
O O5 0.500000 0.500000 0.500000
O O6 0.597271 0.268168 0.214931
O O7 0.285891 0.322659 0.590524
O O8 0.628609 0.161715 0.380601
O O9 0.641455 0.653095 0.756417
O O10 0.385084 0.000485 0.976100
O O11 0.000000 0.500000 0.500000
O O12 0.709445 0.672604 0.930695
O O13 0.203676 0.148034 0.945761
O O14 0.578935 0.031893 0.656184
O O15 0.139886 0.138369 0.766498
O O16 0.000000 0.000000 0.000000
#
# Coordination Sequence:
#
# PCOD8010555 Si02
#       7
#     2   2   2   2   2   2   2
#     4  12  25  40  60  90 124 163 206 255 306 368
#     4  10  22  39  62  91 120 157 204 256 307 365
#     4  10  22  41  60  89 123 157 203 258 308 364
#     4  12  24  40  62  89 119 163 210 255 309 365
#     4  10  21  40  63  88 119 161 207 255 305 364
#     4  10  21  38  61  91 124 163 202 247 307 369
#     4  10  21  42  64  88 125 166 203 252 310 367
#
# _framework density 21.311903000000001
#
# number of rings (size 3 to 8) (size 9 to 14) (size 15 to 20)
#    0.000    1.714    0.000    7.714    0.000    5.714 
#    0.000    2.143    0.000    0.000    0.000    0.000 
#    0.000    0.000    0.000    0.000    0.000    0.000 
#
# Total GULP energy -173527.390982 kJ/mol
# GULP energy per Si atom -12394.813642 kJ/mol
# Density = 2.126340 g / cm^3
# Si number density = 21.311903 Si / 1000 Ang^3
#
#
#
# Elastic Constant Matrix: (Units=GPa)
#
#
# Indices 1 2 3 4 5 6 
#
# 1 70.0631 25.8024 10.8765 6.5693 -14.2569 -3.0672
# 2 25.8024 124.2996 31.2347 -4.4100 10.2175 8.0606
# 3 10.8765 31.2347 91.6510 -22.1260 -10.8025 8.6895
# 4 6.5693 -4.4100 -22.1260 48.0862 4.8814 6.3700
# 5 -14.2569 10.2175 -10.8025 4.8814 34.9974 -0.4429
# 6 -3.0672 8.0606 8.6895 6.3700 -0.4429 33.8805
#
#
#
# Elastic Compliance Matrix: (Units=1/GPa)
#
#
# Indices 1 2 3 4 5 6 
#
# 1 0.018826 -0.004874 -0.001065 -0.005033 0.009519 0.004208
# 2 -0.004874 0.010591 -0.003281 0.001083 -0.006272 -0.002405
# 3 -0.001065 -0.003281 0.014671 0.006752 0.004056 -0.004295
# 4 -0.005033 0.001083 0.006752 0.026078 -0.004013 -0.007400
# 5 0.009519 -0.006272 0.004056 -0.004013 0.036126 0.002540
# 6 0.004208 -0.002405 -0.004295 -0.007400 0.002540 0.032995
#
#
# Mechanical properties :
#
#
# Convention : Reuss Voigt Hill
#
# Bulk Modulus (GPa) = 38.98905 46.87123 42.93014
# Shear Modulus (GPa) = 30.07038 37.93282 34.00160
#
# Velocity S-wave (km/s) = 3.76036 4.22345 3.99861
# Velocity P-wave (km/s) = 6.09819 6.76935 6.44252
#
# Compressibility (1/GPa) = 0.02564823
#
# Stress axis : x y z
#
# Youngs Moduli (GPa) = 53.11724 94.41750 68.16217
#
# Poissons Ratio (x) = 0.46021 0.07259
# Poissons Ratio (y) = 0.25891 0.22363
# Poissons Ratio (z) = 0.05657 0.30977
#
# Static dielectric constant tensor:
#      x y z
#    x 3.344110 0.403980 0.057520 
#    y 0.403980 3.595040 -0.113150 
#    z 0.057520 -0.113150 3.801890 
# 
# 
# High freq. dielectric constant tensor:
#      x y z
#    x 1.843730 -0.007120 -0.005650 
#    y -0.007120 1.836820 -0.013810 
#    z -0.005650 -0.013810 1.835030 
# 
# From -- ./inp_files/211569.got.cif
#   From: 2010.06.25/outbox.cif.g09.slc.cpg/sg2_106_cif.got.tgz:211569.got - 2010.06.27 13:26:56.
