data_PCOD8010650
_publ_section_title
;
Structure prediction by ZEFSAII (Michael W. Deem and Ramdas Pophale) SiO2 
 PCOD8010650
Probable space group: P -1
;
_chemical_formula_sum "Si O2"
_cell_formula_units_Z 16
_cell_length_a 20.705657
_cell_length_b 8.815279
_cell_length_c 11.797413
_cell_angle_alpha 129.469907
_cell_angle_beta 140.501620
_cell_angle_gamma 80.801487
_cell_volume 781.623070
_symmetry_space_group_name_H-M "P -1"
_symmetry_group_IT_number 2
_symmetry_cell_setting 'triclinic'
loop_
_space_group_symop_operation_xyz
x,y,z
-x,-y,-z
loop_
_atom_site_type_symbol
_atom_site_label
_atom_site_fract_x
_atom_site_fract_y
_atom_site_fract_z
Si Si1 0.313526 0.778056 0.320809
Si Si2 0.293196 0.566704 0.618355
Si Si3 0.814305 0.998110 0.771931
Si Si4 0.956957 0.500498 0.816166
Si Si5 0.590200 0.002834 0.838219
Si Si6 0.377868 0.593795 0.509218
Si Si7 0.190416 0.975335 0.962925
Si Si8 0.025170 0.256796 0.625433
O O1 0.308394 0.008428 0.425396
O O2 0.301582 0.681204 0.388266
O O3 0.463391 0.903776 0.536351
O O4 0.186541 0.520520 0.954849
O O5 0.189238 0.585352 0.429472
O O6 0.399081 0.654028 0.701113
O O7 0.225501 0.277774 0.433593
O O8 0.366537 0.750158 0.913890
O O9 0.939331 0.206293 0.957227
O O10 0.857412 0.095293 0.006131
O O11 0.954766 0.296675 0.645658
O O12 0.000000 0.500000 0.000000
O O13 0.527967 0.763737 0.732577
O O14 0.715903 0.089363 0.975316
O O15 0.283014 0.284140 0.209013
O O16 0.048951 0.791522 0.615763
O O17 0.000000 0.000000 0.500000
#
# Coordination Sequence:
#
# PCOD8010650 Si02
#       8
#     2   2   2   2   2   2   2   2
#     4   9  21  37  58  83 127 155 202 250 300 353
#     4  11  20  39  62  90 122 165 206 250 298 366
#     4  10  24  40  60  91 123 164 200 256 312 352
#     4  11  24  41  64  89 127 159 203 256 310 364
#     4  10  21  38  62  91 122 162 210 244 301 363
#     4   9  20  37  63  86 125 162 200 251 301 355
#     4  11  21  39  67  89 125 159 206 254 304 365
#     4  11  20  39  63  95 118 158 203 255 306 358
#
# _framework density 20.470224000000002
#
# number of rings (size 3 to 8) (size 9 to 14) (size 15 to 20)
#    0.750    1.000    2.500    2.625    1.750    3.000 
#    0.000    0.000    0.000    0.000    0.000    0.000 
#    0.000    0.000    0.000    0.000    0.000    0.000 
#
# Total GULP energy -198261.848196 kJ/mol
# GULP energy per Si atom -12391.365512 kJ/mol
# Density = 2.042363 g / cm^3
# Si number density = 20.470224 Si / 1000 Ang^3
#
#
#
# Elastic Constant Matrix: (Units=GPa)
#
#
# Indices 1 2 3 4 5 6 
#
# 1 68.7630 24.0482 41.9291 -0.7540 -8.6245 9.2812
# 2 24.0482 83.8490 38.7014 3.4893 -11.4715 -9.3498
# 3 41.9291 38.7014 118.9215 -5.9334 -5.4006 -4.0276
# 4 -0.7540 3.4893 -5.9334 29.0609 -9.0164 3.8624
# 5 -8.6245 -11.4715 -5.4006 -9.0164 33.0932 -0.1189
# 6 9.2812 -9.3498 -4.0276 3.8624 -0.1189 35.3060
#
#
#
# Elastic Compliance Matrix: (Units=1/GPa)
#
#
# Indices 1 2 3 4 5 6 
#
# 1 0.021090 -0.003545 -0.006273 0.001826 0.003715 -0.007386
# 2 -0.003545 0.015741 -0.003673 -0.002364 0.003307 0.004951
# 3 -0.006273 -0.003673 0.011982 0.002397 -0.000293 0.001780
# 4 0.001826 -0.002364 0.002397 0.039233 0.010719 -0.005089
# 5 0.003715 0.003307 -0.000293 0.010719 0.035200 -0.001188
# 6 -0.007386 0.004951 0.001780 -0.005089 -0.001188 0.032332
#
#
# Mechanical properties :
#
#
# Convention : Reuss Voigt Hill
#
# Bulk Modulus (GPa) = 45.80274 53.43233 49.61754
# Shear Modulus (GPa) = 26.33827 30.61568 28.47697
#
# Velocity S-wave (km/s) = 3.59090 3.87152 3.73385
# Velocity P-wave (km/s) = 6.29417 6.79294 6.54831
#
# Compressibility (1/GPa) = 0.02183275
#
# Stress axis : x y z
#
# Youngs Moduli (GPa) = 47.41566 63.52801 83.45588
#
# Poissons Ratio (x) = 0.22520 0.52348
# Poissons Ratio (y) = 0.16808 0.30653
# Poissons Ratio (z) = 0.29742 0.23334
#
# Static dielectric constant tensor:
#      x y z
#    x 3.583280 -0.063710 0.016290 
#    y -0.063710 3.779690 0.011330 
#    z 0.016290 0.011330 3.684430 
# 
# 
# High freq. dielectric constant tensor:
#      x y z
#    x 1.788480 -0.003390 -0.000660 
#    y -0.003390 1.805330 0.002910 
#    z -0.000660 0.002910 1.796030 
# 
# From -- ./inp_files/470156.got.cif
#   From: 2010.06.25/outbox.cif.g09.slc.cpg/sg2_236_cif.got.tgz:470156.got - 2010.06.27 13:26:56.
