data_PCOD8010339
_publ_section_title
;
Structure prediction by ZEFSAII (Michael W. Deem and Ramdas Pophale) SiO2 
 PCOD8010339
Probable space group: P -1
;
_chemical_formula_sum "Si O2"
_cell_formula_units_Z 16
_cell_length_a 17.681139
_cell_length_b 7.975436
_cell_length_c 8.850772
_cell_angle_alpha 48.438423
_cell_angle_beta 108.102194
_cell_angle_gamma 130.465033
_cell_volume 694.572079
_symmetry_space_group_name_H-M "P -1"
_symmetry_group_IT_number 2
_symmetry_cell_setting 'triclinic'
loop_
_space_group_symop_operation_xyz
x,y,z
-x,-y,-z
loop_
_atom_site_type_symbol
_atom_site_label
_atom_site_fract_x
_atom_site_fract_y
_atom_site_fract_z
Si Si1 0.199836 0.439967 0.712916
Si Si2 0.401179 0.554068 0.722196
Si Si3 0.373237 0.004319 0.947362
Si Si4 0.103210 0.459662 0.372193
Si Si5 0.108623 0.992935 0.559624
Si Si6 0.188703 0.692973 0.829280
Si Si7 0.495437 0.025580 0.736050
Si Si8 0.953421 0.200247 0.026510
O O1 0.286697 0.440429 0.691038
O O2 0.167972 0.584903 0.491568
O O3 0.242201 0.626954 0.778972
O O4 0.100558 0.116471 0.881052
O O5 0.403212 0.290876 0.871422
O O6 0.474133 0.763771 0.508822
O O7 0.439287 0.709172 0.817385
O O8 0.426587 0.051212 0.791370
O O9 0.251729 0.782707 0.971023
O O10 0.404827 0.875353 0.167299
O O11 0.110249 0.702828 0.141192
O O12 0.985561 0.193857 0.503866
O O13 0.147221 0.316265 0.394580
O O14 0.196608 0.963005 0.604881
O O15 0.058025 0.811265 0.793702
O O16 0.072403 0.408573 0.938383
#
# Coordination Sequence:
#
# PCOD8010339 Si02
#       8
#     2   2   2   2   2   2   2   2
#     4  11  23  38  58  90 129 168 208 258 313 376
#     4  11  23  43  67  96 131 163 205 268 325 373
#     4  11  22  43  71  96 125 165 215 259 320 388
#     4   9  18  35  55  79 114 155 210 245 305 365
#     4   9  19  34  56  81 114 160 206 261 301 360
#     4  11  21  38  60  89 129 165 212 261 309 374
#     4  10  24  44  69  96 124 164 209 267 326 382
#     4  10  21  38  59  85 124 171 207 260 309 364
#
# _framework density 23.035765000000001
#
# number of rings (size 3 to 8) (size 9 to 14) (size 15 to 20)
#    0.000    1.750    1.250    4.125    0.000    5.000 
#    0.000    6.250    0.000    0.000    0.000    0.000 
#    0.000    0.000    0.000    0.000    0.000    0.000 
#
# Total GULP energy -198274.876092 kJ/mol
# GULP energy per Si atom -12392.179756 kJ/mol
# Density = 2.298334 g / cm^3
# Si number density = 23.035765 Si / 1000 Ang^3
#
#
#
# Elastic Constant Matrix: (Units=GPa)
#
#
# Indices 1 2 3 4 5 6 
#
# 1 96.1128 28.2410 22.7960 1.1505 12.4333 -7.9153
# 2 28.2410 95.7398 8.1479 14.1891 8.6731 1.1494
# 3 22.7960 8.1479 59.9088 2.4510 13.8462 5.5712
# 4 1.1505 14.1891 2.4510 27.5147 3.1660 4.7937
# 5 12.4333 8.6731 13.8462 3.1660 30.7178 10.0269
# 6 -7.9153 1.1494 5.5712 4.7937 10.0269 37.8670
#
#
#
# Elastic Compliance Matrix: (Units=1/GPa)
#
#
# Indices 1 2 3 4 5 6 
#
# 1 0.013265 -0.003435 -0.004089 0.001288 -0.004128 0.004409
# 2 -0.003435 0.012497 0.000229 -0.006147 -0.001634 0.000080
# 3 -0.004089 0.000229 0.019975 -0.000615 -0.006715 -0.001944
# 4 0.001288 -0.006147 -0.000615 0.040400 -0.001293 -0.004226
# 5 -0.004128 -0.001634 -0.006715 -0.001293 0.041307 -0.010599
# 6 0.004409 0.000080 -0.001944 -0.004226 -0.010599 0.030955
#
#
# Mechanical properties :
#
#
# Convention : Reuss Voigt Hill
#
# Bulk Modulus (GPa) = 32.10542 41.12567 36.61555
# Shear Modulus (GPa) = 27.26723 32.05835 29.66279
#
# Velocity S-wave (km/s) = 3.44421 3.73457 3.59232
# Velocity P-wave (km/s) = 5.45750 6.04051 5.75639
#
# Compressibility (1/GPa) = 0.03114739
#
# Stress axis : x y z
#
# Youngs Moduli (GPa) = 75.38538 80.02086 50.06298
#
# Poissons Ratio (x) = 0.27485 0.20471
# Poissons Ratio (y) = 0.25893 -0.01147
# Poissons Ratio (z) = 0.30825 -0.01833
#
# Static dielectric constant tensor:
#      x y z
#    x 4.184500 -0.143960 0.311130 
#    y -0.143960 4.213980 0.113020 
#    z 0.311130 0.113020 3.848230 
# 
# 
# High freq. dielectric constant tensor:
#      x y z
#    x 1.911010 -0.003920 0.025220 
#    y -0.003920 1.915350 0.013310 
#    z 0.025220 0.013310 1.884110 
# 
# From -- ./inp_files/328471.got.cif
#   From: 2010.06.25/outbox.cif.g09.slc.cpg/sg2_165_cif.got.tgz:328471.got - 2010.06.27 13:26:56.
