data_PCOD8010173
_publ_section_title
;
Structure prediction by ZEFSAII (Michael W. Deem and Ramdas Pophale) SiO2 
 PCOD8010173
Probable space group: P -1
;
_chemical_formula_sum "Si O2"
_cell_formula_units_Z 16
_cell_length_a 22.271902
_cell_length_b 19.420467
_cell_length_c 8.602683
_cell_angle_alpha 45.858344
_cell_angle_beta 125.239540
_cell_angle_gamma 162.703900
_cell_volume 723.296475
_symmetry_space_group_name_H-M "P -1"
_symmetry_group_IT_number 2
_symmetry_cell_setting 'triclinic'
loop_
_space_group_symop_operation_xyz
x,y,z
-x,-y,-z
loop_
_atom_site_type_symbol
_atom_site_label
_atom_site_fract_x
_atom_site_fract_y
_atom_site_fract_z
Si Si1 0.955173 0.538366 0.272262
Si Si2 0.777960 0.266123 0.111764
Si Si3 0.181108 0.424973 0.937244
Si Si4 0.501301 0.574818 0.527210
Si Si5 0.552260 0.832985 0.042403
Si Si6 0.948277 0.979253 0.123349
Si Si7 0.636289 0.293578 0.775250
Si Si8 0.018072 0.878029 0.550889
O O1 0.000000 0.500000 0.500000
O O2 0.805482 0.322113 0.245346
O O3 0.838744 0.484945 0.269784
O O4 0.189248 0.868414 0.049035
O O5 0.557947 0.926990 0.297756
O O6 0.729639 0.302021 0.884883
O O7 0.000000 0.500000 0.000000
O O8 0.439312 0.712268 0.894597
O O9 0.056095 0.242624 0.197273
O O10 0.081144 0.242689 0.930559
O O11 0.500000 0.500000 0.500000
O O12 0.443987 0.609087 0.320521
O O13 0.312076 0.317573 0.775698
O O14 0.735654 0.860996 0.516970
O O15 0.492516 0.853410 0.021641
O O16 0.028610 0.005074 0.337929
O O17 0.000000 0.000000 0.000000
O O18 0.848695 0.626135 0.563561
#
# Coordination Sequence:
#
# PCOD8010173 Si02
#       8
#     2   2   2   2   2   2   2   2
#     4  12  25  44  64 102 136 178 231 292 348 402
#     4  11  21  40  65  92 132 170 229 288 335 408
#     4  11  22  45  70  94 134 186 237 272 333 441
#     4  12  21  38  75 101 131 185 236 272 333 430
#     4  11  20  40  68  96 128 175 238 273 329 423
#     4  12  26  44  66 110 144 172 222 300 363 402
#     4  10  21  37  67  96 121 174 235 280 330 396
#     4  11  21  41  73  96 132 183 237 270 339 429
#
# _framework density 22.120944000000001
#
# number of rings (size 3 to 8) (size 9 to 14) (size 15 to 20)
#    0.000    0.750    8.750    1.125    0.000    1.000 
#    4.500    0.000    0.000    0.000    0.000    0.000 
#    0.000    0.000    0.000    0.000    0.000    0.000 
#
# Total GULP energy -198322.042571 kJ/mol
# GULP energy per Si atom -12395.127661 kJ/mol
# Density = 2.207060 g / cm^3
# Si number density = 22.120944 Si / 1000 Ang^3
#
#
#
# Elastic Constant Matrix: (Units=GPa)
#
#
# Indices 1 2 3 4 5 6 
#
# 1 123.7385 62.5264 25.7596 -4.5276 10.0754 -10.4210
# 2 62.5264 184.4179 24.5525 -20.3481 5.0414 -9.1013
# 3 25.7596 24.5525 46.2461 6.9061 12.0683 -9.2840
# 4 -4.5276 -20.3481 6.9061 28.8652 6.0007 5.8576
# 5 10.0754 5.0414 12.0683 6.0007 35.9257 0.2030
# 6 -10.4210 -9.1013 -9.2840 5.8576 0.2030 42.8682
#
#
#
# Elastic Compliance Matrix: (Units=1/GPa)
#
#
# Indices 1 2 3 4 5 6 
#
# 1 0.010582 -0.002918 -0.003871 0.000602 -0.001365 0.001039
# 2 -0.002918 0.007453 -0.003292 0.005726 -0.000075 -0.000622
# 3 -0.003871 -0.003292 0.030081 -0.009956 -0.006930 0.006268
# 4 0.000602 0.005726 -0.009956 0.043531 -0.004861 -0.006719
# 5 -0.001365 -0.000075 -0.006930 -0.004861 0.031376 -0.001333
# 6 0.001039 -0.000622 0.006268 -0.006719 -0.001333 0.025730
#
#
# Mechanical properties :
#
#
# Convention : Reuss Voigt Hill
#
# Bulk Modulus (GPa) = 35.77157 64.45328 50.11243
# Shear Modulus (GPa) = 28.05340 37.63611 32.84476
#
# Velocity S-wave (km/s) = 3.56502 4.12925 3.85747
# Velocity P-wave (km/s) = 5.75776 7.20655 6.52251
#
# Compressibility (1/GPa) = 0.02795516
#
# Stress axis : x y z
#
# Youngs Moduli (GPa) = 94.49774 134.17298 33.24372
#
# Poissons Ratio (x) = 0.39146 0.12868
# Poissons Ratio (y) = 0.27570 0.10945
# Poissons Ratio (z) = 0.36578 0.44173
#
# Static dielectric constant tensor:
#      x y z
#    x 4.036640 0.109940 0.311380 
#    y 0.109940 4.718440 -0.252560 
#    z 0.311380 -0.252560 3.604550 
# 
# 
# High freq. dielectric constant tensor:
#      x y z
#    x 1.872790 0.011170 0.024800 
#    y 0.011170 1.894590 -0.017290 
#    z 0.024800 -0.017290 1.826350 
# 
# From -- ./inp_files/348362.got.cif
#   From: 2010.06.25/outbox.cif.g09.slc.cpg/sg2_175_cif.got.tgz:348362.got - 2010.06.27 13:26:56.
