data_PCOD8010056
_publ_section_title
;
Structure prediction by ZEFSAII (Michael W. Deem and Ramdas Pophale) SiO2 
 PCOD8010056
Probable space group: P -1
;
_chemical_formula_sum "Si O2"
_cell_formula_units_Z 16
_cell_length_a 9.162993
_cell_length_b 11.029446
_cell_length_c 7.916009
_cell_angle_alpha 80.804542
_cell_angle_beta 74.273517
_cell_angle_gamma 64.967400
_cell_volume 696.797672
_symmetry_space_group_name_H-M "P -1"
_symmetry_group_IT_number 2
_symmetry_cell_setting 'triclinic'
loop_
_space_group_symop_operation_xyz
x,y,z
-x,-y,-z
loop_
_atom_site_type_symbol
_atom_site_label
_atom_site_fract_x
_atom_site_fract_y
_atom_site_fract_z
Si Si1 0.130065 0.453418 0.321744
Si Si2 0.188637 0.823304 0.844317
Si Si3 0.242318 0.654220 0.357058
Si Si4 0.454242 0.221890 0.240924
Si Si5 0.568734 0.681613 0.158840
Si Si6 0.430819 0.970157 0.199833
Si Si7 0.852449 0.420165 0.239305
Si Si8 0.114504 0.934072 0.218695
O O1 0.183668 0.577684 0.245567
O O2 0.293216 0.327514 0.361166
O O3 0.000000 0.500000 0.500000
O O4 0.038406 0.415587 0.202544
O O5 0.375856 0.783403 0.728274
O O6 0.136828 0.698611 0.864285
O O7 0.175700 0.866363 0.032812
O O8 0.068760 0.951309 0.746102
O O9 0.429908 0.626684 0.259251
O O10 0.231458 0.594600 0.556157
O O11 0.122812 0.812260 0.363862
O O12 0.449490 0.075798 0.302096
O O13 0.444283 0.272615 0.040572
O O14 0.536456 0.814559 0.254047
O O15 0.745899 0.564880 0.161294
O O16 0.238374 0.998605 0.230788
O O17 0.500000 0.000000 0.000000
#
# Coordination Sequence:
#
# PCOD8010056 Si02
#       8
#     2   2   2   2   2   2   2   2
#     4  10  24  42  60  86 128 169 203 256 313 366
#     4  11  22  37  62  97 122 157 214 254 306 371
#     4  10  21  43  63  84 128 168 198 260 311 366
#     4  11  21  39  66  93 128 162 205 260 311 367
#     4  10  21  37  64  96 121 163 205 257 308 366
#     4   9  17  37  58  93 128 160 194 255 312 360
#     4  11  24  39  60  90 126 165 212 252 306 372
#     4  10  21  39  64  91 127 161 206 260 309 366
#
# _framework density 22.96219
#
# number of rings (size 3 to 8) (size 9 to 14) (size 15 to 20)
#    0.000    1.750    3.750    1.875    1.750    4.000 
#    2.250    1.250    0.000    9.000    0.000    0.000 
#    0.000    0.000    0.000    0.000    0.000    0.000 
#
# Total GULP energy -198327.941951 kJ/mol
# GULP energy per Si atom -12395.496372 kJ/mol
# Density = 2.290993 g / cm^3
# Si number density = 22.962190 Si / 1000 Ang^3
#
#
#
# Elastic Constant Matrix: (Units=GPa)
#
#
# Indices 1 2 3 4 5 6 
#
# 1 146.3355 85.0284 -0.2998 -1.7185 -12.1995 0.1543
# 2 85.0284 157.8127 11.9256 -4.0575 -8.8526 -8.3864
# 3 -0.2998 11.9256 21.1200 2.0795 -8.3789 2.0583
# 4 -1.7185 -4.0575 2.0795 26.6658 -4.0148 -6.6419
# 5 -12.1995 -8.8526 -8.3789 -4.0148 24.7592 0.9120
# 6 0.1543 -8.3864 2.0583 -6.6419 0.9120 58.8743
#
#
#
# Elastic Compliance Matrix: (Units=1/GPa)
#
#
# Indices 1 2 3 4 5 6 
#
# 1 0.010762 -0.006012 0.005704 -0.000194 0.005096 -0.001185
# 2 -0.006012 0.010163 -0.006748 0.001963 -0.001365 0.001942
# 3 0.005704 -0.006748 0.059980 -0.003213 0.020313 -0.003750
# 4 -0.000194 0.001963 -0.003213 0.040121 0.005847 0.004828
# 5 0.005096 -0.001365 0.020313 0.005847 0.050272 -0.001037
# 6 -0.001185 0.001942 -0.003750 0.004828 -0.001037 0.017957
#
#
# Mechanical properties :
#
#
# Convention : Reuss Voigt Hill
#
# Bulk Modulus (GPa) = 14.97165 57.61964 36.29564
# Shear Modulus (GPa) = 22.15994 37.30079 29.73037
#
# Velocity S-wave (km/s) = 3.10992 4.03481 3.60217
# Velocity P-wave (km/s) = 4.40792 6.84500 5.75690
#
# Compressibility (1/GPa) = 0.06679290
#
# Stress axis : x y z
#
# Youngs Moduli (GPa) = 92.91801 98.39900 16.67210
#
# Poissons Ratio (x) = 0.59154 -0.09509
# Poissons Ratio (y) = 0.55859 0.11250
# Poissons Ratio (z) = -0.52996 0.66400
#
# Static dielectric constant tensor:
#      x y z
#    x 4.678670 0.269690 -0.035480 
#    y 0.269690 4.514500 0.004670 
#    z -0.035480 0.004670 3.671230 
# 
# 
# High freq. dielectric constant tensor:
#      x y z
#    x 1.914680 0.007690 -0.010570 
#    y 0.007690 1.925520 0.001350 
#    z -0.010570 0.001350 1.873250 
# 
# From -- ./inp_files/177551.got.cif
#   From: 2010.06.25/outbox.cif.g09.slc.cpg/sg2_89_cif.got.tgz:177551.got - 2010.06.27 13:26:56.
