data_PCOD8010676
_publ_section_title
;
Structure prediction by ZEFSAII (Michael W. Deem and Ramdas Pophale) SiO2 
 PCOD8010676
Probable space group: P -1
;
_chemical_formula_sum "Si O2"
_cell_formula_units_Z 16
_cell_length_a 9.244972
_cell_length_b 9.194204
_cell_length_c 15.253111
_cell_angle_alpha 35.527091
_cell_angle_beta 87.423201
_cell_angle_gamma 95.645441
_cell_volume 732.005225
_symmetry_space_group_name_H-M "P -1"
_symmetry_group_IT_number 2
_symmetry_cell_setting 'triclinic'
loop_
_space_group_symop_operation_xyz
x,y,z
-x,-y,-z
loop_
_atom_site_type_symbol
_atom_site_label
_atom_site_fract_x
_atom_site_fract_y
_atom_site_fract_z
Si Si1 0.926650 0.011127 0.904587
Si Si2 0.473550 0.745643 0.430969
Si Si3 0.927349 0.542390 0.700939
Si Si4 0.327498 0.454381 0.838341
Si Si5 0.913823 0.359856 0.987994
Si Si6 0.624185 0.701353 0.631137
Si Si7 0.233692 0.778980 0.537718
Si Si8 0.392601 0.696837 0.894235
O O1 0.034686 0.912062 0.880875
O O2 0.922043 0.306818 0.748748
O O3 0.756291 0.837111 0.992083
O O4 0.000000 0.000000 0.000000
O O5 0.500000 0.500000 0.500000
O O6 0.564021 0.776234 0.504096
O O7 0.297803 0.712903 0.474408
O O8 0.521317 0.005314 0.245312
O O9 0.770515 0.604148 0.659598
O O10 0.058177 0.777754 0.543623
O O11 0.958927 0.497751 0.825133
O O12 0.500269 0.481978 0.792274
O O13 0.239514 0.544874 0.717097
O O14 0.316911 0.639230 0.829836
O O15 0.737607 0.338151 0.012624
O O16 0.000000 0.500000 0.000000
O O17 0.660656 0.952715 0.567561
O O18 0.500000 0.500000 0.000000
#
# Coordination Sequence:
#
# PCOD8010676 Si02
#       8
#     2   2   2   2   2   2   2   2
#     4  10  21  38  62  92 130 167 212 262 326 384
#     4  11  26  43  66  97 130 175 214 272 346 375
#     4  11  24  40  65 104 126 168 223 266 330 380
#     4  11  19  41  66  91 123 174 221 257 322 389
#     4  11  22  39  65  91 133 172 209 263 326 391
#     4  11  23  42  68  93 126 175 223 270 311 397
#     4  11  20  43  70  87 130 171 220 261 313 411
#     4  12  24  41  65  98 133 166 222 273 319 393
#
# _framework density 21.857768
#
# number of rings (size 3 to 8) (size 9 to 14) (size 15 to 20)
#    0.000    1.000    6.250    1.875    1.750    2.500 
#    0.000    0.625    0.000    0.000    0.000    0.000 
#    0.000    0.000    0.000    0.000    0.000    0.000 
#
# Total GULP energy -198274.003277 kJ/mol
# GULP energy per Si atom -12392.125205 kJ/mol
# Density = 2.180802 g / cm^3
# Si number density = 21.857768 Si / 1000 Ang^3
#
#
#
# Elastic Constant Matrix: (Units=GPa)
#
#
# Indices 1 2 3 4 5 6 
#
# 1 157.1610 45.0493 42.6886 -4.4484 -36.4134 -34.2791
# 2 45.0493 119.7787 34.8014 -17.3341 -13.8248 -30.1887
# 3 42.6886 34.8014 69.9617 -12.0912 -22.1703 -8.7432
# 4 -4.4484 -17.3341 -12.0912 24.0075 -4.8506 -7.8004
# 5 -36.4134 -13.8248 -22.1703 -4.8506 39.6383 -0.3366
# 6 -34.2791 -30.1887 -8.7432 -7.8004 -0.3366 35.5068
#
#
#
# Elastic Compliance Matrix: (Units=1/GPa)
#
#
# Indices 1 2 3 4 5 6 
#
# 1 0.013781 0.003951 -0.000224 0.015028 0.015922 0.020061
# 2 0.003951 0.018205 0.000119 0.024702 0.013279 0.024874
# 3 -0.000224 0.000119 0.023628 0.018253 0.015368 0.009859
# 4 0.015028 0.024702 0.018253 0.101012 0.045522 0.062627
# 5 0.015922 0.013279 0.015368 0.045522 0.059001 0.041006
# 6 0.020061 0.024874 0.009859 0.062627 0.041006 0.085254
#
#
# Mechanical properties :
#
#
# Convention : Reuss Voigt Hill
#
# Bulk Modulus (GPa) = 15.79651 65.77556 40.78604
# Shear Modulus (GPa) = 15.90881 34.78800 25.34841
#
# Velocity S-wave (km/s) = 2.70077 3.99377 3.40913
# Velocity P-wave (km/s) = 4.11924 7.17111 5.84777
#
# Compressibility (1/GPa) = 0.06330510
#
# Stress axis : x y z
#
# Youngs Moduli (GPa) = 72.56173 54.93055 42.32323
#
# Poissons Ratio (x) = -0.21700 0.00950
# Poissons Ratio (y) = -0.28666 -0.00506
# Poissons Ratio (z) = 0.01628 -0.00656
#
# Static dielectric constant tensor:
#      x y z
#    x 4.141240 -0.414540 -0.045070 
#    y -0.414540 4.801020 -0.571160 
#    z -0.045070 -0.571160 4.105640 
# 
# 
# High freq. dielectric constant tensor:
#      x y z
#    x 1.871740 -0.014170 -0.021110 
#    y -0.014170 1.860050 -0.006350 
#    z -0.021110 -0.006350 1.835120 
# 
# From -- ./inp_files/263153.got.cif
#   From: 2010.06.25/outbox.cif.g09.slc.cpg/sg2_132_cif.got.tgz:263153.got - 2010.06.27 13:26:56.
