data_PCOD8010231
_publ_section_title
;
Structure prediction by ZEFSAII (Michael W. Deem and Ramdas Pophale) SiO2 
 PCOD8010231
Probable space group: P -1
;
_chemical_formula_sum "Si O2"
_cell_formula_units_Z 14
_cell_length_a 9.022982
_cell_length_b 12.857982
_cell_length_c 12.988736
_cell_angle_alpha 80.344827
_cell_angle_beta 112.806716
_cell_angle_gamma 147.463187
_cell_volume 707.621914
_symmetry_space_group_name_H-M "P -1"
_symmetry_group_IT_number 2
_symmetry_cell_setting 'triclinic'
loop_
_space_group_symop_operation_xyz
x,y,z
-x,-y,-z
loop_
_atom_site_type_symbol
_atom_site_label
_atom_site_fract_x
_atom_site_fract_y
_atom_site_fract_z
Si Si1 0.407460 0.411158 0.645619
Si Si2 0.929635 0.977983 0.364725
Si Si3 0.166271 0.686968 0.956407
Si Si4 0.596517 0.196029 0.211847
Si Si5 0.160293 0.912057 0.968668
Si Si6 0.983142 0.232283 0.380756
Si Si7 0.353376 0.254820 0.249338
O O1 0.107886 0.276611 0.520194
O O2 0.718884 0.566459 0.639457
O O3 0.447781 0.526697 0.719950
O O4 0.322366 0.250526 0.702821
O O5 0.817580 0.036852 0.316144
O O6 0.233886 0.141677 0.345633
O O7 0.000000 0.000000 0.500000
O O8 0.145167 0.650096 0.834782
O O9 0.008700 0.711886 0.936645
O O10 0.000000 0.500000 0.000000
O O11 0.531614 0.900339 0.051433
O O12 0.574422 0.292225 0.251661
O O13 0.720910 0.175378 0.325679
O O14 0.261413 0.978125 0.105691
O O15 0.927186 0.874907 0.882554
#
# Coordination Sequence:
#
# PCOD8010231 Si02
#       7
#     2   2   2   2   2   2   2
#     4   9  19  35  57  83 106 145 187 229 275 322
#     4   9  19  37  59  80 106 147 192 224 270 326
#     4   9  19  37  58  80 103 143 193 226 260 323
#     4  10  21  38  55  82 116 148 179 226 283 322
#     4   9  21  38  56  80 114 147 185 221 275 331
#     4   9  18  37  59  78 110 144 189 231 266 326
#     4  11  21  37  55  82 120 146 175 229 283 330
#
# _framework density 19.784576000000001
#
# number of rings (size 3 to 8) (size 9 to 14) (size 15 to 20)
#    0.857    1.714    0.000    3.000    0.000    2.857 
#    2.571    3.571    0.000    0.000    0.000    0.000 
#    0.000    0.000    0.000    0.000    0.000    0.000 
#
# Total GULP energy -173442.724260 kJ/mol
# GULP energy per Si atom -12388.766019 kJ/mol
# Density = 1.973955 g / cm^3
# Si number density = 19.784576 Si / 1000 Ang^3
#
#
#
# Elastic Constant Matrix: (Units=GPa)
#
#
# Indices 1 2 3 4 5 6 
#
# 1 105.3484 32.7135 38.1377 5.9733 14.2263 -31.2268
# 2 32.7135 128.3144 21.9040 -7.5975 6.3397 -32.6324
# 3 38.1377 21.9040 83.4570 1.7016 15.0755 -5.6758
# 4 5.9733 -7.5975 1.7016 17.6401 -6.5084 -2.9348
# 5 14.2263 6.3397 15.0755 -6.5084 29.5354 -3.6921
# 6 -31.2268 -32.6324 -5.6758 -2.9348 -3.6921 22.5441
#
#
#
# Elastic Compliance Matrix: (Units=1/GPa)
#
#
# Indices 1 2 3 4 5 6 
#
# 1 0.021492 0.004764 -0.008237 0.000196 -0.002858 0.034150
# 2 0.004764 0.015607 -0.005069 0.011801 0.003292 0.029989
# 3 -0.008237 -0.005069 0.017415 -0.006503 -0.007318 -0.016407
# 4 0.000196 0.011801 -0.006503 0.074802 0.020783 0.028857
# 5 -0.002858 0.003292 -0.007318 0.020783 0.043951 0.008867
# 6 0.034150 0.029989 -0.016407 0.028857 0.008867 0.136147
#
#
# Mechanical properties :
#
#
# Convention : Reuss Voigt Hill
#
# Bulk Modulus (GPa) = 26.71580 55.84780 41.28180
# Shear Modulus (GPa) = 14.75034 28.90154 21.82594
#
# Velocity S-wave (km/s) = 2.73343 3.82620 3.32502
# Velocity P-wave (km/s) = 4.84715 6.91441 5.97092
#
# Compressibility (1/GPa) = 0.03743104
#
# Stress axis : x y z
#
# Youngs Moduli (GPa) = 46.52853 64.07418 57.42067
#
# Poissons Ratio (x) = -0.30527 0.47297
# Poissons Ratio (y) = -0.22168 0.29107
# Poissons Ratio (z) = 0.38325 0.32480
#
# Static dielectric constant tensor:
#      x y z
#    x 3.370600 -0.320750 -0.015130 
#    y -0.320750 3.634740 -0.019990 
#    z -0.015130 -0.019990 3.534850 
# 
# 
# High freq. dielectric constant tensor:
#      x y z
#    x 1.749470 -0.031330 0.003400 
#    y -0.031330 1.754980 -0.001710 
#    z 0.003400 -0.001710 1.765980 
# 
# From -- ./inp_files/404121.got.cif
#   From: 2010.06.25/outbox.cif.g09.slc.cpg/sg2_203_cif.got.tgz:404121.got - 2010.06.27 13:26:56.
