data_PCOD8010844
_publ_section_title
;
Structure prediction by ZEFSAII (Michael W. Deem and Ramdas Pophale) SiO2 
 PCOD8010844
Probable space group: P -1
;
_chemical_formula_sum "Si O2"
_cell_formula_units_Z 16
_cell_length_a 21.721589
_cell_length_b 7.830295
_cell_length_c 21.532040
_cell_angle_alpha 35.309522
_cell_angle_beta 20.542824
_cell_angle_gamma 46.925267
_cell_volume 680.674276
_symmetry_space_group_name_H-M "P -1"
_symmetry_group_IT_number 2
_symmetry_cell_setting 'triclinic'
loop_
_space_group_symop_operation_xyz
x,y,z
-x,-y,-z
loop_
_atom_site_type_symbol
_atom_site_label
_atom_site_fract_x
_atom_site_fract_y
_atom_site_fract_z
Si Si1 0.473407 0.060803 0.276424
Si Si2 0.828606 0.134061 0.669115
Si Si3 0.372357 0.152933 0.698339
Si Si4 0.747612 0.703056 0.767970
Si Si5 0.831997 0.771453 0.526301
Si Si6 0.180608 0.297980 0.083460
Si Si7 0.567860 0.578990 0.565406
Si Si8 0.982318 0.790733 0.138907
O O1 0.259229 0.048921 0.487491
O O2 0.561412 0.094876 0.252900
O O3 0.468374 0.744070 0.342071
O O4 0.582690 0.362262 0.039742
O O5 0.764254 0.402477 0.678428
O O6 0.055077 0.312517 0.391212
O O7 0.723041 0.992104 0.745338
O O8 0.776526 0.825972 0.854657
O O9 0.500000 0.500000 0.500000
O O10 0.404528 0.145951 0.595277
O O11 0.141342 0.035773 0.963838
O O12 0.750281 0.776583 0.671072
O O13 0.062266 0.977394 0.248673
O O14 0.043586 0.490806 0.161277
O O15 0.381600 0.529706 0.795694
O O16 0.755929 0.667187 0.406694
O O17 0.000000 0.000000 0.000000
#
# Coordination Sequence:
#
# PCOD8010844 Si02
#       8
#     2   2   2   2   2   2   2   2
#     4  11  20  39  66  95 132 185 223 279 349 400
#     4  10  22  40  63  99 137 178 235 285 336 414
#     4   9  21  39  65  91 130 172 219 281 335 404
#     4  10  21  38  64  90 135 182 224 287 348 389
#     4  11  22  39  66 101 138 181 235 279 340 419
#     4  11  21  40  69  97 137 175 227 286 341 413
#     4  10  21  40  69  95 129 180 226 276 356 405
#     4  10  21  40  67  96 127 172 227 282 340 410
#
# _framework density 23.506103
#
# number of rings (size 3 to 8) (size 9 to 14) (size 15 to 20)
#    0.000    1.750    1.250    4.125    0.000    2.500 
#    0.000    1.875   24.750    0.000    0.000    0.000 
#    0.000    0.000    0.000    0.000    0.000    0.000 
#
# Total GULP energy -198216.682275 kJ/mol
# GULP energy per Si atom -12388.542642 kJ/mol
# Density = 2.345260 g / cm^3
# Si number density = 23.506103 Si / 1000 Ang^3
#
#
#
# Elastic Constant Matrix: (Units=GPa)
#
#
# Indices 1 2 3 4 5 6 
#
# 1 122.3628 49.5116 48.6324 8.6813 -22.2460 -8.3262
# 2 49.5116 84.2400 21.0575 -12.7990 -0.3666 -6.6951
# 3 48.6324 21.0575 136.6014 10.8361 -22.9834 -5.0781
# 4 8.6813 -12.7990 10.8361 33.7781 2.2401 -9.0886
# 5 -22.2460 -0.3666 -22.9834 2.2401 26.7519 2.5506
# 6 -8.3262 -6.6951 -5.0781 -9.0886 2.5506 33.8029
#
#
#
# Elastic Compliance Matrix: (Units=1/GPa)
#
#
# Indices 1 2 3 4 5 6 
#
# 1 0.015661 -0.010333 -0.001197 -0.008864 0.012759 -0.001715
# 2 -0.010333 0.021087 -0.002499 0.013841 -0.012171 0.005896
# 3 -0.001197 -0.002499 0.009778 -0.004608 0.007867 -0.001153
# 4 -0.008864 0.013841 -0.004608 0.043067 -0.015952 0.012649
# 5 0.012759 -0.012171 0.007867 -0.015952 0.056552 -0.006642
# 6 -0.001715 0.005896 -0.001153 0.012649 -0.006642 0.034057
#
#
# Mechanical properties :
#
#
# Convention : Reuss Voigt Hill
#
# Bulk Modulus (GPa) = 54.14205 64.62302 59.38254
# Shear Modulus (GPa) = 23.31922 33.80010 28.55966
#
# Velocity S-wave (km/s) = 3.15310 3.79612 3.48945
# Velocity P-wave (km/s) = 6.02820 6.83855 6.44612
#
# Compressibility (1/GPa) = 0.01846993
#
# Stress axis : x y z
#
# Youngs Moduli (GPa) = 63.85341 47.42234 102.27000
#
# Poissons Ratio (x) = 0.49002 0.12237
# Poissons Ratio (y) = 0.65980 0.25552
# Poissons Ratio (z) = 0.07640 0.11849
#
# Static dielectric constant tensor:
#      x y z
#    x 4.781840 -0.311890 -0.306730 
#    y -0.311890 4.161060 -0.191010 
#    z -0.306730 -0.191010 4.694120 
# 
# 
# High freq. dielectric constant tensor:
#      x y z
#    x 1.927800 -0.016630 -0.023760 
#    y -0.016630 1.912910 -0.023030 
#    z -0.023760 -0.023030 1.941990 
# 
# From -- ./inp_files/614026.got.cif
#   From: 2010.06.25/outbox.cif.g09.slc.cpg/sg2_308_cif.got.tgz:614026.got - 2010.06.27 13:26:56.
