data_PCOD8010602
_publ_section_title
;
Structure prediction by ZEFSAII (Michael W. Deem and Ramdas Pophale) SiO2 
 PCOD8010602
Probable space group: P -1
;
_chemical_formula_sum "Si O2"
_cell_formula_units_Z 16
_cell_length_a 11.132793
_cell_length_b 10.949985
_cell_length_c 16.087120
_cell_angle_alpha 58.747949
_cell_angle_beta 143.609377
_cell_angle_gamma 97.074862
_cell_volume 809.855088
_symmetry_space_group_name_H-M "P -1"
_symmetry_group_IT_number 2
_symmetry_cell_setting 'triclinic'
loop_
_space_group_symop_operation_xyz
x,y,z
-x,-y,-z
loop_
_atom_site_type_symbol
_atom_site_label
_atom_site_fract_x
_atom_site_fract_y
_atom_site_fract_z
Si Si1 0.149050 0.832623 0.044078
Si Si2 0.661535 0.128289 0.574469
Si Si3 0.384756 0.535426 0.612420
Si Si4 0.785697 0.893222 0.955964
Si Si5 0.070473 0.412021 0.742747
Si Si6 0.622869 0.485322 0.197154
Si Si7 0.124155 0.667202 0.768187
Si Si8 0.376731 0.025371 0.554323
O O1 0.340973 0.645007 0.175293
O O2 0.291974 0.917400 0.122571
O O3 0.036681 0.801539 0.073681
O O4 0.932039 0.962171 0.812445
O O5 0.633732 0.309761 0.503958
O O6 0.450356 0.144424 0.509097
O O7 0.614138 0.105809 0.460611
O O8 0.191712 0.501415 0.479515
O O9 0.317807 0.595778 0.649545
O O10 0.567467 0.911394 0.774334
O O11 0.830066 0.778971 0.101467
O O12 0.272682 0.394747 0.796729
O O13 0.036536 0.537335 0.756323
O O14 0.760502 0.330509 0.258164
O O15 0.327931 0.601198 0.977044
O O16 0.894407 0.858741 0.597504
#
# Coordination Sequence:
#
# PCOD8010602 Si02
#       8
#     2   2   2   2   2   2   2   2
#     4  10  22  40  59  90 126 150 192 248 294 357
#     4  10  23  39  58  96 123 150 194 244 292 368
#     4  12  22  38  65  85 122 164 188 239 313 339
#     4  10  21  39  59  90 122 150 198 247 288 357
#     4  10  21  38  62  85 117 157 199 242 291 345
#     4   9  22  39  59  88 116 152 209 248 276 356
#     4   9  20  40  64  80 116 156 198 248 290 338
#     4  10  21  40  60  87 125 151 194 245 296 354
#
# _framework density 19.756622
#
# number of rings (size 3 to 8) (size 9 to 14) (size 15 to 20)
#    0.750    1.250    1.250    1.875    3.500    0.500 
#    0.000    6.875    0.000    0.000    0.000    0.000 
#    0.000    0.000    0.000    0.000    0.000    0.000 
#
# Total GULP energy -198370.275538 kJ/mol
# GULP energy per Si atom -12398.142221 kJ/mol
# Density = 1.971165 g / cm^3
# Si number density = 19.756622 Si / 1000 Ang^3
#
#
#
# Elastic Constant Matrix: (Units=GPa)
#
#
# Indices 1 2 3 4 5 6 
#
# 1 69.3615 13.7773 32.1062 -8.8072 0.0378 -1.5672
# 2 13.7773 60.7891 32.0922 6.2603 5.3121 5.3965
# 3 32.1062 32.0922 104.1820 4.4823 6.1789 -1.4774
# 4 -8.8072 6.2603 4.4823 33.5326 -0.9432 0.1840
# 5 0.0378 5.3121 6.1789 -0.9432 28.6569 -3.4428
# 6 -1.5672 5.3965 -1.4774 0.1840 -3.4428 22.4313
#
#
#
# Elastic Compliance Matrix: (Units=1/GPa)
#
#
# Indices 1 2 3 4 5 6 
#
# 1 0.018070 -0.002272 -0.005213 0.005912 0.001922 0.001712
# 2 -0.002272 0.021134 -0.005517 -0.003872 -0.003588 -0.006126
# 3 -0.005213 -0.005517 0.013119 -0.002149 -0.001679 0.001587
# 4 0.005912 -0.003872 -0.002149 0.032445 0.002398 0.001305
# 5 0.001922 -0.003588 -0.001679 0.002398 0.036782 0.006512
# 6 0.001712 -0.006126 0.001587 0.001305 0.006512 0.047267
#
#
# Mechanical properties :
#
#
# Convention : Reuss Voigt Hill
#
# Bulk Modulus (GPa) = 37.99612 43.36490 40.68051
# Shear Modulus (GPa) = 24.55870 27.34796 25.95333
#
# Velocity S-wave (km/s) = 3.52953 3.72458 3.62837
# Velocity P-wave (km/s) = 5.99032 6.36348 6.17972
#
# Compressibility (1/GPa) = 0.02631848
#
# Stress axis : x y z
#
# Youngs Moduli (GPa) = 55.34139 47.31673 76.22450
#
# Poissons Ratio (x) = 0.10751 0.39734
# Poissons Ratio (y) = 0.12574 0.42056
# Poissons Ratio (z) = 0.28848 0.26107
#
# Static dielectric constant tensor:
#      x y z
#    x 3.434340 0.035210 -0.010740 
#    y 0.035210 3.452170 0.305580 
#    z -0.010740 0.305580 3.424800 
# 
# 
# High freq. dielectric constant tensor:
#      x y z
#    x 1.759050 0.001380 -0.003740 
#    y 0.001380 1.761510 0.024700 
#    z -0.003740 0.024700 1.769240 
# 
# From -- ./inp_files/524122.got.cif
#   From: 2010.06.25/outbox.cif.g09.slc.cpg/sg2_263_cif.got.tgz:524122.got - 2010.06.27 13:26:56.
