data_PCOD8010617
_publ_section_title
;
Structure prediction by ZEFSAII (Michael W. Deem and Ramdas Pophale) SiO2 
 PCOD8010617
Probable space group: P -1
;
_chemical_formula_sum "Si O2"
_cell_formula_units_Z 16
_cell_length_a 12.177973
_cell_length_b 14.509758
_cell_length_c 15.724173
_cell_angle_alpha 151.178930
_cell_angle_beta 144.471275
_cell_angle_gamma 44.907886
_cell_volume 778.241688
_symmetry_space_group_name_H-M "P -1"
_symmetry_group_IT_number 2
_symmetry_cell_setting 'triclinic'
loop_
_space_group_symop_operation_xyz
x,y,z
-x,-y,-z
loop_
_atom_site_type_symbol
_atom_site_label
_atom_site_fract_x
_atom_site_fract_y
_atom_site_fract_z
Si Si1 0.913435 0.449971 0.042228
Si Si2 0.279789 0.549434 0.255849
Si Si3 0.283301 0.541096 0.906225
Si Si4 0.097692 0.076472 0.897283
Si Si5 0.476350 0.088348 0.254210
Si Si6 0.765710 0.812559 0.503802
Si Si7 0.651118 0.887620 0.058038
Si Si8 0.579009 0.056779 0.713988
O O1 0.797207 0.544258 0.123186
O O2 0.098487 0.566493 0.218819
O O3 0.778616 0.405765 0.841523
O O4 0.970787 0.260163 0.974138
O O5 0.438523 0.700601 0.506741
O O6 0.374337 0.341651 0.150986
O O7 0.196452 0.413089 0.670560
O O8 0.500000 0.500000 0.000000
O O9 0.269173 0.770427 0.070513
O O10 0.286515 0.106916 0.095535
O O11 0.147406 0.055216 0.810558
O O12 0.977772 0.895600 0.705988
O O13 0.426013 0.976337 0.216548
O O14 0.633067 0.958256 0.200570
O O15 0.633363 0.901852 0.418530
O O16 0.658702 0.862405 0.564423
O O17 0.500000 0.000000 0.000000
#
# Coordination Sequence:
#
# PCOD8010617 Si02
#       8
#     2   2   2   2   2   2   2   2
#     4  10  21  42  63  93 125 155 211 256 305 363
#     4  10  23  40  65  93 124 160 203 261 300 364
#     4  10  22  37  64  88 119 163 200 254 309 359
#     4  10  21  42  60  90 127 160 204 252 306 370
#     4  11  24  39  65  90 125 169 201 248 309 371
#     4  10  21  38  62  87 118 162 200 259 304 351
#     4   9  22  40  59  91 127 159 201 246 301 372
#     4  10  22  40  61  89 122 158 211 252 304 362
#
# _framework density 20.559166999999999
#
# number of rings (size 3 to 8) (size 9 to 14) (size 15 to 20)
#    0.000    2.000    1.250    0.750    8.750    5.000 
#    2.250    3.125    0.000    0.000    0.000    0.000 
#    0.000    0.000    0.000    0.000    0.000    0.000 
#
# Total GULP energy -198228.758078 kJ/mol
# GULP energy per Si atom -12389.297380 kJ/mol
# Density = 2.051237 g / cm^3
# Si number density = 20.559167 Si / 1000 Ang^3
#
#
#
# Elastic Constant Matrix: (Units=GPa)
#
#
# Indices 1 2 3 4 5 6 
#
# 1 144.8405 38.0545 51.1932 2.6340 -18.6923 6.6519
# 2 38.0545 57.6350 29.0270 -7.5808 -3.3850 2.0095
# 3 51.1932 29.0270 126.8377 -2.3458 4.2101 -5.0929
# 4 2.6340 -7.5808 -2.3458 18.1065 -4.5746 -2.2510
# 5 -18.6923 -3.3850 4.2101 -4.5746 36.1807 -1.1249
# 6 6.6519 2.0095 -5.0929 -2.2510 -1.1249 27.4222
#
#
#
# Elastic Compliance Matrix: (Units=1/GPa)
#
#
# Indices 1 2 3 4 5 6 
#
# 1 0.010199 -0.005142 -0.003266 -0.003224 0.004674 -0.002777
# 2 -0.005142 0.023855 -0.003237 0.010620 0.001289 -0.000177
# 3 -0.003266 -0.003237 0.010158 0.000003 -0.003085 0.002790
# 4 -0.003224 0.010620 0.000003 0.062699 0.007425 0.005456
# 5 0.004674 0.001289 -0.003085 0.007425 0.031475 0.000099
# 6 -0.002777 -0.000177 0.002790 0.005456 0.000099 0.038123
#
#
# Mechanical properties :
#
#
# Convention : Reuss Voigt Hill
#
# Bulk Modulus (GPa) = 47.79911 62.87364 55.33637
# Shear Modulus (GPa) = 24.18120 30.41110 27.29615
#
# Velocity S-wave (km/s) = 3.43326 3.85021 3.64770
# Velocity P-wave (km/s) = 6.24631 7.10026 6.68693
#
# Compressibility (1/GPa) = 0.02092089
#
# Stress axis : x y z
#
# Youngs Moduli (GPa) = 98.05139 41.92040 98.44851
#
# Poissons Ratio (x) = 0.21555 0.32152
# Poissons Ratio (y) = 0.50416 0.31872
# Poissons Ratio (z) = 0.32022 0.13571
#
# Static dielectric constant tensor:
#      x y z
#    x 4.270250 -0.183810 -0.191490 
#    y -0.183810 3.643220 0.432140 
#    z -0.191490 0.432140 4.547460 
# 
# 
# High freq. dielectric constant tensor:
#      x y z
#    x 1.828100 -0.007460 -0.003860 
#    y -0.007460 1.778320 0.011470 
#    z -0.003860 0.011470 1.794550 
# 
# From -- ./inp_files/274220.got.cif
#   From: 2010.06.25/outbox.cif.g09.slc.cpg/sg2_138_cif.got.tgz:274220.got - 2010.06.27 13:26:56.
