data_PCOD8010516
_publ_section_title
;
Structure prediction by ZEFSAII (Michael W. Deem and Ramdas Pophale) SiO2 
 PCOD8010516
Probable space group: P -1
;
_chemical_formula_sum "Si O2"
_cell_formula_units_Z 16
_cell_length_a 9.258923
_cell_length_b 13.368751
_cell_length_c 9.142043
_cell_angle_alpha 120.637162
_cell_angle_beta 62.988670
_cell_angle_gamma 128.517718
_cell_volume 745.898540
_symmetry_space_group_name_H-M "P -1"
_symmetry_group_IT_number 2
_symmetry_cell_setting 'triclinic'
loop_
_space_group_symop_operation_xyz
x,y,z
-x,-y,-z
loop_
_atom_site_type_symbol
_atom_site_label
_atom_site_fract_x
_atom_site_fract_y
_atom_site_fract_z
Si Si1 0.379171 0.830265 0.083046
Si Si2 0.454311 0.864533 0.737200
Si Si3 0.717742 0.559772 0.478915
Si Si4 0.530895 0.707529 0.146747
Si Si5 0.767638 0.911569 0.423569
Si Si6 0.887738 0.393091 0.343964
Si Si7 0.982152 0.187726 0.646515
Si Si8 0.745521 0.576614 0.815971
O O1 0.428436 0.732845 0.078465
O O2 0.160197 0.780942 0.176476
O O3 0.515367 0.986399 0.183735
O O4 0.412037 0.813992 0.886209
O O5 0.638590 0.863275 0.594160
O O6 0.272915 0.758168 0.644372
O O7 0.500000 0.500000 0.500000
O O8 0.778323 0.448352 0.337763
O O9 0.845456 0.680629 0.402868
O O10 0.758628 0.610396 0.664051
O O11 0.637724 0.845086 0.292696
O O12 0.384434 0.584761 0.224240
O O13 0.678808 0.666977 0.993968
O O14 0.927530 0.871363 0.326349
O O15 0.867963 0.074646 0.489050
O O16 0.000000 0.500000 0.500000
O O17 0.049978 0.379683 0.175776
#
# Coordination Sequence:
#
# PCOD8010516 Si02
#       8
#     2   2   2   2   2   2   2   2
#     4  10  24  42  68  95 128 167 212 269 314 379
#     4  10  22  43  68  93 129 167 215 258 325 375
#     4  11  22  39  66  94 124 171 212 258 318 383
#     4  11  23  42  62  93 129 169 208 265 323 364
#     4  10  22  41  66  89 132 168 206 268 308 381
#     4  10  21  38  61  88 123 163 206 260 306 374
#     4  10  22  40  65  96 123 164 223 254 315 375
#     4  10  24  40  59  92 133 163 213 261 315 382
#
# _framework density 21.450638999999999
#
# number of rings (size 3 to 8) (size 9 to 14) (size 15 to 20)
#    0.000    1.750    0.000    3.750    5.250    5.000 
#    0.000    2.500    0.000    0.000    0.000    0.000 
#    0.000    0.000    0.000    0.000    0.000    0.000 
#
# Total GULP energy -198335.465229 kJ/mol
# GULP energy per Si atom -12395.966577 kJ/mol
# Density = 2.140182 g / cm^3
# Si number density = 21.450639 Si / 1000 Ang^3
#
#
#
# Elastic Constant Matrix: (Units=GPa)
#
#
# Indices 1 2 3 4 5 6 
#
# 1 140.7745 39.7876 41.0751 -0.2873 -31.8536 11.5560
# 2 39.7876 86.6082 33.4821 -0.3804 -9.5192 18.4862
# 3 41.0751 33.4821 64.2249 -0.3320 -5.6818 9.2494
# 4 -0.2873 -0.3804 -0.3320 28.8981 2.6850 3.0063
# 5 -31.8536 -9.5192 -5.6818 2.6850 33.9493 -1.5122
# 6 11.5560 18.4862 9.2494 3.0063 -1.5122 40.1560
#
#
#
# Elastic Compliance Matrix: (Units=1/GPa)
#
#
# Indices 1 2 3 4 5 6 
#
# 1 0.011368 -0.002004 -0.005308 -0.000758 0.009244 -0.000722
# 2 -0.002004 0.016193 -0.006258 0.000563 0.001327 -0.005429
# 3 -0.005308 -0.006258 0.022074 0.000494 -0.003117 -0.000830
# 4 -0.000758 0.000563 0.000494 0.035228 -0.003387 -0.002920
# 5 0.009244 0.001327 -0.003117 -0.003387 0.038209 -0.000861
# 6 -0.000722 -0.005429 -0.000830 -0.002920 -0.000861 0.027987
#
#
# Mechanical properties :
#
#
# Convention : Reuss Voigt Hill
#
# Bulk Modulus (GPa) = 44.45424 57.81080 51.13252
# Shear Modulus (GPa) = 26.92542 32.41820 29.67181
#
# Velocity S-wave (km/s) = 3.54676 3.89175 3.72326
# Velocity P-wave (km/s) = 6.12712 6.87048 6.50942
#
# Compressibility (1/GPa) = 0.02249504
#
# Stress axis : x y z
#
# Youngs Moduli (GPa) = 87.96641 61.75425 45.30195
#
# Poissons Ratio (x) = 0.12374 0.24047
# Poissons Ratio (y) = 0.17626 0.28352
# Poissons Ratio (z) = 0.46693 0.38648
#
# Static dielectric constant tensor:
#      x y z
#    x 4.166130 0.192360 -0.364700 
#    y 0.192360 3.948360 0.145300 
#    z -0.364700 0.145300 3.885130 
# 
# 
# High freq. dielectric constant tensor:
#      x y z
#    x 1.847500 0.016390 -0.020590 
#    y 0.016390 1.842540 0.012160 
#    z -0.020590 0.012160 1.837930 
# 
# From -- ./inp_files/189908.got.cif
#   From: 2010.06.25/outbox.cif.g09.slc.cpg/sg2_95_cif.got.tgz:189908.got - 2010.06.27 13:26:56.
