data_PCOD8010704
_publ_section_title
;
Structure prediction by ZEFSAII (Michael W. Deem and Ramdas Pophale) SiO2 
 PCOD8010704
Probable space group: P -1
;
_chemical_formula_sum "Si O2"
_cell_formula_units_Z 14
_cell_length_a 9.332652
_cell_length_b 15.768442
_cell_length_c 16.188347
_cell_angle_alpha 153.291615
_cell_angle_beta 144.892866
_cell_angle_gamma 38.451547
_cell_volume 603.024333
_symmetry_space_group_name_H-M "P -1"
_symmetry_group_IT_number 2
_symmetry_cell_setting 'triclinic'
loop_
_space_group_symop_operation_xyz
x,y,z
-x,-y,-z
loop_
_atom_site_type_symbol
_atom_site_label
_atom_site_fract_x
_atom_site_fract_y
_atom_site_fract_z
Si Si1 0.556149 0.713586 0.052767
Si Si2 0.002753 0.367188 0.268199
Si Si3 0.256151 0.704843 0.212360
Si Si4 0.608771 0.121062 0.724457
Si Si5 0.414073 0.296582 0.269314
Si Si6 0.784370 0.763894 0.577297
Si Si7 0.305729 0.106172 0.885997
O O1 0.611944 0.802578 0.245178
O O2 0.549676 0.855868 0.096582
O O3 0.756291 0.514336 0.959806
O O4 0.275092 0.676564 0.905543
O O5 0.143393 0.313758 0.201666
O O6 0.168300 0.243394 0.309451
O O7 0.976721 0.594203 0.473343
O O8 0.293686 0.713369 0.137270
O O9 0.486549 0.762002 0.421839
O O10 0.993349 0.845965 0.235030
O O11 0.500000 0.000000 0.500000
O O12 0.835568 0.968357 0.744913
O O13 0.500000 0.500000 0.500000
O O14 0.617572 0.118156 0.248456
O O15 0.374623 0.250015 0.114092
#
# Coordination Sequence:
#
# PCOD8010704 Si02
#       7
#     2   2   2   2   2   2   2
#     4  11  23  43  70  96 136 179 221 279 337 397
#     4  10  22  42  69  97 132 176 229 273 333 399
#     4  10  22  42  66  95 139 174 218 274 341 398
#     4  10  21  38  62  96 130 170 224 271 329 401
#     4  11  27  45  69 101 137 179 226 281 341 400
#     4   9  21  38  68 100 129 171 226 278 325 398
#     4  11  26  46  68 102 138 180 224 276 346 406
#
# _framework density 23.216308000000001
#
# number of rings (size 3 to 8) (size 9 to 14) (size 15 to 20)
#    0.000    1.714    0.000    2.571    8.000    5.714 
#    2.571    3.571    0.000    0.000    0.000    0.000 
#    0.000    0.000    0.000    0.000    0.000    0.000 
#
# Total GULP energy -173516.332180 kJ/mol
# GULP energy per Si atom -12394.023727 kJ/mol
# Density = 2.316347 g / cm^3
# Si number density = 23.216308 Si / 1000 Ang^3
#
#
#
# Elastic Constant Matrix: (Units=GPa)
#
#
# Indices 1 2 3 4 5 6 
#
# 1 122.1325 26.3117 25.2229 -3.7463 -13.2739 5.9163
# 2 26.3117 126.3719 29.3027 11.2350 12.2490 2.3420
# 3 25.2229 29.3027 78.3645 9.0505 -11.5841 7.0261
# 4 -3.7463 11.2350 9.0505 35.4740 2.1145 4.5903
# 5 -13.2739 12.2490 -11.5841 2.1145 23.8288 2.2926
# 6 5.9163 2.3420 7.0261 4.5903 2.2926 42.4986
#
#
#
# Elastic Compliance Matrix: (Units=1/GPa)
#
#
# Indices 1 2 3 4 5 6 
#
# 1 0.009797 -0.002431 -0.001458 0.002019 0.005966 -0.001529
# 2 -0.002431 0.010416 -0.004261 -0.002100 -0.008706 0.001165
# 3 -0.001458 -0.004261 0.016948 -0.003405 0.010164 -0.002545
# 4 0.002019 -0.002100 -0.003405 0.030409 -0.001881 -0.002785
# 5 0.005966 -0.008706 0.010164 -0.001881 0.055336 -0.004813
# 6 -0.001529 0.001165 -0.002545 -0.002785 -0.004813 0.024660
#
#
# Mechanical properties :
#
#
# Convention : Reuss Voigt Hill
#
# Bulk Modulus (GPa) = 47.94032 54.28261 51.11147
# Shear Modulus (GPa) = 29.27028 36.76237 33.01633
#
# Velocity S-wave (km/s) = 3.55458 3.98360 3.77519
# Velocity P-wave (km/s) = 6.12706 6.67763 6.40826
#
# Compressibility (1/GPa) = 0.02085927
#
# Stress axis : x y z
#
# Youngs Moduli (GPa) = 102.07002 96.00193 59.00528
#
# Poissons Ratio (x) = 0.23339 0.08606
# Poissons Ratio (y) = 0.24814 0.25145
# Poissons Ratio (z) = 0.14887 0.40910
#
# Static dielectric constant tensor:
#      x y z
#    x 4.411070 0.416160 -0.221270 
#    y 0.416160 4.703280 0.348790 
#    z -0.221270 0.348790 4.288120 
# 
# 
# High freq. dielectric constant tensor:
#      x y z
#    x 1.909190 0.015130 -0.016270 
#    y 0.015130 1.935980 0.013040 
#    z -0.016270 0.013040 1.909940 
# 
# From -- ./inp_files/506003.got.cif
#   From: 2010.06.25/outbox.cif.g09.slc.cpg/sg2_254_cif.got.tgz:506003.got - 2010.06.27 13:26:56.
