data_PCOD8010157
_publ_section_title
;
Structure prediction by ZEFSAII (Michael W. Deem and Ramdas Pophale) SiO2 
 PCOD8010157
Probable space group: P -1
;
_chemical_formula_sum "Si O2"
_cell_formula_units_Z 10
_cell_length_a 10.718194
_cell_length_b 5.054834
_cell_length_c 15.253454
_cell_angle_alpha 96.963993
_cell_angle_beta 144.063623
_cell_angle_gamma 88.495196
_cell_volume 477.750348
_symmetry_space_group_name_H-M "P -1"
_symmetry_group_IT_number 2
_symmetry_cell_setting 'triclinic'
loop_
_space_group_symop_operation_xyz
x,y,z
-x,-y,-z
loop_
_atom_site_type_symbol
_atom_site_label
_atom_site_fract_x
_atom_site_fract_y
_atom_site_fract_z
Si Si1 0.893456 0.411937 0.704965
Si Si2 0.091556 0.697683 0.982803
Si Si3 0.545228 0.904710 0.319411
Si Si4 0.826997 0.430154 0.472933
Si Si5 0.261340 0.096745 0.302917
O O1 0.953131 0.427494 0.636971
O O2 0.706419 0.602620 0.626899
O O3 0.093600 0.524045 0.885851
O O4 0.810361 0.106570 0.667947
O O5 0.925746 0.921012 0.880522
O O6 0.333120 0.828911 0.138532
O O7 0.000000 0.500000 0.000000
O O8 0.657541 0.641733 0.387864
O O9 0.701391 0.136362 0.368926
O O10 0.480502 0.023659 0.381519
O O11 0.000000 0.500000 0.500000
#
# Coordination Sequence:
#
# PCOD8010157 Si02
#       5
#     2   2   2   2   2
#     4  10  23  39  65  90 140 153 199 262 321 367
#     4  10  21  40  65 103 131 153 192 263 332 389
#     4  12  23  40  71  92 125 166 209 255 322 372
#     4  12  28  46  59  87 130 178 220 254 289 361
#     4  10  21  37  67 100 128 147 200 258 337 372
#
# _framework density 20.931433999999999
#
# number of rings (size 3 to 8) (size 9 to 14) (size 15 to 20)
#    1.200    0.000    2.000    4.800    2.800    4.800 
#    0.000    2.000    0.000    0.000    0.000    0.000 
#    0.000    0.000    0.000    0.000    0.000    0.000 
#
# Total GULP energy -123941.136389 kJ/mol
# GULP energy per Si atom -12394.113639 kJ/mol
# Density = 2.088379 g / cm^3
# Si number density = 20.931434 Si / 1000 Ang^3
#
#
#
# Elastic Constant Matrix: (Units=GPa)
#
#
# Indices 1 2 3 4 5 6 
#
# 1 112.8833 12.7983 55.4423 -1.4206 -17.8884 26.5586
# 2 12.7983 101.5569 30.4410 -9.4764 -10.5636 18.7205
# 3 55.4423 30.4410 107.1359 9.5781 -19.8555 13.4518
# 4 -1.4206 -9.4764 9.5781 39.9020 4.2800 6.3156
# 5 -17.8884 -10.5636 -19.8555 4.2800 22.1505 -2.3962
# 6 26.5586 18.7205 13.4518 6.3156 -2.3962 31.5800
#
#
#
# Elastic Compliance Matrix: (Units=1/GPa)
#
#
# Indices 1 2 3 4 5 6 
#
# 1 0.015899 0.003486 -0.006860 0.004435 0.006096 -0.012940
# 2 0.003486 0.013361 -0.004253 0.005538 0.003233 -0.009902
# 3 -0.006860 -0.004253 0.015746 -0.006464 0.008174 0.003496
# 4 0.004435 0.005538 -0.006464 0.030519 -0.006644 -0.010867
# 5 0.006096 0.003233 0.008174 -0.006644 0.059717 -0.004665
# 6 -0.012940 -0.009902 0.003496 -0.010867 -0.004665 0.048748
#
#
# Mechanical properties :
#
#
# Convention : Reuss Voigt Hill
#
# Bulk Modulus (GPa) = 33.61144 57.65993 45.63569
# Shear Modulus (GPa) = 23.90508 33.58613 28.74560
#
# Velocity S-wave (km/s) = 3.38311 4.01006 3.70986
# Velocity P-wave (km/s) = 5.59941 7.00340 6.34039
#
# Compressibility (1/GPa) = 0.02975177
#
# Stress axis : x y z
#
# Youngs Moduli (GPa) = 62.89697 74.84687 63.50778
#
# Poissons Ratio (x) = -0.26090 0.43567
# Poissons Ratio (y) = -0.21924 0.27008
# Poissons Ratio (z) = 0.43148 0.31830
#
# Static dielectric constant tensor:
#      x y z
#    x 3.402410 -0.038790 -0.221880 
#    y -0.038790 3.991230 -0.030460 
#    z -0.221880 -0.030460 4.009400 
# 
# 
# High freq. dielectric constant tensor:
#      x y z
#    x 1.777750 0.001990 -0.027870 
#    y 0.001990 1.844650 -0.001640 
#    z -0.027870 -0.001640 1.828320 
# 
# From -- ./inp_files/16350.got.cif
#   From: 2010.06.25/outbox.cif.g09.slc.cpg/sg2_9_cif.got.tgz:16350.got - 2010.06.27 13:26:56.
