data_PCOD8010267
_publ_section_title
;
Structure prediction by ZEFSAII (Michael W. Deem and Ramdas Pophale) SiO2 
 PCOD8010267
Probable space group: P -1
;
_chemical_formula_sum "Si O2"
_cell_formula_units_Z 16
_cell_length_a 9.410032
_cell_length_b 15.325903
_cell_length_c 8.529524
_cell_angle_alpha 80.515743
_cell_angle_beta 132.138829
_cell_angle_gamma 70.419528
_cell_volume 713.344375
_symmetry_space_group_name_H-M "P -1"
_symmetry_group_IT_number 2
_symmetry_cell_setting 'triclinic'
loop_
_space_group_symop_operation_xyz
x,y,z
-x,-y,-z
loop_
_atom_site_type_symbol
_atom_site_label
_atom_site_fract_x
_atom_site_fract_y
_atom_site_fract_z
Si Si1 0.659895 0.249460 0.625599
Si Si2 0.419960 0.898145 0.561304
Si Si3 0.414494 0.600264 0.730769
Si Si4 0.043491 0.210173 0.477881
Si Si5 0.748718 0.029413 0.254521
Si Si6 0.562281 0.760403 0.232482
Si Si7 0.116552 0.150602 0.196162
Si Si8 0.274027 0.451670 0.745330
O O1 0.698470 0.162668 0.549525
O O2 0.546848 0.366299 0.419773
O O3 0.476855 0.263394 0.614520
O O4 0.910648 0.210110 0.896291
O O5 0.439946 0.904840 0.761587
O O6 0.688728 0.828609 0.707984
O O7 0.246515 0.019814 0.321031
O O8 0.344688 0.517504 0.674232
O O9 0.207887 0.709957 0.642726
O O10 0.665691 0.539005 0.032365
O O11 0.178893 0.265306 0.576944
O O12 0.000011 0.198932 0.266450
O O13 0.209752 0.086364 0.717143
O O14 0.648130 0.110041 0.005387
O O15 0.000000 0.000000 0.500000
O O16 0.557080 0.678341 0.137374
O O17 0.000000 0.500000 0.500000
#
# Coordination Sequence:
#
# PCOD8010267 Si02
#       8
#     2   2   2   2   2   2   2   2
#     4  12  24  40  65  98 131 171 217 274 333 383
#     4  10  21  38  57  94 134 177 225 262 317 388
#     4  11  26  44  74 100 126 170 228 271 328 403
#     4  11  22  44  65 100 134 178 223 267 324 398
#     4  11  23  40  65  97 138 179 223 270 321 395
#     4  12  24  42  68  96 137 178 217 273 335 387
#     4  10  22  38  61  91 137 177 216 270 321 386
#     4  11  24  49  74  96 126 171 223 277 331 391
#
# _framework density 22.429559000000001
#
# number of rings (size 3 to 8) (size 9 to 14) (size 15 to 20)
#    0.000    1.000    2.500    5.250    1.750    2.500 
#    0.000    0.625    0.000    0.000    0.000    0.000 
#    0.000    0.000    0.000    0.000    0.000    0.000 
#
# Total GULP energy -198455.025668 kJ/mol
# GULP energy per Si atom -12403.439104 kJ/mol
# Density = 2.237851 g / cm^3
# Si number density = 22.429559 Si / 1000 Ang^3
#
#
#
# Elastic Constant Matrix: (Units=GPa)
#
#
# Indices 1 2 3 4 5 6 
#
# 1 101.2349 17.5412 43.0542 -4.9428 -13.3917 20.8570
# 2 17.5412 112.3477 30.1250 2.7729 -5.9960 28.2178
# 3 43.0542 30.1250 111.0936 3.2745 -9.5710 28.3057
# 4 -4.9428 2.7729 3.2745 27.7757 9.1049 1.5660
# 5 -13.3917 -5.9960 -9.5710 9.1049 36.8814 -8.3002
# 6 20.8570 28.2178 28.3057 1.5660 -8.3002 35.1254
#
#
#
# Elastic Compliance Matrix: (Units=1/GPa)
#
#
# Indices 1 2 3 4 5 6 
#
# 1 0.012722 0.000146 -0.003774 0.002222 0.002166 -0.004217
# 2 0.000146 0.011239 -0.000977 -0.000466 -0.000135 -0.008339
# 3 -0.003774 -0.000977 0.012595 -0.001886 0.000655 -0.006885
# 4 0.002222 -0.000466 -0.001886 0.040336 -0.010552 -0.003717
# 5 0.002166 -0.000135 0.000655 -0.010552 0.032082 0.006346
# 6 -0.004217 -0.008339 -0.006885 -0.003717 0.006346 0.044885
#
#
# Mechanical properties :
#
#
# Convention : Reuss Voigt Hill
#
# Bulk Modulus (GPa) = 36.57098 56.23522 46.40310
# Shear Modulus (GPa) = 29.03844 35.55355 32.29599
#
# Velocity S-wave (km/s) = 3.60203 3.98568 3.79870
# Velocity P-wave (km/s) = 5.79997 6.80494 6.32245
#
# Compressibility (1/GPa) = 0.02734408
#
# Stress axis : x y z
#
# Youngs Moduli (GPa) = 78.60578 88.97607 79.39424
#
# Poissons Ratio (x) = -0.01295 0.29966
# Poissons Ratio (y) = -0.01144 0.07759
# Poissons Ratio (z) = 0.29668 0.08696
#
# Static dielectric constant tensor:
#      x y z
#    x 4.088380 0.216370 -0.132590 
#    y 0.216370 4.186580 -0.021850 
#    z -0.132590 -0.021850 3.913800 
# 
# 
# High freq. dielectric constant tensor:
#      x y z
#    x 1.881920 0.020390 0.000450 
#    y 0.020390 1.886810 0.008160 
#    z 0.000450 0.008160 1.875940 
# 
# From -- ./inp_files/206534.got.cif
#   From: 2010.06.25/outbox.cif.g09.slc.cpg/sg2_104_cif.got.tgz:206534.got - 2010.06.27 13:26:56.
