data_PCOD8010898
_publ_section_title
;
Structure prediction by ZEFSAII (Michael W. Deem and Ramdas Pophale) SiO2 
 PCOD8010898
Probable space group: P -1
;
_chemical_formula_sum "Si O2"
_cell_formula_units_Z 14
_cell_length_a 11.602023
_cell_length_b 11.684297
_cell_length_c 19.367038
_cell_angle_alpha 137.220631
_cell_angle_beta 23.591022
_cell_angle_gamma 124.272808
_cell_volume 653.149689
_symmetry_space_group_name_H-M "P -1"
_symmetry_group_IT_number 2
_symmetry_cell_setting 'triclinic'
loop_
_space_group_symop_operation_xyz
x,y,z
-x,-y,-z
loop_
_atom_site_type_symbol
_atom_site_label
_atom_site_fract_x
_atom_site_fract_y
_atom_site_fract_z
Si Si1 0.198448 0.605984 0.411168
Si Si2 0.217594 0.994841 0.196574
Si Si3 0.489480 0.271987 0.588790
Si Si4 0.997389 0.507798 0.750353
Si Si5 0.564455 0.338251 0.976018
Si Si6 0.329536 0.601809 0.727662
Si Si7 0.064989 0.127129 0.827399
O O1 0.319350 0.640963 0.433226
O O2 0.000000 0.500000 0.500000
O O3 0.463229 0.483287 0.158627
O O4 0.999837 0.799365 0.567786
O O5 0.326552 0.869557 0.149003
O O6 0.038694 0.909863 0.207112
O O7 0.500000 0.000000 0.000000
O O8 0.360474 0.404675 0.653126
O O9 0.228441 0.266077 0.782758
O O10 0.700829 0.066455 0.353630
O O11 0.861349 0.361577 0.788138
O O12 0.068662 0.636021 0.825534
O O13 0.336065 0.400161 0.480550
O O14 0.729601 0.635192 0.900850
O O15 0.211600 0.768546 0.920904
#
# Coordination Sequence:
#
# PCOD8010898 Si02
#       7
#     2   2   2   2   2   2   2
#     4  11  21  37  65  98 120 157 196 262 325 363
#     4  11  23  37  66  98 118 153 202 261 325 365
#     4  10  21  38  64  96 123 152 202 261 315 372
#     4  10  25  40  62  86 124 180 208 245 288 372
#     4  11  22  44  60  88 132 160 210 253 302 368
#     4  11  21  42  62  87 122 168 211 244 305 360
#     4  10  22  38  63  96 124 153 198 265 319 359
#
# _framework density 21.434595999999999
#
# number of rings (size 3 to 8) (size 9 to 14) (size 15 to 20)
#    0.000    1.429    1.429    3.857    4.000    0.000 
#    0.000    8.571    0.000    0.000    0.000    0.000 
#    0.000    0.000    0.000    0.000    0.000    0.000 
#
# Total GULP energy -173554.688888 kJ/mol
# GULP energy per Si atom -12396.763492 kJ/mol
# Density = 2.138581 g / cm^3
# Si number density = 21.434596 Si / 1000 Ang^3
#
#
#
# Elastic Constant Matrix: (Units=GPa)
#
#
# Indices 1 2 3 4 5 6 
#
# 1 73.8410 46.1501 41.2625 3.9084 -6.3562 -9.5404
# 2 46.1501 113.3661 55.3389 1.2503 5.1436 -1.2308
# 3 41.2625 55.3389 113.8291 -3.1006 7.0028 -5.1923
# 4 3.9084 1.2503 -3.1006 40.6353 0.2327 -10.4283
# 5 -6.3562 5.1436 7.0028 0.2327 31.2967 -7.0003
# 6 -9.5404 -1.2308 -5.1923 -10.4283 -7.0003 29.7645
#
#
#
# Elastic Compliance Matrix: (Units=1/GPa)
#
#
# Indices 1 2 3 4 5 6 
#
# 1 0.022477 -0.007064 -0.004888 -0.000321 0.008605 0.007971
# 2 -0.007064 0.013854 -0.004144 -0.000965 -0.003581 -0.003595
# 3 -0.004888 -0.004144 0.012826 0.001686 -0.003114 0.000358
# 4 -0.000321 -0.000965 0.001686 0.027398 0.001787 0.010171
# 5 0.008605 -0.003581 -0.003114 0.001787 0.037550 0.011524
# 6 0.007971 -0.003595 0.000358 0.010171 0.011524 0.042340
#
#
# Mechanical properties :
#
#
# Convention : Reuss Voigt Hill
#
# Bulk Modulus (GPa) = 58.95168 65.17104 62.06136
# Shear Modulus (GPa) = 25.73456 30.89159 28.31308
#
# Velocity S-wave (km/s) = 3.46874 3.80044 3.63837
# Velocity P-wave (km/s) = 6.60346 7.05183 6.83132
#
# Compressibility (1/GPa) = 0.01696305
#
# Stress axis : x y z
#
# Youngs Moduli (GPa) = 44.49053 72.18156 77.96947
#
# Poissons Ratio (x) = 0.50992 0.38110
# Poissons Ratio (y) = 0.31430 0.32313
# Poissons Ratio (z) = 0.21746 0.29915
#
# Static dielectric constant tensor:
#      x y z
#    x 4.095730 -0.051300 0.052520 
#    y -0.051300 3.855150 -0.018810 
#    z 0.052520 -0.018810 4.049100 
# 
# 
# High freq. dielectric constant tensor:
#      x y z
#    x 1.839130 0.002460 -0.011110 
#    y 0.002460 1.848600 -0.011700 
#    z -0.011110 -0.011700 1.842010 
# 
# From -- ./inp_files/263717.got.cif
#   From: 2010.06.25/outbox.cif.g09.slc.cpg/sg2_132_cif.got.tgz:263717.got - 2010.06.27 13:26:56.
