data_PCOD8010371
_publ_section_title
;
Structure prediction by ZEFSAII (Michael W. Deem and Ramdas Pophale) SiO2 
 PCOD8010371
Probable space group: P -1
;
_chemical_formula_sum "Si O2"
_cell_formula_units_Z 16
_cell_length_a 27.457696
_cell_length_b 16.789126
_cell_length_c 20.125157
_cell_angle_alpha 26.628350
_cell_angle_beta 161.382917
_cell_angle_gamma 164.154769
_cell_volume 791.771820
_symmetry_space_group_name_H-M "P -1"
_symmetry_group_IT_number 2
_symmetry_cell_setting 'triclinic'
loop_
_space_group_symop_operation_xyz
x,y,z
-x,-y,-z
loop_
_atom_site_type_symbol
_atom_site_label
_atom_site_fract_x
_atom_site_fract_y
_atom_site_fract_z
Si Si1 0.967097 0.318877 0.146967
Si Si2 0.349999 0.293957 0.861549
Si Si3 0.717669 0.648490 0.405149
Si Si4 0.729142 0.272071 0.999896
Si Si5 0.229173 0.321623 0.091481
Si Si6 0.242869 0.302392 0.276923
Si Si7 0.831056 0.321874 0.240998
Si Si8 0.833859 0.660131 0.286903
O O1 0.238420 0.506248 0.390001
O O2 0.856186 0.047293 0.167592
O O3 0.786957 0.209040 0.056928
O O4 0.000000 0.500000 0.000000
O O5 0.406360 0.474806 0.736553
O O6 0.251303 0.332796 0.760357
O O7 0.600715 0.420955 0.113073
O O8 0.511427 0.565386 0.243148
O O9 0.000000 0.000000 0.500000
O O10 0.841307 0.574049 0.908576
O O11 0.426325 0.003823 0.819369
O O12 0.849618 0.300328 0.201764
O O13 0.268056 0.293944 0.237409
O O14 0.150560 0.453406 0.887246
O O15 0.000000 0.000000 0.000000
O O16 0.500000 0.500000 0.500000
O O17 0.032735 0.974167 0.275918
O O18 0.061198 0.438144 0.489172
#
# Coordination Sequence:
#
# PCOD8010371 Si02
#       8
#     2   2   2   2   2   2   2   2
#     4  11  23  37  61  92 120 159 210 258 302 368
#     4  10  23  40  61  89 127 164 209 249 319 375
#     4  10  22  40  63  85 122 164 203 249 307 374
#     4  10  21  38  59  93 120 154 213 257 302 369
#     4  11  25  43  63  94 130 166 206 263 328 376
#     4  11  23  38  64  91 125 162 206 261 315 366
#     4  10  21  39  64  87 120 162 209 254 306 371
#     4  11  22  40  63  90 124 167 206 261 311 376
#
# _framework density 20.207843
#
# number of rings (size 3 to 8) (size 9 to 14) (size 15 to 20)
#    0.000    1.500    1.250    3.750    5.250    1.000 
#    0.000    1.875    0.000    8.250    0.000    0.000 
#    0.000    0.000    0.000    0.000    0.000    0.000 
#
# Total GULP energy -198344.058301 kJ/mol
# GULP energy per Si atom -12396.503644 kJ/mol
# Density = 2.016185 g / cm^3
# Si number density = 20.207843 Si / 1000 Ang^3
#
#
#
# Elastic Constant Matrix: (Units=GPa)
#
#
# Indices 1 2 3 4 5 6 
#
# 1 164.1024 52.7879 71.8253 -9.5095 -7.6298 17.7469
# 2 52.7879 77.0759 42.3406 -11.0766 -2.1414 8.5137
# 3 71.8253 42.3406 179.1649 -7.9010 -25.3003 11.2442
# 4 -9.5095 -11.0766 -7.9010 31.6443 2.4693 -6.2496
# 5 -7.6298 -2.1414 -25.3003 2.4693 37.3424 4.1183
# 6 17.7469 8.5137 11.2442 -6.2496 4.1183 32.2664
#
#
#
# Elastic Compliance Matrix: (Units=1/GPa)
#
#
# Indices 1 2 3 4 5 6 
#
# 1 0.008862 -0.004506 -0.002256 -0.000090 0.000357 -0.002962
# 2 -0.004506 0.018057 -0.002505 0.004421 -0.001839 -0.000322
# 3 -0.002256 -0.002505 0.007853 -0.000275 0.004901 -0.001514
# 4 -0.000090 0.004421 -0.000275 0.034469 -0.002895 0.006025
# 5 0.000357 -0.001839 0.004901 -0.002895 0.030912 -0.005925
# 6 -0.002962 -0.000322 -0.001514 0.006025 -0.005925 0.035157
#
#
# Mechanical properties :
#
#
# Convention : Reuss Voigt Hill
#
# Bulk Modulus (GPa) = 61.58698 83.80564 72.69631
# Shear Modulus (GPa) = 31.39606 37.14326 34.26966
#
# Velocity S-wave (km/s) = 3.94592 4.29191 4.12255
# Velocity P-wave (km/s) = 7.16263 8.13158 7.66244
#
# Compressibility (1/GPa) = 0.01623720
#
# Stress axis : x y z
#
# Youngs Moduli (GPa) = 112.83748 55.38162 127.34589
#
# Poissons Ratio (x) = 0.24957 0.28723
# Poissons Ratio (y) = 0.50849 0.31902
# Poissons Ratio (z) = 0.25451 0.13874
#
# Static dielectric constant tensor:
#      x y z
#    x 3.858910 0.067410 -0.379240 
#    y 0.067410 3.491310 -0.130380 
#    z -0.379240 -0.130380 4.158200 
# 
# 
# High freq. dielectric constant tensor:
#      x y z
#    x 1.803560 0.007960 -0.012580 
#    y 0.007960 1.772800 -0.007560 
#    z -0.012580 -0.007560 1.804720 
# 
# From -- ./inp_files/338243.got.cif
#   From: 2010.06.25/outbox.cif.g09.slc.cpg/sg2_170_cif.got.tgz:338243.got - 2010.06.27 13:26:56.
