data_PCOD8010458
_publ_section_title
;
Structure prediction by ZEFSAII (Michael W. Deem and Ramdas Pophale) SiO2 
 PCOD8010458
Probable space group: P -1
;
_chemical_formula_sum "Si O2"
_cell_formula_units_Z 16
_cell_length_a 11.430260
_cell_length_b 7.087018
_cell_length_c 13.507436
_cell_angle_alpha 92.323852
_cell_angle_beta 123.969272
_cell_angle_gamma 114.746986
_cell_volume 767.456950
_symmetry_space_group_name_H-M "P -1"
_symmetry_group_IT_number 2
_symmetry_cell_setting 'triclinic'
loop_
_space_group_symop_operation_xyz
x,y,z
-x,-y,-z
loop_
_atom_site_type_symbol
_atom_site_label
_atom_site_fract_x
_atom_site_fract_y
_atom_site_fract_z
Si Si1 0.783983 0.245460 0.726895
Si Si2 0.193455 0.643120 0.476406
Si Si3 0.187320 0.309775 0.177820
Si Si4 0.840745 0.234500 0.323995
Si Si5 0.556939 0.309490 0.137565
Si Si6 0.311066 0.220648 0.857311
Si Si7 0.074525 0.178309 0.910783
Si Si8 0.545215 0.795169 0.697489
O O1 0.780791 0.213857 0.606433
O O2 0.799133 0.475645 0.764460
O O3 0.941941 0.251169 0.845531
O O4 0.615922 0.040898 0.690689
O O5 0.173288 0.765429 0.563862
O O6 0.355719 0.626901 0.568576
O O7 0.030686 0.397108 0.382612
O O8 0.344542 0.300818 0.290929
O O9 0.193007 0.315236 0.061651
O O10 0.014381 0.088604 0.124702
O O11 0.724801 0.304648 0.214905
O O12 0.789944 0.988486 0.265838
O O13 0.600454 0.563381 0.166625
O O14 0.448090 0.180787 0.179760
O O15 0.444488 0.194126 0.984090
O O16 0.188261 0.252523 0.869748
#
# Coordination Sequence:
#
# PCOD8010458 Si02
#       8
#     2   2   2   2   2   2   2   2
#     4  11  22  39  63  88 121 167 199 244 307 354
#     4  10  22  42  61  90 125 161 213 245 285 370
#     4  10  21  39  61  89 122 160 198 246 311 356
#     4  10  22  42  64  87 122 163 201 253 302 349
#     4  10  22  40  60  95 124 150 205 254 301 371
#     4  11  21  39  66  90 122 159 196 253 315 357
#     4  10  21  38  60  92 125 148 201 258 295 367
#     4  10  22  41  60  88 130 156 201 257 287 360
#
# _framework density 20.848075000000001
#
# number of rings (size 3 to 8) (size 9 to 14) (size 15 to 20)
#    0.000    1.750    1.250    2.625    0.000    2.500 
#    4.500   17.500    0.000    0.000    0.000    0.000 
#    0.000    0.000    0.000    0.000    0.000    0.000 
#
# Total GULP energy -198447.290249 kJ/mol
# GULP energy per Si atom -12402.955641 kJ/mol
# Density = 2.080062 g / cm^3
# Si number density = 20.848075 Si / 1000 Ang^3
#
#
#
# Elastic Constant Matrix: (Units=GPa)
#
#
# Indices 1 2 3 4 5 6 
#
# 1 83.8242 43.7859 41.2205 4.7268 4.0386 13.1178
# 2 43.7859 99.1501 41.9288 2.3195 -14.0247 7.2688
# 3 41.2205 41.9288 88.0279 8.9710 2.1980 7.6610
# 4 4.7268 2.3195 8.9710 29.6000 2.8992 -4.6739
# 5 4.0386 -14.0247 2.1980 2.8992 39.7059 -6.6534
# 6 13.1178 7.2688 7.6610 -4.6739 -6.6534 36.0667
#
#
#
# Elastic Compliance Matrix: (Units=1/GPa)
#
#
# Indices 1 2 3 4 5 6 
#
# 1 0.018983 -0.006478 -0.005055 -0.001407 -0.004773 -0.005588
# 2 -0.006478 0.015835 -0.004901 0.000867 0.006721 0.001558
# 3 -0.005055 -0.004901 0.016652 -0.003902 -0.002123 -0.001608
# 4 -0.001407 0.000867 -0.003902 0.036117 -0.001024 0.005657
# 5 -0.004773 0.006721 -0.002123 -0.001024 0.029259 0.006097
# 6 -0.005588 0.001558 -0.001608 0.005657 0.006097 0.031644
#
#
# Mechanical properties :
#
#
# Convention : Reuss Voigt Hill
#
# Bulk Modulus (GPa) = 53.75493 58.31917 56.03705
# Shear Modulus (GPa) = 26.65851 30.67899 28.66875
#
# Velocity S-wave (km/s) = 3.57978 3.84024 3.71229
# Velocity P-wave (km/s) = 6.55183 6.90633 6.73141
#
# Compressibility (1/GPa) = 0.01860295
#
# Stress axis : x y z
#
# Youngs Moduli (GPa) = 52.67898 63.15045 60.05354
#
# Poissons Ratio (x) = 0.40910 0.30355
# Poissons Ratio (y) = 0.34126 0.29431
# Poissons Ratio (z) = 0.26627 0.30948
#
# Static dielectric constant tensor:
#      x y z
#    x 3.761530 0.234960 0.128640 
#    y 0.234960 3.650080 -0.117620 
#    z 0.128640 -0.117620 3.891750 
# 
# 
# High freq. dielectric constant tensor:
#      x y z
#    x 1.819610 0.014760 0.009870 
#    y 0.014760 1.804260 -0.008540 
#    z 0.009870 -0.008540 1.823310 
# 
# From -- ./inp_files/72396.got.cif
#   From: 2010.06.25/outbox.cif.g09.slc.cpg/sg2_37_cif.got.tgz:72396.got - 2010.06.27 13:26:56.
