data_PCOD8010179
_publ_section_title
;
Structure prediction by ZEFSAII (Michael W. Deem and Ramdas Pophale) SiO2 
 PCOD8010179
Probable space group: P -1
;
_chemical_formula_sum "Si O2"
_cell_formula_units_Z 16
_cell_length_a 9.507611
_cell_length_b 12.170048
_cell_length_c 14.599152
_cell_angle_alpha 29.741827
_cell_angle_beta 72.642782
_cell_angle_gamma 83.446472
_cell_volume 761.487505
_symmetry_space_group_name_H-M "P -1"
_symmetry_group_IT_number 2
_symmetry_cell_setting 'triclinic'
loop_
_space_group_symop_operation_xyz
x,y,z
-x,-y,-z
loop_
_atom_site_type_symbol
_atom_site_label
_atom_site_fract_x
_atom_site_fract_y
_atom_site_fract_z
Si Si1 0.812952 0.873774 0.963841
Si Si2 0.911498 0.723215 0.467495
Si Si3 0.142245 0.572894 0.641626
Si Si4 0.365743 0.221688 0.417505
Si Si5 0.391148 0.119381 0.837466
Si Si6 0.477234 0.244876 0.019434
Si Si7 0.622286 0.038599 0.579540
Si Si8 0.304077 0.507024 0.476889
O O1 0.884757 0.674301 0.126270
O O2 0.739454 0.968937 0.995799
O O3 0.685337 0.775201 0.982390
O O4 0.949440 0.083250 0.746716
O O5 0.793998 0.844513 0.447250
O O6 0.826645 0.532782 0.545937
O O7 0.976474 0.589932 0.629915
O O8 0.254790 0.605822 0.508220
O O9 0.220318 0.778466 0.547821
O O10 0.334824 0.067873 0.444130
O O11 0.495992 0.170778 0.491977
O O12 0.415216 0.492292 0.188269
O O13 0.336714 0.262041 0.665031
O O14 0.541732 0.296706 0.729969
O O15 0.427703 0.901068 0.945254
O O16 0.445019 0.165776 0.187329
#
# Coordination Sequence:
#
# PCOD8010179 Si02
#       8
#     2   2   2   2   2   2   2   2
#     4  11  24  40  63  98 138 176 209 261 330 396
#     4  12  25  42  63  99 138 172 215 266 325 390
#     4  11  23  42  67  94 139 172 210 270 332 384
#     4  11  27  43  72  98 128 166 231 276 317 385
#     4  10  21  37  67  99 133 173 217 265 320 392
#     4  12  21  42  70  98 125 174 225 267 325 388
#     4  11  23  48  71  96 126 172 222 280 324 379
#     4  10  21  39  66  98 134 176 214 265 323 390
#
# _framework density 21.011506000000001
#
# number of rings (size 3 to 8) (size 9 to 14) (size 15 to 20)
#    0.000    1.000    3.750    2.625    1.750    6.500 
#    0.000    0.625    0.000    0.000    0.000    0.000 
#    0.000    0.000    0.000    0.000    0.000    0.000 
#
# Total GULP energy -198511.733728 kJ/mol
# GULP energy per Si atom -12406.983358 kJ/mol
# Density = 2.096368 g / cm^3
# Si number density = 21.011506 Si / 1000 Ang^3
#
#
#
# Elastic Constant Matrix: (Units=GPa)
#
#
# Indices 1 2 3 4 5 6 
#
# 1 108.6867 33.3267 21.9621 -17.7647 8.9113 15.4050
# 2 33.3267 76.1128 16.7141 -7.5288 4.8259 8.5160
# 3 21.9621 16.7141 57.1436 -2.5732 5.8032 -3.9350
# 4 -17.7647 -7.5288 -2.5732 25.9570 -2.4404 -1.1490
# 5 8.9113 4.8259 5.8032 -2.4404 31.9648 3.0741
# 6 15.4050 8.5160 -3.9350 -1.1490 3.0741 33.9313
#
#
#
# Elastic Compliance Matrix: (Units=1/GPa)
#
#
# Indices 1 2 3 4 5 6 
#
# 1 0.013077 -0.003497 -0.003894 0.007193 -0.001367 -0.005144
# 2 -0.003497 0.015910 -0.003375 0.001728 -0.000423 -0.002700
# 3 -0.003894 -0.003375 0.020548 -0.001637 -0.002760 0.005193
# 4 0.007193 0.001728 -0.001637 0.043826 0.001622 -0.002552
# 5 -0.001367 -0.000423 -0.002760 0.001622 0.032594 -0.002491
# 6 -0.005144 -0.002700 0.005193 -0.002552 -0.002491 0.033226
#
#
# Mechanical properties :
#
#
# Convention : Reuss Voigt Hill
#
# Bulk Modulus (GPa) = 35.71117 42.88321 39.29719
# Shear Modulus (GPa) = 26.30919 29.69998 28.00458
#
# Velocity S-wave (km/s) = 3.54239 3.76375 3.65474
# Velocity P-wave (km/s) = 5.81070 6.27227 6.04589
#
# Compressibility (1/GPa) = 0.02800244
#
# Stress axis : x y z
#
# Youngs Moduli (GPa) = 76.47150 62.85160 48.66700
#
# Poissons Ratio (x) = 0.21979 0.18953
# Poissons Ratio (y) = 0.26741 0.16425
# Poissons Ratio (z) = 0.29782 0.21212
#
# Static dielectric constant tensor:
#      x y z
#    x 4.096500 0.006070 0.283160 
#    y 0.006070 3.669500 0.059120 
#    z 0.283160 0.059120 3.860640 
# 
# 
# High freq. dielectric constant tensor:
#      x y z
#    x 1.833280 0.003760 0.014150 
#    y 0.003760 1.814210 0.000430 
#    z 0.014150 0.000430 1.831860 
# 
# From -- ./inp_files/187305.got.cif
#   From: 2010.06.25/outbox.cif.g09.slc.cpg/sg2_94_cif.got.tgz:187305.got - 2010.06.27 13:26:56.
