data_PCOD8010202
_publ_section_title
;
Structure prediction by ZEFSAII (Michael W. Deem and Ramdas Pophale) SiO2 
 PCOD8010202
Probable space group: P -1
;
_chemical_formula_sum "Si O2"
_cell_formula_units_Z 16
_cell_length_a 28.839863
_cell_length_b 10.371492
_cell_length_c 8.554869
_cell_angle_alpha 66.232099
_cell_angle_beta 38.985515
_cell_angle_gamma 35.694242
_cell_volume 735.608020
_symmetry_space_group_name_H-M "P -1"
_symmetry_group_IT_number 2
_symmetry_cell_setting 'triclinic'
loop_
_space_group_symop_operation_xyz
x,y,z
-x,-y,-z
loop_
_atom_site_type_symbol
_atom_site_label
_atom_site_fract_x
_atom_site_fract_y
_atom_site_fract_z
Si Si1 0.677517 0.905943 0.415464
Si Si2 0.349025 0.783618 0.842279
Si Si3 0.882443 0.585214 0.328082
Si Si4 0.878641 0.319457 0.634911
Si Si5 0.333072 0.508725 0.089730
Si Si6 0.669616 0.118211 0.800759
Si Si7 0.358899 0.531038 0.349582
Si Si8 0.662113 0.702862 0.290678
O O1 0.770972 0.724493 0.414500
O O2 0.696227 0.743932 0.329196
O O3 0.737511 0.952073 0.155814
O O4 0.506055 0.207488 0.753724
O O5 0.500000 0.500000 0.500000
O O6 0.266204 0.770068 0.076424
O O7 0.375031 0.798622 0.941550
O O8 0.953685 0.326883 0.344003
O O9 0.801072 0.792987 0.585873
O O10 0.000000 0.500000 0.000000
O O11 0.748479 0.480973 0.786774
O O12 0.796815 0.505376 0.915676
O O13 0.000000 0.000000 0.500000
O O14 0.300866 0.548431 0.338640
O O15 0.720265 0.185573 0.561467
O O16 0.530028 0.286859 0.991699
O O17 0.332184 0.472360 0.593677
O O18 0.500000 0.000000 0.500000
#
# Coordination Sequence:
#
# PCOD8010202 Si02
#       8
#     2   2   2   2   2   2   2   2
#     4  11  22  41  71 102 135 174 239 289 337 407
#     4   9  20  36  65 105 136 168 214 284 354 403
#     4  12  28  47  70  96 142 193 232 282 348 418
#     4  12  29  48  68 100 146 183 229 286 358 422
#     4  10  21  41  70 101 135 175 224 293 345 402
#     4  10  21  40  66 102 139 172 230 280 348 410
#     4  10  21  37  69 102 133 169 222 298 343 398
#     4  12  24  41  72 102 136 179 235 293 348 410
#
# _framework density 21.750713999999999
#
# number of rings (size 3 to 8) (size 9 to 14) (size 15 to 20)
#    0.000    1.250    2.500    3.000    7.000    1.000 
#    4.500    2.500    0.000    0.000    0.000    0.000 
#    0.000    0.000    0.000    0.000    0.000    0.000 
#
# Total GULP energy -198328.004316 kJ/mol
# GULP energy per Si atom -12395.500270 kJ/mol
# Density = 2.170121 g / cm^3
# Si number density = 21.750714 Si / 1000 Ang^3
#
#
#
# Elastic Constant Matrix: (Units=GPa)
#
#
# Indices 1 2 3 4 5 6 
#
# 1 102.0599 36.8759 38.8114 -2.0182 14.4063 11.5679
# 2 36.8759 164.6877 46.7552 -23.4385 8.1760 -2.3897
# 3 38.8114 46.7552 77.1548 -8.3118 6.3812 -0.4999
# 4 -2.0182 -23.4385 -8.3118 40.7067 2.4749 1.7763
# 5 14.4063 8.1760 6.3812 2.4749 25.8844 -1.8634
# 6 11.5679 -2.3897 -0.4999 1.7763 -1.8634 28.1752
#
#
#
# Elastic Compliance Matrix: (Units=1/GPa)
#
#
# Indices 1 2 3 4 5 6 
#
# 1 0.014138 -0.001364 -0.005864 -0.000613 -0.006395 -0.006409
# 2 -0.001364 0.008037 -0.003667 0.003846 -0.001182 0.000856
# 3 -0.005864 -0.003667 0.018284 0.001231 -0.000035 0.002341
# 4 -0.000613 0.003846 0.001231 0.027298 -0.003886 -0.001378
# 5 -0.006395 -0.001182 -0.000035 -0.003886 0.043352 0.005637
# 6 -0.006409 0.000856 0.002341 -0.001378 0.005637 0.038697
#
#
# Mechanical properties :
#
#
# Convention : Reuss Voigt Hill
#
# Bulk Modulus (GPa) = 53.56418 65.42083 59.49251
# Shear Modulus (GPa) = 28.11883 33.71725 30.91804
#
# Velocity S-wave (km/s) = 3.59942 3.94149 3.77433
# Velocity P-wave (km/s) = 6.47722 7.13138 6.81216
#
# Compressibility (1/GPa) = 0.01866919
#
# Stress axis : x y z
#
# Youngs Moduli (GPa) = 70.73241 124.42696 54.69410
#
# Poissons Ratio (x) = 0.16967 0.32073
# Poissons Ratio (y) = 0.09645 0.20055
# Poissons Ratio (z) = 0.41478 0.45624
#
# Static dielectric constant tensor:
#      x y z
#    x 5.976060 1.649390 -0.211200 
#    y 1.649390 5.439730 -0.544660 
#    z -0.211200 -0.544660 3.692600 
# 
# 
# High freq. dielectric constant tensor:
#      x y z
#    x 1.860650 0.012570 0.017700 
#    y 0.012570 1.872240 -0.020740 
#    z 0.017700 -0.020740 1.823580 
# 
# From -- ./inp_files/263022.got.cif
#   From: 2010.06.25/outbox.cif.g09.slc.cpg/sg2_132_cif.got.tgz:263022.got - 2010.06.27 13:26:56.
