data_PCOD8010663
_publ_section_title
;
Structure prediction by ZEFSAII (Michael W. Deem and Ramdas Pophale) SiO2 
 PCOD8010663
Probable space group: P -1
;
_chemical_formula_sum "Si O2"
_cell_formula_units_Z 14
_cell_length_a 8.738187
_cell_length_b 12.177404
_cell_length_c 6.698735
_cell_angle_alpha 71.095077
_cell_angle_beta 83.311521
_cell_angle_gamma 90.370144
_cell_volume 669.020700
_symmetry_space_group_name_H-M "P -1"
_symmetry_group_IT_number 2
_symmetry_cell_setting 'triclinic'
loop_
_space_group_symop_operation_xyz
x,y,z
-x,-y,-z
loop_
_atom_site_type_symbol
_atom_site_label
_atom_site_fract_x
_atom_site_fract_y
_atom_site_fract_z
Si Si1 0.857393 0.838116 0.652709
Si Si2 0.961599 0.054896 0.767910
Si Si3 0.342413 0.403598 0.791987
Si Si4 0.018027 0.366669 0.004346
Si Si5 0.753876 0.239440 0.856424
Si Si6 0.578247 0.347610 0.477168
Si Si7 0.520964 0.761545 0.829705
O O1 0.675529 0.840674 0.724574
O O2 0.899073 0.864028 0.398371
O O3 0.939864 0.718718 0.768810
O O4 0.927081 0.946333 0.698051
O O5 0.818989 0.133516 0.788090
O O6 0.000000 0.000000 0.000000
O O7 0.412451 0.360783 0.598167
O O8 0.362300 0.541269 0.722332
O O9 0.426955 0.356867 0.003758
O O10 0.162515 0.364440 0.833385
O O11 0.868903 0.313483 0.941751
O O12 0.000000 0.500000 0.000000
O O13 0.702498 0.325628 0.640862
O O14 0.607066 0.185510 0.036901
O O15 0.557559 0.250551 0.368217
#
# Coordination Sequence:
#
# PCOD8010663 Si02
#       7
#     2   2   2   2   2   2   2
#     4  10  25  44  69  95 126 180 213 263 332 379
#     4  11  24  46  70  92 131 170 223 270 319 386
#     4   9  21  38  59  91 130 182 212 252 325 388
#     4  11  23  41  66  99 136 163 218 274 323 386
#     4  11  25  39  66  99 130 169 219 270 320 380
#     4  10  21  38  62  91 136 173 215 258 323 388
#     4  10  22  41  63  94 131 167 215 268 319 386
#
# _framework density 20.926109
#
# number of rings (size 3 to 8) (size 9 to 14) (size 15 to 20)
#    0.000    1.714    1.429    1.286    6.000    8.000 
#    0.000    1.429    0.000    0.000    0.000    0.000 
#    0.000    0.000    0.000    0.000    0.000    0.000 
#
# Total GULP energy -173477.059916 kJ/mol
# GULP energy per Si atom -12391.218565 kJ/mol
# Density = 2.087848 g / cm^3
# Si number density = 20.926109 Si / 1000 Ang^3
#
#
#
# Elastic Constant Matrix: (Units=GPa)
#
#
# Indices 1 2 3 4 5 6 
#
# 1 110.4190 18.4584 55.9426 -15.8158 -23.1994 1.0788
# 2 18.4584 76.5624 29.2147 -11.9333 -11.8039 -13.2071
# 3 55.9426 29.2147 139.1344 -20.2318 -18.1836 9.0954
# 4 -15.8158 -11.9333 -20.2318 26.7423 9.1848 -4.2959
# 5 -23.1994 -11.8039 -18.1836 9.1848 28.5410 3.7459
# 6 1.0788 -13.2071 9.0954 -4.2959 3.7459 26.9270
#
#
#
# Elastic Compliance Matrix: (Units=1/GPa)
#
#
# Indices 1 2 3 4 5 6 
#
# 1 0.012879 -0.000165 -0.003894 0.002123 0.007230 0.000051
# 2 -0.000165 0.017315 -0.003103 0.006378 0.001641 0.010337
# 3 -0.003894 -0.003103 0.010356 0.002749 0.001880 -0.004687
# 4 0.002123 0.006378 0.002749 0.049299 -0.011266 0.011547
# 5 0.007230 0.001641 0.001880 -0.011266 0.047536 -0.008530
# 6 0.000051 0.010337 -0.004687 0.011547 -0.008530 0.046818
#
#
# Mechanical properties :
#
#
# Convention : Reuss Voigt Hill
#
# Bulk Modulus (GPa) = 38.12823 59.26081 48.69452
# Shear Modulus (GPa) = 24.12307 31.27539 27.69923
#
# Velocity S-wave (km/s) = 3.39894 3.87015 3.64217
# Velocity P-wave (km/s) = 5.80204 6.95351 6.40371
#
# Compressibility (1/GPa) = 0.02622729
#
# Stress axis : x y z
#
# Youngs Moduli (GPa) = 77.64426 57.75186 96.55981
#
# Poissons Ratio (x) = 0.00953 0.37596
# Poissons Ratio (y) = 0.01281 0.29965
# Poissons Ratio (z) = 0.30231 0.17922
#
# Static dielectric constant tensor:
#      x y z
#    x 4.045130 -0.092870 0.040830 
#    y -0.092870 3.634990 -0.424690 
#    z 0.040830 -0.424690 4.524590 
# 
# 
# High freq. dielectric constant tensor:
#      x y z
#    x 1.823530 -0.004550 -0.014100 
#    y -0.004550 1.801290 -0.005550 
#    z -0.014100 -0.005550 1.838850 
# 
# From -- ./inp_files/26817.got.cif
#   From: 2010.06.25/outbox.cif.g09.slc.cpg/sg2_14_cif.got.tgz:26817.got - 2010.06.27 13:26:56.
