data_PCOD8010882
_publ_section_title
;
Structure prediction by ZEFSAII (Michael W. Deem and Ramdas Pophale) SiO2 
 PCOD8010882
Probable space group: P -1
;
_chemical_formula_sum "Si O2"
_cell_formula_units_Z 14
_cell_length_a 10.879661
_cell_length_b 12.064022
_cell_length_c 10.592296
_cell_angle_alpha 35.790825
_cell_angle_beta 48.078796
_cell_angle_gamma 57.217951
_cell_volume 604.972738
_symmetry_space_group_name_H-M "P -1"
_symmetry_group_IT_number 2
_symmetry_cell_setting 'triclinic'
loop_
_space_group_symop_operation_xyz
x,y,z
-x,-y,-z
loop_
_atom_site_type_symbol
_atom_site_label
_atom_site_fract_x
_atom_site_fract_y
_atom_site_fract_z
Si Si1 0.789875 0.249140 0.151421
Si Si2 0.640092 0.026670 0.009719
Si Si3 0.074590 0.367964 0.392257
Si Si4 0.581860 0.289046 0.507739
Si Si5 0.818070 0.937768 0.220009
Si Si6 0.032562 0.992723 0.339796
Si Si7 0.298616 0.573897 0.447794
O O1 0.661859 0.251157 0.352782
O O2 0.735974 0.093168 0.228181
O O3 0.967083 0.183416 0.143006
O O4 0.806849 0.460888 0.889348
O O5 0.472004 0.910222 0.202130
O O6 0.704834 0.929720 0.183134
O O7 0.607424 0.249439 0.847215
O O8 0.775347 0.017783 0.813403
O O9 0.068684 0.193286 0.460931
O O10 0.886212 0.445464 0.465151
O O11 0.158869 0.276378 0.543560
O O12 0.408398 0.394362 0.505824
O O13 0.702853 0.396964 0.423628
O O14 0.000000 0.000000 0.000000
O O15 0.000000 0.000000 0.500000
#
# Coordination Sequence:
#
# PCOD8010882 Si02
#       7
#     2   2   2   2   2   2   2
#     4  11  23  39  61  95 127 160 210 260 305 366
#     4  11  22  43  65  87 125 167 204 256 312 367
#     4  10  22  40  67  92 120 163 209 263 303 359
#     4  11  25  39  60  94 130 167 199 244 318 380
#     4  11  22  43  67  93 116 162 219 261 311 357
#     4  10  21  38  64  94 120 159 214 260 305 358
#     4  10  22  40  62  90 123 165 206 245 310 378
#
# _framework density 23.141539000000002
#
# number of rings (size 3 to 8) (size 9 to 14) (size 15 to 20)
#    0.000    1.429    4.286    3.000    0.000    9.143 
#    0.000    1.429    0.000    0.000    0.000    0.000 
#    0.000    0.000    0.000    0.000    0.000    0.000 
#
# Total GULP energy -173514.001734 kJ/mol
# GULP energy per Si atom -12393.857267 kJ/mol
# Density = 2.308887 g / cm^3
# Si number density = 23.141539 Si / 1000 Ang^3
#
#
#
# Elastic Constant Matrix: (Units=GPa)
#
#
# Indices 1 2 3 4 5 6 
#
# 1 55.3745 16.6258 -0.6866 3.4354 10.5957 -3.5268
# 2 16.6258 110.5146 46.4758 7.9262 7.2301 4.7099
# 3 -0.6866 46.4758 139.3797 -13.4861 2.4005 -2.2833
# 4 3.4354 7.9262 -13.4861 35.4427 -4.7174 12.6289
# 5 10.5957 7.2301 2.4005 -4.7174 31.4889 -6.8712
# 6 -3.5268 4.7099 -2.2833 12.6289 -6.8712 20.1947
#
#
#
# Elastic Compliance Matrix: (Units=1/GPa)
#
#
# Indices 1 2 3 4 5 6 
#
# 1 0.020604 -0.003089 0.000985 -0.003319 -0.005808 0.004529
# 2 -0.003089 0.011823 -0.004287 -0.003419 -0.002397 -0.002459
# 3 0.000985 -0.004287 0.009031 0.004535 0.000544 -0.000458
# 4 -0.003319 -0.003419 0.004535 0.039624 0.002424 -0.023224
# 5 -0.005808 -0.002397 0.000544 0.002424 0.036907 0.010648
# 6 0.004529 -0.002459 -0.000458 -0.023224 0.010648 0.068977
#
#
# Mechanical properties :
#
#
# Convention : Reuss Voigt Hill
#
# Bulk Modulus (GPa) = 34.87350 47.78875 41.33112
# Shear Modulus (GPa) = 23.88821 33.61552 28.75186
#
# Velocity S-wave (km/s) = 3.21637 3.81544 3.52864
# Velocity P-wave (km/s) = 5.37548 6.33290 5.87373
#
# Compressibility (1/GPa) = 0.02867507
#
# Stress axis : x y z
#
# Youngs Moduli (GPa) = 48.53403 84.58002 110.72879
#
# Poissons Ratio (x) = 0.26125 -0.10902
# Poissons Ratio (y) = 0.14991 0.47474
# Poissons Ratio (z) = -0.04778 0.36263
#
# Static dielectric constant tensor:
#      x y z
#    x 4.870300 -0.382590 0.054130 
#    y -0.382590 4.332250 -0.297110 
#    z 0.054130 -0.297110 4.028710 
# 
# 
# High freq. dielectric constant tensor:
#      x y z
#    x 1.922080 -0.003300 0.021110 
#    y -0.003300 1.915180 -0.022190 
#    z 0.021110 -0.022190 1.907720 
# 
# From -- ./inp_files/432192.got.cif
#   From: 2010.06.25/outbox.cif.g09.slc.cpg/sg2_217_cif.got.tgz:432192.got - 2010.06.27 13:26:56.
