data_PCOD8010750
_publ_section_title
;
Structure prediction by ZEFSAII (Michael W. Deem and Ramdas Pophale) SiO2 
 PCOD8010750
Probable space group: P -1
;
_chemical_formula_sum "Si O2"
_cell_formula_units_Z 16
_cell_length_a 27.938730
_cell_length_b 27.557902
_cell_length_c 8.935576
_cell_angle_alpha 144.342927
_cell_angle_beta 143.985316
_cell_angle_gamma 10.124254
_cell_volume 702.248764
_symmetry_space_group_name_H-M "P -1"
_symmetry_group_IT_number 2
_symmetry_cell_setting 'triclinic'
loop_
_space_group_symop_operation_xyz
x,y,z
-x,-y,-z
loop_
_atom_site_type_symbol
_atom_site_label
_atom_site_fract_x
_atom_site_fract_y
_atom_site_fract_z
Si Si1 0.724837 0.620759 0.112301
Si Si2 0.310160 0.527260 0.437537
Si Si3 0.613090 0.847323 0.759172
Si Si4 0.622641 0.468784 0.694054
Si Si5 0.786900 0.835656 0.987636
Si Si6 0.849956 0.975986 0.953715
Si Si7 0.057790 0.304678 0.451634
Si Si8 0.816410 0.988313 0.553777
O O1 0.859765 0.523611 0.360343
O O2 0.902943 0.481391 0.074806
O O3 0.410137 0.954728 0.129356
O O4 0.753806 0.493334 0.869067
O O5 0.325298 0.580984 0.478771
O O6 0.088570 0.756124 0.580729
O O7 0.590200 0.253564 0.547991
O O8 0.692254 0.843884 0.841578
O O9 0.878662 0.531685 0.689632
O O10 0.368310 0.030759 0.529050
O O11 0.500000 0.000000 0.000000
O O12 0.500000 0.500000 0.500000
O O13 0.909005 0.197466 0.824046
O O14 0.417880 0.741111 0.917051
O O15 0.777956 0.925192 0.298530
O O16 0.795156 0.040484 0.800468
O O17 0.944729 0.789928 0.759749
#
# Coordination Sequence:
#
# PCOD8010750 Si02
#       8
#     2   2   2   2   2   2   2   2
#     4  10  21  38  63  91 119 171 219 267 322 383
#     4  10  21  42  67  97 135 173 220 262 338 403
#     4  12  26  41  58  89 132 176 216 277 339 374
#     4  12  26  46  73 103 137 173 213 278 343 402
#     4  10  22  39  60  89 132 167 219 269 326 377
#     4  12  25  45  71 103 134 171 237 271 324 412
#     4  12  25  40  67  90 127 172 225 273 324 386
#     4  10  22  41  69  97 131 184 221 271 319 394
#
# _framework density 22.783950000000001
#
# number of rings (size 3 to 8) (size 9 to 14) (size 15 to 20)
#    0.000    1.000    1.250    5.250    3.500    6.000 
#    0.000    3.750    0.000    0.000    0.000    0.000 
#    0.000    0.000    0.000    0.000    0.000    0.000 
#
# Total GULP energy -198390.113983 kJ/mol
# GULP energy per Si atom -12399.382124 kJ/mol
# Density = 2.273209 g / cm^3
# Si number density = 22.783950 Si / 1000 Ang^3
#
#
#
# Elastic Constant Matrix: (Units=GPa)
#
#
# Indices 1 2 3 4 5 6 
#
# 1 25.0592 -122.5452 -7.7335 36.5563 30.9420 -3.9279
# 2 -122.5452 -114.2682 -63.8645 71.3053 41.3805 -1.6613
# 3 -7.7335 -63.8645 33.4419 15.4196 9.2507 5.6758
# 4 36.5563 71.3053 15.4196 12.8847 -17.1353 -3.3470
# 5 30.9420 41.3805 9.2507 -17.1353 26.7866 -8.5027
# 6 -3.9279 -1.6613 5.6758 -3.3470 -8.5027 28.5695
#
#
#
# Elastic Compliance Matrix: (Units=1/GPa)
#
#
# Indices 1 2 3 4 5 6 
#
# 1 0.010724 -0.004163 -0.008164 0.004156 0.000643 0.003532
# 2 -0.004163 0.002705 -0.001027 0.006802 0.006098 0.002401
# 3 -0.008164 -0.001027 0.024100 0.003691 0.003642 -0.004454
# 4 0.004156 0.006802 0.003691 0.022308 -0.001557 0.002384
# 5 0.000643 0.006098 0.003642 -0.001557 0.027353 0.007678
# 6 0.003532 0.002401 -0.004454 0.002384 0.007678 0.039077
#
#
# Mechanical properties :
#
#
# Convention : Reuss Voigt Hill
#
# Bulk Modulus (GPa) = 92.41362 -49.33927 21.53718
# Shear Modulus (GPa) = 31.93193 22.87322 27.40257
#
# Velocity S-wave (km/s) = 3.74774 3.17190 3.47178
# Velocity P-wave (km/s) = 7.70560 2.87883 5.05414
#
# Compressibility (1/GPa) = 0.01082092
#
# Stress axis : x y z
#
# Youngs Moduli (GPa) = 93.24703 369.64224 41.49382
#
# Poissons Ratio (x) = 1.53889 0.33876
# Poissons Ratio (y) = 0.38821 0.04261
# Poissons Ratio (z) = 0.76128 0.37960
#
# Static dielectric constant tensor:
#      x y z
#    x 3.776560 -0.131690 -0.126890 
#    y -0.131690 4.771540 0.375600 
#    z -0.126890 0.375600 4.711030 
# 
# 
# High freq. dielectric constant tensor:
#      x y z
#    x 1.894330 -0.010500 -0.007770 
#    y -0.010500 1.920660 -0.005950 
#    z -0.007770 -0.005950 1.891410 
# 
# From -- ./inp_files/358025.got.cif
#   From: 2010.06.25/outbox.cif.g09.slc.cpg/sg2_180_cif.got.tgz:358025.got - 2010.06.27 13:26:56.
