data_PCOD8010520
_publ_section_title
;
Structure prediction by ZEFSAII (Michael W. Deem and Ramdas Pophale) SiO2 
 PCOD8010520
Probable space group: P -1
;
_chemical_formula_sum "Si O2"
_cell_formula_units_Z 16
_cell_length_a 6.711244
_cell_length_b 19.575567
_cell_length_c 20.202002
_cell_angle_alpha 157.719105
_cell_angle_beta 63.468322
_cell_angle_gamma 103.852606
_cell_volume 772.978798
_symmetry_space_group_name_H-M "P -1"
_symmetry_group_IT_number 2
_symmetry_cell_setting 'triclinic'
loop_
_space_group_symop_operation_xyz
x,y,z
-x,-y,-z
loop_
_atom_site_type_symbol
_atom_site_label
_atom_site_fract_x
_atom_site_fract_y
_atom_site_fract_z
Si Si1 0.355101 0.694777 0.485839
Si Si2 0.471027 0.105929 0.256791
Si Si3 0.187135 0.413164 0.956440
Si Si4 0.953129 0.940203 0.661952
Si Si5 0.339704 0.391451 0.410831
Si Si6 0.256260 0.608814 0.941248
Si Si7 0.247233 0.350251 0.245008
Si Si8 0.350767 0.660758 0.246621
O O1 0.384789 0.789732 0.634721
O O2 0.621686 0.574628 0.296407
O O3 0.258549 0.532207 0.366594
O O4 0.142371 0.893810 0.654263
O O5 0.218285 0.164938 0.391185
O O6 0.400294 0.200526 0.278928
O O7 0.646501 0.855368 0.000300
O O8 0.481315 0.256729 0.745087
O O9 0.206921 0.589621 0.152908
O O10 0.000000 0.500000 0.000000
O O11 0.047499 0.320105 0.938719
O O12 0.121173 0.849818 0.489775
O O13 0.754844 0.186672 0.903134
O O14 0.500000 0.500000 0.500000
O O15 0.408896 0.298818 0.243179
O O16 0.044775 0.576471 0.627305
O O17 0.443536 0.530024 0.907519
#
# Coordination Sequence:
#
# PCOD8010520 Si02
#       8
#     2   2   2   2   2   2   2   2
#     4  11  23  41  61  92 125 161 211 256 304 373
#     4  12  24  40  66  91 123 167 206 253 320 367
#     4   9  18  38  62  88 123 166 201 259 302 352
#     4  11  23  39  61  92 125 165 208 256 306 369
#     4  11  24  44  66  90 124 162 203 263 313 366
#     4  10  21  38  61  88 125 162 206 254 307 359
#     4  11  24  43  64  91 124 158 210 256 308 378
#     4   9  20  38  61  87 126 162 207 252 303 362
#
# _framework density 20.699142999999999
#
# number of rings (size 3 to 8) (size 9 to 14) (size 15 to 20)
#    0.000    1.500    3.750    1.125    0.000    4.000 
#    0.000    5.625    0.000    0.000    0.000    0.000 
#    0.000    0.000    0.000    0.000    0.000    0.000 
#
# Total GULP energy -198325.323604 kJ/mol
# GULP energy per Si atom -12395.332725 kJ/mol
# Density = 2.065203 g / cm^3
# Si number density = 20.699143 Si / 1000 Ang^3
#
#
#
# Elastic Constant Matrix: (Units=GPa)
#
#
# Indices 1 2 3 4 5 6 
#
# 1 97.1308 28.5008 39.0129 -3.0813 11.7564 -0.4587
# 2 28.5008 78.9224 27.2508 -2.9655 3.8910 5.2763
# 3 39.0129 27.2508 96.4144 -1.8998 6.0558 -6.9847
# 4 -3.0813 -2.9655 -1.8998 34.9010 -0.4505 0.3752
# 5 11.7564 3.8910 6.0558 -0.4505 26.1032 -5.2324
# 6 -0.4587 5.2763 -6.9847 0.3752 -5.2324 40.8492
#
#
#
# Elastic Compliance Matrix: (Units=1/GPa)
#
#
# Indices 1 2 3 4 5 6 
#
# 1 0.013542 -0.003071 -0.004358 0.000644 -0.004783 -0.000815
# 2 -0.003071 0.015110 -0.003160 0.000861 -0.000646 -0.002617
# 3 -0.004358 -0.003160 0.013225 0.000037 -0.000111 0.002606
# 4 0.000644 0.000861 0.000037 0.028788 -0.000003 -0.000362
# 5 -0.004783 -0.000646 -0.000111 -0.000003 0.041657 0.005347
# 6 -0.000815 -0.002617 0.002606 -0.000362 0.005347 0.025943
#
#
# Mechanical properties :
#
#
# Convention : Reuss Voigt Hill
#
# Bulk Modulus (GPa) = 48.31091 51.33293 49.82192
# Shear Modulus (GPa) = 30.05828 32.21756 31.13792
#
# Velocity S-wave (km/s) = 3.81484 3.94949 3.88275
# Velocity P-wave (km/s) = 6.54173 6.75658 6.65002
#
# Compressibility (1/GPa) = 0.02069926
#
# Stress axis : x y z
#
# Youngs Moduli (GPa) = 73.84255 66.18099 75.61547
#
# Poissons Ratio (x) = 0.20327 0.32950
# Poissons Ratio (y) = 0.22680 0.23895
# Poissons Ratio (z) = 0.32177 0.20913
#
# Static dielectric constant tensor:
#      x y z
#    x 3.838830 0.140130 -0.103680 
#    y 0.140130 4.102260 -0.246000 
#    z -0.103680 -0.246000 3.456270 
# 
# 
# High freq. dielectric constant tensor:
#      x y z
#    x 1.813950 0.006990 -0.002940 
#    y 0.006990 1.826390 -0.018460 
#    z -0.002940 -0.018460 1.789240 
# 
# From -- ./inp_files/13120.got.cif
#   From: 2010.06.25/outbox.cif.g09.slc.cpg/sg2_7_cif.got.tgz:13120.got - 2010.06.27 13:26:56.
