data_PCOD8010603
_publ_section_title
;
Structure prediction by ZEFSAII (Michael W. Deem and Ramdas Pophale) SiO2 
 PCOD8010603
Probable space group: P -1
;
_chemical_formula_sum "Si O2"
_cell_formula_units_Z 16
_cell_length_a 5.752276
_cell_length_b 17.738102
_cell_length_c 10.494642
_cell_angle_alpha 53.494341
_cell_angle_beta 85.070656
_cell_angle_gamma 56.501600
_cell_volume 669.173718
_symmetry_space_group_name_H-M "P -1"
_symmetry_group_IT_number 2
_symmetry_cell_setting 'triclinic'
loop_
_space_group_symop_operation_xyz
x,y,z
-x,-y,-z
loop_
_atom_site_type_symbol
_atom_site_label
_atom_site_fract_x
_atom_site_fract_y
_atom_site_fract_z
Si Si1 0.382139 0.343497 0.455528
Si Si2 0.637548 0.435731 0.760629
Si Si3 0.525024 0.731513 0.867983
Si Si4 0.652624 0.141417 0.995358
Si Si5 0.900706 0.464834 0.163118
Si Si6 0.924805 0.302525 0.140655
Si Si7 0.887254 0.732287 0.279534
Si Si8 0.030609 0.873196 0.255766
O O1 0.416628 0.442354 0.390429
O O2 0.178199 0.350316 0.568868
O O3 0.698691 0.208861 0.575055
O O4 0.238435 0.369233 0.295430
O O5 0.316900 0.469376 0.769404
O O6 0.782381 0.352834 0.711947
O O7 0.851261 0.366409 0.943053
O O8 0.404836 0.768599 0.980799
O O9 0.703590 0.784572 0.771905
O O10 0.233519 0.762015 0.775383
O O11 0.812761 0.586559 0.973161
O O12 0.343041 0.185901 0.904643
O O13 0.862681 0.133602 0.886724
O O14 0.816711 0.008824 0.181346
O O15 0.782326 0.401350 0.160442
O O16 0.855818 0.818884 0.304242
#
# Coordination Sequence:
#
# PCOD8010603 Si02
#       8
#     2   2   2   2   2   2   2   2
#     4  11  23  36  55  86 124 167 200 240 309 372
#     4  11  21  36  58  89 125 162 194 257 301 375
#     4  11  21  39  61  98 119 160 201 263 307 362
#     4  10  21  38  62  85 119 155 209 256 311 355
#     4  11  23  37  60  90 125 161 198 250 310 368
#     4  11  23  38  65  96 126 158 209 254 316 361
#     4  11  21  38  58  90 120 158 202 248 312 368
#     4  10  22  38  58  86 118 164 204 254 300 371
#
# _framework density 23.910087000000001
#
# number of rings (size 3 to 8) (size 9 to 14) (size 15 to 20)
#    0.000    1.250    2.500    4.875    1.750    4.000 
#    0.000    0.000    0.000    1.500    0.000    0.000 
#    0.000    0.000    0.000    0.000    0.000    0.000 
#
# Total GULP energy -198252.149008 kJ/mol
# GULP energy per Si atom -12390.759313 kJ/mol
# Density = 2.385567 g / cm^3
# Si number density = 23.910087 Si / 1000 Ang^3
#
#
#
# Elastic Constant Matrix: (Units=GPa)
#
#
# Indices 1 2 3 4 5 6 
#
# 1 141.4604 16.3288 24.1996 -1.7151 13.6001 7.4372
# 2 16.3288 83.6029 20.2873 -5.4189 10.5539 10.6545
# 3 24.1996 20.2873 90.9540 -11.7732 12.3397 5.6155
# 4 -1.7151 -5.4189 -11.7732 16.7195 3.7691 -1.2689
# 5 13.6001 10.5539 12.3397 3.7691 27.5437 6.9734
# 6 7.4372 10.6545 5.6155 -1.2689 6.9734 33.9092
#
#
#
# Elastic Compliance Matrix: (Units=1/GPa)
#
#
# Indices 1 2 3 4 5 6 
#
# 1 0.007700 -0.000715 -0.001469 0.000086 -0.002714 -0.000659
# 2 -0.000715 0.013612 -0.001636 0.003850 -0.003923 -0.002898
# 3 -0.001469 -0.001636 0.013984 0.010633 -0.006429 0.000240
# 4 0.000086 0.003850 0.010633 0.072642 -0.017040 0.003233
# 5 -0.002714 -0.003923 -0.006429 -0.017040 0.046196 -0.007245
# 6 -0.000659 -0.002898 0.000240 0.003233 -0.007245 0.032117
#
#
# Mechanical properties :
#
#
# Convention : Reuss Voigt Hill
#
# Bulk Modulus (GPa) = 36.15996 48.62762 42.39379
# Shear Modulus (GPa) = 24.61726 32.64792 28.63259
#
# Velocity S-wave (km/s) = 3.21218 3.69920 3.46426
# Velocity P-wave (km/s) = 5.37714 6.21509 5.81124
#
# Compressibility (1/GPa) = 0.02765490
#
# Stress axis : x y z
#
# Youngs Moduli (GPa) = 129.87613 73.46344 71.50949
#
# Poissons Ratio (x) = 0.05254 0.10505
# Poissons Ratio (y) = 0.09288 0.11702
# Poissons Ratio (z) = 0.19079 0.12021
#
# Static dielectric constant tensor:
#      x y z
#    x 4.506680 -0.114120 -0.021620 
#    y -0.114120 4.250600 -0.002360 
#    z -0.021620 -0.002360 4.072320 
# 
# 
# High freq. dielectric constant tensor:
#      x y z
#    x 1.968550 -0.005280 -0.002240 
#    y -0.005280 1.944010 0.014080 
#    z -0.002240 0.014080 1.903620 
# 
# From -- ./inp_files/118138.got.cif
#   From: 2010.06.25/outbox.cif.g09.slc.cpg/sg2_60_cif.got.tgz:118138.got - 2010.06.27 13:26:56.
