data_PCOD8010382
_publ_section_title
;
Structure prediction by ZEFSAII (Michael W. Deem and Ramdas Pophale) SiO2 
 PCOD8010382
Probable space group: P -1
;
_chemical_formula_sum "Si O2"
_cell_formula_units_Z 16
_cell_length_a 10.615756
_cell_length_b 11.514134
_cell_length_c 15.140742
_cell_angle_alpha 38.549773
_cell_angle_beta 118.371053
_cell_angle_gamma 140.834538
_cell_volume 686.752523
_symmetry_space_group_name_H-M "P -1"
_symmetry_group_IT_number 2
_symmetry_cell_setting 'triclinic'
loop_
_space_group_symop_operation_xyz
x,y,z
-x,-y,-z
loop_
_atom_site_type_symbol
_atom_site_label
_atom_site_fract_x
_atom_site_fract_y
_atom_site_fract_z
Si Si1 0.737859 0.300806 0.792002
Si Si2 0.690825 0.272568 0.990600
Si Si3 0.075207 0.362343 0.803412
Si Si4 0.390555 0.721084 0.549875
Si Si5 0.682221 0.945660 0.665489
Si Si6 0.950546 0.149689 0.154146
Si Si7 0.155366 0.332739 0.545401
Si Si8 0.821044 0.831376 0.924967
O O1 0.697933 0.349746 0.846068
O O2 0.750570 0.482685 0.620038
O O3 0.959760 0.402776 0.802869
O O4 0.545181 0.971811 0.903191
O O5 0.819047 0.545146 0.927773
O O6 0.781865 0.150621 0.095413
O O7 0.200406 0.582014 0.637167
O O8 0.246665 0.405608 0.892509
O O9 0.894057 0.065129 0.874475
O O10 0.581332 0.806440 0.617818
O O11 0.330870 0.531653 0.562071
O O12 0.429550 0.972850 0.381096
O O13 0.651154 0.748222 0.845941
O O14 0.934916 0.209829 0.578730
O O15 0.975051 0.061137 0.122768
O O16 0.872405 0.915217 0.336472
#
# Coordination Sequence:
#
# PCOD8010382 Si02
#       8
#     2   2   2   2   2   2   2   2
#     4  11  23  43  70  97 129 179 224 270 339 394
#     4  10  24  46  66  91 132 180 228 275 326 392
#     4  11  20  39  67  95 135 173 210 271 337 401
#     4  11  21  39  65  96 143 172 211 267 341 410
#     4  10  21  38  59  97 138 178 208 262 331 406
#     4  10  21  46  66  91 135 174 222 282 330 382
#     4  11  22  43  69 100 133 174 218 283 332 391
#     4  10  21  39  62  97 129 171 210 271 332 392
#
# _framework density 23.298058999999999
#
# number of rings (size 3 to 8) (size 9 to 14) (size 15 to 20)
#    0.000    1.500    5.000    1.125    0.000    1.500 
#   29.250    0.000    0.000    0.000    0.000    0.000 
#    0.000    0.000    0.000    0.000    0.000    0.000 
#
# Total GULP energy -198260.045537 kJ/mol
# GULP energy per Si atom -12391.252846 kJ/mol
# Density = 2.324503 g / cm^3
# Si number density = 23.298059 Si / 1000 Ang^3
#
#
#
# Elastic Constant Matrix: (Units=GPa)
#
#
# Indices 1 2 3 4 5 6 
#
# 1 46.0521 9.3566 22.2293 7.2592 8.8068 -3.6551
# 2 9.3566 81.2828 25.4740 21.0906 25.5503 9.5484
# 3 22.2293 25.4740 137.3204 27.5319 26.1525 -7.6644
# 4 7.2592 21.0906 27.5319 33.0139 1.4010 10.0072
# 5 8.8068 25.5503 26.1525 1.4010 24.8969 4.5659
# 6 -3.6551 9.5484 -7.6644 10.0072 4.5659 22.3560
#
#
#
# Elastic Compliance Matrix: (Units=1/GPa)
#
#
# Indices 1 2 3 4 5 6 
#
# 1 0.026137 0.002821 0.000848 -0.011057 -0.014475 0.011265
# 2 0.002821 0.026276 0.007010 -0.024778 -0.035774 0.010040
# 3 0.000848 0.007010 0.016711 -0.023142 -0.027191 0.018786
# 4 -0.011057 -0.024778 -0.023142 0.079507 0.057708 -0.046535
# 5 -0.014475 -0.035774 -0.027191 0.057708 0.115728 -0.045877
# 6 0.011265 0.010040 0.018786 -0.046535 -0.045877 0.078925
#
#
# Mechanical properties :
#
#
# Convention : Reuss Voigt Hill
#
# Bulk Modulus (GPa) = 11.05173 42.08613 26.56893
# Shear Modulus (GPa) = 14.20106 29.89304 22.04705
#
# Velocity S-wave (km/s) = 2.47156 3.58588 3.07954
# Velocity P-wave (km/s) = 3.59148 5.93702 4.90647
#
# Compressibility (1/GPa) = 0.09048358
#
# Stress axis : x y z
#
# Youngs Moduli (GPa) = 38.25968 38.05776 59.83906
#
# Poissons Ratio (x) = -0.10738 -0.05074
# Poissons Ratio (y) = -0.10795 -0.41948
# Poissons Ratio (z) = -0.03244 -0.26679
#
# Static dielectric constant tensor:
#      x y z
#    x 3.689060 0.100340 0.110140 
#    y 0.100340 4.170870 0.136600 
#    z 0.110140 0.136600 4.571760 
# 
# 
# High freq. dielectric constant tensor:
#      x y z
#    x 1.889270 0.008710 0.011170 
#    y 0.008710 1.913430 0.007780 
#    z 0.011170 0.007780 1.940160 
# 
# From -- ./inp_files/519551.got.cif
#   From: 2010.06.25/outbox.cif.g09.slc.cpg/sg2_260_cif.got.tgz:519551.got - 2010.06.27 13:26:56.
