data_PCOD8010976
_publ_section_title
;
Structure prediction by ZEFSAII (Michael W. Deem and Ramdas Pophale) SiO2 
 PCOD8010976
Probable space group: P -1
;
_chemical_formula_sum "Si O2"
_cell_formula_units_Z 16
_cell_length_a 17.852432
_cell_length_b 7.840059
_cell_length_c 6.684396
_cell_angle_alpha 51.914747
_cell_angle_beta 93.232533
_cell_angle_gamma 99.192745
_cell_volume 725.857356
_symmetry_space_group_name_H-M "P -1"
_symmetry_group_IT_number 2
_symmetry_cell_setting 'triclinic'
loop_
_space_group_symop_operation_xyz
x,y,z
-x,-y,-z
loop_
_atom_site_type_symbol
_atom_site_label
_atom_site_fract_x
_atom_site_fract_y
_atom_site_fract_z
Si Si1 0.518112 0.222042 0.204244
Si Si2 0.905661 0.654586 0.781942
Si Si3 0.362143 0.284461 0.240365
Si Si4 0.432766 0.614656 0.309582
Si Si5 0.773398 0.580013 0.118222
Si Si6 0.108922 0.183188 0.748837
Si Si7 0.651304 0.221631 0.459771
Si Si8 0.981945 0.270676 0.916381
O O1 0.449045 0.360355 0.119609
O O2 0.600400 0.343403 0.209787
O O3 0.500000 0.000000 0.500000
O O4 0.530623 0.203866 0.980624
O O5 0.880142 0.812562 0.492876
O O6 0.971751 0.782723 0.838469
O O7 0.833948 0.548297 0.979506
O O8 0.937086 0.468232 0.798100
O O9 0.366530 0.422062 0.349882
O O10 0.349324 0.021604 0.449161
O O11 0.295353 0.316575 0.057325
O O12 0.500000 0.500000 0.500000
O O13 0.389468 0.760838 0.345409
O O14 0.811296 0.733250 0.192356
O O15 0.738306 0.344755 0.378500
O O16 0.080890 0.936327 0.997059
O O17 0.043653 0.324472 0.708018
#
# Coordination Sequence:
#
# PCOD8010976 Si02
#       8
#     2   2   2   2   2   2   2   2
#     4  10  22  44  67  97 130 167 230 286 323 395
#     4  10  21  39  65  90 128 166 204 261 322 377
#     4  11  24  45  64  93 135 172 219 281 329 393
#     4  12  23  42  75  96 124 178 229 282 343 391
#     4  11  25  42  57  93 138 166 213 268 322 399
#     4  10  21  38  65  93 126 163 211 255 320 389
#     4  11  25  45  64  94 134 174 224 280 329 396
#     4   9  20  40  65  97 118 158 213 263 304 387
#
# _framework density 22.042895999999999
#
# number of rings (size 3 to 8) (size 9 to 14) (size 15 to 20)
#    0.000    1.500    2.500    1.875    1.750    4.000 
#    4.500    2.500    0.000    0.000    0.000    0.000 
#    0.000    0.000    0.000    0.000    0.000    0.000 
#
# Total GULP energy -198232.684658 kJ/mol
# GULP energy per Si atom -12389.542791 kJ/mol
# Density = 2.199273 g / cm^3
# Si number density = 22.042896 Si / 1000 Ang^3
#
#
#
# Elastic Constant Matrix: (Units=GPa)
#
#
# Indices 1 2 3 4 5 6 
#
# 1 85.5852 27.4946 26.5626 -5.9872 -1.2857 28.5461
# 2 27.4946 90.9268 16.0956 1.6715 1.1793 17.8826
# 3 26.5626 16.0956 114.8255 15.5419 -6.2705 11.3259
# 4 -5.9872 1.6715 15.5419 26.6977 0.8213 -3.0535
# 5 -1.2857 1.1793 -6.2705 0.8213 33.4264 3.5024
# 6 28.5461 17.8826 11.3259 -3.0535 3.5024 43.0459
#
#
#
# Elastic Compliance Matrix: (Units=1/GPa)
#
#
# Indices 1 2 3 4 5 6 
#
# 1 0.016945 -0.002898 -0.003233 0.004814 0.000964 -0.008919
# 2 -0.002898 0.012651 -0.000601 -0.001456 -0.000294 -0.003255
# 3 -0.003233 -0.000601 0.010737 -0.007133 0.002203 -0.001117
# 4 0.004814 -0.001456 -0.007133 0.043146 -0.002429 0.002548
# 5 0.000964 -0.000294 0.002203 -0.002429 0.030833 -0.003778
# 6 -0.008919 -0.003255 -0.001117 0.002548 -0.003778 0.031280
#
#
# Mechanical properties :
#
#
# Convention : Reuss Voigt Hill
#
# Bulk Modulus (GPa) = 37.21734 47.96034 42.58884
# Shear Modulus (GPa) = 29.75976 35.37965 32.56971
#
# Velocity S-wave (km/s) = 3.67834 4.01064 3.84807
# Velocity P-wave (km/s) = 5.91277 6.57662 6.25351
#
# Compressibility (1/GPa) = 0.02686920
#
# Stress axis : x y z
#
# Youngs Moduli (GPa) = 59.01488 79.04291 93.13676
#
# Poissons Ratio (x) = 0.22910 0.30108
# Poissons Ratio (y) = 0.17105 0.05597
# Poissons Ratio (z) = 0.19078 0.04750
#
# Static dielectric constant tensor:
#      x y z
#    x 4.152130 0.239130 -0.027960 
#    y 0.239130 3.985700 0.131060 
#    z -0.027960 0.131060 3.912150 
# 
# 
# High freq. dielectric constant tensor:
#      x y z
#    x 1.867090 0.013680 -0.000780 
#    y 0.013680 1.869660 0.002810 
#    z -0.000780 0.002810 1.870040 
# 
# From -- ./inp_files/104557.got.cif
#   From: 2010.06.25/outbox.cif.g09.slc.cpg/sg2_53_cif.got.tgz:104557.got - 2010.06.27 13:26:56.
