data_PCOD8010781
_publ_section_title
;
Structure prediction by ZEFSAII (Michael W. Deem and Ramdas Pophale) SiO2 
 PCOD8010781
Probable space group: P -1
;
_chemical_formula_sum "Si O2"
_cell_formula_units_Z 14
_cell_length_a 10.399186
_cell_length_b 10.912110
_cell_length_c 13.966860
_cell_angle_alpha 40.461581
_cell_angle_beta 49.376129
_cell_angle_gamma 77.844001
_cell_volume 636.906863
_symmetry_space_group_name_H-M "P -1"
_symmetry_group_IT_number 2
_symmetry_cell_setting 'triclinic'
loop_
_space_group_symop_operation_xyz
x,y,z
-x,-y,-z
loop_
_atom_site_type_symbol
_atom_site_label
_atom_site_fract_x
_atom_site_fract_y
_atom_site_fract_z
Si Si1 0.111867 0.687101 0.536550
Si Si2 0.693571 0.847578 0.747600
Si Si3 0.539093 0.880361 0.135715
Si Si4 0.581436 0.602288 0.136345
Si Si5 0.816976 0.747978 0.552165
Si Si6 0.286901 0.811257 0.956309
Si Si7 0.601089 0.896369 0.455528
O O1 0.316209 0.701811 0.400287
O O2 0.030823 0.766654 0.438694
O O3 0.172030 0.872124 0.482593
O O4 0.938134 0.426987 0.808392
O O5 0.761853 0.753429 0.686614
O O6 0.454565 0.751776 0.903424
O O7 0.733317 0.762752 0.880271
O O8 0.626658 0.744299 0.128021
O O9 0.703619 0.070350 0.018252
O O10 0.500000 0.000000 0.000000
O O11 0.351288 0.502350 0.265162
O O12 0.583364 0.380784 0.293534
O O13 0.805339 0.939273 0.385592
O O14 0.323605 0.992554 0.750309
O O15 0.500000 0.000000 0.500000
#
# Coordination Sequence:
#
# PCOD8010781 Si02
#       7
#     2   2   2   2   2   2   2
#     4  11  23  37  67  96 123 156 212 267 305 365
#     4  11  20  40  64  97 122 159 209 267 313 356
#     4  11  22  42  66  95 121 161 215 257 314 361
#     4  10  21  39  65  93 117 168 209 244 317 362
#     4  10  21  38  63  93 126 157 209 256 313 362
#     4  11  21  40  63  91 129 166 201 257 310 368
#     4  10  22  39  65  87 130 177 197 246 323 372
#
# _framework density 21.981235000000002
#
# number of rings (size 3 to 8) (size 9 to 14) (size 15 to 20)
#    0.857    0.571    5.714    0.857    2.000    2.857 
#    0.000    4.286    0.000    0.000    0.000    0.000 
#    0.000    0.000    0.000    0.000    0.000    0.000 
#
# Total GULP energy -173436.970827 kJ/mol
# GULP energy per Si atom -12388.355059 kJ/mol
# Density = 2.193120 g / cm^3
# Si number density = 21.981235 Si / 1000 Ang^3
#
#
#
# Elastic Constant Matrix: (Units=GPa)
#
#
# Indices 1 2 3 4 5 6 
#
# 1 46.0026 6.2739 20.2130 -2.5462 23.5712 1.3031
# 2 6.2739 104.0019 34.0243 -23.7920 11.7722 14.0193
# 3 20.2130 34.0243 121.5561 -24.4901 17.8965 12.3548
# 4 -2.5462 -23.7920 -24.4901 25.2292 0.4068 1.1606
# 5 23.5712 11.7722 17.8965 0.4068 42.2331 -5.0492
# 6 1.3031 14.0193 12.3548 1.1606 -5.0492 33.4543
#
#
#
# Elastic Compliance Matrix: (Units=1/GPa)
#
#
# Indices 1 2 3 4 5 6 
#
# 1 0.031972 0.002261 -0.002065 0.003845 -0.018151 -0.004303
# 2 0.002261 0.014522 0.000248 0.014624 -0.006482 -0.007751
# 3 -0.002065 0.000248 0.012285 0.012294 -0.004926 -0.005730
# 4 0.003845 0.014624 0.012294 0.066674 -0.013895 -0.015228
# 5 -0.018151 -0.006482 -0.004926 -0.013895 0.039229 0.011645
# 6 -0.004303 -0.007751 -0.005730 -0.015228 0.011645 0.037709
#
#
# Mechanical properties :
#
#
# Convention : Reuss Voigt Hill
#
# Bulk Modulus (GPa) = 16.75984 43.62034 30.19009
# Shear Modulus (GPa) = 22.58440 34.25328 28.41884
#
# Velocity S-wave (km/s) = 3.20885 3.95181 3.59955
# Velocity P-wave (km/s) = 4.62278 6.38043 5.57135
#
# Compressibility (1/GPa) = 0.05966644
#
# Stress axis : x y z
#
# Youngs Moduli (GPa) = 31.27754 68.86200 81.39929
#
# Poissons Ratio (x) = -0.15570 0.16809
# Poissons Ratio (y) = -0.07072 -0.02017
# Poissons Ratio (z) = 0.06459 -0.01707
#
# Static dielectric constant tensor:
#      x y z
#    x 3.900740 0.198160 0.024550 
#    y 0.198160 4.546560 -0.006160 
#    z 0.024550 -0.006160 3.980680 
# 
# 
# High freq. dielectric constant tensor:
#      x y z
#    x 1.837750 0.011460 0.002380 
#    y 0.011460 1.864870 -0.015760 
#    z 0.002380 -0.015760 1.856010 
# 
# From -- ./inp_files/517596.got.cif
#   From: 2010.06.25/outbox.cif.g09.slc.cpg/sg2_259_cif.got.tgz:517596.got - 2010.06.27 13:26:56.
