data_PCOD8010007
_publ_section_title
;
Structure prediction by ZEFSAII (Michael W. Deem and Ramdas Pophale) SiO2 
 PCOD8010007
Probable space group: P -1
;
_chemical_formula_sum "Si O2"
_cell_formula_units_Z 14
_cell_length_a 20.612136
_cell_length_b 5.015976
_cell_length_c 8.200143
_cell_angle_alpha 64.061582
_cell_angle_beta 56.564490
_cell_angle_gamma 56.343185
_cell_volume 578.171124
_symmetry_space_group_name_H-M "P -1"
_symmetry_group_IT_number 2
_symmetry_cell_setting 'triclinic'
loop_
_space_group_symop_operation_xyz
x,y,z
-x,-y,-z
loop_
_atom_site_type_symbol
_atom_site_label
_atom_site_fract_x
_atom_site_fract_y
_atom_site_fract_z
Si Si1 0.856727 0.931647 0.833085
Si Si2 0.682762 0.003946 0.188452
Si Si3 0.480471 0.409153 0.732847
Si Si4 0.619027 0.950877 0.890875
Si Si5 0.913368 0.178364 0.975937
Si Si6 0.275551 0.687785 0.291315
Si Si7 0.736999 0.278545 0.321077
O O1 0.828594 0.134828 0.647728
O O2 0.895939 0.547453 0.865694
O O3 0.760626 0.094415 0.999729
O O4 0.922013 0.017997 0.827971
O O5 0.589677 0.253444 0.188069
O O6 0.692454 0.061941 0.356496
O O7 0.694987 0.646824 0.211800
O O8 0.500000 0.500000 0.500000
O O9 0.563211 0.269290 0.772282
O O10 0.439264 0.144134 0.876815
O O11 0.675950 0.660100 0.767892
O O12 0.681507 0.058424 0.887177
O O13 0.839497 0.130358 0.192856
O O14 0.000000 0.000000 0.000000
O O15 0.286183 0.672649 0.472203
#
# Coordination Sequence:
#
# PCOD8010007 Si02
#       7
#     2   2   2   2   2   2   2
#     4  10  21  37  64  85 119 164 195 247 307 363
#     4  10  21  39  59  86 116 162 215 247 302 370
#     4  11  23  42  62  90 127 169 212 264 322 365
#     4  11  27  40  61  92 128 166 211 272 312 356
#     4  10  21  40  62  94 123 154 200 248 303 375
#     4  12  22  44  60  90 124 162 211 254 309 370
#     4  10  22  37  65  89 118 163 205 255 302 371
#
# _framework density 24.214283999999999
#
# number of rings (size 3 to 8) (size 9 to 14) (size 15 to 20)
#    0.000    1.429    1.429    3.857    4.000    3.429 
#    0.000    6.429    0.000    0.000    0.000    0.000 
#    0.000    0.000    0.000    0.000    0.000    0.000 
#
# Total GULP energy -173459.653837 kJ/mol
# GULP energy per Si atom -12389.975274 kJ/mol
# Density = 2.415917 g / cm^3
# Si number density = 24.214284 Si / 1000 Ang^3
#
#
#
# Elastic Constant Matrix: (Units=GPa)
#
#
# Indices 1 2 3 4 5 6 
#
# 1 140.4995 34.2071 3.2666 -9.2141 12.9465 1.0457
# 2 34.2071 88.2473 6.8761 -11.0942 -4.3393 -4.2074
# 3 3.2666 6.8761 63.2210 -8.9178 7.9046 -7.3021
# 4 -9.2141 -11.0942 -8.9178 21.9130 -0.6524 14.6603
# 5 12.9465 -4.3393 7.9046 -0.6524 25.0264 -1.3593
# 6 1.0457 -4.2074 -7.3021 14.6603 -1.3593 51.9090
#
#
#
# Elastic Compliance Matrix: (Units=1/GPa)
#
#
# Indices 1 2 3 4 5 6 
#
# 1 0.008607 -0.003350 0.000852 0.002987 -0.005295 -0.001307
# 2 -0.003350 0.013607 -0.001162 0.005413 0.004579 -0.000402
# 3 0.000852 -0.001162 0.017613 0.006511 -0.006016 0.000370
# 4 0.002987 0.005413 0.006511 0.063364 -0.001916 -0.016651
# 5 -0.005295 0.004579 -0.006016 -0.001916 0.045415 0.001362
# 6 -0.001307 -0.000402 0.000370 -0.016651 0.001362 0.024049
#
#
# Mechanical properties :
#
#
# Convention : Reuss Voigt Hill
#
# Bulk Modulus (GPa) = 30.76245 42.29639 36.52942
# Shear Modulus (GPa) = 26.20392 36.27754 31.24073
#
# Velocity S-wave (km/s) = 3.29320 3.87484 3.59580
# Velocity P-wave (km/s) = 5.21460 6.12574 5.68844
#
# Compressibility (1/GPa) = 0.03250716
#
# Stress axis : x y z
#
# Youngs Moduli (GPa) = 116.18730 73.48988 56.77553
#
# Poissons Ratio (x) = 0.24618 -0.04837
# Poissons Ratio (y) = 0.38921 0.06599
# Poissons Ratio (z) = -0.09900 0.08541
#
# Static dielectric constant tensor:
#      x y z
#    x 4.818900 0.039360 0.281510 
#    y 0.039360 4.411860 -0.009650 
#    z 0.281510 -0.009650 4.687860 
# 
# 
# High freq. dielectric constant tensor:
#      x y z
#    x 1.976470 0.002790 0.031150 
#    y 0.002790 1.964190 -0.008640 
#    z 0.031150 -0.008640 1.953710 
# 
# From -- ./inp_files/340126.got.cif
#   From: 2010.06.25/outbox.cif.g09.slc.cpg/sg2_171_cif.got.tgz:340126.got - 2010.06.27 13:26:56.
