data_PCOD8010191
_publ_section_title
;
Structure prediction by ZEFSAII (Michael W. Deem and Ramdas Pophale) SiO2 
 PCOD8010191
Probable space group: P -1
;
_chemical_formula_sum "Si O2"
_cell_formula_units_Z 14
_cell_length_a 12.026807
_cell_length_b 9.433317
_cell_length_c 9.491701
_cell_angle_alpha 118.372189
_cell_angle_beta 126.321256
_cell_angle_gamma 52.741604
_cell_volume 679.049717
_symmetry_space_group_name_H-M "P -1"
_symmetry_group_IT_number 2
_symmetry_cell_setting 'triclinic'
loop_
_space_group_symop_operation_xyz
x,y,z
-x,-y,-z
loop_
_atom_site_type_symbol
_atom_site_label
_atom_site_fract_x
_atom_site_fract_y
_atom_site_fract_z
Si Si1 0.741792 0.484971 0.665702
Si Si2 0.535948 0.469943 0.850010
Si Si3 0.575659 0.819573 0.385910
Si Si4 0.626733 0.894112 0.161590
Si Si5 0.166377 0.504771 0.967096
Si Si6 0.903621 0.584674 0.606787
Si Si7 0.414709 0.739190 0.638113
O O1 0.830432 0.468308 0.577233
O O2 0.582929 0.674825 0.657507
O O3 0.691457 0.325314 0.562528
O O4 0.861763 0.467633 0.872865
O O5 0.489462 0.320133 0.681119
O O6 0.443575 0.653357 0.776684
O O7 0.500000 0.500000 0.000000
O O8 0.717695 0.411476 0.944797
O O9 0.546152 0.845913 0.208968
O O10 0.756186 0.760249 0.524541
O O11 0.500000 0.000000 0.500000
O O12 0.767082 0.709003 0.122671
O O13 0.681487 0.042521 0.324196
O O14 0.500000 0.000000 0.000000
O O15 0.009132 0.622634 0.817642
O O16 0.000000 0.500000 0.500000
#
# Coordination Sequence:
#
# PCOD8010191 Si02
#       7
#     2   2   2   2   2   2   2
#     4  10  21  39  66  91 125 180 220 256 326 393
#     4  11  19  40  64 100 126 177 221 267 329 388
#     4  12  26  41  71  97 130 171 230 276 317 387
#     4  12  21  39  62 101 132 165 223 273 320 381
#     4  11  24  39  68  95 134 176 216 270 330 400
#     4  12  23  45  65  99 137 177 213 269 348 395
#     4  10  21  37  68  96 129 169 226 273 308 391
#
# _framework density 20.617046999999999
#
# number of rings (size 3 to 8) (size 9 to 14) (size 15 to 20)
#    0.000    0.857    7.143    1.286    4.000    0.000 
#    0.000    1.429    0.000    0.000    0.000    0.000 
#    0.000    0.000    0.000    0.000    0.000    0.000 
#
# Total GULP energy -173487.709909 kJ/mol
# GULP energy per Si atom -12391.979279 kJ/mol
# Density = 2.057012 g / cm^3
# Si number density = 20.617047 Si / 1000 Ang^3
#
#
#
# Elastic Constant Matrix: (Units=GPa)
#
#
# Indices 1 2 3 4 5 6 
#
# 1 115.6176 40.8256 40.1424 -4.2260 -11.6497 7.3653
# 2 40.8256 86.1758 42.4717 7.2343 7.2452 -1.2341
# 3 40.1424 42.4717 125.2782 -8.3317 6.8644 -8.0809
# 4 -4.2260 7.2343 -8.3317 40.4408 1.3574 -1.6319
# 5 -11.6497 7.2452 6.8644 1.3574 36.4201 -1.9840
# 6 7.3653 -1.2341 -8.0809 -1.6319 -1.9840 28.8470
#
#
#
# Elastic Compliance Matrix: (Units=1/GPa)
#
#
# Indices 1 2 3 4 5 6 
#
# 1 0.012135 -0.005062 -0.002599 0.001320 0.005132 -0.003615
# 2 -0.005062 0.016708 -0.004081 -0.004210 -0.003998 0.000351
# 3 -0.002599 -0.004081 0.010724 0.002876 -0.001956 0.003521
# 4 0.001320 -0.004210 0.002876 0.026288 -0.000166 0.001764
# 5 0.005132 -0.003998 -0.001956 -0.000166 0.030272 0.000043
# 6 -0.003615 0.000351 0.003521 0.001764 0.000043 0.036693
#
#
# Mechanical properties :
#
#
# Convention : Reuss Voigt Hill
#
# Bulk Modulus (GPa) = 62.17461 63.77232 62.97347
# Shear Modulus (GPa) = 30.92859 34.71703 32.82281
#
# Velocity S-wave (km/s) = 3.87737 4.10799 3.99434
# Velocity P-wave (km/s) = 7.08997 7.31435 7.20304
#
# Compressibility (1/GPa) = 0.01608373
#
# Stress axis : x y z
#
# Youngs Moduli (GPa) = 82.40901 59.85143 93.24974
#
# Poissons Ratio (x) = 0.30297 0.24233
# Poissons Ratio (y) = 0.41716 0.38052
# Poissons Ratio (z) = 0.21416 0.24423
#
# Static dielectric constant tensor:
#      x y z
#    x 4.103100 0.310410 -0.141510 
#    y 0.310410 3.836990 0.082760 
#    z -0.141510 0.082760 4.218920 
# 
# 
# High freq. dielectric constant tensor:
#      x y z
#    x 1.808460 0.022690 -0.017550 
#    y 0.022690 1.772780 -0.006150 
#    z -0.017550 -0.006150 1.828120 
# 
# From -- ./inp_files/418274.got.cif
#   From: 2010.06.25/outbox.cif.g09.slc.cpg/sg2_210_cif.got.tgz:418274.got - 2010.06.27 13:26:56.
