data_PCOD8010879
_publ_section_title
;
Structure prediction by ZEFSAII (Michael W. Deem and Ramdas Pophale) SiO2 
 PCOD8010879
Probable space group: P -1
;
_chemical_formula_sum "Si O2"
_cell_formula_units_Z 16
_cell_length_a 19.955056
_cell_length_b 10.418966
_cell_length_c 6.429669
_cell_angle_alpha 60.494689
_cell_angle_beta 51.484556
_cell_angle_gamma 45.699912
_cell_volume 744.620690
_symmetry_space_group_name_H-M "P -1"
_symmetry_group_IT_number 2
_symmetry_cell_setting 'triclinic'
loop_
_space_group_symop_operation_xyz
x,y,z
-x,-y,-z
loop_
_atom_site_type_symbol
_atom_site_label
_atom_site_fract_x
_atom_site_fract_y
_atom_site_fract_z
Si Si1 0.446626 0.179389 0.328705
Si Si2 0.446728 0.753652 0.271033
Si Si3 0.612422 0.518441 0.471350
Si Si4 0.815622 0.941321 0.833387
Si Si5 0.092013 0.298904 0.519651
Si Si6 0.829578 0.186764 0.308251
Si Si7 0.291565 0.097017 0.561886
Si Si8 0.047912 0.081603 0.050729
O O1 0.410105 0.359353 0.382046
O O2 0.350741 0.193833 0.386745
O O3 0.500000 0.000000 0.500000
O O4 0.533346 0.148647 0.025198
O O5 0.552126 0.647291 0.289927
O O6 0.424646 0.614628 0.327713
O O7 0.348683 0.914115 0.461796
O O8 0.738162 0.398582 0.290628
O O9 0.856638 0.767412 0.752831
O O10 0.910655 0.901133 0.825644
O O11 0.778830 0.104382 0.611434
O O12 0.722134 0.969835 0.133812
O O13 0.180422 0.253923 0.553522
O O14 0.000000 0.500000 0.500000
O O15 0.034741 0.210786 0.785850
O O16 0.932179 0.135697 0.278340
O O17 0.866280 0.115045 0.057980
#
# Coordination Sequence:
#
# PCOD8010879 Si02
#       8
#     2   2   2   2   2   2   2   2
#     4  12  27  43  67  99 131 175 224 274 334 395
#     4  11  25  47  66  93 135 172 225 275 326 393
#     4  11  25  41  68  99 128 175 221 278 323 395
#     4  10  21  39  65  90 128 170 221 264 331 396
#     4  10  23  39  61  92 129 169 214 270 327 394
#     4  10  21  38  64  93 130 168 217 274 326 386
#     4  11  25  42  68  94 128 178 217 272 339 390
#     4   9  20  39  60  94 126 170 216 269 329 385
#
# _framework density 21.487451
#
# number of rings (size 3 to 8) (size 9 to 14) (size 15 to 20)
#    0.000    1.500    1.250    3.375    3.500    8.000 
#    0.000    0.000    0.000    0.000    0.000    0.000 
#    0.000    0.000    0.000    0.000    0.000    0.000 
#
# Total GULP energy -198309.867237 kJ/mol
# GULP energy per Si atom -12394.366702 kJ/mol
# Density = 2.143854 g / cm^3
# Si number density = 21.487451 Si / 1000 Ang^3
#
#
#
# Elastic Constant Matrix: (Units=GPa)
#
#
# Indices 1 2 3 4 5 6 
#
# 1 91.0334 30.7684 21.1204 3.6895 5.2470 12.1302
# 2 30.7684 127.9100 41.0525 14.8654 1.7916 -8.3521
# 3 21.1204 41.0525 115.7089 7.8979 -0.8361 4.4719
# 4 3.6895 14.8654 7.8979 26.7660 0.7763 1.2260
# 5 5.2470 1.7916 -0.8361 0.7763 27.5777 -1.9928
# 6 12.1302 -8.3521 4.4719 1.2260 -1.9928 41.3534
#
#
#
# Elastic Compliance Matrix: (Units=1/GPa)
#
#
# Indices 1 2 3 4 5 6 
#
# 1 0.013020 -0.003073 -0.001170 0.000538 -0.002650 -0.004457
# 2 -0.003073 0.010237 -0.002890 -0.004572 0.000208 0.003427
# 3 -0.001170 -0.002890 0.010013 -0.001150 0.000655 -0.001258
# 4 0.000538 -0.004572 -0.001150 0.040299 -0.001134 -0.002206
# 5 -0.002650 0.000208 0.000655 -0.001134 0.036989 0.002565
# 6 -0.004457 0.003427 -0.001258 -0.002206 0.002565 0.026506
#
#
# Mechanical properties :
#
#
# Convention : Reuss Voigt Hill
#
# Bulk Modulus (GPa) = 52.61946 57.83722 55.22834
# Shear Modulus (GPa) = 31.71292 35.25349 33.48320
#
# Velocity S-wave (km/s) = 3.84589 4.05489 3.95177
# Velocity P-wave (km/s) = 6.65303 6.99271 6.82498
#
# Compressibility (1/GPa) = 0.01900438
#
# Stress axis : x y z
#
# Youngs Moduli (GPa) = 76.80598 97.68585 99.86953
#
# Poissons Ratio (x) = 0.30017 0.11684
# Poissons Ratio (y) = 0.23601 0.28862
# Poissons Ratio (z) = 0.08986 0.28231
#
# Static dielectric constant tensor:
#      x y z
#    x 4.554090 0.201300 -0.139880 
#    y 0.201300 3.868580 0.021720 
#    z -0.139880 0.021720 3.994020 
# 
# 
# High freq. dielectric constant tensor:
#      x y z
#    x 1.857230 -0.007280 0.000990 
#    y -0.007280 1.834640 0.005560 
#    z 0.000990 0.005560 1.844660 
# 
# From -- ./inp_files/106726.got.cif
#   From: 2010.06.25/outbox.cif.g09.slc.cpg/sg2_54_cif.got.tgz:106726.got - 2010.06.27 13:26:56.
