data_PCOD8010269
_publ_section_title
;
Structure prediction by ZEFSAII (Michael W. Deem and Ramdas Pophale) SiO2 
 PCOD8010269
Probable space group: P -1
;
_chemical_formula_sum "Si O2"
_cell_formula_units_Z 14
_cell_length_a 12.772893
_cell_length_b 13.716106
_cell_length_c 9.566533
_cell_angle_alpha 123.070513
_cell_angle_beta 89.377165
_cell_angle_gamma 136.068452
_cell_volume 734.435531
_symmetry_space_group_name_H-M "P -1"
_symmetry_group_IT_number 2
_symmetry_cell_setting 'triclinic'
loop_
_space_group_symop_operation_xyz
x,y,z
-x,-y,-z
loop_
_atom_site_type_symbol
_atom_site_label
_atom_site_fract_x
_atom_site_fract_y
_atom_site_fract_z
Si Si1 0.638908 0.749934 0.859481
Si Si2 0.346381 0.284382 0.471528
Si Si3 0.077911 0.476400 0.879906
Si Si4 0.984355 0.848571 0.669404
Si Si5 0.466215 0.155685 0.851713
Si Si6 0.935221 0.338390 0.476959
Si Si7 0.812028 0.008645 0.496679
O O1 0.552480 0.537646 0.718931
O O2 0.625453 0.770021 0.709057
O O3 0.519302 0.729728 0.941049
O O4 0.869069 0.961435 0.066819
O O5 0.245179 0.121282 0.471369
O O6 0.222305 0.279996 0.418038
O O7 0.014284 0.460735 0.717503
O O8 0.317377 0.693238 0.057963
O O9 0.967025 0.251096 0.741739
O O10 0.000000 0.500000 0.000000
O O11 0.957713 0.685033 0.570589
O O12 0.076624 0.959800 0.600539
O O13 0.386345 0.125893 0.679054
O O14 0.306035 0.907457 0.713797
O O15 0.000000 0.500000 0.500000
#
# Coordination Sequence:
#
# PCOD8010269 Si02
#       7
#     2   2   2   2   2   2   2
#     4   9  20  33  51  76 109 146 175 217 276 323
#     4  11  19  33  54  82 110 139 184 225 263 324
#     4  10  21  38  58  80 107 142 185 232 275 321
#     4   9  19  35  53  76 112 145 176 222 266 321
#     4   9  20  40  55  76 114 144 178 227 277 330
#     4   9  20  37  57  83 110 146 185 219 273 330
#     4   9  21  34  54  82 108 143 183 221 273 329
#
# _framework density 19.062258
#
# number of rings (size 3 to 8) (size 9 to 14) (size 15 to 20)
#    0.000    3.143    0.000    2.571    0.000    8.571 
#    0.000    7.143    0.000    0.000    0.000    0.000 
#    0.000    0.000    0.000    0.000    0.000    0.000 
#
# Total GULP energy -173483.819984 kJ/mol
# GULP energy per Si atom -12391.701427 kJ/mol
# Density = 1.901887 g / cm^3
# Si number density = 19.062258 Si / 1000 Ang^3
#
#
#
# Elastic Constant Matrix: (Units=GPa)
#
#
# Indices 1 2 3 4 5 6 
#
# 1 80.4161 56.6905 48.6929 -1.9335 -3.4249 7.5084
# 2 56.6905 116.9567 38.6642 6.5811 2.3998 -27.9799
# 3 48.6929 38.6642 118.7582 6.8814 -4.1145 1.6582
# 4 -1.9335 6.5811 6.8814 16.3884 -0.8410 -1.3885
# 5 -3.4249 2.3998 -4.1145 -0.8410 9.5968 0.5728
# 6 7.5084 -27.9799 1.6582 -1.3885 0.5728 34.0943
#
#
#
# Elastic Compliance Matrix: (Units=1/GPa)
#
#
# Indices 1 2 3 4 5 6 
#
# 1 0.036550 -0.022703 -0.007481 0.015312 0.018408 -0.026003
# 2 -0.022703 0.026946 0.000266 -0.012225 -0.017403 0.026895
# 3 -0.007481 0.000266 0.011781 -0.005759 0.001749 0.001029
# 4 0.015312 -0.012225 -0.005759 0.069921 0.012806 -0.010492
# 5 0.018408 -0.017403 0.001749 0.012806 0.118182 -0.019885
# 6 -0.026003 0.026895 0.001029 -0.010492 -0.019885 0.056985
#
#
# Mechanical properties :
#
#
# Convention : Reuss Voigt Hill
#
# Bulk Modulus (GPa) = 64.76533 67.13624 65.95079
# Shear Modulus (GPa) = 12.97524 23.48813 18.23168
#
# Velocity S-wave (km/s) = 2.61181 3.51405 3.09597
# Velocity P-wave (km/s) = 6.56847 7.19449 6.88860
#
# Compressibility (1/GPa) = 0.01544036
#
# Stress axis : x y z
#
# Youngs Moduli (GPa) = 27.35974 37.11131 84.88055
#
# Poissons Ratio (x) = 0.84254 0.63500
# Poissons Ratio (y) = 0.62115 -0.02256
# Poissons Ratio (z) = 0.20468 -0.00986
#
# Static dielectric constant tensor:
#      x y z
#    x 3.217650 0.091750 0.001590 
#    y 0.091750 3.351510 -0.033130 
#    z 0.001590 -0.033130 3.760880 
# 
# 
# High freq. dielectric constant tensor:
#      x y z
#    x 1.715210 0.012370 -0.002260 
#    y 0.012370 1.733370 0.002000 
#    z -0.002260 0.002000 1.763860 
# 
# From -- ./inp_files/258793.got.cif
#   From: 2010.06.25/outbox.cif.g09.slc.cpg/sg2_130_cif.got.tgz:258793.got - 2010.06.27 13:26:56.
