data_PCOD8010968
_publ_section_title
;
Structure prediction by ZEFSAII (Michael W. Deem and Ramdas Pophale) SiO2 
 PCOD8010968
Probable space group: P -1
;
_chemical_formula_sum "Si O2"
_cell_formula_units_Z 16
_cell_length_a 18.591098
_cell_length_b 13.425898
_cell_length_c 8.463152
_cell_angle_alpha 100.546312
_cell_angle_beta 65.987278
_cell_angle_gamma 155.411444
_cell_volume 699.000676
_symmetry_space_group_name_H-M "P -1"
_symmetry_group_IT_number 2
_symmetry_cell_setting 'triclinic'
loop_
_space_group_symop_operation_xyz
x,y,z
-x,-y,-z
loop_
_atom_site_type_symbol
_atom_site_label
_atom_site_fract_x
_atom_site_fract_y
_atom_site_fract_z
Si Si1 0.514366 0.641587 0.890440
Si Si2 0.915218 0.412725 0.722134
Si Si3 0.042461 0.100040 0.159788
Si Si4 0.380710 0.409569 0.433825
Si Si5 0.085955 0.372190 0.084536
Si Si6 0.663779 0.102358 0.380662
Si Si7 0.543864 0.870220 0.745107
Si Si8 0.661035 0.902228 0.157296
O O1 0.615489 0.657658 0.744684
O O2 0.517555 0.719486 0.758254
O O3 0.271972 0.332981 0.078906
O O4 0.642797 0.845213 0.977364
O O5 0.000000 0.500000 0.500000
O O6 0.902749 0.517587 0.782854
O O7 0.083146 0.561560 0.742087
O O8 0.679367 0.079772 0.833002
O O9 0.050287 0.231193 0.183787
O O10 0.861550 0.852878 0.376078
O O11 0.000000 0.000000 0.000000
O O12 0.500000 0.500000 0.500000
O O13 0.495620 0.650575 0.351418
O O14 0.901176 0.158974 0.059271
O O15 0.310715 0.640071 0.871133
O O16 0.500000 0.000000 0.500000
O O17 0.649401 0.013926 0.522679
O O18 0.623634 0.979880 0.231304
#
# Coordination Sequence:
#
# PCOD8010968 Si02
#       8
#     2   2   2   2   2   2   2   2
#     4  11  25  42  65 102 135 166 221 268 324 397
#     4   9  20  37  63  91 126 163 216 262 314 384
#     4  11  23  40  67  99 126 171 223 263 323 395
#     4  12  22  42  74  91 132 177 213 268 333 381
#     4  10  21  38  65  92 128 166 210 267 322 387
#     4  10  23  42  65  92 132 171 217 266 323 386
#     4  10  22  41  66  94 126 169 219 261 325 382
#     4  11  24  43  62  98 135 167 214 271 326 387
#
# _framework density 22.889821000000001
#
# number of rings (size 3 to 8) (size 9 to 14) (size 15 to 20)
#    0.000    1.500    2.500    1.500    5.250    6.500 
#    2.250    2.500    0.000    0.000    0.000    0.000 
#    0.000    0.000    0.000    0.000    0.000    0.000 
#
# Total GULP energy -198333.989887 kJ/mol
# GULP energy per Si atom -12395.874368 kJ/mol
# Density = 2.283772 g / cm^3
# Si number density = 22.889821 Si / 1000 Ang^3
#
#
#
# Elastic Constant Matrix: (Units=GPa)
#
#
# Indices 1 2 3 4 5 6 
#
# 1 57.3005 19.8923 17.3909 -1.6657 -16.7405 -3.2744
# 2 19.8923 137.2821 46.1133 -3.9932 -23.9599 4.6908
# 3 17.3909 46.1133 88.0145 -6.4192 -24.5156 8.7087
# 4 -1.6657 -3.9932 -6.4192 45.6781 -3.1087 -4.8559
# 5 -16.7405 -23.9599 -24.5156 -3.1087 35.0949 4.0142
# 6 -3.2744 4.6908 8.7087 -4.8559 4.0142 26.1122
#
#
#
# Elastic Compliance Matrix: (Units=1/GPa)
#
#
# Indices 1 2 3 4 5 6 
#
# 1 0.020787 -0.001193 -0.001398 0.001244 0.007972 0.002293
# 2 -0.001193 0.009298 -0.003531 0.000392 0.003474 -0.001104
# 3 -0.001398 -0.003531 0.016950 0.002010 0.009662 -0.006306
# 4 0.001244 0.000392 0.002010 0.022848 0.003939 0.003059
# 5 0.007972 0.003474 0.009662 0.003939 0.042761 -0.008688
# 6 0.002293 -0.001104 -0.006306 0.003059 -0.008688 0.042789
#
#
# Mechanical properties :
#
#
# Convention : Reuss Voigt Hill
#
# Bulk Modulus (GPa) = 28.74258 49.93225 39.33742
# Shear Modulus (GPa) = 27.89049 34.65708 31.27379
#
# Velocity S-wave (km/s) = 3.49444 3.89534 3.70033
# Velocity P-wave (km/s) = 5.37268 6.48792 5.95646
#
# Compressibility (1/GPa) = 0.03479159
#
# Stress axis : x y z
#
# Youngs Moduli (GPa) = 48.10799 107.54425 58.99872
#
# Poissons Ratio (x) = 0.12833 0.08246
# Poissons Ratio (y) = 0.05741 0.20830
# Poissons Ratio (z) = 0.06724 0.37969
#
# Static dielectric constant tensor:
#      x y z
#    x 2.608980 0.307150 1.188580 
#    y 0.307150 4.919020 -0.669170 
#    z 1.188580 -0.669170 2.636940 
# 
# 
# High freq. dielectric constant tensor:
#      x y z
#    x 1.885530 -0.006490 -0.012140 
#    y -0.006490 1.925960 -0.005490 
#    z -0.012140 -0.005490 1.902690 
# 
# From -- ./inp_files/221736.got.cif
#   From: 2010.06.25/outbox.cif.g09.slc.cpg/sg2_111_cif.got.tgz:221736.got - 2010.06.27 13:26:56.
