data_PCOD8010900
_publ_section_title
;
Structure prediction by ZEFSAII (Michael W. Deem and Ramdas Pophale) SiO2 
 PCOD8010900
Probable space group: P -1
;
_chemical_formula_sum "Si O2"
_cell_formula_units_Z 14
_cell_length_a 11.546527
_cell_length_b 10.229830
_cell_length_c 8.041625
_cell_angle_alpha 68.926664
_cell_angle_beta 113.983580
_cell_angle_gamma 63.933518
_cell_volume 588.585413
_symmetry_space_group_name_H-M "P -1"
_symmetry_group_IT_number 2
_symmetry_cell_setting 'triclinic'
loop_
_space_group_symop_operation_xyz
x,y,z
-x,-y,-z
loop_
_atom_site_type_symbol
_atom_site_label
_atom_site_fract_x
_atom_site_fract_y
_atom_site_fract_z
Si Si1 0.868793 0.640780 0.500964
Si Si2 0.830123 0.449977 0.119964
Si Si3 0.270428 0.794195 0.344664
Si Si4 0.501372 0.161200 0.384794
Si Si5 0.683983 0.056775 0.193834
Si Si6 0.912290 0.098961 0.159982
Si Si7 0.345663 0.439346 0.676198
O O1 0.756365 0.586905 0.499688
O O2 0.000000 0.500000 0.500000
O O3 0.983312 0.610499 0.736082
O O4 0.735765 0.860943 0.256331
O O5 0.855661 0.291941 0.102539
O O6 0.756837 0.470357 0.250707
O O7 0.698074 0.648001 0.852015
O O8 0.415271 0.807465 0.434261
O O9 0.364681 0.575462 0.539799
O O10 0.191754 0.857576 0.087790
O O11 0.118069 0.934473 0.326381
O O12 0.620615 0.103000 0.323361
O O13 0.500000 0.000000 0.500000
O O14 0.857265 0.022444 0.297923
O O15 0.537386 0.231743 0.908508
#
# Coordination Sequence:
#
# PCOD8010900 Si02
#       7
#     2   2   2   2   2   2   2
#     4  10  21  38  64  96 129 167 215 264 312 378
#     4  10  22  41  66  93 128 174 215 261 320 383
#     4  11  25  43  65  97 133 168 213 270 317 378
#     4  11  26  45  66  96 131 167 214 268 323 382
#     4  11  23  42  69  94 128 172 214 263 322 384
#     4  11  24  42  67  97 130 171 217 262 321 381
#     4  10  22  40  65  97 129 167 217 264 319 380
#
# _framework density 23.785841000000001
#
# number of rings (size 3 to 8) (size 9 to 14) (size 15 to 20)
#    0.000    1.429    0.000    4.714    0.000   14.286 
#    0.000    2.143    0.000    0.000    0.000    0.000 
#    0.000    0.000    0.000    0.000    0.000    0.000 
#
# Total GULP energy -173635.498572 kJ/mol
# GULP energy per Si atom -12402.535612 kJ/mol
# Density = 2.373170 g / cm^3
# Si number density = 23.785841 Si / 1000 Ang^3
#
#
#
# Elastic Constant Matrix: (Units=GPa)
#
#
# Indices 1 2 3 4 5 6 
#
# 1 111.7826 42.0025 37.5824 -1.0119 12.3208 33.4421
# 2 42.0025 127.5328 35.1704 -24.7701 3.2665 35.9583
# 3 37.5824 35.1704 94.1159 -22.1437 6.1104 21.2168
# 4 -1.0119 -24.7701 -22.1437 41.3881 4.3585 4.6230
# 5 12.3208 3.2665 6.1104 4.3585 30.3123 -0.9349
# 6 33.4421 35.9583 21.2168 4.6230 -0.9349 51.9036
#
#
#
# Elastic Compliance Matrix: (Units=1/GPa)
#
#
# Indices 1 2 3 4 5 6 
#
# 1 0.012905 -0.001971 -0.003237 -0.001517 -0.004334 -0.005569
# 2 -0.001971 0.012518 0.000148 0.008666 -0.002079 -0.008272
# 3 -0.003237 0.000148 0.015405 0.009177 -0.003285 -0.005191
# 4 -0.001517 0.008666 0.009177 0.036398 -0.007775 -0.012159
# 5 -0.004334 -0.002079 -0.003285 -0.007775 0.036970 0.006934
# 6 -0.005569 -0.008272 -0.005191 -0.012159 0.006934 0.031915
#
#
# Mechanical properties :
#
#
# Convention : Reuss Voigt Hill
#
# Bulk Modulus (GPa) = 32.56468 62.54908 47.55688
# Shear Modulus (GPa) = 30.03595 39.29921 34.66758
#
# Velocity S-wave (km/s) = 3.55740 4.06915 3.82185
# Velocity P-wave (km/s) = 5.53118 6.95925 6.28590
#
# Compressibility (1/GPa) = 0.03070811
#
# Stress axis : x y z
#
# Youngs Moduli (GPa) = 77.49017 79.88327 64.91338
#
# Poissons Ratio (x) = 0.15745 0.21011
# Poissons Ratio (y) = 0.15274 -0.00959
# Poissons Ratio (z) = 0.25082 -0.01181
#
# Static dielectric constant tensor:
#      x y z
#    x 4.404310 0.077200 0.612660 
#    y 0.077200 4.472180 0.058470 
#    z 0.612660 0.058470 4.216730 
# 
# 
# High freq. dielectric constant tensor:
#      x y z
#    x 1.945120 0.002230 0.018200 
#    y 0.002230 1.958450 -0.006920 
#    z 0.018200 -0.006920 1.945400 
# 
# From -- ./inp_files/224077.got.cif
#   From: 2010.06.25/outbox.cif.g09.slc.cpg/sg2_113_cif.got.tgz:224077.got - 2010.06.27 13:26:56.
