data_PCOD8010957
_publ_section_title
;
Structure prediction by ZEFSAII (Michael W. Deem and Ramdas Pophale) SiO2 
 PCOD8010957
Probable space group: P -1
;
_chemical_formula_sum "Si O2"
_cell_formula_units_Z 16
_cell_length_a 14.857895
_cell_length_b 7.462033
_cell_length_c 10.072541
_cell_angle_alpha 41.959936
_cell_angle_beta 117.455571
_cell_angle_gamma 119.707739
_cell_volume 640.240781
_symmetry_space_group_name_H-M "P -1"
_symmetry_group_IT_number 2
_symmetry_cell_setting 'triclinic'
loop_
_space_group_symop_operation_xyz
x,y,z
-x,-y,-z
loop_
_atom_site_type_symbol
_atom_site_label
_atom_site_fract_x
_atom_site_fract_y
_atom_site_fract_z
Si Si1 0.100953 0.253237 0.442590
Si Si2 0.577783 0.811159 0.665585
Si Si3 0.141342 0.374303 0.122686
Si Si4 0.941043 0.178589 0.948515
Si Si5 0.744950 0.741109 0.998777
Si Si6 0.648680 0.129607 0.294264
Si Si7 0.751921 0.998792 0.168100
Si Si8 0.531795 0.802822 0.025378
O O1 0.163625 0.253012 0.346495
O O2 0.072483 0.546885 0.288438
O O3 0.175846 0.210043 0.637201
O O4 0.000000 0.000000 0.500000
O O5 0.642355 0.842466 0.830907
O O6 0.511819 0.497993 0.774856
O O7 0.500000 0.000000 0.500000
O O8 0.653499 0.910326 0.534032
O O9 0.201724 0.273848 0.100533
O O10 0.174313 0.704998 0.986489
O O11 0.014724 0.279535 0.069483
O O12 0.825984 0.967701 0.022542
O O13 0.000000 0.000000 0.000000
O O14 0.718567 0.436481 0.214297
O O15 0.688870 0.032216 0.239151
O O16 0.528582 0.164149 0.171500
O O17 0.660831 0.867411 0.065880
O O18 0.500000 0.000000 0.000000
#
# Coordination Sequence:
#
# PCOD8010957 Si02
#       8
#     2   2   2   2   2   2   2   2
#     4  12  24  39  64  94 125 159 209 259 304 360
#     4  11  23  39  60  91 127 158 204 251 302 363
#     4  10  21  43  64  88 126 164 202 259 305 361
#     4  10  22  43  64  88 127 163 200 252 313 369
#     4   9  21  42  63  89 123 166 207 247 312 367
#     4   9  20  42  64  85 124 167 198 251 307 361
#     4  10  21  38  65  92 118 157 211 251 302 360
#     4   9  21  39  62  89 119 155 204 249 301 361
#
# _framework density 24.990596
#
# number of rings (size 3 to 8) (size 9 to 14) (size 15 to 20)
#    0.000    2.000    1.250    1.875    1.750    5.000 
#    4.500    1.250    0.000    0.000    0.000    0.000 
#    0.000    0.000    0.000    0.000    0.000    0.000 
#
# Total GULP energy -198352.901256 kJ/mol
# GULP energy per Si atom -12397.056328 kJ/mol
# Density = 2.493372 g / cm^3
# Si number density = 24.990596 Si / 1000 Ang^3
#
#
#
# Elastic Constant Matrix: (Units=GPa)
#
#
# Indices 1 2 3 4 5 6 
#
# 1 65.9747 35.3717 12.5786 -5.9153 8.4405 25.2689
# 2 35.3717 169.4007 55.0092 -8.7895 6.0380 27.2444
# 3 12.5786 55.0092 125.6284 -6.9548 4.0166 16.5549
# 4 -5.9153 -8.7895 -6.9548 43.4267 -1.0306 -0.0512
# 5 8.4405 6.0380 4.0166 -1.0306 44.8147 -4.5583
# 6 25.2689 27.2444 16.5549 -0.0512 -4.5583 46.7774
#
#
#
# Elastic Compliance Matrix: (Units=1/GPa)
#
#
# Indices 1 2 3 4 5 6 
#
# 1 0.021380 -0.002687 0.000730 0.002359 -0.004765 -0.010704
# 2 -0.002687 0.007771 -0.002796 0.000745 -0.000490 -0.002132
# 3 0.000730 -0.002796 0.009484 0.001031 -0.000811 -0.002200
# 4 0.002359 0.000745 0.001031 0.023655 -0.000304 -0.002077
# 5 -0.004765 -0.000490 -0.000811 -0.000304 0.023900 0.005475
# 6 -0.010704 -0.002132 -0.002200 -0.002077 0.005475 0.029712
#
#
# Mechanical properties :
#
#
# Convention : Reuss Voigt Hill
#
# Bulk Modulus (GPa) = 34.33156 62.99144 48.66150
# Shear Modulus (GPa) = 37.00462 44.20671 40.60567
#
# Velocity S-wave (km/s) = 3.85222 4.21043 4.03530
# Velocity P-wave (km/s) = 5.79256 6.99269 6.42073
#
# Compressibility (1/GPa) = 0.02912772
#
# Stress axis : x y z
#
# Youngs Moduli (GPa) = 46.77296 128.68044 105.44005
#
# Poissons Ratio (x) = 0.34581 -0.07692
# Poissons Ratio (y) = 0.12570 0.29480
# Poissons Ratio (z) = -0.03412 0.35977
#
# Static dielectric constant tensor:
#      x y z
#    x 5.125400 0.351670 0.031110 
#    y 0.351670 5.051880 0.412190 
#    z 0.031110 0.412190 4.883040 
# 
# 
# High freq. dielectric constant tensor:
#      x y z
#    x 2.036610 0.000900 -0.000890 
#    y 0.000900 2.007940 0.001970 
#    z -0.000890 0.001970 1.990370 
# 
# From -- ./inp_files/461764.got.cif
#   From: 2010.06.25/outbox.cif.g09.slc.cpg/sg2_231_cif.got.tgz:461764.got - 2010.06.27 13:26:56.
