data_PCOD8010185
_publ_section_title
;
Structure prediction by ZEFSAII (Michael W. Deem and Ramdas Pophale) SiO2 
 PCOD8010185
Probable space group: P -1
;
_chemical_formula_sum "Si O2"
_cell_formula_units_Z 16
_cell_length_a 16.028963
_cell_length_b 9.838654
_cell_length_c 9.422030
_cell_angle_alpha 62.536490
_cell_angle_beta 133.301517
_cell_angle_gamma 86.945050
_cell_volume 786.794653
_symmetry_space_group_name_H-M "P -1"
_symmetry_group_IT_number 2
_symmetry_cell_setting 'triclinic'
loop_
_space_group_symop_operation_xyz
x,y,z
-x,-y,-z
loop_
_atom_site_type_symbol
_atom_site_label
_atom_site_fract_x
_atom_site_fract_y
_atom_site_fract_z
Si Si1 0.906431 0.667010 0.206374
Si Si2 0.092666 0.759042 0.854738
Si Si3 0.619802 0.789689 0.697910
Si Si4 0.102941 0.091476 0.687145
Si Si5 0.591201 0.475143 0.755255
Si Si6 0.343731 0.176904 0.593291
Si Si7 0.386172 0.863548 0.966795
Si Si8 0.076942 0.545579 0.177956
O O1 0.890211 0.839912 0.183593
O O2 0.000000 0.500000 0.500000
O O3 0.990280 0.632459 0.177084
O O4 0.754852 0.702044 0.998814
O O5 0.993899 0.750214 0.623496
O O6 0.037951 0.974059 0.694874
O O7 0.250160 0.619968 0.056903
O O8 0.083090 0.703792 0.029808
O O9 0.550067 0.671928 0.679766
O O10 0.686505 0.779648 0.628149
O O11 0.500000 0.000000 0.500000
O O12 0.260840 0.959211 0.884623
O O13 0.500000 0.500000 0.500000
O O14 0.576002 0.346046 0.914145
O O15 0.229957 0.352548 0.473888
O O16 0.345813 0.991605 0.717520
O O17 0.491552 0.139928 0.811736
O O18 0.000000 0.500000 0.000000
#
# Coordination Sequence:
#
# PCOD8010185 Si02
#       8
#     2   2   2   2   2   2   2   2
#     4  12  25  40  64  93 133 174 214 271 328 386
#     4  10  21  39  67  92 123 168 220 262 318 401
#     4  12  25  41  66  97 133 167 220 273 326 389
#     4  10  22  40  63  96 126 166 215 268 327 378
#     4  11  20  40  65  93 123 171 218 260 320 390
#     4  11  21  39  61  99 121 169 220 263 324 389
#     4  10  21  37  68  90 127 162 221 267 315 393
#     4  12  21  38  63  89 127 168 217 260 320 390
#
# _framework density 20.335673
#
# number of rings (size 3 to 8) (size 9 to 14) (size 15 to 20)
#    0.000    1.000    3.750    3.750    1.750    1.500 
#    0.000    0.625    2.750    0.000    0.000    0.000 
#    0.000    0.000    0.000    0.000    0.000    0.000 
#
# Total GULP energy -198295.810915 kJ/mol
# GULP energy per Si atom -12393.488182 kJ/mol
# Density = 2.028939 g / cm^3
# Si number density = 20.335673 Si / 1000 Ang^3
#
#
#
# Elastic Constant Matrix: (Units=GPa)
#
#
# Indices 1 2 3 4 5 6 
#
# 1 94.6677 46.1887 32.1393 -8.5767 -13.4740 18.1366
# 2 46.1887 125.5640 42.8142 -3.0829 -8.9800 13.9962
# 3 32.1393 42.8142 117.6674 -1.4999 1.8266 11.6208
# 4 -8.5767 -3.0829 -1.4999 34.0099 5.7518 -5.5420
# 5 -13.4740 -8.9800 1.8266 5.7518 40.3117 -9.0657
# 6 18.1366 13.9962 11.6208 -5.5420 -9.0657 31.9309
#
#
#
# Elastic Compliance Matrix: (Units=1/GPa)
#
#
# Indices 1 2 3 4 5 6 
#
# 1 0.014671 -0.003892 -0.002144 0.002014 0.002788 -0.004706
# 2 -0.003892 0.010495 -0.002654 -0.000511 0.000951 -0.001242
# 3 -0.002144 -0.002654 0.010281 -0.000289 -0.002189 -0.002032
# 4 0.002014 -0.000511 -0.000289 0.030965 -0.003013 0.003704
# 5 0.002788 0.000951 -0.002189 -0.003013 0.027871 0.006187
# 6 -0.004706 -0.001242 -0.002032 0.003704 0.006187 0.037674
#
#
# Mechanical properties :
#
#
# Convention : Reuss Voigt Hill
#
# Bulk Modulus (GPa) = 55.35234 64.46483 59.90858
# Shear Modulus (GPa) = 32.18360 35.70096 33.94228
#
# Velocity S-wave (km/s) = 3.98253 4.19451 4.08989
# Velocity P-wave (km/s) = 6.95886 7.43154 7.19908
#
# Compressibility (1/GPa) = 0.01806608
#
# Stress axis : x y z
#
# Youngs Moduli (GPa) = 68.16181 95.28578 97.26873
#
# Poissons Ratio (x) = 0.37089 0.20852
# Poissons Ratio (y) = 0.26531 0.25816
# Poissons Ratio (z) = 0.14613 0.25289
#
# Static dielectric constant tensor:
#      x y z
#    x 3.267540 0.824340 0.248480 
#    y 0.824340 4.145160 -0.547270 
#    z 0.248480 -0.547270 3.779940 
# 
# 
# High freq. dielectric constant tensor:
#      x y z
#    x 1.788590 0.023160 0.004320 
#    y 0.023160 1.779100 -0.010530 
#    z 0.004320 -0.010530 1.819370 
# 
# From -- ./inp_files/243186.got.cif
#   From: 2010.06.25/outbox.cif.g09.slc.cpg/sg2_122_cif.got.tgz:243186.got - 2010.06.27 13:26:56.
