data_PCOD8010624
_publ_section_title
;
Structure prediction by ZEFSAII (Michael W. Deem and Ramdas Pophale) SiO2 
 PCOD8010624
Probable space group: P -1
;
_chemical_formula_sum "Si O2"
_cell_formula_units_Z 16
_cell_length_a 11.107594
_cell_length_b 13.436474
_cell_length_c 14.332523
_cell_angle_alpha 105.340951
_cell_angle_beta 128.992646
_cell_angle_gamma 35.656672
_cell_volume 812.882564
_symmetry_space_group_name_H-M "P -1"
_symmetry_group_IT_number 2
_symmetry_cell_setting 'triclinic'
loop_
_space_group_symop_operation_xyz
x,y,z
-x,-y,-z
loop_
_atom_site_type_symbol
_atom_site_label
_atom_site_fract_x
_atom_site_fract_y
_atom_site_fract_z
Si Si1 0.629351 0.677251 0.455148
Si Si2 0.319163 0.732671 0.167278
Si Si3 0.298544 0.349522 0.986172
Si Si4 0.254656 0.982025 0.511130
Si Si5 0.430176 0.632361 0.778328
Si Si6 0.230546 0.232132 0.595652
Si Si7 0.621685 0.120837 0.901595
Si Si8 0.374211 0.301804 0.215335
O O1 0.355285 0.784462 0.288120
O O2 0.507316 0.780198 0.521431
O O3 0.761773 0.702447 0.476390
O O4 0.904682 0.436169 0.539225
O O5 0.533478 0.510385 0.228871
O O6 0.422369 0.738619 0.127851
O O7 0.974707 0.892347 0.031587
O O8 0.448154 0.207509 0.936083
O O9 0.932367 0.556989 0.845440
O O10 0.437068 0.387081 0.068601
O O11 0.380515 0.246486 0.100052
O O12 0.328074 0.905280 0.633715
O O13 0.280104 0.089939 0.546279
O O14 0.924705 0.136573 0.352679
O O15 0.608383 0.582868 0.764356
O O16 0.498436 0.105463 0.767127
#
# Coordination Sequence:
#
# PCOD8010624 Si02
#       8
#     2   2   2   2   2   2   2   2
#     4  10  21  40  58  86 127 153 197 246 299 357
#     4  10  21  39  59  91 124 153 194 252 302 356
#     4   9  20  41  62  81 116 160 196 250 299 337
#     4  12  21  38  64  87 118 166 198 238 309 347
#     4  10  21  39  61  83 125 154 198 249 293 349
#     4  10  22  37  59  91 121 154 196 250 292 364
#     4  10  21  38  62  88 122 155 194 250 303 359
#     4   9  22  39  60  86 118 157 204 254 281 351
#
# _framework density 19.683040999999999
#
# number of rings (size 3 to 8) (size 9 to 14) (size 15 to 20)
#    0.750    1.250    1.250    2.250    1.750    0.500 
#    2.250    4.375    0.000    0.000    0.000    0.000 
#    0.000    0.000    0.000    0.000    0.000    0.000 
#
# Total GULP energy -198294.214933 kJ/mol
# GULP energy per Si atom -12393.388433 kJ/mol
# Density = 1.963824 g / cm^3
# Si number density = 19.683041 Si / 1000 Ang^3
#
#
#
# Elastic Constant Matrix: (Units=GPa)
#
#
# Indices 1 2 3 4 5 6 
#
# 1 43.5416 14.3192 22.5728 -2.5302 1.0487 -8.1584
# 2 14.3192 62.6312 25.8299 -1.8055 -0.3598 -9.8956
# 3 22.5728 25.8299 99.1242 -13.3162 8.9568 -6.3089
# 4 -2.5302 -1.8055 -13.3162 26.4269 2.0740 -0.8471
# 5 1.0487 -0.3598 8.9568 2.0740 32.6271 -1.5395
# 6 -8.1584 -9.8956 -6.3089 -0.8471 -1.5395 31.1358
#
#
#
# Elastic Compliance Matrix: (Units=1/GPa)
#
#
# Indices 1 2 3 4 5 6 
#
# 1 0.027709 -0.003381 -0.005178 -0.000079 0.000743 0.005172
# 2 -0.003381 0.019168 -0.004261 -0.001159 0.001771 0.004399
# 3 -0.005178 -0.004261 0.013599 0.006382 -0.004019 0.000020
# 4 -0.000079 -0.001159 0.006382 0.041365 -0.004306 0.001816
# 5 0.000743 0.001771 -0.004019 -0.004306 0.032089 0.001413
# 6 0.005172 0.004399 0.000020 0.001816 0.001413 0.034994
#
#
# Mechanical properties :
#
#
# Convention : Reuss Voigt Hill
#
# Bulk Modulus (GPa) = 28.70383 36.74898 32.72641
# Shear Modulus (GPa) = 24.25118 27.54297 25.89708
#
# Velocity S-wave (km/s) = 3.51392 3.74481 3.63120
# Velocity P-wave (km/s) = 5.57478 6.11630 5.85180
#
# Compressibility (1/GPa) = 0.03483856
#
# Stress axis : x y z
#
# Youngs Moduli (GPa) = 36.08940 52.16917 73.53270
#
# Poissons Ratio (x) = 0.17637 0.38073
# Poissons Ratio (y) = 0.12201 0.31331
# Poissons Ratio (z) = 0.18686 0.22228
#
# Static dielectric constant tensor:
#      x y z
#    x 3.432370 -0.018600 0.088010 
#    y -0.018600 3.190080 -0.012990 
#    z 0.088010 -0.012990 3.787630 
# 
# 
# High freq. dielectric constant tensor:
#      x y z
#    x 1.753460 -0.003400 0.009450 
#    y -0.003400 1.734550 -0.000490 
#    z 0.009450 -0.000490 1.791710 
# 
# From -- ./inp_files/522387.got.cif
#   From: 2010.06.25/outbox.cif.g09.slc.cpg/sg2_262_cif.got.tgz:522387.got - 2010.06.27 13:26:56.
