data_PCOD8010971
_publ_section_title
;
Structure prediction by ZEFSAII (Michael W. Deem and Ramdas Pophale) SiO2 
 PCOD8010971
Probable space group: P -1
;
_chemical_formula_sum "Si O2"
_cell_formula_units_Z 14
_cell_length_a 16.977202
_cell_length_b 8.179494
_cell_length_c 11.008690
_cell_angle_alpha 135.382235
_cell_angle_beta 144.731817
_cell_angle_gamma 44.490846
_cell_volume 586.114014
_symmetry_space_group_name_H-M "P -1"
_symmetry_group_IT_number 2
_symmetry_cell_setting 'triclinic'
loop_
_space_group_symop_operation_xyz
x,y,z
-x,-y,-z
loop_
_atom_site_type_symbol
_atom_site_label
_atom_site_fract_x
_atom_site_fract_y
_atom_site_fract_z
Si Si1 0.705937 0.125436 0.296005
Si Si2 0.765812 0.519521 0.453131
Si Si3 0.173186 0.775249 0.850949
Si Si4 0.493094 0.256194 0.306685
Si Si5 0.454993 0.819313 0.129356
Si Si6 0.191188 0.405760 0.892209
Si Si7 0.962563 0.806605 0.935347
O O1 0.770159 0.352779 0.490308
O O2 0.634677 0.121899 0.334869
O O3 0.832186 0.858450 0.300641
O O4 0.590707 0.178900 0.068592
O O5 0.605869 0.607766 0.236778
O O6 0.821915 0.745252 0.675359
O O7 0.867885 0.329325 0.382386
O O8 0.334154 0.795622 0.057937
O O9 0.070353 0.056225 0.902374
O O10 0.154011 0.585974 0.826512
O O11 0.500000 0.500000 0.500000
O O12 0.480422 0.083391 0.312514
O O13 0.359287 0.331570 0.087970
O O14 0.095213 0.547850 0.962262
O O15 0.000000 0.000000 0.000000
#
# Coordination Sequence:
#
# PCOD8010971 Si02
#       7
#     2   2   2   2   2   2   2
#     4  10  21  41  63  89 124 156 200 257 306 359
#     4  11  22  40  67  92 120 165 203 246 314 357
#     4  10  21  41  65  93 124 158 206 254 299 358
#     4  11  23  36  61  93 121 156 199 252 313 356
#     4  10  21  38  65  93 118 158 203 253 306 357
#     4  10  21  43  59  85 129 160 198 253 299 361
#     4  10  25  40  60  91 127 161 208 247 297 367
#
# _framework density 23.886139
#
# number of rings (size 3 to 8) (size 9 to 14) (size 15 to 20)
#    0.000    1.714    0.000    6.000    6.000    3.429 
#    2.571    6.429    0.000    0.000    0.000    0.000 
#    0.000    0.000    0.000    0.000    0.000    0.000 
#
# Total GULP energy -173441.798956 kJ/mol
# GULP energy per Si atom -12388.699925 kJ/mol
# Density = 2.383177 g / cm^3
# Si number density = 23.886139 Si / 1000 Ang^3
#
#
#
# Elastic Constant Matrix: (Units=GPa)
#
#
# Indices 1 2 3 4 5 6 
#
# 1 58.5018 33.0459 10.7054 10.0573 15.8914 1.1379
# 2 33.0459 122.3610 11.7963 34.7508 5.2694 -3.4481
# 3 10.7054 11.7963 42.8012 31.7166 8.8019 5.3422
# 4 10.0573 34.7508 31.7166 37.6159 1.6572 0.6292
# 5 15.8914 5.2694 8.8019 1.6572 32.0911 16.4748
# 6 1.1379 -3.4481 5.3422 0.6292 16.4748 43.4084
#
#
#
# Elastic Compliance Matrix: (Units=1/GPa)
#
#
# Indices 1 2 3 4 5 6 
#
# 1 0.024270 -0.007135 -0.007125 0.006539 -0.011196 0.003828
# 2 -0.007135 0.017323 0.021447 -0.032018 -0.004007 0.000909
# 3 -0.007125 0.021447 0.096535 -0.098365 -0.021107 -0.000553
# 4 0.006539 -0.032018 -0.098365 0.136380 0.022542 -0.001142
# 5 -0.011196 -0.004007 -0.021107 0.022542 0.050717 -0.017003
# 6 0.003828 0.000909 -0.000553 -0.001142 -0.017003 0.029546
#
#
# Mechanical properties :
#
#
# Convention : Reuss Voigt Hill
#
# Bulk Modulus (GPa) = 6.55727 37.19546 21.87637
# Shear Modulus (GPa) = 12.78011 33.83082 23.30547
#
# Velocity S-wave (km/s) = 2.31561 3.76751 3.12699
# Velocity P-wave (km/s) = 3.14652 5.87633 4.71338
#
# Compressibility (1/GPa) = 0.15250244
#
# Stress axis : x y z
#
# Youngs Moduli (GPa) = 41.20290 57.72588 10.35890
#
# Poissons Ratio (x) = 0.41187 0.07381
# Poissons Ratio (y) = 0.29398 -0.22217
# Poissons Ratio (z) = 0.29358 -1.23805
#
# Static dielectric constant tensor:
#      x y z
#    x 4.676860 -0.133820 0.206810 
#    y -0.133820 4.643040 0.558980 
#    z 0.206810 0.558980 4.102500 
# 
# 
# High freq. dielectric constant tensor:
#      x y z
#    x 1.946960 -0.003280 0.021720 
#    y -0.003280 1.953930 0.038540 
#    z 0.021720 0.038540 1.926270 
# 
# From -- ./inp_files/176245.got.cif
#   From: 2010.06.25/outbox.cif.g09.slc.cpg/sg2_89_cif.got.tgz:176245.got - 2010.06.27 13:26:56.
