data_PCOD8010109
_publ_section_title
;
Structure prediction by ZEFSAII (Michael W. Deem and Ramdas Pophale) SiO2 
 PCOD8010109
Probable space group: P -1
;
_chemical_formula_sum "Si O2"
_cell_formula_units_Z 16
_cell_length_a 10.024441
_cell_length_b 22.475843
_cell_length_c 9.048925
_cell_angle_alpha 54.836927
_cell_angle_beta 150.165925
_cell_angle_gamma 131.668058
_cell_volume 757.673748
_symmetry_space_group_name_H-M "P -1"
_symmetry_group_IT_number 2
_symmetry_cell_setting 'triclinic'
loop_
_space_group_symop_operation_xyz
x,y,z
-x,-y,-z
loop_
_atom_site_type_symbol
_atom_site_label
_atom_site_fract_x
_atom_site_fract_y
_atom_site_fract_z
Si Si1 0.002782 0.201969 0.962700
Si Si2 0.812692 0.532963 0.677750
Si Si3 0.001240 0.970879 0.209217
Si Si4 0.273367 0.701406 0.805576
Si Si5 0.358681 0.700734 0.545028
Si Si6 0.074823 0.200774 0.688142
Si Si7 0.426197 0.970274 0.136688
Si Si8 0.302071 0.531997 0.666413
O O1 0.894399 0.272680 0.794645
O O2 0.794254 0.121700 0.956164
O O3 0.017926 0.185154 0.828879
O O4 0.333110 0.226928 0.300454
O O5 0.500000 0.500000 0.500000
O O6 0.738736 0.503206 0.484021
O O7 0.016746 0.626965 0.742807
O O8 0.000000 0.500000 0.000000
O O9 0.962371 0.880122 0.311089
O O10 0.297172 0.024183 0.505734
O O11 0.723017 0.976078 0.011552
O O12 0.000000 0.000000 0.000000
O O13 0.290909 0.681096 0.680217
O O14 0.181747 0.774109 0.648003
O O15 0.605649 0.729161 0.145565
O O16 0.395537 0.626550 0.608869
O O17 0.500000 0.000000 0.000000
O O18 0.000000 0.500000 0.500000
O O19 0.500000 0.500000 0.000000
#
# Coordination Sequence:
#
# PCOD8010109 Si02
#       8
#     2   2   2   2   2   2   2   2
#     4  10  21  38  63  95 129 166 212 267 329 374
#     4  12  26  44  65  96 137 174 207 265 337 392
#     4  12  24  42  69  99 129 169 231 268 311 383
#     4  10  21  39  63  94 129 167 212 265 329 376
#     4  10  21  38  65  96 123 164 221 275 308 373
#     4  10  21  37  65  97 123 163 221 277 307 371
#     4  12  26  44  65  97 139 176 209 266 338 392
#     4  12  24  42  69  98 127 167 229 268 309 383
#
# _framework density 21.117269
#
# number of rings (size 3 to 8) (size 9 to 14) (size 15 to 20)
#    0.000    1.000    2.500    4.500    7.000    0.000 
#    0.000    7.500    0.000    0.000    0.000    0.000 
#    0.000    0.000    0.000    0.000    0.000    0.000 
#
# Total GULP energy -198287.834472 kJ/mol
# GULP energy per Si atom -12392.989655 kJ/mol
# Density = 2.106921 g / cm^3
# Si number density = 21.117269 Si / 1000 Ang^3
#
#
#
# Elastic Constant Matrix: (Units=GPa)
#
#
# Indices 1 2 3 4 5 6 
#
# 1 114.0767 37.3411 51.0322 -0.4774 6.3444 12.3320
# 2 37.3411 114.1416 13.8198 6.0384 4.1538 9.2604
# 3 51.0322 13.8198 124.7213 -1.4839 8.9922 12.0857
# 4 -0.4774 6.0384 -1.4839 33.0108 2.4753 17.3971
# 5 6.3444 4.1538 8.9922 2.4753 34.7470 2.2322
# 6 12.3320 9.2604 12.0857 17.3971 2.2322 39.8185
#
#
#
# Elastic Compliance Matrix: (Units=1/GPa)
#
#
# Indices 1 2 3 4 5 6 
#
# 1 0.012070 -0.003309 -0.004258 0.001953 -0.000685 -0.002491
# 2 -0.003309 0.009957 0.000344 -0.001422 -0.000526 -0.000744
# 3 -0.004258 0.000344 0.010120 0.001793 -0.001849 -0.002513
# 4 0.001953 -0.001422 0.001793 0.040534 -0.002356 -0.018396
# 5 -0.000685 -0.000526 -0.001849 -0.002356 0.029597 0.000266
# 6 -0.002491 -0.000744 -0.002513 -0.018396 0.000266 0.034843
#
#
# Mechanical properties :
#
#
# Convention : Reuss Voigt Hill
#
# Bulk Modulus (GPa) = 56.49694 61.92507 59.21100
# Shear Modulus (GPa) = 31.75278 38.23171 34.99224
#
# Velocity S-wave (km/s) = 3.88189 4.25955 4.07510
# Velocity P-wave (km/s) = 6.84865 7.31982 7.08815
#
# Compressibility (1/GPa) = 0.01770007
#
# Stress axis : x y z
#
# Youngs Moduli (GPa) = 82.85322 100.43408 98.81342
#
# Poissons Ratio (x) = 0.33236 0.42073
# Poissons Ratio (y) = 0.27418 -0.03398
# Poissons Ratio (z) = 0.35277 -0.03454
#
# Static dielectric constant tensor:
#      x y z
#    x 3.604800 0.009540 0.269420 
#    y 0.009540 4.006070 0.047890 
#    z 0.269420 0.047890 4.055840 
# 
# 
# High freq. dielectric constant tensor:
#      x y z
#    x 1.811420 -0.002510 0.028440 
#    y -0.002510 1.840240 0.002230 
#    z 0.028440 0.002230 1.839980 
# 
# From -- ./inp_files/226290.got.cif
#   From: 2010.06.25/outbox.cif.g09.slc.cpg/sg2_114_cif.got.tgz:226290.got - 2010.06.27 13:26:56.
