data_PCOD8010667
_publ_section_title
;
Structure prediction by ZEFSAII (Michael W. Deem and Ramdas Pophale) SiO2 
 PCOD8010667
Probable space group: P -1
;
_chemical_formula_sum "Si O2"
_cell_formula_units_Z 16
_cell_length_a 7.924216
_cell_length_b 13.028358
_cell_length_c 17.123112
_cell_angle_alpha 139.201727
_cell_angle_beta 127.529225
_cell_angle_gamma 82.316395
_cell_volume 709.940725
_symmetry_space_group_name_H-M "P -1"
_symmetry_group_IT_number 2
_symmetry_cell_setting 'triclinic'
loop_
_space_group_symop_operation_xyz
x,y,z
-x,-y,-z
loop_
_atom_site_type_symbol
_atom_site_label
_atom_site_fract_x
_atom_site_fract_y
_atom_site_fract_z
Si Si1 0.981381 0.051282 0.844989
Si Si2 0.525037 0.377823 0.790006
Si Si3 0.396410 0.237258 0.937357
Si Si4 0.539441 0.049466 0.630357
Si Si5 0.102144 0.878602 0.531074
Si Si6 0.012340 0.495716 0.310011
Si Si7 0.335315 0.471089 0.257029
Si Si8 0.746396 0.623001 0.580624
O O1 0.877360 0.856997 0.754102
O O2 0.740656 0.017377 0.706982
O O3 0.216859 0.100595 0.881714
O O4 0.103898 0.230754 0.044674
O O5 0.667604 0.287002 0.812503
O O6 0.586708 0.412483 0.735211
O O7 0.202094 0.197070 0.611172
O O8 0.632365 0.586689 0.982349
O O9 0.293127 0.096992 0.752036
O O10 0.708154 0.336766 0.098709
O O11 0.500000 0.000000 0.500000
O O12 0.241366 0.900850 0.500844
O O13 0.077612 0.705442 0.473879
O O14 0.224606 0.546318 0.330824
O O15 0.034260 0.402976 0.342193
O O16 0.619736 0.528971 0.404762
O O17 0.500000 0.500000 0.500000
#
# Coordination Sequence:
#
# PCOD8010667 Si02
#       8
#     2   2   2   2   2   2   2   2
#     4  11  24  41  62  90 124 161 204 253 300 358
#     4  10  23  41  62  90 123 160 203 252 304 358
#     4  10  23  41  60  89 127 160 201 251 299 360
#     4  12  23  39  67  92 119 164 205 247 306 362
#     4  11  22  41  63  89 126 160 199 253 302 358
#     4  10  22  38  63  92 121 162 203 248 306 359
#     4  10  21  41  63  89 124 158 203 254 299 360
#     4  10  21  38  62  92 123 159 202 250 303 359
#
# _framework density 22.537091
#
# number of rings (size 3 to 8) (size 9 to 14) (size 15 to 20)
#    0.000    1.500    0.000    5.625    0.000    6.000 
#    0.000   15.000    0.000    0.000    0.000    0.000 
#    0.000    0.000    0.000    0.000    0.000    0.000 
#
# Total GULP energy -198373.805349 kJ/mol
# GULP energy per Si atom -12398.362834 kJ/mol
# Density = 2.248580 g / cm^3
# Si number density = 22.537091 Si / 1000 Ang^3
#
#
#
# Elastic Constant Matrix: (Units=GPa)
#
#
# Indices 1 2 3 4 5 6 
#
# 1 84.2966 23.1638 18.1733 4.8765 5.3370 1.7790
# 2 23.1638 110.0958 25.1269 20.4123 -8.1552 -14.5531
# 3 18.1733 25.1269 108.8675 14.7640 -6.9794 -4.6497
# 4 4.8765 20.4123 14.7640 26.9516 5.6351 0.9545
# 5 5.3370 -8.1552 -6.9794 5.6351 29.9845 10.6954
# 6 1.7790 -14.5531 -4.6497 0.9545 10.6954 29.4957
#
#
#
# Elastic Compliance Matrix: (Units=1/GPa)
#
#
# Indices 1 2 3 4 5 6 
#
# 1 0.013310 -0.003136 -0.002041 0.001874 -0.003531 -0.001452
# 2 -0.003136 0.012652 -0.000619 -0.009654 0.003789 0.005272
# 3 -0.002041 -0.000619 0.010705 -0.005801 0.003644 0.000371
# 4 0.001874 -0.009654 -0.005801 0.050010 -0.012709 -0.002801
# 5 -0.003531 0.003789 0.003644 -0.012709 0.042671 -0.012405
# 6 -0.001452 0.005272 0.000371 -0.002801 -0.012405 0.041240
#
#
# Mechanical properties :
#
#
# Convention : Reuss Voigt Hill
#
# Bulk Modulus (GPa) = 39.87909 48.46532 44.17221
# Shear Modulus (GPa) = 26.24149 33.07277 29.65713
#
# Velocity S-wave (km/s) = 3.41599 3.83493 3.63150
# Velocity P-wave (km/s) = 5.76991 6.41563 6.10132
#
# Compressibility (1/GPa) = 0.02507580
#
# Stress axis : x y z
#
# Youngs Moduli (GPa) = 75.13001 79.04174 93.41183
#
# Poissons Ratio (x) = 0.24785 0.19063
# Poissons Ratio (y) = 0.23558 0.05785
# Poissons Ratio (z) = 0.15332 0.04895
#
# Static dielectric constant tensor:
#      x y z
#    x 4.126790 -0.155730 0.073450 
#    y -0.155730 4.516760 0.065510 
#    z 0.073450 0.065510 4.166790 
# 
# 
# High freq. dielectric constant tensor:
#      x y z
#    x 1.889930 -0.001130 0.006870 
#    y -0.001130 1.891910 0.016150 
#    z 0.006870 0.016150 1.891630 
# 
# From -- ./inp_files/560063.got.cif
#   From: 2010.06.25/outbox.cif.g09.slc.cpg/sg2_281_cif.got.tgz:560063.got - 2010.06.27 13:26:56.
