data_PCOD8010091
_publ_section_title
;
Structure prediction by ZEFSAII (Michael W. Deem and Ramdas Pophale) SiO2 
 PCOD8010091
Probable space group: P -1
;
_chemical_formula_sum "Si O2"
_cell_formula_units_Z 16
_cell_length_a 11.774687
_cell_length_b 15.158619
_cell_length_c 8.981142
_cell_angle_alpha 141.348352
_cell_angle_beta 114.437200
_cell_angle_gamma 49.601966
_cell_volume 747.955663
_symmetry_space_group_name_H-M "P -1"
_symmetry_group_IT_number 2
_symmetry_cell_setting 'triclinic'
loop_
_space_group_symop_operation_xyz
x,y,z
-x,-y,-z
loop_
_atom_site_type_symbol
_atom_site_label
_atom_site_fract_x
_atom_site_fract_y
_atom_site_fract_z
Si Si1 0.586064 0.560277 0.220391
Si Si2 0.038388 0.425176 0.256840
Si Si3 0.912788 0.905917 0.071024
Si Si4 0.773174 0.198462 0.941033
Si Si5 0.335699 0.978392 0.150630
Si Si6 0.322774 0.210350 0.947362
Si Si7 0.249932 0.309252 0.706689
Si Si8 0.704828 0.104497 0.466147
O O1 0.676446 0.604798 0.219612
O O2 0.459538 0.734182 0.467900
O O3 0.500000 0.500000 0.000000
O O4 0.698714 0.403309 0.185856
O O5 0.000000 0.500000 0.500000
O O6 0.928818 0.574815 0.277227
O O7 0.011045 0.274313 0.037157
O O8 0.212968 0.344062 0.193987
O O9 0.046566 0.906990 0.064333
O O10 0.826270 0.062581 0.347891
O O11 0.791049 0.918413 0.907624
O O12 0.692669 0.150183 0.951317
O O13 0.755780 0.150340 0.702611
O O14 0.503096 0.863722 0.017010
O O15 0.328537 0.112982 0.438591
O O16 0.274198 0.311104 0.897577
O O17 0.302395 0.056581 0.721052
#
# Coordination Sequence:
#
# PCOD8010091 Si02
#       8
#     2   2   2   2   2   2   2   2
#     4  10  21  37  65  93 128 164 211 267 317 372
#     4  11  24  42  64  96 130 168 210 271 327 379
#     4  11  24  41  63  93 132 173 214 259 326 387
#     4  11  22  43  64  92 131 171 217 261 319 384
#     4  12  24  41  67  96 133 168 212 271 324 380
#     4  11  23  40  66 100 125 164 222 268 318 380
#     4  12  21  42  67  96 131 166 219 267 320 383
#     4  10  21  39  65  97 122 168 219 265 316 383
#
# _framework density 21.391642999999998
#
# number of rings (size 3 to 8) (size 9 to 14) (size 15 to 20)
#    0.000    1.000    5.000    3.000    0.000    3.000 
#    0.000    1.875    0.000    0.000    0.000    0.000 
#    0.000    0.000    0.000    0.000    0.000    0.000 
#
# Total GULP energy -198391.675760 kJ/mol
# GULP energy per Si atom -12399.479735 kJ/mol
# Density = 2.134295 g / cm^3
# Si number density = 21.391643 Si / 1000 Ang^3
#
#
#
# Elastic Constant Matrix: (Units=GPa)
#
#
# Indices 1 2 3 4 5 6 
#
# 1 143.1828 40.0411 38.1087 24.1831 -11.4725 -16.8902
# 2 40.0411 96.0101 28.0487 17.1360 -7.8071 -9.6359
# 3 38.1087 28.0487 79.6362 19.0685 -22.6250 -2.9175
# 4 24.1831 17.1360 19.0685 30.9298 -2.9981 5.2089
# 5 -11.4725 -7.8071 -22.6250 -2.9981 32.6565 9.1670
# 6 -16.8902 -9.6359 -2.9175 5.2089 9.1670 41.5585
#
#
#
# Elastic Compliance Matrix: (Units=1/GPa)
#
#
# Indices 1 2 3 4 5 6 
#
# 1 0.009583 -0.001873 -0.002588 -0.005603 -0.000539 0.004100
# 2 -0.001873 0.013031 -0.002643 -0.004651 -0.000583 0.002786
# 3 -0.002588 -0.002643 0.019816 -0.007213 0.012098 -0.002038
# 4 -0.005603 -0.004651 -0.007213 0.045160 -0.001342 -0.009226
# 5 -0.000539 -0.000583 0.012098 -0.001342 0.040897 -0.008358
# 6 0.004100 0.002786 -0.002038 -0.009226 -0.008358 0.029232
#
#
# Mechanical properties :
#
#
# Convention : Reuss Voigt Hill
#
# Bulk Modulus (GPa) = 35.43279 59.02511 47.22895
# Shear Modulus (GPa) = 27.57327 35.20433 31.38880
#
# Velocity S-wave (km/s) = 3.59412 4.06113 3.83474
# Velocity P-wave (km/s) = 5.81579 7.04577 6.46012
#
# Compressibility (1/GPa) = 0.02822245
#
# Stress axis : x y z
#
# Youngs Moduli (GPa) = 104.34782 76.73786 50.46453
#
# Poissons Ratio (x) = 0.14374 0.13059
# Poissons Ratio (y) = 0.19546 0.13339
# Poissons Ratio (z) = 0.27002 0.20284
#
# Static dielectric constant tensor:
#      x y z
#    x 4.041530 -0.302720 -0.229970 
#    y -0.302720 4.394060 0.418870 
#    z -0.229970 0.418870 3.986770 
# 
# 
# High freq. dielectric constant tensor:
#      x y z
#    x 1.847500 -0.010180 -0.007620 
#    y -0.010180 1.840480 0.020480 
#    z -0.007620 0.020480 1.827490 
# 
# From -- ./inp_files/226498.got.cif
#   From: 2010.06.25/outbox.cif.g09.slc.cpg/sg2_114_cif.got.tgz:226498.got - 2010.06.27 13:26:56.
