data_PCOD8010288
_publ_section_title
;
Structure prediction by ZEFSAII (Michael W. Deem and Ramdas Pophale) SiO2 
 PCOD8010288
Probable space group: P -1
;
_chemical_formula_sum "Si O2"
_cell_formula_units_Z 16
_cell_length_a 13.061811
_cell_length_b 11.589184
_cell_length_c 8.269738
_cell_angle_alpha 83.222655
_cell_angle_beta 134.196130
_cell_angle_gamma 116.255982
_cell_volume 768.823058
_symmetry_space_group_name_H-M "P -1"
_symmetry_group_IT_number 2
_symmetry_cell_setting 'triclinic'
loop_
_space_group_symop_operation_xyz
x,y,z
-x,-y,-z
loop_
_atom_site_type_symbol
_atom_site_label
_atom_site_fract_x
_atom_site_fract_y
_atom_site_fract_z
Si Si1 0.242956 0.176398 0.191096
Si Si2 0.587891 0.598361 0.434206
Si Si3 0.498445 0.756032 0.089933
Si Si4 0.176892 0.011533 0.674946
Si Si5 0.311954 0.809131 0.399799
Si Si6 0.884040 0.084362 0.716942
Si Si7 0.432022 0.645000 0.691871
Si Si8 0.601542 0.060333 0.862812
O O1 0.251708 0.273924 0.331012
O O2 0.386720 0.251483 0.203693
O O3 0.244505 0.050455 0.299685
O O4 0.070527 0.116881 0.919427
O O5 0.500000 0.500000 0.500000
O O6 0.471749 0.651434 0.221067
O O7 0.623041 0.512741 0.354698
O O8 0.692503 0.832367 0.243307
O O9 0.447584 0.867648 0.061336
O O10 0.405425 0.671197 0.843281
O O11 0.170617 0.927259 0.525691
O O12 0.000000 0.000000 0.500000
O O13 0.246051 0.960264 0.907648
O O14 0.136186 0.795935 0.250069
O O15 0.301476 0.667131 0.441306
O O16 0.343988 0.838232 0.242192
O O17 0.450697 0.917929 0.659219
#
# Coordination Sequence:
#
# PCOD8010288 Si02
#       8
#     2   2   2   2   2   2   2   2
#     4  10  21  38  58  86 118 156 203 248 293 360
#     4  10  21  39  61  87 117 162 211 247 288 350
#     4  12  21  39  60  89 124 157 200 252 301 351
#     4  12  24  36  57  93 128 157 188 242 313 368
#     4  11  21  36  59  89 118 162 200 247 298 356
#     4  11  22  36  59  86 123 156 192 246 311 352
#     4  11  22  37  61  88 120 159 209 245 292 355
#     4  11  22  37  58  87 126 156 199 249 301 361
#
# _framework density 20.811029999999999
#
# number of rings (size 3 to 8) (size 9 to 14) (size 15 to 20)
#    0.000    1.000    3.750    5.250    3.500    0.000 
#    0.000    0.625    0.000    3.000    0.000   12.250 
#    0.000    0.000    0.000    0.000    0.000    0.000 
#
# Total GULP energy -198246.002901 kJ/mol
# GULP energy per Si atom -12390.375181 kJ/mol
# Density = 2.076366 g / cm^3
# Si number density = 20.811030 Si / 1000 Ang^3
#
#
#
# Elastic Constant Matrix: (Units=GPa)
#
#
# Indices 1 2 3 4 5 6 
#
# 1 62.3973 15.7739 25.8342 -4.6234 -1.5500 -16.7252
# 2 15.7739 83.1359 31.2608 -21.5881 3.3351 -15.7797
# 3 25.8342 31.2608 100.3480 -21.3890 -12.9599 -4.3359
# 4 -4.6234 -21.5881 -21.3890 33.3814 -8.6095 -4.0513
# 5 -1.5500 3.3351 -12.9599 -8.6095 35.4657 -2.0435
# 6 -16.7252 -15.7797 -4.3359 -4.0513 -2.0435 29.8064
#
#
#
# Elastic Compliance Matrix: (Units=1/GPa)
#
#
# Indices 1 2 3 4 5 6 
#
# 1 0.021101 0.000368 -0.004663 0.001645 0.000251 0.011598
# 2 0.000368 0.018004 -0.002677 0.011509 0.000770 0.010966
# 3 -0.004663 -0.002677 0.014955 0.009192 0.007740 -0.000078
# 4 0.001645 0.011509 0.009192 0.049412 0.015272 0.016116
# 5 0.000251 0.000770 0.007740 0.015272 0.035025 0.006152
# 6 0.011598 0.010966 -0.000078 0.016116 0.006152 0.048464
#
#
# Mechanical properties :
#
#
# Convention : Reuss Voigt Hill
#
# Bulk Modulus (GPa) = 24.92727 43.51322 34.22024
# Shear Modulus (GPa) = 23.33431 31.26486 27.29958
#
# Velocity S-wave (km/s) = 3.35214 3.88018 3.62579
# Velocity P-wave (km/s) = 5.19484 6.40535 5.83159
#
# Compressibility (1/GPa) = 0.04011671
#
# Stress axis : x y z
#
# Youngs Moduli (GPa) = 47.39217 55.54229 66.86631
#
# Poissons Ratio (x) = -0.02045 0.31178
# Poissons Ratio (y) = -0.01745 0.17901
# Poissons Ratio (z) = 0.22097 0.14870
#
# Static dielectric constant tensor:
#      x y z
#    x 3.790590 -0.392340 -0.281840 
#    y -0.392340 4.125000 -0.104760 
#    z -0.281840 -0.104760 3.871230 
# 
# 
# High freq. dielectric constant tensor:
#      x y z
#    x 1.807980 -0.025910 -0.027940 
#    y -0.025910 1.795880 -0.024320 
#    z -0.027940 -0.024320 1.819010 
# 
# From -- ./inp_files/253779.got.cif
#   From: 2010.06.25/outbox.cif.g09.slc.cpg/sg2_127_cif.got.tgz:253779.got - 2010.06.27 13:26:56.
