data_PCOD8010282
_publ_section_title
;
Structure prediction by ZEFSAII (Michael W. Deem and Ramdas Pophale) SiO2 
 PCOD8010282
Probable space group: P -1
;
_chemical_formula_sum "Si O2"
_cell_formula_units_Z 12
_cell_length_a 9.362826
_cell_length_b 14.191824
_cell_length_c 6.620924
_cell_angle_alpha 94.345678
_cell_angle_beta 132.476267
_cell_angle_gamma 99.952511
_cell_volume 616.265313
_symmetry_space_group_name_H-M "P -1"
_symmetry_group_IT_number 2
_symmetry_cell_setting 'triclinic'
loop_
_space_group_symop_operation_xyz
x,y,z
-x,-y,-z
loop_
_atom_site_type_symbol
_atom_site_label
_atom_site_fract_x
_atom_site_fract_y
_atom_site_fract_z
Si Si1 0.015493 0.215080 0.334662
Si Si2 0.520045 0.762065 0.228791
Si Si3 0.324552 0.542143 0.908349
Si Si4 0.234374 0.784848 0.286184
Si Si5 0.952473 0.378832 0.604385
Si Si6 0.653497 0.107356 0.195969
O O1 0.238564 0.204863 0.549070
O O2 0.997730 0.311228 0.454846
O O3 0.863391 0.117260 0.279425
O O4 0.947943 0.214954 0.038096
O O5 0.444048 0.799813 0.367497
O O6 0.425361 0.644081 0.137150
O O7 0.438617 0.807053 0.962463
O O8 0.166634 0.459740 0.884320
O O9 0.200971 0.561999 0.600910
O O10 0.500000 0.500000 0.000000
O O11 0.292651 0.876141 0.513526
O O12 0.149264 0.682244 0.307872
O O13 0.500000 0.000000 0.000000
#
# Coordination Sequence:
#
# PCOD8010282 Si02
#       6
#     2   2   2   2   2   2
#     4  10  21  39  61  88 121 152 196 248 291 345
#     4  11  22  39  60  91 121 154 199 244 287 346
#     4  11  20  36  61  85 122 163 196 235 284 345
#     4  10  21  40  60  87 119 152 197 245 294 347
#     4  10  21  38  58  83 123 164 196 234 290 340
#     4  10  23  44  65  83 116 157 193 244 307 354
#
# _framework density 19.472131000000001
#
# number of rings (size 3 to 8) (size 9 to 14) (size 15 to 20)
#    0.000    1.667    6.667    0.000    0.000    8.000 
#    0.000    3.333    0.000    0.000    0.000    0.000 
#    0.000    0.000    0.000    0.000    0.000    0.000 
#
# Total GULP energy -148743.284668 kJ/mol
# GULP energy per Si atom -12395.273722 kJ/mol
# Density = 1.942781 g / cm^3
# Si number density = 19.472131 Si / 1000 Ang^3
#
#
#
# Elastic Constant Matrix: (Units=GPa)
#
#
# Indices 1 2 3 4 5 6 
#
# 1 112.3532 21.2921 60.7867 -9.3964 25.8187 10.9664
# 2 21.2921 61.5615 26.2318 22.9809 3.2884 15.4924
# 3 60.7867 26.2318 110.6211 4.9372 6.6446 7.9374
# 4 -9.3964 22.9809 4.9372 32.4850 6.4892 12.3805
# 5 25.8187 3.2884 6.6446 6.4892 45.4634 0.3659
# 6 10.9664 15.4924 7.9374 12.3805 0.3659 26.0093
#
#
#
# Elastic Compliance Matrix: (Units=1/GPa)
#
#
# Indices 1 2 3 4 5 6 
#
# 1 0.020500 -0.006946 -0.008953 0.018682 -0.012413 -0.010492
# 2 -0.006946 0.027937 -0.001955 -0.021384 0.005286 -0.003011
# 3 -0.008953 -0.001955 0.014206 -0.005315 0.003883 0.003079
# 4 0.018682 -0.021384 -0.005315 0.064774 -0.017338 -0.024106
# 5 -0.012413 0.005286 0.003883 -0.017338 0.030500 0.008724
# 6 -0.010492 -0.003011 0.003079 -0.024106 0.008724 0.055077
#
#
# Mechanical properties :
#
#
# Convention : Reuss Voigt Hill
#
# Bulk Modulus (GPa) = 37.12591 55.68411 46.40501
# Shear Modulus (GPa) = 19.40387 32.53987 25.97187
#
# Velocity S-wave (km/s) = 3.16015 4.09234 3.65608
# Velocity P-wave (km/s) = 5.69412 7.14063 6.45800
#
# Compressibility (1/GPa) = 0.02693537
#
# Stress axis : x y z
#
# Youngs Moduli (GPa) = 48.78110 35.79420 70.39195
#
# Poissons Ratio (x) = 0.24862 0.63022
# Poissons Ratio (y) = 0.33883 0.13763
# Poissons Ratio (z) = 0.43673 0.06998
#
# Static dielectric constant tensor:
#      x y z
#    x 3.417340 0.551140 0.338760 
#    y 0.551140 2.920830 -0.172040 
#    z 0.338760 -0.172040 3.445760 
# 
# 
# High freq. dielectric constant tensor:
#      x y z
#    x 1.760180 0.014760 0.015120 
#    y 0.014760 1.749220 0.008670 
#    z 0.015120 0.008670 1.758270 
# 
# From -- ./inp_files/3365.got.cif
#   From: 2010.06.25/outbox.cif.g09.slc.cpg/sg2_2_cif.got.tgz:3365.got - 2010.06.27 13:26:56.
