data_PCOD8010777
_publ_section_title
;
Structure prediction by ZEFSAII (Michael W. Deem and Ramdas Pophale) SiO2 
 PCOD8010777
Probable space group: P -1
;
_chemical_formula_sum "Si O2"
_cell_formula_units_Z 14
_cell_length_a 12.291545
_cell_length_b 13.836979
_cell_length_c 10.420210
_cell_angle_alpha 120.041309
_cell_angle_beta 46.966832
_cell_angle_gamma 148.851654
_cell_volume 653.563269
_symmetry_space_group_name_H-M "P -1"
_symmetry_group_IT_number 2
_symmetry_cell_setting 'triclinic'
loop_
_space_group_symop_operation_xyz
x,y,z
-x,-y,-z
loop_
_atom_site_type_symbol
_atom_site_label
_atom_site_fract_x
_atom_site_fract_y
_atom_site_fract_z
Si Si1 0.830862 0.227493 0.023425
Si Si2 0.070883 0.970647 0.621677
Si Si3 0.760276 0.194523 0.348746
Si Si4 0.259954 0.391377 0.205062
Si Si5 0.321331 0.616421 0.794463
Si Si6 0.181634 0.990905 0.271845
Si Si7 0.614752 0.343595 0.520284
O O1 0.735153 0.141351 0.185478
O O2 0.730411 0.282660 0.086122
O O3 0.729569 0.067778 0.907101
O O4 0.139611 0.426573 0.899391
O O5 0.838570 0.781885 0.765891
O O6 0.095537 0.909812 0.432551
O O7 0.033127 0.077977 0.685703
O O8 0.326440 0.120542 0.600308
O O9 0.789667 0.347109 0.430490
O O10 0.019904 0.299990 0.264208
O O11 0.500000 0.000000 0.500000
O O12 0.363344 0.540665 0.325163
O O13 0.500000 0.500000 0.000000
O O14 0.302167 0.565509 0.628247
O O15 0.601741 0.779849 0.738249
#
# Coordination Sequence:
#
# PCOD8010777 Si02
#       7
#     2   2   2   2   2   2   2
#     4  10  21  38  63  93 125 159 215 267 306 371
#     4  10  23  41  62  95 128 166 210 257 325 383
#     4  11  24  46  65  93 130 174 213 255 316 385
#     4  12  27  42  67  95 127 171 220 259 309 378
#     4   9  20  39  63  95 122 159 213 265 315 378
#     4  10  21  38  65  92 125 165 203 268 326 365
#     4  10  22  45  68  88 131 169 209 263 322 372
#
# _framework density 21.421033000000001
#
# number of rings (size 3 to 8) (size 9 to 14) (size 15 to 20)
#    0.000    1.714    1.429    1.714    4.000    1.714 
#    7.714    4.286    0.000    0.000    0.000    0.000 
#    0.000    0.000    0.000    0.000    0.000    0.000 
#
# Total GULP energy -173543.790571 kJ/mol
# GULP energy per Si atom -12395.985041 kJ/mol
# Density = 2.137228 g / cm^3
# Si number density = 21.421033 Si / 1000 Ang^3
#
#
#
# Elastic Constant Matrix: (Units=GPa)
#
#
# Indices 1 2 3 4 5 6 
#
# 1 81.2200 34.8375 31.8628 0.0088 -1.6836 12.0302
# 2 34.8375 83.7790 60.5801 -9.1348 7.5424 -0.5571
# 3 31.8628 60.5801 141.6754 -3.9048 3.3820 -4.0264
# 4 0.0088 -9.1348 -3.9048 52.2197 -8.3027 -1.9647
# 5 -1.6836 7.5424 3.3820 -8.3027 29.3661 -9.6966
# 6 12.0302 -0.5571 -4.0264 -1.9647 -9.6966 21.7998
#
#
#
# Elastic Compliance Matrix: (Units=1/GPa)
#
#
# Indices 1 2 3 4 5 6 
#
# 1 0.017097 -0.006151 -0.001536 -0.001795 -0.001272 -0.010603
# 2 -0.006151 0.020210 -0.007069 0.002477 -0.003628 0.001215
# 3 -0.001536 -0.007069 0.010480 -0.000076 0.001590 0.003303
# 4 -0.001795 0.002477 -0.000076 0.020957 0.007223 0.006141
# 5 -0.001272 -0.003628 0.001590 0.007223 0.043703 0.020993
# 6 -0.010603 0.001215 0.003303 0.006141 0.020993 0.062256
#
#
# Mechanical properties :
#
#
# Convention : Reuss Voigt Hill
#
# Bulk Modulus (GPa) = 54.71430 62.35945 58.53687
# Shear Modulus (GPa) = 23.77478 32.63671 28.20575
#
# Velocity S-wave (km/s) = 3.33510 3.90754 3.63262
# Velocity P-wave (km/s) = 6.35833 7.03797 6.70676
#
# Compressibility (1/GPa) = 0.01827676
#
# Stress axis : x y z
#
# Youngs Moduli (GPa) = 58.48873 49.47988 95.41708
#
# Poissons Ratio (x) = 0.30434 0.14652
# Poissons Ratio (y) = 0.35976 0.67452
# Poissons Ratio (z) = 0.08981 0.34978
#
# Static dielectric constant tensor:
#      x y z
#    x 3.774900 0.141950 -0.062800 
#    y 0.141950 3.805900 -0.227700 
#    z -0.062800 -0.227700 3.977570 
# 
# 
# High freq. dielectric constant tensor:
#      x y z
#    x 1.839110 0.007270 -0.005100 
#    y 0.007270 1.835680 -0.007640 
#    z -0.005100 -0.007640 1.846580 
# 
# From -- ./inp_files/187562.got.cif
#   From: 2010.06.25/outbox.cif.g09.slc.cpg/sg2_94_cif.got.tgz:187562.got - 2010.06.27 13:26:56.
