data_PCOD8010850
_publ_section_title
;
Structure prediction by ZEFSAII (Michael W. Deem and Ramdas Pophale) SiO2 
 PCOD8010850
Probable space group: P -1
;
_chemical_formula_sum "Si O2"
_cell_formula_units_Z 16
_cell_length_a 15.743607
_cell_length_b 9.257582
_cell_length_c 11.668315
_cell_angle_alpha 76.247768
_cell_angle_beta 150.850934
_cell_angle_gamma 92.914150
_cell_volume 759.143274
_symmetry_space_group_name_H-M "P -1"
_symmetry_group_IT_number 2
_symmetry_cell_setting 'triclinic'
loop_
_space_group_symop_operation_xyz
x,y,z
-x,-y,-z
loop_
_atom_site_type_symbol
_atom_site_label
_atom_site_fract_x
_atom_site_fract_y
_atom_site_fract_z
Si Si1 0.762212 0.115098 0.069134
Si Si2 0.205986 0.225833 0.220056
Si Si3 0.335268 0.135470 0.143184
Si Si4 0.165316 0.906338 0.590367
Si Si5 0.537376 0.591610 0.417988
Si Si6 0.025458 0.628769 0.421082
Si Si7 0.832724 0.372757 0.647693
Si Si8 0.276756 0.914624 0.478983
O O1 0.730512 0.080024 0.171994
O O2 0.660948 0.299376 0.886141
O O3 0.983519 0.060079 0.323426
O O4 0.668527 0.023738 0.890997
O O5 0.312118 0.128129 0.253633
O O6 0.335338 0.306267 0.419847
O O7 0.171986 0.096078 0.288569
O O8 0.012228 0.361806 0.937660
O O9 0.527585 0.159407 0.337569
O O10 0.177569 0.285245 0.881520
O O11 0.104573 0.750323 0.557281
O O12 0.305005 0.900070 0.652609
O O13 0.500000 0.500000 0.500000
O O14 0.642307 0.471329 0.464817
O O15 0.155232 0.553406 0.477983
O O16 0.000000 0.500000 0.500000
O O17 0.849073 0.189772 0.685113
#
# Coordination Sequence:
#
# PCOD8010850 Si02
#       8
#     2   2   2   2   2   2   2   2
#     4  10  22  43  58  90 126 162 210 253 310 367
#     4  11  23  42  63  89 129 164 208 254 312 373
#     4  10  21  38  64  91 118 164 213 249 306 373
#     4   9  22  41  64  91 120 164 213 255 306 371
#     4  12  26  40  62  95 132 165 203 263 314 368
#     4   9  20  41  64  87 123 166 203 258 314 369
#     4  10  24  40  60  96 126 161 211 250 320 373
#     4  11  21  39  68  90 118 165 211 258 304 370
#
# _framework density 21.07639
#
# number of rings (size 3 to 8) (size 9 to 14) (size 15 to 20)
#    0.000    1.750    1.250    2.625    3.500    4.500 
#    6.750    2.500    0.000    0.000    0.000    0.000 
#    0.000    0.000    0.000    0.000    0.000    0.000 
#
# Total GULP energy -198395.886223 kJ/mol
# GULP energy per Si atom -12399.742889 kJ/mol
# Density = 2.102842 g / cm^3
# Si number density = 21.076390 Si / 1000 Ang^3
#
#
#
# Elastic Constant Matrix: (Units=GPa)
#
#
# Indices 1 2 3 4 5 6 
#
# 1 133.4278 42.3920 17.9350 -18.2241 -3.3033 8.2435
# 2 42.3920 78.4482 14.4833 -15.7115 -11.3049 7.3978
# 3 17.9350 14.4833 46.8955 -13.4624 3.7690 1.4900
# 4 -18.2241 -15.7115 -13.4624 31.5183 -6.6585 -2.7576
# 5 -3.3033 -11.3049 3.7690 -6.6585 29.5425 -1.8351
# 6 8.2435 7.3978 1.4900 -2.7576 -1.8351 36.4608
#
#
#
# Elastic Compliance Matrix: (Units=1/GPa)
#
#
# Indices 1 2 3 4 5 6 
#
# 1 0.009460 -0.004163 -0.001544 0.002689 0.000205 -0.001017
# 2 -0.004163 0.018293 -0.002604 0.007224 0.008390 -0.001695
# 3 -0.001544 -0.002604 0.025232 0.008077 -0.002548 0.000329
# 4 0.002689 0.007224 0.008077 0.042953 0.011805 0.001439
# 5 0.000205 0.008390 -0.002548 0.011805 0.040147 0.001269
# 6 -0.001017 -0.001695 0.000329 0.001439 0.001269 0.028160
#
#
# Mechanical properties :
#
#
# Convention : Reuss Voigt Hill
#
# Bulk Modulus (GPa) = 27.50123 45.37689 36.43906
# Shear Modulus (GPa) = 25.90810 31.76840 28.83825
#
# Velocity S-wave (km/s) = 3.50987 3.88661 3.70303
# Velocity P-wave (km/s) = 5.43160 6.45890 5.96740
#
# Compressibility (1/GPa) = 0.03636201
#
# Stress axis : x y z
#
# Youngs Moduli (GPa) = 105.70670 54.66487 39.63241
#
# Poissons Ratio (x) = 0.22756 0.06121
# Poissons Ratio (y) = 0.44004 0.10322
# Poissons Ratio (z) = 0.16325 0.14237
#
# Static dielectric constant tensor:
#      x y z
#    x 4.022260 -0.142980 -0.027580 
#    y -0.142980 3.643380 -0.024450 
#    z -0.027580 -0.024450 3.772600 
# 
# 
# High freq. dielectric constant tensor:
#      x y z
#    x 1.837780 -0.008220 -0.003350 
#    y -0.008220 1.813060 -0.001110 
#    z -0.003350 -0.001110 1.823650 
# 
# From -- ./inp_files/188431.got.cif
#   From: 2010.06.25/outbox.cif.g09.slc.cpg/sg2_95_cif.got.tgz:188431.got - 2010.06.27 13:26:56.
