data_PCOD8010432
_publ_section_title
;
Structure prediction by ZEFSAII (Michael W. Deem and Ramdas Pophale) SiO2 
 PCOD8010432
Probable space group: P -1
;
_chemical_formula_sum "Si O2"
_cell_formula_units_Z 16
_cell_length_a 9.057495
_cell_length_b 10.873863
_cell_length_c 14.044039
_cell_angle_alpha 126.642134
_cell_angle_beta 81.809149
_cell_angle_gamma 128.398273
_cell_volume 810.493660
_symmetry_space_group_name_H-M "P -1"
_symmetry_group_IT_number 2
_symmetry_cell_setting 'triclinic'
loop_
_space_group_symop_operation_xyz
x,y,z
-x,-y,-z
loop_
_atom_site_type_symbol
_atom_site_label
_atom_site_fract_x
_atom_site_fract_y
_atom_site_fract_z
Si Si1 0.289247 0.148046 0.590613
Si Si2 0.081995 0.962825 0.337300
Si Si3 0.011299 0.573376 0.139461
Si Si4 0.119661 0.047662 0.165972
Si Si5 0.575982 0.265122 0.768021
Si Si6 0.696764 0.893195 0.098284
Si Si7 0.403207 0.414836 0.176580
Si Si8 0.262804 0.861127 0.949254
O O1 0.431003 0.125452 0.625641
O O2 0.397731 0.391356 0.694737
O O3 0.075126 0.017951 0.603180
O O4 0.257338 0.065800 0.448379
O O5 0.965711 0.722766 0.214743
O O6 0.184098 0.096110 0.293037
O O7 0.237085 0.717981 0.228789
O O8 0.000000 0.500000 0.000000
O O9 0.853249 0.378693 0.133187
O O10 0.228441 0.260103 0.197813
O O11 0.180550 0.924954 0.063287
O O12 0.879425 0.907177 0.115685
O O13 0.438643 0.158918 0.824608
O O14 0.665644 0.498551 0.850626
O O15 0.556260 0.708648 0.947469
O O16 0.780003 0.105878 0.138562
O O17 0.500000 0.000000 0.000000
#
# Coordination Sequence:
#
# PCOD8010432 Si02
#       8
#     2   2   2   2   2   2   2   2
#     4   9  23  41  60  86 111 167 208 237 290 340
#     4  11  23  40  61  86 120 157 203 251 282 354
#     4  12  24  37  62  90 122 153 193 243 313 352
#     4  11  20  37  60  90 120 155 195 246 297 347
#     4  10  21  38  60  89 117 156 199 239 300 352
#     4  11  20  35  62  88 123 150 193 251 294 355
#     4   9  20  33  61  84 116 152 196 238 288 353
#     4  11  24  37  55  93 125 150 189 243 312 354
#
# _framework density 19.741053999999998
#
# number of rings (size 3 to 8) (size 9 to 14) (size 15 to 20)
#    0.750    0.750    2.500    4.125    5.250    1.000 
#    0.000    0.000    0.000    0.750    0.000    0.000 
#    0.000    0.000    0.000    0.000    0.000    0.000 
#
# Total GULP energy -198303.009949 kJ/mol
# GULP energy per Si atom -12393.938122 kJ/mol
# Density = 1.969612 g / cm^3
# Si number density = 19.741054 Si / 1000 Ang^3
#
#
#
# Elastic Constant Matrix: (Units=GPa)
#
#
# Indices 1 2 3 4 5 6 
#
# 1 83.7985 11.0943 14.6813 -11.8201 15.1459 8.5649
# 2 11.0943 110.2323 31.3385 -20.8283 8.6377 -8.0942
# 3 14.6813 31.3385 82.7486 -11.9564 27.3526 -5.5118
# 4 -11.8201 -20.8283 -11.9564 28.5228 -4.4788 4.5625
# 5 15.1459 8.6377 27.3526 -4.4788 26.8541 -0.4675
# 6 8.5649 -8.0942 -5.5118 4.5625 -0.4675 35.4441
#
#
#
# Elastic Compliance Matrix: (Units=1/GPa)
#
#
# Indices 1 2 3 4 5 6 
#
# 1 0.014503 -0.000303 0.000671 0.005512 -0.007921 -0.004283
# 2 -0.000303 0.011390 -0.003667 0.006668 0.001377 0.001264
# 3 0.000671 -0.003667 0.020253 0.002809 -0.019333 0.001533
# 4 0.005512 0.006668 0.002809 0.044066 -0.000853 -0.005056
# 5 -0.007921 0.001377 -0.019333 -0.000853 0.060815 0.000134
# 6 -0.004283 0.001264 0.001533 -0.005056 0.000134 0.030428
#
#
# Mechanical properties :
#
#
# Convention : Reuss Voigt Hill
#
# Bulk Modulus (GPa) = 25.28603 43.44528 34.36565
# Shear Modulus (GPa) = 24.84668 32.80854 28.82761
#
# Velocity S-wave (km/s) = 3.55157 4.08112 3.82552
# Velocity P-wave (km/s) = 5.44562 6.65302 6.07937
#
# Compressibility (1/GPa) = 0.03954753
#
# Stress axis : x y z
#
# Youngs Moduli (GPa) = 68.95216 87.79863 49.37544
#
# Poissons Ratio (x) = 0.02659 -0.03313
# Poissons Ratio (y) = 0.02088 0.18107
# Poissons Ratio (z) = -0.04626 0.32197
#
# Static dielectric constant tensor:
#      x y z
#    x 3.587370 -0.115240 0.195970 
#    y -0.115240 3.693800 -0.101380 
#    z 0.195970 -0.101380 3.347050 
# 
# 
# High freq. dielectric constant tensor:
#      x y z
#    x 1.769320 -0.002500 0.012750 
#    y -0.002500 1.775760 -0.012140 
#    z 0.012750 -0.012140 1.738020 
# 
# From -- ./inp_files/499412.got.cif
#   From: 2010.06.25/outbox.cif.g09.slc.cpg/sg2_250_cif.got.tgz:499412.got - 2010.06.27 13:26:56.
