data_PCOD8010066
_publ_section_title
;
Structure prediction by ZEFSAII (Michael W. Deem and Ramdas Pophale) SiO2 
 PCOD8010066
Probable space group: P -1
;
_chemical_formula_sum "Si O2"
_cell_formula_units_Z 14
_cell_length_a 12.659554
_cell_length_b 11.729310
_cell_length_c 17.419334
_cell_angle_alpha 147.597533
_cell_angle_beta 38.374320
_cell_angle_gamma 154.691046
_cell_volume 590.106038
_symmetry_space_group_name_H-M "P -1"
_symmetry_group_IT_number 2
_symmetry_cell_setting 'triclinic'
loop_
_space_group_symop_operation_xyz
x,y,z
-x,-y,-z
loop_
_atom_site_type_symbol
_atom_site_label
_atom_site_fract_x
_atom_site_fract_y
_atom_site_fract_z
Si Si1 0.107777 0.675589 0.835009
Si Si2 0.398800 0.059744 0.025945
Si Si3 0.791703 0.976441 0.623879
Si Si4 0.641411 0.874826 0.491031
Si Si5 0.452531 0.127855 0.775364
Si Si6 0.808273 0.803973 0.673854
Si Si7 0.697067 0.586364 0.040001
O O1 0.232137 0.782266 0.740835
O O2 0.891929 0.307359 0.752515
O O3 0.989513 0.803967 0.987776
O O4 0.296820 0.813017 0.876268
O O5 0.187388 0.024901 0.161165
O O6 0.609141 0.404758 0.067135
O O7 0.500000 0.000000 0.000000
O O8 0.591588 0.777277 0.555402
O O9 0.700198 0.839836 0.683263
O O10 0.000000 0.000000 0.500000
O O11 0.410559 0.569638 0.400740
O O12 0.637093 0.129140 0.628708
O O13 0.914567 0.040680 0.403710
O O14 0.350555 0.203200 0.813585
O O15 0.565236 0.356864 0.912377
#
# Coordination Sequence:
#
# PCOD8010066 Si02
#       7
#     2   2   2   2   2   2   2
#     4  11  22  41  68  98 132 176 221 283 342 397
#     4  11  27  42  65  96 137 183 224 271 334 414
#     4  10  21  37  64  97 129 170 217 277 337 395
#     4  11  23  43  66  98 134 179 226 281 337 396
#     4  10  21  40  68  99 129 166 229 286 341 390
#     4  11  26  42  65  96 141 182 224 274 332 411
#     4  10  22  41  66  98 130 172 225 283 338 397
#
# _framework density 23.724550000000001
#
# number of rings (size 3 to 8) (size 9 to 14) (size 15 to 20)
#    0.000    1.429    1.429    3.429    8.000    1.143 
#    0.000    1.429    0.000    0.000    0.000    0.000 
#    0.000    0.000    0.000    0.000    0.000    0.000 
#
# Total GULP energy -173487.199973 kJ/mol
# GULP energy per Si atom -12391.942855 kJ/mol
# Density = 2.367055 g / cm^3
# Si number density = 23.724550 Si / 1000 Ang^3
#
#
#
# Elastic Constant Matrix: (Units=GPa)
#
#
# Indices 1 2 3 4 5 6 
#
# 1 95.3421 27.2414 22.6507 -4.1857 -29.1066 -10.5873
# 2 27.2414 90.4870 25.2623 -10.4848 -7.3649 6.6703
# 3 22.6507 25.2623 97.0351 -13.4183 -21.5899 -7.5128
# 4 -4.1857 -10.4848 -13.4183 34.2852 7.3210 -0.4915
# 5 -29.1066 -7.3649 -21.5899 7.3210 42.4262 -2.7358
# 6 -10.5873 6.6703 -7.5128 -0.4915 -2.7358 25.4253
#
#
#
# Elastic Compliance Matrix: (Units=1/GPa)
#
#
# Indices 1 2 3 4 5 6 
#
# 1 0.016265 -0.005007 0.000564 -0.001638 0.011469 0.009456
# 2 -0.005007 0.014102 -0.003468 0.003040 -0.003738 -0.007153
# 3 0.000564 -0.003468 0.013374 0.002947 0.006460 0.005849
# 4 -0.001638 0.003040 0.002947 0.032037 -0.004656 -0.000491
# 5 0.011469 -0.003738 0.006460 -0.004656 0.035616 0.011407
# 6 0.009456 -0.007153 0.005849 -0.000491 0.011407 0.048091
#
#
# Mechanical properties :
#
#
# Convention : Reuss Voigt Hill
#
# Bulk Modulus (GPa) = 35.81722 48.13031 41.97377
# Shear Modulus (GPa) = 27.08365 34.27464 30.67914
#
# Velocity S-wave (km/s) = 3.38240 3.80503 3.59993
# Velocity P-wave (km/s) = 5.51218 6.29568 5.91691
#
# Compressibility (1/GPa) = 0.02791953
#
# Stress axis : x y z
#
# Youngs Moduli (GPa) = 61.48353 70.91103 74.77084
#
# Poissons Ratio (x) = 0.35508 -0.04220
# Poissons Ratio (y) = 0.30787 0.25927
# Poissons Ratio (z) = -0.03470 0.24589
#
# Static dielectric constant tensor:
#      x y z
#    x 4.412660 -0.063810 -0.099870 
#    y -0.063810 4.128090 -0.154610 
#    z -0.099870 -0.154610 4.371450 
# 
# 
# High freq. dielectric constant tensor:
#      x y z
#    x 1.926550 0.008550 -0.017620 
#    y 0.008550 1.923140 -0.011950 
#    z -0.017620 -0.011950 1.948000 
# 
# From -- ./inp_files/71626.got.cif
#   From: 2010.06.25/outbox.cif.g09.slc.cpg/sg2_36_cif.got.tgz:71626.got - 2010.06.27 13:26:56.
