data_PCOD8010031
_publ_section_title
;
Structure prediction by ZEFSAII (Michael W. Deem and Ramdas Pophale) SiO2 
 PCOD8010031
Probable space group: P -1
;
_chemical_formula_sum "Si O2"
_cell_formula_units_Z 16
_cell_length_a 14.583281
_cell_length_b 10.031719
_cell_length_c 15.862575
_cell_angle_alpha 137.772525
_cell_angle_beta 43.662779
_cell_angle_gamma 102.309567
_cell_volume 774.230726
_symmetry_space_group_name_H-M "P -1"
_symmetry_group_IT_number 2
_symmetry_cell_setting 'triclinic'
loop_
_space_group_symop_operation_xyz
x,y,z
-x,-y,-z
loop_
_atom_site_type_symbol
_atom_site_label
_atom_site_fract_x
_atom_site_fract_y
_atom_site_fract_z
Si Si1 0.999117 0.581817 0.132112
Si Si2 0.341911 0.615481 0.594244
Si Si3 0.234716 0.146324 0.908124
Si Si4 0.831509 0.213844 0.818489
Si Si5 0.366727 0.177949 0.432463
Si Si6 0.868706 0.395270 0.713630
Si Si7 0.602371 0.807930 0.953973
Si Si8 0.450230 0.735274 0.866681
O O1 0.044496 0.768417 0.198465
O O2 0.790399 0.784230 0.399877
O O3 0.162158 0.289165 0.932150
O O4 0.000000 0.500000 0.000000
O O5 0.500000 0.500000 0.500000
O O6 0.260481 0.491057 0.621955
O O7 0.418087 0.519023 0.403489
O O8 0.197987 0.948262 0.848719
O O9 0.452908 0.971857 0.697867
O O10 0.108977 0.396372 0.176795
O O11 0.765002 0.393951 0.861180
O O12 0.666559 0.313681 0.033570
O O13 0.936891 0.906857 0.574917
O O14 0.427369 0.999492 0.223539
O O15 0.755515 0.512243 0.757574
O O16 0.568031 0.731166 0.854633
O O17 0.664346 0.973608 0.971544
#
# Coordination Sequence:
#
# PCOD8010031 Si02
#       8
#     2   2   2   2   2   2   2   2
#     4  11  25  40  57  92 126 163 211 249 305 367
#     4   9  19  38  65  88 117 164 205 246 317 365
#     4   9  20  40  62  89 116 163 206 246 310 362
#     4  10  23  39  60  89 127 160 201 257 305 362
#     4   9  20  40  64  85 124 163 197 261 304 367
#     4   9  20  41  58  91 120 163 200 242 314 369
#     4   9  20  39  62  93 117 162 207 248 316 361
#     4  10  21  37  64  92 123 155 206 261 301 366
#
# _framework density 20.665675
#
# number of rings (size 3 to 8) (size 9 to 14) (size 15 to 20)
#    0.000    2.500    0.000    0.750    8.750    3.000 
#    9.000    0.000    0.000    0.000    0.000    0.000 
#    0.000    0.000    0.000    0.000    0.000    0.000 
#
# Total GULP energy -198219.279405 kJ/mol
# GULP energy per Si atom -12388.704963 kJ/mol
# Density = 2.061864 g / cm^3
# Si number density = 20.665675 Si / 1000 Ang^3
#
#
#
# Elastic Constant Matrix: (Units=GPa)
#
#
# Indices 1 2 3 4 5 6 
#
# 1 92.1006 28.2259 21.9343 11.1351 22.7367 -14.2268
# 2 28.2259 67.1390 21.1494 15.3695 7.2840 -10.8681
# 3 21.9343 21.1494 42.4564 17.2722 19.0395 -5.4100
# 4 11.1351 15.3695 17.2722 42.5118 2.1382 3.1626
# 5 22.7367 7.2840 19.0395 2.1382 30.6594 0.5737
# 6 -14.2268 -10.8681 -5.4100 3.1626 0.5737 36.0591
#
#
#
# Elastic Compliance Matrix: (Units=1/GPa)
#
#
# Indices 1 2 3 4 5 6 
#
# 1 0.015918 -0.004162 0.000702 -0.002802 -0.011160 0.005554
# 2 -0.004162 0.020004 -0.007240 -0.003617 0.003016 0.003570
# 3 0.000702 -0.007240 0.045607 -0.015277 -0.026182 0.006694
# 4 -0.002802 -0.003617 -0.015277 0.031805 0.010346 -0.007442
# 5 -0.011160 0.003016 -0.026182 0.010346 0.055886 -0.009219
# 6 0.005554 0.003570 0.006694 -0.007442 -0.009219 0.032803
#
#
# Mechanical properties :
#
#
# Convention : Reuss Voigt Hill
#
# Bulk Modulus (GPa) = 16.63117 38.25725 27.44421
# Shear Modulus (GPa) = 20.53667 30.53847 25.53757
#
# Velocity S-wave (km/s) = 3.15581 3.84831 3.51913
# Velocity P-wave (km/s) = 4.61996 6.18859 5.46089
#
# Compressibility (1/GPa) = 0.06012807
#
# Stress axis : x y z
#
# Youngs Moduli (GPa) = 62.82256 49.99054 21.92639
#
# Poissons Ratio (x) = 0.20805 -0.01539
# Poissons Ratio (y) = 0.26146 0.15876
# Poissons Ratio (z) = -0.04409 0.36195
#
# Static dielectric constant tensor:
#      x y z
#    x 3.888320 -0.001710 0.302450 
#    y -0.001710 4.304220 0.433960 
#    z 0.302450 0.433960 3.583240 
# 
# 
# High freq. dielectric constant tensor:
#      x y z
#    x 1.811690 -0.005010 0.025380 
#    y -0.005010 1.816130 0.018820 
#    z 0.025380 0.018820 1.782080 
# 
# From -- ./inp_files/530127.got.cif
#   From: 2010.06.25/outbox.cif.g09.slc.cpg/sg2_266_cif.got.tgz:530127.got - 2010.06.27 13:26:56.
