data_PCOD8010729
_publ_section_title
;
Structure prediction by ZEFSAII (Michael W. Deem and Ramdas Pophale) SiO2 
 PCOD8010729
Probable space group: P -1
;
_chemical_formula_sum "Si O2"
_cell_formula_units_Z 16
_cell_length_a 12.348814
_cell_length_b 12.899763
_cell_length_c 14.625312
_cell_angle_alpha 125.159357
_cell_angle_beta 145.789404
_cell_angle_gamma 37.147925
_cell_volume 766.818413
_symmetry_space_group_name_H-M "P -1"
_symmetry_group_IT_number 2
_symmetry_cell_setting 'triclinic'
loop_
_space_group_symop_operation_xyz
x,y,z
-x,-y,-z
loop_
_atom_site_type_symbol
_atom_site_label
_atom_site_fract_x
_atom_site_fract_y
_atom_site_fract_z
Si Si1 0.905117 0.074759 0.152727
Si Si2 0.073582 0.594381 0.220109
Si Si3 0.312831 0.593502 0.730141
Si Si4 0.250027 0.022171 0.841774
Si Si5 0.410160 0.345436 0.169763
Si Si6 0.083581 0.504795 0.385214
Si Si7 0.499716 0.852077 0.414538
Si Si8 0.542061 0.691371 0.184879
O O1 0.885189 0.215318 0.264601
O O2 0.796748 0.007081 0.102843
O O3 0.739058 0.157699 0.985175
O O4 0.216368 0.912283 0.264092
O O5 0.336028 0.436573 0.263385
O O6 0.138070 0.531315 0.336439
O O7 0.011233 0.774913 0.266119
O O8 0.826170 0.628977 0.025455
O O9 0.545016 0.556492 0.816119
O O10 0.130079 0.592779 0.536539
O O11 0.457749 0.445441 0.835142
O O12 0.321238 0.868452 0.747337
O O13 0.500000 0.000000 0.000000
O O14 0.288689 0.296059 0.439126
O O15 0.780567 0.591678 0.226472
O O16 0.591778 0.777054 0.338279
O O17 0.500000 0.000000 0.500000
#
# Coordination Sequence:
#
# PCOD8010729 Si02
#       8
#     2   2   2   2   2   2   2   2
#     4  11  22  40  64  95 120 165 213 259 311 372
#     4  10  21  40  63  85 127 164 215 255 311 372
#     4  10  21  38  63  87 127 156 205 258 315 376
#     4   9  19  38  61  88 126 157 209 267 305 362
#     4   9  20  39  60  93 118 166 212 263 305 371
#     4  11  23  41  62  91 124 172 199 253 326 373
#     4  11  24  42  58  94 134 158 203 262 318 377
#     4  11  22  40  66  89 122 167 212 251 313 377
#
# _framework density 20.865435999999999
#
# number of rings (size 3 to 8) (size 9 to 14) (size 15 to 20)
#    0.000    1.750    0.000    6.000    3.500    1.500 
#   11.250    1.250    0.000    0.000    0.000    0.000 
#    0.000    0.000    0.000    0.000    0.000    0.000 
#
# Total GULP energy -198391.694149 kJ/mol
# GULP energy per Si atom -12399.480884 kJ/mol
# Density = 2.081795 g / cm^3
# Si number density = 20.865436 Si / 1000 Ang^3
#
#
#
# Elastic Constant Matrix: (Units=GPa)
#
#
# Indices 1 2 3 4 5 6 
#
# 1 136.9242 57.6785 25.8021 -6.8233 -8.3448 5.6126
# 2 57.6785 134.4824 29.5831 -4.5760 -10.9345 9.5737
# 3 25.8021 29.5831 44.8345 -12.4067 -8.8940 4.1449
# 4 -6.8233 -4.5760 -12.4067 25.1854 1.1274 7.0298
# 5 -8.3448 -10.9345 -8.8940 1.1274 38.4099 -2.7414
# 6 5.6126 9.5737 4.1449 7.0298 -2.7414 33.1335
#
#
#
# Elastic Compliance Matrix: (Units=1/GPa)
#
#
# Indices 1 2 3 4 5 6 
#
# 1 0.009298 -0.003268 -0.002933 0.000562 0.000369 -0.000352
# 2 -0.003268 0.010016 -0.004676 -0.001005 0.000984 -0.001461
# 3 -0.002933 -0.004676 0.032886 0.015797 0.004810 -0.005220
# 4 0.000562 -0.001005 0.015797 0.050893 0.001109 -0.012487
# 5 0.000369 0.000984 0.004810 0.001109 0.027555 0.001096
# 6 -0.000352 -0.001461 -0.005220 -0.012487 0.001096 0.034056
#
#
# Mechanical properties :
#
#
# Convention : Reuss Voigt Hill
#
# Bulk Modulus (GPa) = 32.84605 60.26317 46.55461
# Shear Modulus (GPa) = 25.43160 32.89093 29.16126
#
# Velocity S-wave (km/s) = 3.49497 3.97462 3.74249
# Velocity P-wave (km/s) = 5.66237 7.07163 6.40587
#
# Compressibility (1/GPa) = 0.03044507
#
# Stress axis : x y z
#
# Youngs Moduli (GPa) = 107.55353 99.83974 30.40825
#
# Poissons Ratio (x) = 0.32631 0.08919
# Poissons Ratio (y) = 0.35152 0.14219
# Poissons Ratio (z) = 0.31545 0.46685
#
# Static dielectric constant tensor:
#      x y z
#    x 3.986810 -0.086450 0.020080 
#    y -0.086450 4.319190 0.009310 
#    z 0.020080 0.009310 3.422820 
# 
# 
# High freq. dielectric constant tensor:
#      x y z
#    x 1.831230 -0.000830 0.006880 
#    y -0.000830 1.830840 0.003600 
#    z 0.006880 0.003600 1.792010 
# 
# From -- ./inp_files/225841.got.cif
#   From: 2010.06.25/outbox.cif.g09.slc.cpg/sg2_113_cif.got.tgz:225841.got - 2010.06.27 13:26:56.
