data_PCOD8010373
_publ_section_title
;
Structure prediction by ZEFSAII (Michael W. Deem and Ramdas Pophale) SiO2 
 PCOD8010373
Probable space group: P -1
;
_chemical_formula_sum "Si O2"
_cell_formula_units_Z 16
_cell_length_a 11.553575
_cell_length_b 13.452979
_cell_length_c 13.843850
_cell_angle_alpha 113.918902
_cell_angle_beta 147.135944
_cell_angle_gamma 89.638581
_cell_volume 788.665024
_symmetry_space_group_name_H-M "P -1"
_symmetry_group_IT_number 2
_symmetry_cell_setting 'triclinic'
loop_
_space_group_symop_operation_xyz
x,y,z
-x,-y,-z
loop_
_atom_site_type_symbol
_atom_site_label
_atom_site_fract_x
_atom_site_fract_y
_atom_site_fract_z
Si Si1 0.428599 0.848530 0.392984
Si Si2 0.744757 0.750753 0.062573
Si Si3 0.313748 0.152466 0.754998
Si Si4 0.242477 0.761858 0.439331
Si Si5 0.422734 0.609152 0.590027
Si Si6 0.696061 0.077849 0.967994
Si Si7 0.077466 0.289242 0.150275
Si Si8 0.900682 0.917578 0.622105
O O1 0.384209 0.790866 0.446442
O O2 0.690388 0.867488 0.543914
O O3 0.500000 0.000000 0.500000
O O4 0.144201 0.726906 0.082909
O O5 0.601425 0.729736 0.057845
O O6 0.924875 0.702007 0.181096
O O7 0.495832 0.645230 0.768453
O O8 0.953830 0.918623 0.239847
O O9 0.284389 0.191930 0.641854
O O10 0.564357 0.148682 0.931048
O O11 0.000000 0.000000 0.500000
O O12 0.217629 0.638131 0.426971
O O13 0.435178 0.907689 0.696196
O O14 0.257373 0.439664 0.394750
O O15 0.712262 0.713017 0.768385
O O16 0.904634 0.155303 0.051914
O O17 0.865895 0.091479 0.185743
#
# Coordination Sequence:
#
# PCOD8010373 Si02
#       8
#     2   2   2   2   2   2   2   2
#     4  12  19  36  63  88 122 154 192 253 301 347
#     4  11  21  39  59  88 126 157 197 249 304 350
#     4  10  21  38  59  93 123 152 200 261 300 342
#     4  12  22  36  65  93 119 159 200 246 302 361
#     4  11  25  41  60  90 126 163 198 239 302 371
#     4  12  22  38  66  93 119 157 204 250 304 348
#     4  11  23  43  61  88 129 160 195 247 302 365
#     4  11  21  35  61  91 121 153 198 253 299 350
#
# _framework density 20.287445999999999
#
# number of rings (size 3 to 8) (size 9 to 14) (size 15 to 20)
#    0.000    0.750    8.750    0.750    0.000    4.500 
#    2.250    0.625    0.000    1.500    0.000    0.000 
#    0.000    0.000    0.000    0.000    0.000    0.000 
#
# Total GULP energy -198441.826959 kJ/mol
# GULP energy per Si atom -12402.614185 kJ/mol
# Density = 2.024127 g / cm^3
# Si number density = 20.287446 Si / 1000 Ang^3
#
#
#
# Elastic Constant Matrix: (Units=GPa)
#
#
# Indices 1 2 3 4 5 6 
#
# 1 111.2772 19.3846 28.6262 -20.5171 -26.3313 -8.1363
# 2 19.3846 73.9846 25.1298 -39.1907 -12.0464 2.9543
# 3 28.6262 25.1298 69.8865 -26.7516 -23.1974 -2.2649
# 4 -20.5171 -39.1907 -26.7516 42.9941 2.0478 -1.3050
# 5 -26.3313 -12.0464 -23.1974 2.0478 40.2348 -4.4672
# 6 -8.1363 2.9543 -2.2649 -1.3050 -4.4672 11.5212
#
#
#
# Elastic Compliance Matrix: (Units=1/GPa)
#
#
# Indices 1 2 3 4 5 6 
#
# 1 0.013863 0.002173 0.001600 0.009489 0.011853 0.015218
# 2 0.002173 0.028817 0.003571 0.029080 0.010891 0.002364
# 3 0.001600 0.003571 0.026523 0.020110 0.018016 0.014692
# 4 0.009489 0.029080 0.020110 0.066220 0.025423 0.020556
# 5 0.011853 0.010891 0.018016 0.025423 0.048380 0.030758
# 6 0.015218 0.002364 0.014692 0.020556 0.030758 0.114080
#
#
# Mechanical properties :
#
#
# Convention : Reuss Voigt Hill
#
# Bulk Modulus (GPa) = 11.92013 44.60328 28.26170
# Shear Modulus (GPa) = 16.06890 31.08387 23.57639
#
# Velocity S-wave (km/s) = 2.81741 3.91854 3.41268
# Velocity P-wave (km/s) = 4.05859 6.51972 5.43042
#
# Compressibility (1/GPa) = 0.08389172
#
# Stress axis : x y z
#
# Youngs Moduli (GPa) = 72.13209 34.70189 37.70245
#
# Poissons Ratio (x) = -0.07541 -0.06032
# Poissons Ratio (y) = -0.15675 -0.13463
# Poissons Ratio (z) = -0.11540 -0.12392
#
# Static dielectric constant tensor:
#      x y z
#    x 4.153160 0.003600 -0.258670 
#    y 0.003600 3.464680 -0.304150 
#    z -0.258670 -0.304150 3.726790 
# 
# 
# High freq. dielectric constant tensor:
#      x y z
#    x 1.800150 -0.005490 -0.014020 
#    y -0.005490 1.770620 -0.030780 
#    z -0.014020 -0.030780 1.785410 
# 
# From -- ./inp_files/273019.got.cif
#   From: 2010.06.25/outbox.cif.g09.slc.cpg/sg2_137_cif.got.tgz:273019.got - 2010.06.27 13:26:56.
