data_PCOD8010649
_publ_section_title
;
Structure prediction by ZEFSAII (Michael W. Deem and Ramdas Pophale) SiO2 
 PCOD8010649
Probable space group: P -1
;
_chemical_formula_sum "Si O2"
_cell_formula_units_Z 16
_cell_length_a 8.407772
_cell_length_b 11.863191
_cell_length_c 13.945350
_cell_angle_alpha 106.420817
_cell_angle_beta 52.921449
_cell_angle_gamma 69.245536
_cell_volume 774.723390
_symmetry_space_group_name_H-M "P -1"
_symmetry_group_IT_number 2
_symmetry_cell_setting 'triclinic'
loop_
_space_group_symop_operation_xyz
x,y,z
-x,-y,-z
loop_
_atom_site_type_symbol
_atom_site_label
_atom_site_fract_x
_atom_site_fract_y
_atom_site_fract_z
Si Si1 0.344834 0.144526 0.517085
Si Si2 0.023530 0.855474 0.482915
Si Si3 0.632113 0.543072 0.162932
Si Si4 0.649283 0.756071 0.905988
Si Si5 0.998951 0.543071 0.162932
Si Si6 0.784852 0.101417 0.230023
Si Si7 0.153687 0.101416 0.230022
Si Si8 0.282669 0.756071 0.905989
O O1 0.103187 0.310690 0.697963
O O2 0.552168 0.154768 0.399960
O O3 0.222322 0.115053 0.470152
O O4 0.500000 0.000000 0.500000
O O5 0.309802 0.689310 0.302038
O O6 0.006855 0.845232 0.600041
O O7 0.000000 0.000000 0.500000
O O8 0.747978 0.596833 0.203605
O O9 0.701078 0.389581 0.146389
O O10 0.763143 0.500001 0.000000
O O11 0.786120 0.786537 0.785392
O O12 0.500212 0.710037 0.894769
O O13 0.883440 0.610418 0.853609
O O14 0.437235 0.914346 0.087309
O O15 0.643440 0.213464 0.214609
O O16 0.968842 0.127254 0.217532
O O17 0.973802 0.914346 0.087309
#
# Coordination Sequence:
#
# PCOD8010649 Si02
#       8
#     2   2   2   2   2   2   2   2
#     4  12  25  41  62  88 120 156 198 245 295 352
#     4  12  25  41  62  88 120 156 198 245 295 352
#     4  11  24  41  62  88 119 156 199 246 296 351
#     4  10  21  38  62  91 122 157 197 242 294 351
#     4  11  24  41  62  88 119 156 199 246 296 351
#     4  10  21  39  63  90 122 158 197 242 293 350
#     4  10  21  39  63  90 122 158 197 242 293 350
#     4  10  21  38  62  91 122 157 197 242 294 351
#
# _framework density 20.652531
#
# number of rings (size 3 to 8) (size 9 to 14) (size 15 to 20)
#    0.000    1.250    0.000    6.000    0.000   10.000 
#    0.000    5.000    0.000    0.000    0.000    0.000 
#    0.000    0.000    0.000    0.000    0.000    0.000 
#
# Total GULP energy -198542.511943 kJ/mol
# GULP energy per Si atom -12408.906996 kJ/mol
# Density = 2.060552 g / cm^3
# Si number density = 20.652531 Si / 1000 Ang^3
#
#
#
# Elastic Constant Matrix: (Units=GPa)
#
#
# Indices 1 2 3 4 5 6 
#
# 1 60.7559 15.5390 14.3516 3.9382 0.1822 -0.3810
# 2 15.5390 116.0898 53.9220 2.9472 0.7741 -0.4540
# 3 14.3516 53.9220 110.0503 -9.1234 0.9278 -0.9334
# 4 3.9382 2.9472 -9.1234 36.1460 -0.4028 0.0303
# 5 0.1822 0.7741 0.9278 -0.4028 29.7430 0.5505
# 6 -0.3810 -0.4540 -0.9334 0.0303 0.5505 36.0584
#
#
#
# Elastic Compliance Matrix: (Units=1/GPa)
#
#
# Indices 1 2 3 4 5 6 
#
# 1 0.017388 -0.001466 -0.001731 -0.002212 -0.000047 0.000123
# 2 -0.001466 0.011473 -0.005611 -0.002194 -0.000144 -0.000012
# 3 -0.001731 -0.005611 0.012378 0.003768 -0.000183 0.000231
# 4 -0.002212 -0.002194 0.003768 0.029040 0.000346 0.000017
# 5 -0.000047 -0.000144 -0.000183 0.000346 0.033645 -0.000521
# 6 0.000123 -0.000012 0.000231 0.000017 -0.000521 0.027748
#
#
# Mechanical properties :
#
#
# Convention : Reuss Voigt Hill
#
# Bulk Modulus (GPa) = 42.33438 50.50236 46.41837
# Shear Modulus (GPa) = 31.81414 33.92837 32.87125
#
# Velocity S-wave (km/s) = 3.92911 4.05757 3.99386
# Velocity P-wave (km/s) = 6.41302 6.81603 6.61759
#
# Compressibility (1/GPa) = 0.02362147
#
# Stress axis : x y z
#
# Youngs Moduli (GPa) = 57.51232 87.15979 80.79063
#
# Poissons Ratio (x) = 0.12781 0.13985
# Poissons Ratio (y) = 0.08434 0.45332
# Poissons Ratio (z) = 0.09955 0.48906
#
# Static dielectric constant tensor:
#      x y z
#    x 3.787200 0.000410 0.000320 
#    y 0.000410 3.495860 -0.232530 
#    z 0.000320 -0.232530 3.601200 
# 
# 
# High freq. dielectric constant tensor:
#      x y z
#    x 1.817970 -0.000070 -0.000140 
#    y -0.000070 1.817400 -0.003890 
#    z -0.000140 -0.003890 1.808100 
# 
# From -- ./inp_files/245555.got.cif
#   From: 2010.06.25/outbox.cif.g09.slc.cpg/sg2_123_cif.got.tgz:245555.got - 2010.06.27 13:26:56.
