data_PCOD8010006
_publ_section_title
;
Structure prediction by ZEFSAII (Michael W. Deem and Ramdas Pophale) SiO2 
 PCOD8010006
Probable space group: P -1
;
_chemical_formula_sum "Si O2"
_cell_formula_units_Z 14
_cell_length_a 23.141715
_cell_length_b 9.672487
_cell_length_c 8.333919
_cell_angle_alpha 84.366718
_cell_angle_beta 80.188609
_cell_angle_gamma 151.964258
_cell_volume 729.002690
_symmetry_space_group_name_H-M "P -1"
_symmetry_group_IT_number 2
_symmetry_cell_setting 'triclinic'
loop_
_space_group_symop_operation_xyz
x,y,z
-x,-y,-z
loop_
_atom_site_type_symbol
_atom_site_label
_atom_site_fract_x
_atom_site_fract_y
_atom_site_fract_z
Si Si1 0.504819 0.166693 0.411533
Si Si2 0.047084 0.279407 0.802717
Si Si3 0.763769 0.804314 0.996086
Si Si4 0.343476 0.133733 0.041744
Si Si5 0.667262 0.094277 0.197704
Si Si6 0.211614 0.421476 0.124050
Si Si7 0.758704 0.328609 0.633516
O O1 0.666275 0.562006 0.229388
O O2 0.500000 0.000000 0.500000
O O3 0.459761 0.169096 0.579656
O O4 0.392317 0.947273 0.344049
O O5 0.169734 0.536612 0.849623
O O6 0.123242 0.466481 0.573404
O O7 0.942213 0.914432 0.869551
O O8 0.938126 0.170795 0.913712
O O9 0.740533 0.903397 0.919469
O O10 0.726683 0.603570 0.903218
O O11 0.357164 0.104878 0.857269
O O12 0.500000 0.500000 0.000000
O O13 0.257385 0.839069 0.225836
O O14 0.662130 0.209383 0.059792
O O15 0.182445 0.413428 0.318380
#
# Coordination Sequence:
#
# PCOD8010006 Si02
#       7
#     2   2   2   2   2   2   2
#     4  11  20  37  58  92 112 149 197 241 281 341
#     4   9  20  38  59  89 115 148 196 236 286 342
#     4  10  22  36  60  83 123 144 196 238 283 332
#     4  11  23  41  58  85 117 157 193 235 285 346
#     4  10  21  37  65  80 118 158 188 234 293 339
#     4   9  19  36  61  88 115 149 190 239 287 333
#     4  10  21  37  64  82 119 154 191 233 291 344
#
# _framework density 19.204319000000002
#
# number of rings (size 3 to 8) (size 9 to 14) (size 15 to 20)
#    0.857    1.143    2.857    0.857    0.000    3.429 
#    0.000    0.000    0.000    0.000    0.000    0.000 
#    0.000    0.000    0.000    0.000    0.000    0.000 
#
# Total GULP energy -173451.813978 kJ/mol
# GULP energy per Si atom -12389.415284 kJ/mol
# Density = 1.916061 g / cm^3
# Si number density = 19.204319 Si / 1000 Ang^3
#
#
#
# Elastic Constant Matrix: (Units=GPa)
#
#
# Indices 1 2 3 4 5 6 
#
# 1 124.2342 28.7217 53.8694 5.1645 -5.9954 -18.0353
# 2 28.7217 91.9576 38.8728 20.2743 -13.5441 -16.7823
# 3 53.8694 38.8728 104.1425 1.6954 -17.1669 -1.6242
# 4 5.1645 20.2743 1.6954 20.3103 1.6450 1.1118
# 5 -5.9954 -13.5441 -17.1669 1.6450 34.2579 -6.5150
# 6 -18.0353 -16.7823 -1.6242 1.1118 -6.5150 25.5508
#
#
#
# Elastic Compliance Matrix: (Units=1/GPa)
#
#
# Indices 1 2 3 4 5 6 
#
# 1 0.012255 0.002556 -0.006681 -0.005868 0.002125 0.010702
# 2 0.002556 0.025325 -0.008007 -0.027446 0.011983 0.022179
# 3 -0.006681 -0.008007 0.016026 0.008715 0.001579 -0.008933
# 4 -0.005868 -0.027446 0.008715 0.080384 -0.016969 -0.029440
# 5 0.002125 0.011983 0.001579 -0.016969 0.039776 0.020351
# 6 0.010702 0.022179 -0.008933 -0.029440 0.020351 0.067161
#
#
# Mechanical properties :
#
#
# Convention : Reuss Voigt Hill
#
# Bulk Modulus (GPa) = 34.08045 62.58470 48.33258
# Shear Modulus (GPa) = 18.18374 29.28184 23.73279
#
# Velocity S-wave (km/s) = 3.08044 3.90904 3.51922
# Velocity P-wave (km/s) = 5.51697 7.28243 6.46029
#
# Compressibility (1/GPa) = 0.02934234
#
# Stress axis : x y z
#
# Youngs Moduli (GPa) = 81.59764 39.48711 62.39975
#
# Poissons Ratio (x) = -0.10093 0.41687
# Poissons Ratio (y) = -0.20857 0.49964
# Poissons Ratio (z) = 0.54513 0.31618
#
# Static dielectric constant tensor:
#      x y z
#    x 2.776980 0.146130 -0.379630 
#    y 0.146130 3.494860 0.196170 
#    z -0.379630 0.196170 3.459480 
# 
# 
# High freq. dielectric constant tensor:
#      x y z
#    x 1.737210 -0.004680 -0.008500 
#    y -0.004680 1.735970 0.003890 
#    z -0.008500 0.003890 1.752900 
# 
# From -- ./inp_files/235396.got.cif
#   From: 2010.06.25/outbox.cif.g09.slc.cpg/sg2_118_cif.got.tgz:235396.got - 2010.06.27 13:26:56.
