data_PCOD8010523
_publ_section_title
;
Structure prediction by ZEFSAII (Michael W. Deem and Ramdas Pophale) SiO2 
 PCOD8010523
Probable space group: P -1
;
_chemical_formula_sum "Si O2"
_cell_formula_units_Z 16
_cell_length_a 11.253301
_cell_length_b 11.390005
_cell_length_c 12.354958
_cell_angle_alpha 147.107240
_cell_angle_beta 115.985751
_cell_angle_gamma 62.983229
_cell_volume 760.870275
_symmetry_space_group_name_H-M "P -1"
_symmetry_group_IT_number 2
_symmetry_cell_setting 'triclinic'
loop_
_space_group_symop_operation_xyz
x,y,z
-x,-y,-z
loop_
_atom_site_type_symbol
_atom_site_label
_atom_site_fract_x
_atom_site_fract_y
_atom_site_fract_z
Si Si1 0.562070 0.400520 0.177590
Si Si2 0.098123 0.701246 0.480478
Si Si3 0.875721 0.072202 0.687418
Si Si4 0.673173 0.795559 0.460585
Si Si5 0.529337 0.899411 0.261090
Si Si6 0.170817 0.827685 0.837478
Si Si7 0.980758 0.269550 0.086790
Si Si8 0.317187 0.734431 0.428708
O O1 0.674497 0.545213 0.300148
O O2 0.664636 0.203111 0.123799
O O3 0.443434 0.538422 0.307986
O O4 0.486982 0.309411 0.977639
O O5 0.122062 0.700740 0.617904
O O6 0.021416 0.504972 0.268157
O O7 0.240093 0.665609 0.447852
O O8 0.016000 0.940370 0.592948
O O9 0.781939 0.224424 0.682837
O O10 0.815637 0.861308 0.544149
O O11 0.895819 0.230997 0.916754
O O12 0.580770 0.820668 0.337889
O O13 0.613467 0.946987 0.655183
O O14 0.629282 0.039685 0.350830
O O15 0.112370 0.732444 0.847686
O O16 0.115744 0.087600 0.008717
#
# Coordination Sequence:
#
# PCOD8010523 Si02
#       8
#     2   2   2   2   2   2   2   2
#     4  11  21  35  59  85 116 156 189 230 287 341
#     4  11  23  41  60  80 116 159 194 233 282 335
#     4  10  21  38  61  89 117 144 187 244 291 337
#     4   9  18  33  56  88 116 144 185 235 290 342
#     4   9  19  35  55  83 120 150 183 232 285 342
#     4  10  23  39  59  87 113 147 196 244 282 329
#     4  10  22  40  63  87 111 148 196 240 287 340
#     4  10  24  39  56  88 120 151 191 232 282 348
#
# _framework density 21.028552000000001
#
# number of rings (size 3 to 8) (size 9 to 14) (size 15 to 20)
#    0.000    2.000    0.000    3.375    0.000   10.000 
#    0.000    1.250    0.000    0.000    0.000    0.000 
#    0.000    0.000    0.000    0.000    0.000    0.000 
#
# Total GULP energy -198309.405720 kJ/mol
# GULP energy per Si atom -12394.337857 kJ/mol
# Density = 2.098069 g / cm^3
# Si number density = 21.028552 Si / 1000 Ang^3
#
#
#
# Elastic Constant Matrix: (Units=GPa)
#
#
# Indices 1 2 3 4 5 6 
#
# 1 89.4296 37.9159 42.2563 0.9585 -16.5020 -11.6066
# 2 37.9159 59.8884 20.5305 4.1921 -15.7378 -19.9842
# 3 42.2563 20.5305 115.0878 -2.8262 -11.1467 -2.0570
# 4 0.9585 4.1921 -2.8262 17.9176 -3.8141 -0.4452
# 5 -16.5020 -15.7378 -11.1467 -3.8141 18.1015 3.6542
# 6 -11.6066 -19.9842 -2.0570 -0.4452 3.6542 34.1432
#
#
#
# Elastic Compliance Matrix: (Units=1/GPa)
#
#
# Indices 1 2 3 4 5 6 
#
# 1 0.018013 -0.008015 -0.004458 0.001705 0.006978 0.000439
# 2 -0.008015 0.030964 -0.000906 -0.003297 0.015609 0.013631
# 3 -0.004458 -0.000906 0.010784 0.002683 0.002686 -0.001649
# 4 0.001705 -0.003297 0.002683 0.059698 0.013288 -0.001833
# 5 0.006978 0.015609 0.002686 0.013288 0.078946 0.003394
# 6 0.000439 0.013631 -0.001649 -0.001833 0.003394 0.036929
#
#
# Mechanical properties :
#
#
# Convention : Reuss Voigt Hill
#
# Bulk Modulus (GPa) = 30.30129 51.75678 41.02904
# Shear Modulus (GPa) = 18.30871 24.94598 21.62734
#
# Velocity S-wave (km/s) = 2.95390 3.44799 3.21046
# Velocity P-wave (km/s) = 5.10636 6.36534 5.77029
#
# Compressibility (1/GPa) = 0.03300189
#
# Stress axis : x y z
#
# Youngs Moduli (GPa) = 55.51509 32.29562 92.72749
#
# Poissons Ratio (x) = 0.25885 0.41342
# Poissons Ratio (y) = 0.44495 0.08404
# Poissons Ratio (z) = 0.24751 0.02927
#
# Static dielectric constant tensor:
#      x y z
#    x 3.798820 -0.218090 -0.068890 
#    y -0.218090 3.621410 0.082430 
#    z -0.068890 0.082430 3.782230 
# 
# 
# High freq. dielectric constant tensor:
#      x y z
#    x 1.820970 -0.021250 -0.005960 
#    y -0.021250 1.811230 0.004240 
#    z -0.005960 0.004240 1.829550 
# 
# From -- ./inp_files/363829.got.cif
#   From: 2010.06.25/outbox.cif.g09.slc.cpg/sg2_182_cif.got.tgz:363829.got - 2010.06.27 13:26:56.
