data_PCOD8010932
_publ_section_title
;
Structure prediction by ZEFSAII (Michael W. Deem and Ramdas Pophale) SiO2 
 PCOD8010932
Probable space group: P -1
;
_chemical_formula_sum "Si O2"
_cell_formula_units_Z 14
_cell_length_a 18.507077
_cell_length_b 8.914445
_cell_length_c 8.066821
_cell_angle_alpha 34.012824
_cell_angle_beta 74.700172
_cell_angle_gamma 61.613672
_cell_volume 631.605629
_symmetry_space_group_name_H-M "P -1"
_symmetry_group_IT_number 2
_symmetry_cell_setting 'triclinic'
loop_
_space_group_symop_operation_xyz
x,y,z
-x,-y,-z
loop_
_atom_site_type_symbol
_atom_site_label
_atom_site_fract_x
_atom_site_fract_y
_atom_site_fract_z
Si Si1 0.678726 0.961746 0.907388
Si Si2 0.111564 0.553307 0.406835
Si Si3 0.922016 0.931525 0.269637
Si Si4 0.218126 0.684626 0.462463
Si Si5 0.940237 0.851889 0.683958
Si Si6 0.556752 0.122729 0.141953
Si Si7 0.438102 0.823290 0.537362
O O1 0.716312 0.187395 0.729259
O O2 0.634234 0.070783 0.656074
O O3 0.745236 0.601030 0.169433
O O4 0.623041 0.966952 0.095232
O O5 0.121471 0.216104 0.688333
O O6 0.195318 0.536379 0.454637
O O7 0.024866 0.741412 0.390522
O O8 0.102456 0.725167 0.080335
O O9 0.887643 0.918937 0.483352
O O10 0.131283 0.986114 0.284061
O O11 0.000000 0.000000 0.500000
O O12 0.000000 0.500000 0.000000
O O13 0.599596 0.093332 0.326729
O O14 0.497823 0.966911 0.327788
O O15 0.496408 0.466292 0.812830
#
# Coordination Sequence:
#
# PCOD8010932 Si02
#       7
#     2   2   2   2   2   2   2
#     4  12  24  42  63  97 140 172 201 260 338 387
#     4  10  21  39  61  88 114 155 212 270 316 379
#     4  10  21  38  65  85 109 154 223 275 309 364
#     4  12  26  42  61  92 134 170 207 267 337 388
#     4  12  24  42  65  87 120 167 226 273 316 380
#     4  10  21  41  71  99 126 171 213 262 299 372
#     4  10  21  41  71 100 127 165 223 251 298 389
#
# _framework density 22.16573
#
# number of rings (size 3 to 8) (size 9 to 14) (size 15 to 20)
#    0.000    1.143    1.429    5.143    4.000    0.000 
#    7.714    0.000    0.000    0.000    0.000    0.000 
#    0.000    0.000    0.000    0.000    0.000    0.000 
#
# Total GULP energy -173491.256599 kJ/mol
# GULP energy per Si atom -12392.232614 kJ/mol
# Density = 2.211528 g / cm^3
# Si number density = 22.165730 Si / 1000 Ang^3
#
#
#
# Elastic Constant Matrix: (Units=GPa)
#
#
# Indices 1 2 3 4 5 6 
#
# 1 107.7910 29.0816 40.2664 1.3379 -2.0094 16.1981
# 2 29.0816 75.4359 30.3254 9.9625 13.7587 10.0052
# 3 40.2664 30.3254 142.3533 -11.5732 -10.9562 2.7039
# 4 1.3379 9.9625 -11.5732 34.2772 5.3537 4.3114
# 5 -2.0094 13.7587 -10.9562 5.3537 35.7008 0.6698
# 6 16.1981 10.0052 2.7039 4.3114 0.6698 19.7661
#
#
#
# Elastic Compliance Matrix: (Units=1/GPa)
#
#
# Indices 1 2 3 4 5 6 
#
# 1 0.012289 -0.002821 -0.002604 0.000348 0.001085 -0.008399
# 2 -0.002821 0.018757 -0.004092 -0.004835 -0.007819 -0.005303
# 3 -0.002604 -0.004092 0.009166 0.003554 0.003672 0.002052
# 4 0.000348 -0.004835 0.003554 0.032731 -0.001833 -0.005401
# 5 0.001085 -0.007819 0.003672 -0.001833 0.032452 0.001866
# 6 -0.008399 -0.005303 0.002052 -0.005401 0.001866 0.060994
#
#
# Mechanical properties :
#
#
# Convention : Reuss Voigt Hill
#
# Bulk Modulus (GPa) = 47.21816 58.32522 52.77169
# Shear Modulus (GPa) = 25.97671 33.00927 29.49299
#
# Velocity S-wave (km/s) = 3.42706 3.86321 3.65165
# Velocity P-wave (km/s) = 6.08344 6.80217 6.45282
#
# Compressibility (1/GPa) = 0.02117829
#
# Stress axis : x y z
#
# Youngs Moduli (GPa) = 81.37341 53.31453 109.10383
#
# Poissons Ratio (x) = 0.15038 0.28409
# Poissons Ratio (y) = 0.22953 0.44645
# Poissons Ratio (z) = 0.21189 0.21816
#
# Static dielectric constant tensor:
#      x y z
#    x 3.963980 0.397170 -0.091180 
#    y 0.397170 3.899250 -0.088920 
#    z -0.091180 -0.088920 4.291990 
# 
# 
# High freq. dielectric constant tensor:
#      x y z
#    x 1.867070 0.022250 -0.010750 
#    y 0.022250 1.855330 0.002030 
#    z -0.010750 0.002030 1.899320 
# 
# From -- ./inp_files/328268.got.cif
#   From: 2010.06.25/outbox.cif.g09.slc.cpg/sg2_165_cif.got.tgz:328268.got - 2010.06.27 13:26:56.
