data_PCOD8010582
_publ_section_title
;
Structure prediction by ZEFSAII (Michael W. Deem and Ramdas Pophale) SiO2 
 PCOD8010582
Probable space group: P -1
;
_chemical_formula_sum "Si O2"
_cell_formula_units_Z 14
_cell_length_a 17.614084
_cell_length_b 19.506519
_cell_length_c 8.558334
_cell_angle_alpha 142.523783
_cell_angle_beta 48.157105
_cell_angle_gamma 159.276835
_cell_volume 593.246127
_symmetry_space_group_name_H-M "P -1"
_symmetry_group_IT_number 2
_symmetry_cell_setting 'triclinic'
loop_
_space_group_symop_operation_xyz
x,y,z
-x,-y,-z
loop_
_atom_site_type_symbol
_atom_site_label
_atom_site_fract_x
_atom_site_fract_y
_atom_site_fract_z
Si Si1 0.298466 0.342417 0.097013
Si Si2 0.830535 0.623624 0.207718
Si Si3 0.693176 0.412960 0.331635
Si Si4 0.797708 0.824655 0.736186
Si Si5 0.789398 0.036850 0.946258
Si Si6 0.902317 0.479866 0.421428
Si Si7 0.310356 0.737959 0.369916
O O1 0.323356 0.500934 0.368708
O O2 0.311517 0.290650 0.150417
O O3 0.500000 0.500000 0.000000
O O4 0.070461 0.090382 0.858043
O O5 0.871232 0.621879 0.327281
O O6 0.723197 0.643465 0.402921
O O7 0.065724 0.859070 0.214513
O O8 0.653092 0.358523 0.892756
O O9 0.793485 0.404855 0.270159
O O10 0.443900 0.134764 0.101505
O O11 0.711805 0.850903 0.814757
O O12 0.929682 0.258169 0.266094
O O13 0.696372 0.250986 0.413216
O O14 0.056843 0.521143 0.259946
O O15 0.500000 0.000000 0.500000
#
# Coordination Sequence:
#
# PCOD8010582 Si02
#       7
#     2   2   2   2   2   2   2
#     4  10  21  38  61  94 132 176 213 254 320 384
#     4  10  23  39  65  97 128 169 219 263 322 383
#     4  11  23  41  63 100 129 171 216 260 324 386
#     4  10  21  39  62  94 137 167 209 269 312 387
#     4  11  22  41  65  97 133 174 208 263 324 383
#     4  10  23  44  67  94 134 162 217 275 313 386
#     4  10  22  45  68  93 124 174 217 267 330 376
#
# _framework density 23.598976
#
# number of rings (size 3 to 8) (size 9 to 14) (size 15 to 20)
#    0.000    1.714    1.429    2.143    0.000    5.143 
#    2.571   10.000    0.000    0.000    0.000    0.000 
#    0.000    0.000    0.000    0.000    0.000    0.000 
#
# Total GULP energy -173593.322623 kJ/mol
# GULP energy per Si atom -12399.523045 kJ/mol
# Density = 2.354526 g / cm^3
# Si number density = 23.598976 Si / 1000 Ang^3
#
#
#
# Elastic Constant Matrix: (Units=GPa)
#
#
# Indices 1 2 3 4 5 6 
#
# 1 110.0790 7.4559 7.3016 6.9611 11.3119 -6.4833
# 2 7.4559 86.3819 25.4229 1.8845 9.6907 -22.0684
# 3 7.3016 25.4229 80.9525 2.8822 -8.6121 0.0423
# 4 6.9611 1.8845 2.8822 35.7660 1.3992 -3.6575
# 5 11.3119 9.6907 -8.6121 1.3992 34.3100 4.7739
# 6 -6.4833 -22.0684 0.0423 -3.6575 4.7739 21.4949
#
#
#
# Elastic Compliance Matrix: (Units=1/GPa)
#
#
# Indices 1 2 3 4 5 6 
#
# 1 0.010026 0.001790 -0.001970 -0.001095 -0.005068 0.005805
# 2 0.001790 0.022076 -0.008549 0.002382 -0.012750 0.026459
# 3 -0.001970 -0.008549 0.016235 -0.002019 0.008851 -0.011713
# 4 -0.001095 0.002382 -0.002019 0.029124 -0.003086 0.007760
# 5 -0.005068 -0.012750 0.008851 -0.003086 0.040115 -0.024071
# 6 0.005805 0.026459 -0.011713 0.007760 -0.024071 0.082128
#
#
# Mechanical properties :
#
#
# Convention : Reuss Voigt Hill
#
# Bulk Modulus (GPa) = 32.38502 39.75271 36.06886
# Shear Modulus (GPa) = 21.98234 34.12971 28.05602
#
# Velocity S-wave (km/s) = 3.05535 3.80707 3.45173
# Velocity P-wave (km/s) = 5.11857 6.01720 5.58598
#
# Compressibility (1/GPa) = 0.03087847
#
# Stress axis : x y z
#
# Youngs Moduli (GPa) = 99.74315 45.29775 61.59482
#
# Poissons Ratio (x) = -0.08107 0.12132
# Poissons Ratio (y) = -0.17851 0.52660
# Poissons Ratio (z) = 0.19645 0.38727
#
# Static dielectric constant tensor:
#      x y z
#    x 4.339820 -0.220650 -0.226800 
#    y -0.220650 4.294250 -0.147570 
#    z -0.226800 -0.147570 4.302730 
# 
# 
# High freq. dielectric constant tensor:
#      x y z
#    x 1.929710 -0.019980 -0.014780 
#    y -0.019980 1.940670 -0.007720 
#    z -0.014780 -0.007720 1.931090 
# 
# From -- ./inp_files/313866.got.cif
#   From: 2010.06.25/outbox.cif.g09.slc.cpg/sg2_157_cif.got.tgz:313866.got - 2010.06.27 13:26:56.
