data_PCOD8010839
_publ_section_title
;
Structure prediction by ZEFSAII (Michael W. Deem and Ramdas Pophale) SiO2 
 PCOD8010839
Probable space group: P -1
;
_chemical_formula_sum "Si O2"
_cell_formula_units_Z 14
_cell_length_a 15.162078
_cell_length_b 11.935104
_cell_length_c 11.437814
_cell_angle_alpha 128.793426
_cell_angle_beta 153.929023
_cell_angle_gamma 44.097623
_cell_volume 631.837655
_symmetry_space_group_name_H-M "P -1"
_symmetry_group_IT_number 2
_symmetry_cell_setting 'triclinic'
loop_
_space_group_symop_operation_xyz
x,y,z
-x,-y,-z
loop_
_atom_site_type_symbol
_atom_site_label
_atom_site_fract_x
_atom_site_fract_y
_atom_site_fract_z
Si Si1 0.203479 0.279906 0.491639
Si Si2 0.262175 0.931588 0.349738
Si Si3 0.536698 0.181192 0.129473
Si Si4 0.017357 0.939842 0.279524
Si Si5 0.333366 0.778240 0.087960
Si Si6 0.731768 0.511669 0.097957
Si Si7 0.343710 0.107245 0.065315
O O1 0.414711 0.239258 0.631997
O O2 0.228158 0.362762 0.692519
O O3 0.961685 0.405854 0.230283
O O4 0.167252 0.123724 0.373838
O O5 0.129262 0.869722 0.241174
O O6 0.227798 0.880131 0.146620
O O7 0.522595 0.851971 0.647150
O O8 0.786437 0.072438 0.407779
O O9 0.532443 0.085579 0.943974
O O10 0.475141 0.368270 0.152716
O O11 0.344124 0.194550 0.001359
O O12 0.903677 0.838203 0.138918
O O13 0.820559 0.123672 0.141949
O O14 0.345756 0.601803 0.994061
#
# Coordination Sequence:
#
# PCOD8010839 Si02
#       7
#     2   2   2   2   2   2   2
#     4  11  23  39  65  93 127 163 207 255 313 358
#     4  11  22  40  63  97 121 162 211 258 299 367
#     4  10  22  40  61  91 127 165 205 251 309 369
#     4  11  22  37  65  94 122 162 211 256 303 364
#     4  12  24  39  68  95 124 160 210 259 311 361
#     4  11  24  41  61  96 132 158 199 264 313 369
#     4  10  21  38  64  90 124 164 212 252 298 369
#
# _framework density 22.157589000000002
#
# number of rings (size 3 to 8) (size 9 to 14) (size 15 to 20)
#    0.000    1.143    4.286    1.714    0.000    1.143 
#    0.000    2.857    0.000    5.143    0.000    0.000 
#    0.000    0.000    0.000    0.000    0.000    0.000 
#
# Total GULP energy -173455.986767 kJ/mol
# GULP energy per Si atom -12389.713340 kJ/mol
# Density = 2.210716 g / cm^3
# Si number density = 22.157589 Si / 1000 Ang^3
#
#
#
# Elastic Constant Matrix: (Units=GPa)
#
#
# Indices 1 2 3 4 5 6 
#
# 1 101.8053 31.7244 46.4994 -4.1514 27.6806 4.1885
# 2 31.7244 74.4834 24.3876 -5.0062 -5.1585 6.1459
# 3 46.4994 24.3876 92.4249 -7.9213 11.1968 6.9904
# 4 -4.1514 -5.0062 -7.9213 31.2115 0.7510 -4.3777
# 5 27.6806 -5.1585 11.1968 0.7510 35.8703 3.2844
# 6 4.1885 6.1459 6.9904 -4.3777 3.2844 26.1393
#
#
#
# Elastic Compliance Matrix: (Units=1/GPa)
#
#
# Indices 1 2 3 4 5 6 
#
# 1 0.018234 -0.006925 -0.005834 0.000442 -0.013441 0.002029
# 2 -0.006925 0.017990 -0.002003 0.000741 0.008868 -0.003575
# 3 -0.005834 -0.002003 0.014669 0.002337 -0.000222 -0.002098
# 4 0.000442 0.000741 0.002337 0.033565 -0.002126 0.005018
# 5 -0.013441 0.008868 -0.000222 -0.002126 0.040122 -0.005269
# 6 0.002029 -0.003575 -0.002098 0.005018 -0.005269 0.040835
#
#
# Mechanical properties :
#
#
# Convention : Reuss Voigt Hill
#
# Bulk Modulus (GPa) = 46.79629 52.65959 49.72794
# Shear Modulus (GPa) = 24.74462 29.71770 27.23116
#
# Velocity S-wave (km/s) = 3.34542 3.66621 3.50948
# Velocity P-wave (km/s) = 6.00733 6.46057 6.23807
#
# Compressibility (1/GPa) = 0.02136922
#
# Stress axis : x y z
#
# Youngs Moduli (GPa) = 54.84155 55.58551 68.17056
#
# Poissons Ratio (x) = 0.38493 0.39769
# Poissons Ratio (y) = 0.37978 0.13658
# Poissons Ratio (z) = 0.31994 0.11136
#
# Static dielectric constant tensor:
#      x y z
#    x 3.998380 0.119320 0.196670 
#    y 0.119320 3.814620 -0.234540 
#    z 0.196670 -0.234540 4.153260 
# 
# 
# High freq. dielectric constant tensor:
#      x y z
#    x 1.873580 0.007800 0.017250 
#    y 0.007800 1.838050 -0.011070 
#    z 0.017250 -0.011070 1.881310 
# 
# From -- ./inp_files/421016.got.cif
#   From: 2010.06.25/outbox.cif.g09.slc.cpg/sg2_211_cif.got.tgz:421016.got - 2010.06.27 13:26:56.
