data_PCOD8010556
_publ_section_title
;
Structure prediction by ZEFSAII (Michael W. Deem and Ramdas Pophale) SiO2 
 PCOD8010556
Probable space group: P -1
;
_chemical_formula_sum "Si O2"
_cell_formula_units_Z 16
_cell_length_a 14.309575
_cell_length_b 9.747503
_cell_length_c 12.529242
_cell_angle_alpha 94.694081
_cell_angle_beta 37.196096
_cell_angle_gamma 68.575341
_cell_volume 736.751440
_symmetry_space_group_name_H-M "P -1"
_symmetry_group_IT_number 2
_symmetry_cell_setting 'triclinic'
loop_
_space_group_symop_operation_xyz
x,y,z
-x,-y,-z
loop_
_atom_site_type_symbol
_atom_site_label
_atom_site_fract_x
_atom_site_fract_y
_atom_site_fract_z
Si Si1 0.297146 0.937906 0.202654
Si Si2 0.184834 0.331082 0.044307
Si Si3 0.049611 0.971972 0.625953
Si Si4 0.639473 0.326790 0.503041
Si Si5 0.539349 0.825842 0.406020
Si Si6 0.224652 0.286221 0.246514
Si Si7 0.862026 0.343974 0.950311
Si Si8 0.136412 0.587434 0.820844
O O1 0.163669 0.969411 0.223535
O O2 0.249980 0.129019 0.278790
O O3 0.561806 0.750873 0.930065
O O4 0.223583 0.900435 0.371022
O O5 0.215009 0.251608 0.128789
O O6 0.035848 0.322266 0.110721
O O7 0.418456 0.184752 0.760349
O O8 0.084797 0.548868 0.155156
O O9 0.963041 0.159938 0.777577
O O10 0.173889 0.791390 0.582601
O O11 0.648685 0.173716 0.419577
O O12 0.401253 0.503561 0.784188
O O13 0.679590 0.424108 0.389868
O O14 0.755710 0.627244 0.256309
O O15 0.500000 0.000000 0.500000
O O16 0.000000 0.500000 0.500000
O O17 0.974195 0.277869 0.962438
#
# Coordination Sequence:
#
# PCOD8010556 Si02
#       8
#     2   2   2   2   2   2   2   2
#     4  10  24  43  62  97 124 158 223 277 307 396
#     4  10  21  39  62  90 123 163 215 258 311 394
#     4  11  23  40  67  90 128 170 215 265 329 375
#     4  10  22  40  59  91 131 165 215 263 308 387
#     4  10  21  38  61  91 126 172 204 253 318 379
#     4  11  23  45  66  90 128 167 212 272 335 365
#     4  10  21  39  61  89 127 173 205 257 324 383
#     4  10  21  40  59  91 134 158 217 263 305 386
#
# _framework density 21.716957000000001
#
# number of rings (size 3 to 8) (size 9 to 14) (size 15 to 20)
#    0.000    2.000    0.000    6.000    3.500    2.500 
#   11.250    3.125    0.000    0.000    0.000    0.000 
#    0.000    0.000    0.000    0.000    0.000    0.000 
#
# Total GULP energy -198308.512928 kJ/mol
# GULP energy per Si atom -12394.282058 kJ/mol
# Density = 2.166753 g / cm^3
# Si number density = 21.716957 Si / 1000 Ang^3
#
#
#
# Elastic Constant Matrix: (Units=GPa)
#
#
# Indices 1 2 3 4 5 6 
#
# 1 97.0029 2.2145 22.9015 6.1510 -8.4888 -2.0644
# 2 2.2145 49.1564 16.4161 -2.4358 9.1439 4.8088
# 3 22.9015 16.4161 73.7682 6.3521 -5.7799 12.0277
# 4 6.1510 -2.4358 6.3521 29.4146 1.3251 0.9423
# 5 -8.4888 9.1439 -5.7799 1.3251 34.8743 2.5998
# 6 -2.0644 4.8088 12.0277 0.9423 2.5998 36.3660
#
#
#
# Elastic Compliance Matrix: (Units=1/GPa)
#
#
# Indices 1 2 3 4 5 6 
#
# 1 0.011478 0.000002 -0.003520 -0.001792 0.002151 0.001708
# 2 0.000002 0.024016 -0.006124 0.003667 -0.007397 -0.000716
# 3 -0.003520 -0.006124 0.017527 -0.003572 0.004192 -0.005394
# 4 -0.001792 0.003667 -0.003572 0.035599 -0.003336 -0.000089
# 5 0.002151 -0.007397 0.004192 -0.003336 0.032145 -0.002498
# 6 0.001708 -0.000716 -0.005394 -0.000089 -0.002498 0.029655
#
#
# Mechanical properties :
#
#
# Convention : Reuss Voigt Hill
#
# Bulk Modulus (GPa) = 29.63928 33.66576 31.65252
# Shear Modulus (GPa) = 27.63219 32.02400 29.82810
#
# Velocity S-wave (km/s) = 3.57091 3.84423 3.71009
# Velocity P-wave (km/s) = 5.53891 5.93632 5.74105
#
# Compressibility (1/GPa) = 0.03373901
#
# Stress axis : x y z
#
# Youngs Moduli (GPa) = 87.12304 41.63898 57.05523
#
# Poissons Ratio (x) = -0.00010 0.20081
# Poissons Ratio (y) = -0.00021 0.34939
# Poissons Ratio (z) = 0.30664 0.25498
#
# Static dielectric constant tensor:
#      x y z
#    x 4.003280 -0.064790 -0.184850 
#    y -0.064790 3.979730 -0.218900 
#    z -0.184850 -0.218900 3.810780 
# 
# 
# High freq. dielectric constant tensor:
#      x y z
#    x 1.860240 -0.004400 -0.016220 
#    y -0.004400 1.855450 -0.014710 
#    z -0.016220 -0.014710 1.840400 
# 
# From -- ./inp_files/452330.got.cif
#   From: 2010.06.25/outbox.cif.g09.slc.cpg/sg2_227_cif.got.tgz:452330.got - 2010.06.27 13:26:56.
