data_PCOD8010001
_publ_section_title
;
Structure prediction by ZEFSAII (Michael W. Deem and Ramdas Pophale) SiO2 
 PCOD8010001
Probable space group: P -1
;
_chemical_formula_sum "Si O2"
_cell_formula_units_Z 16
_cell_length_a 6.811436
_cell_length_b 25.783561
_cell_length_c 15.390879
_cell_angle_alpha 23.818922
_cell_angle_beta 134.005087
_cell_angle_gamma 138.662241
_cell_volume 720.684318
_symmetry_space_group_name_H-M "P -1"
_symmetry_group_IT_number 2
_symmetry_cell_setting 'triclinic'
loop_
_space_group_symop_operation_xyz
x,y,z
-x,-y,-z
loop_
_atom_site_type_symbol
_atom_site_label
_atom_site_fract_x
_atom_site_fract_y
_atom_site_fract_z
Si Si1 0.264282 0.648620 0.858660
Si Si2 0.042379 0.065178 0.101648
Si Si3 0.128692 0.302201 0.637141
Si Si4 0.828237 0.160748 0.592355
Si Si5 0.740254 0.498894 0.485625
Si Si6 0.159736 0.006640 0.663154
Si Si7 0.587266 0.298141 0.980189
Si Si8 0.901485 0.768853 0.814795
O O1 0.134923 0.751998 0.617252
O O2 0.353722 0.698363 0.906299
O O3 0.558523 0.657206 0.883568
O O4 0.000000 0.500000 0.000000
O O5 0.372907 0.141306 0.126238
O O6 0.831140 0.010674 0.203577
O O7 0.987507 0.934484 0.221396
O O8 0.977448 0.174223 0.853040
O O9 0.483517 0.342718 0.662331
O O10 0.109160 0.436897 0.473637
O O11 0.947411 0.267553 0.545537
O O12 0.495129 0.052626 0.666757
O O13 0.000000 0.500000 0.500000
O O14 0.561751 0.591967 0.254773
O O15 0.966817 0.857784 0.787978
O O16 0.043782 0.125106 0.413383
O O17 0.899216 0.322766 0.990618
#
# Coordination Sequence:
#
# PCOD8010001 Si02
#       8
#     2   2   2   2   2   2   2   2
#     4  11  24  40  64  98 136 179 220 269 333 392
#     4  11  22  38  65  96 128 175 223 271 334 391
#     4  10  24  43  63  97 132 176 222 279 330 395
#     4  11  23  41  64  97 140 168 217 275 331 397
#     4  10  24  46  70  93 128 182 229 274 330 394
#     4  10  21  37  63  99 132 176 209 266 336 392
#     4  11  22  40  68  98 128 174 224 277 328 398
#     4  10  21  39  64  97 136 168 219 272 327 402
#
# _framework density 22.20112
#
# number of rings (size 3 to 8) (size 9 to 14) (size 15 to 20)
#    0.000    1.500    2.500    1.875    0.000    8.000 
#    0.000    3.750    0.000    0.000    0.000    0.000 
#    0.000    0.000    0.000    0.000    0.000    0.000 
#
# Total GULP energy -198277.801086 kJ/mol
# GULP energy per Si atom -12392.362568 kJ/mol
# Density = 2.215059 g / cm^3
# Si number density = 22.201120 Si / 1000 Ang^3
#
#
#
# Elastic Constant Matrix: (Units=GPa)
#
#
# Indices 1 2 3 4 5 6 
#
# 1 108.7795 18.8237 45.1086 -3.1873 2.5558 -1.4854
# 2 18.8237 100.0073 32.4626 2.0843 -3.7390 -16.9788
# 3 45.1086 32.4626 86.9034 -4.5443 -3.1284 -0.2708
# 4 -3.1873 2.0843 -4.5443 28.4047 5.0896 -13.2801
# 5 2.5558 -3.7390 -3.1284 5.0896 33.9401 3.2539
# 6 -1.4854 -16.9788 -0.2708 -13.2801 3.2539 35.8555
#
#
#
# Elastic Compliance Matrix: (Units=1/GPa)
#
#
# Indices 1 2 3 4 5 6 
#
# 1 0.011829 -0.000186 -0.006071 0.001111 -0.001726 0.000924
# 2 -0.000186 0.012555 -0.004500 0.001280 0.000181 0.006361
# 3 -0.006071 -0.004500 0.016444 0.001076 0.001507 -0.001996
# 4 0.001111 0.001280 0.001076 0.045451 -0.008410 0.018257
# 5 -0.001726 0.000181 0.001507 -0.008410 0.031585 -0.005956
# 6 0.000924 0.006361 -0.001996 0.018257 -0.005956 0.038228
#
#
# Mechanical properties :
#
#
# Convention : Reuss Voigt Hill
#
# Bulk Modulus (GPa) = 51.78139 54.27555 53.02847
# Shear Modulus (GPa) = 27.16753 32.92643 30.04698
#
# Velocity S-wave (km/s) = 3.50194 3.85528 3.68285
# Velocity P-wave (km/s) = 6.30284 6.65717 6.48243
#
# Compressibility (1/GPa) = 0.01931196
#
# Stress axis : x y z
#
# Youngs Moduli (GPa) = 84.54130 79.64898 60.81368
#
# Poissons Ratio (x) = 0.01485 0.36922
# Poissons Ratio (y) = 0.01576 0.27366
# Poissons Ratio (z) = 0.51328 0.35841
#
# Static dielectric constant tensor:
#      x y z
#    x 3.912590 -0.034890 -0.216900 
#    y -0.034890 3.948550 -0.150420 
#    z -0.216900 -0.150420 3.973320 
# 
# 
# High freq. dielectric constant tensor:
#      x y z
#    x 1.866690 -0.007320 -0.020550 
#    y -0.007320 1.874320 -0.000300 
#    z -0.020550 -0.000300 1.871550 
# 
# From -- ./inp_files/485819.got.cif
#   From: 2010.06.25/outbox.cif.g09.slc.cpg/sg2_243_cif.got.tgz:485819.got - 2010.06.27 13:26:56.
