data_PCOD8010364
_publ_section_title
;
Structure prediction by ZEFSAII (Michael W. Deem and Ramdas Pophale) SiO2 
 PCOD8010364
Probable space group: P -1
;
_chemical_formula_sum "Si O2"
_cell_formula_units_Z 14
_cell_length_a 9.226513
_cell_length_b 17.304453
_cell_length_c 11.473781
_cell_angle_alpha 140.989228
_cell_angle_beta 35.266934
_cell_angle_gamma 126.456006
_cell_volume 661.707829
_symmetry_space_group_name_H-M "P -1"
_symmetry_group_IT_number 2
_symmetry_cell_setting 'triclinic'
loop_
_space_group_symop_operation_xyz
x,y,z
-x,-y,-z
loop_
_atom_site_type_symbol
_atom_site_label
_atom_site_fract_x
_atom_site_fract_y
_atom_site_fract_z
Si Si1 0.407007 0.664589 0.052014
Si Si2 0.779639 0.166043 0.085415
Si Si3 0.361944 0.086894 0.406137
Si Si4 0.221740 0.578156 0.529727
Si Si5 0.357244 0.132103 0.714672
Si Si6 0.204536 0.549120 0.252902
Si Si7 0.168892 0.838694 0.225653
O O1 0.568037 0.759524 0.124027
O O2 0.177889 0.634596 0.254836
O O3 0.285540 0.718032 0.075091
O O4 0.579081 0.542689 0.753694
O O5 0.607609 0.070400 0.144358
O O6 0.659305 0.305306 0.359451
O O7 0.756808 0.156203 0.951522
O O8 0.055710 0.131667 0.918350
O O9 0.422436 0.161085 0.570930
O O10 0.133640 0.156483 0.561361
O O11 0.276886 0.956179 0.352241
O O12 0.127841 0.617858 0.506416
O O13 0.986129 0.557336 0.747183
O O14 0.500000 0.000000 0.500000
O O15 0.500000 0.500000 0.000000
#
# Coordination Sequence:
#
# PCOD8010364 Si02
#       7
#     2   2   2   2   2   2   2
#     4  11  22  39  63  93 122 156 198 253 302 352
#     4  11  23  40  63  88 122 166 201 241 306 363
#     4  10  22  44  63  84 123 167 199 248 305 353
#     4  10  21  38  59  90 123 156 200 246 295 367
#     4  11  22  39  62  92 121 150 205 257 293 356
#     4   9  18  35  59  84 120 160 193 241 303 347
#     4  10  23  41  61  88 125 160 204 247 296 365
#
# _framework density 21.157373
#
# number of rings (size 3 to 8) (size 9 to 14) (size 15 to 20)
#    0.000    1.714    1.429    3.857    0.000    5.714 
#    2.571    1.429    0.000    0.000    0.000    0.000 
#    0.000    0.000    0.000    0.000    0.000    0.000 
#
# Total GULP energy -173483.486248 kJ/mol
# GULP energy per Si atom -12391.677589 kJ/mol
# Density = 2.110922 g / cm^3
# Si number density = 21.157373 Si / 1000 Ang^3
#
#
#
# Elastic Constant Matrix: (Units=GPa)
#
#
# Indices 1 2 3 4 5 6 
#
# 1 82.1348 35.6560 37.7694 -3.4831 -11.2439 -11.2922
# 2 35.6560 70.1531 47.5568 -18.0832 -10.8301 -11.4246
# 3 37.7694 47.5568 106.0388 -6.7703 -4.4591 -12.5420
# 4 -3.4831 -18.0832 -6.7703 53.6452 -2.0834 7.3978
# 5 -11.2439 -10.8301 -4.4591 -2.0834 20.3349 7.0825
# 6 -11.2922 -11.4246 -12.5420 7.3978 7.0825 27.3971
#
#
#
# Elastic Compliance Matrix: (Units=1/GPa)
#
#
# Indices 1 2 3 4 5 6 
#
# 1 0.017017 -0.005827 -0.003062 -0.001388 0.004674 0.002349
# 2 -0.005827 0.026966 -0.009097 0.007958 0.009978 -0.000049
# 3 -0.003062 -0.009097 0.014677 -0.002072 -0.004732 0.003446
# 4 -0.001388 0.007958 -0.002072 0.022098 0.007399 -0.006082
# 5 0.004674 0.009978 -0.004732 0.007399 0.061679 -0.014022
# 6 0.002349 -0.000049 0.003446 -0.006082 -0.014022 0.044292
#
#
# Mechanical properties :
#
#
# Convention : Reuss Voigt Hill
#
# Bulk Modulus (GPa) = 44.07424 55.58790 49.83107
# Shear Modulus (GPa) = 21.71422 29.43174 25.57298
#
# Velocity S-wave (km/s) = 3.20710 3.73377 3.48041
# Velocity P-wave (km/s) = 5.88139 6.70214 6.30514
#
# Compressibility (1/GPa) = 0.02268899
#
# Stress axis : x y z
#
# Youngs Moduli (GPa) = 58.76606 37.08319 68.13251
#
# Poissons Ratio (x) = 0.21608 0.20863
# Poissons Ratio (y) = 0.34242 0.61978
# Poissons Ratio (z) = 0.17995 0.33734
#
# Static dielectric constant tensor:
#      x y z
#    x 3.900090 -0.143450 0.160960 
#    y -0.143450 4.096940 -0.129290 
#    z 0.160960 -0.129290 3.825150 
# 
# 
# High freq. dielectric constant tensor:
#      x y z
#    x 1.823160 0.001080 0.013280 
#    y 0.001080 1.826970 -0.007600 
#    z 0.013280 -0.007600 1.828520 
# 
# From -- ./inp_files/53460.got.cif
#   From: 2010.06.25/outbox.cif.g09.slc.cpg/sg2_27_cif.got.tgz:53460.got - 2010.06.27 13:26:56.
