data_PCOD8010422
_publ_section_title
;
Structure prediction by ZEFSAII (Michael W. Deem and Ramdas Pophale) SiO2 
 PCOD8010422
Probable space group: P -1
;
_chemical_formula_sum "Si O2"
_cell_formula_units_Z 14
_cell_length_a 10.543301
_cell_length_b 5.258680
_cell_length_c 18.497286
_cell_angle_alpha 123.027825
_cell_angle_beta 52.759127
_cell_angle_gamma 111.294427
_cell_volume 683.660936
_symmetry_space_group_name_H-M "P -1"
_symmetry_group_IT_number 2
_symmetry_cell_setting 'triclinic'
loop_
_space_group_symop_operation_xyz
x,y,z
-x,-y,-z
loop_
_atom_site_type_symbol
_atom_site_label
_atom_site_fract_x
_atom_site_fract_y
_atom_site_fract_z
Si Si1 0.035656 0.193172 0.110289
Si Si2 0.267861 0.095643 0.783064
Si Si3 0.264442 0.736261 0.913875
Si Si4 0.626013 0.849113 0.780562
Si Si5 0.191607 0.810233 0.106220
Si Si6 0.485870 0.857249 0.561312
Si Si7 0.618386 0.172035 0.693954
O O1 0.083946 0.545027 0.140407
O O2 0.078747 0.075507 0.158582
O O3 0.842256 0.137380 0.166167
O O4 0.130390 0.988435 0.987724
O O5 0.188444 0.424909 0.854498
O O6 0.431852 0.183295 0.782843
O O7 0.313619 0.942661 0.666851
O O8 0.434639 0.838009 0.837749
O O9 0.285984 0.683109 0.984950
O O10 0.693393 0.514111 0.714175
O O11 0.678731 0.059385 0.861697
O O12 0.700841 0.990956 0.702221
O O13 0.500000 0.500000 0.500000
O O14 0.500000 0.000000 0.500000
O O15 0.627772 0.999120 0.586418
#
# Coordination Sequence:
#
# PCOD8010422 Si02
#       7
#     2   2   2   2   2   2   2
#     4  10  22  35  51  82 114 161 181 217 270 333
#     4   9  21  38  56  83 117 142 180 233 285 334
#     4   9  22  34  55  81 116 154 190 221 269 315
#     4  11  19  37  52  82 114 152 188 230 256 319
#     4  10  23  33  53  79 118 155 197 215 255 318
#     4  10  21  38  60  88 107 132 182 235 296 334
#     4   9  22  33  61  79 111 139 180 233 290 316
#
# _framework density 20.477989999999998
#
# number of rings (size 3 to 8) (size 9 to 14) (size 15 to 20)
#    1.714    0.571    0.000    2.571    4.000    4.571 
#    0.000    0.000    0.000    0.000    0.000   20.000 
#    0.000    0.000    0.000    0.000    0.000    0.000 
#
# Total GULP energy -173440.486300 kJ/mol
# GULP energy per Si atom -12388.606164 kJ/mol
# Density = 2.043138 g / cm^3
# Si number density = 20.477990 Si / 1000 Ang^3
#
#
#
# Elastic Constant Matrix: (Units=GPa)
#
#
# Indices 1 2 3 4 5 6 
#
# 1 27.2162 30.7305 26.7640 5.3711 6.9657 -14.7111
# 2 30.7305 155.7020 54.9912 11.3095 12.3174 -27.1668
# 3 26.7640 54.9912 115.6549 11.6099 26.6755 -7.1849
# 4 5.3711 11.3095 11.6099 31.2637 -3.6941 6.8637
# 5 6.9657 12.3174 26.6755 -3.6941 16.0280 -9.3794
# 6 -14.7111 -27.1668 -7.1849 6.8637 -9.3794 32.4474
#
#
#
# Elastic Compliance Matrix: (Units=1/GPa)
#
#
# Indices 1 2 3 4 5 6 
#
# 1 0.071484 -0.003514 -0.014508 -0.011254 0.011968 0.032095
# 2 -0.003514 0.009713 -0.004248 -0.002399 0.004998 0.007551
# 3 -0.014508 -0.004248 0.022286 -0.005407 -0.037481 -0.014890
# 4 -0.011254 -0.002399 -0.005407 0.041557 0.018421 -0.011774
# 5 0.011968 0.004998 -0.037481 0.018421 0.142580 0.038629
# 6 0.032095 0.007551 -0.014890 -0.011774 0.038629 0.062052
#
#
# Mechanical properties :
#
#
# Convention : Reuss Voigt Hill
#
# Bulk Modulus (GPa) = 16.96573 58.17163 37.56868
# Shear Modulus (GPa) = 12.08143 28.35365 20.21754
#
# Velocity S-wave (km/s) = 2.43157 3.72505 3.14551
# Velocity P-wave (km/s) = 4.02321 6.85346 5.61943
#
# Compressibility (1/GPa) = 0.05894237
#
# Stress axis : x y z
#
# Youngs Moduli (GPa) = 13.98920 102.95884 44.87080
#
# Poissons Ratio (x) = 0.36179 0.65100
# Poissons Ratio (y) = 0.04916 0.19061
# Poissons Ratio (z) = 0.20296 0.43736
#
# Static dielectric constant tensor:
#      x y z
#    x 3.359610 -0.133590 0.148870 
#    y -0.133590 3.669800 0.101760 
#    z 0.148870 0.101760 3.434230 
# 
# 
# High freq. dielectric constant tensor:
#      x y z
#    x 1.773960 -0.021560 0.022960 
#    y -0.021560 1.814480 0.006650 
#    z 0.022960 0.006650 1.771260 
# 
# From -- ./inp_files/592399.got.cif
#   From: 2010.06.25/outbox.cif.g09.slc.cpg/sg2_297_cif.got.tgz:592399.got - 2010.06.27 13:26:56.
