data_PCOD8010933
_publ_section_title
;
Structure prediction by ZEFSAII (Michael W. Deem and Ramdas Pophale) SiO2 
 PCOD8010933
Probable space group: P -1
;
_chemical_formula_sum "Si O2"
_cell_formula_units_Z 16
_cell_length_a 9.472815
_cell_length_b 12.957120
_cell_length_c 16.844715
_cell_angle_alpha 24.857539
_cell_angle_beta 59.587139
_cell_angle_gamma 63.932977
_cell_volume 748.392229
_symmetry_space_group_name_H-M "P -1"
_symmetry_group_IT_number 2
_symmetry_cell_setting 'triclinic'
loop_
_space_group_symop_operation_xyz
x,y,z
-x,-y,-z
loop_
_atom_site_type_symbol
_atom_site_label
_atom_site_fract_x
_atom_site_fract_y
_atom_site_fract_z
Si Si1 0.543182 0.183450 0.749115
Si Si2 0.669011 0.066029 0.310826
Si Si3 0.321940 0.281387 0.892721
Si Si4 0.645703 0.156878 0.078632
Si Si5 0.938209 0.784185 0.368675
Si Si6 0.540754 0.389684 0.246859
Si Si7 0.183330 0.426193 0.597722
Si Si8 0.970226 0.839538 0.033739
O O1 0.451836 0.258727 0.801441
O O2 0.652080 0.428207 0.517405
O O3 0.666924 0.966303 0.883490
O O4 0.410564 0.091356 0.782889
O O5 0.661317 0.307590 0.199421
O O6 0.858572 0.997573 0.293253
O O7 0.580792 0.836853 0.539239
O O8 0.586552 0.116368 0.214121
O O9 0.356341 0.523314 0.766764
O O10 0.142864 0.333890 0.871708
O O11 0.565242 0.389390 0.904204
O O12 0.840464 0.221600 0.976691
O O13 0.794302 0.642887 0.453874
O O14 0.034483 0.609927 0.519721
O O15 0.055022 0.895436 0.186099
O O16 0.117716 0.185270 0.836958
#
# Coordination Sequence:
#
# PCOD8010933 Si02
#       8
#     2   2   2   2   2   2   2   2
#     4  10  22  38  60  90 123 155 193 245 295 353
#     4  10  21  38  65  85 117 156 209 235 294 350
#     4  10  22  38  60  87 125 153 197 241 301 344
#     4  10  23  39  62  90 120 154 195 247 298 347
#     4  10  22  38  56  91 120 156 196 241 297 349
#     4  10  21  41  62  86 117 159 198 251 286 347
#     4  11  22  36  62  86 126 156 190 244 296 352
#     4  11  23  37  60  88 122 154 196 235 298 358
#
# _framework density 21.379163999999999
#
# number of rings (size 3 to 8) (size 9 to 14) (size 15 to 20)
#    0.000    1.750    1.250    2.250    7.000    2.500 
#    0.000    2.500    2.750    2.250    0.000    0.000 
#    0.000    0.000    0.000    0.000    0.000    0.000 
#
# Total GULP energy -198258.117643 kJ/mol
# GULP energy per Si atom -12391.132353 kJ/mol
# Density = 2.133050 g / cm^3
# Si number density = 21.379164 Si / 1000 Ang^3
#
#
#
# Elastic Constant Matrix: (Units=GPa)
#
#
# Indices 1 2 3 4 5 6 
#
# 1 97.6359 42.2205 12.9795 -3.7928 -12.4276 -0.9615
# 2 42.2205 142.9452 25.3553 -8.6832 -11.3773 11.7876
# 3 12.9795 25.3553 87.3606 4.5270 -13.5351 -4.1876
# 4 -3.7928 -8.6832 4.5270 28.1663 7.1594 0.4158
# 5 -12.4276 -11.3773 -13.5351 7.1594 18.8561 4.7210
# 6 -0.9615 11.7876 -4.1876 0.4158 4.7210 20.4258
#
#
#
# Elastic Compliance Matrix: (Units=1/GPa)
#
#
# Indices 1 2 3 4 5 6 
#
# 1 0.012459 -0.003361 0.000236 -0.001060 0.006480 0.001098
# 2 -0.003361 0.009267 -0.002217 0.002196 0.002606 -0.006608
# 3 0.000236 -0.002217 0.014078 -0.005637 0.010602 0.001841
# 4 -0.001060 0.002196 -0.005637 0.041918 -0.019639 0.001213
# 5 0.006480 0.002606 0.010602 -0.019639 0.078120 -0.016681
# 6 0.001098 -0.006608 0.001841 0.001213 -0.016681 0.057031
#
#
# Mechanical properties :
#
#
# Convention : Reuss Voigt Hill
#
# Bulk Modulus (GPa) = 39.80890 54.33913 47.07401
# Shear Modulus (GPa) = 21.55823 29.98206 25.77015
#
# Velocity S-wave (km/s) = 3.17894 3.74892 3.47563
# Velocity P-wave (km/s) = 5.66878 6.64915 6.17844
#
# Compressibility (1/GPa) = 0.02512001
#
# Stress axis : x y z
#
# Youngs Moduli (GPa) = 80.26624 107.90624 71.03136
#
# Poissons Ratio (x) = 0.36265 -0.01676
# Poissons Ratio (y) = 0.26976 0.15749
# Poissons Ratio (z) = -0.01894 0.23925
#
# Static dielectric constant tensor:
#      x y z
#    x 4.046170 0.232310 0.077980 
#    y 0.232310 4.057050 -0.055210 
#    z 0.077980 -0.055210 4.056480 
# 
# 
# High freq. dielectric constant tensor:
#      x y z
#    x 1.846990 0.011330 0.010000 
#    y 0.011330 1.814880 0.000220 
#    z 0.010000 0.000220 1.848590 
# 
# From -- ./inp_files/224209.got.cif
#   From: 2010.06.25/outbox.cif.g09.slc.cpg/sg2_113_cif.got.tgz:224209.got - 2010.06.27 13:26:56.
