data_PCOD8010948
_publ_section_title
;
Structure prediction by ZEFSAII (Michael W. Deem and Ramdas Pophale) SiO2 
 PCOD8010948
Probable space group: P -1
;
_chemical_formula_sum "Si O2"
_cell_formula_units_Z 16
_cell_length_a 7.357946
_cell_length_b 21.961496
_cell_length_c 9.002040
_cell_angle_alpha 135.210269
_cell_angle_beta 64.044629
_cell_angle_gamma 83.107505
_cell_volume 675.781753
_symmetry_space_group_name_H-M "P -1"
_symmetry_group_IT_number 2
_symmetry_cell_setting 'triclinic'
loop_
_space_group_symop_operation_xyz
x,y,z
-x,-y,-z
loop_
_atom_site_type_symbol
_atom_site_label
_atom_site_fract_x
_atom_site_fract_y
_atom_site_fract_z
Si Si1 0.931487 0.573422 0.298912
Si Si2 0.977120 0.754063 0.608690
Si Si3 0.553354 0.630314 0.072601
Si Si4 0.541567 0.289823 0.086257
Si Si5 0.152010 0.045251 0.177611
Si Si6 0.893517 0.935276 0.447073
Si Si7 0.398988 0.132773 0.798116
Si Si8 0.441844 0.847823 0.510552
O O1 0.877655 0.688935 0.476799
O O2 0.662577 0.612585 0.545831
O O3 0.176283 0.501731 0.209614
O O4 0.000000 0.500000 0.000000
O O5 0.305517 0.663816 0.317718
O O6 0.832241 0.866819 0.752973
O O7 0.881165 0.804126 0.899988
O O8 0.609541 0.712078 0.249896
O O9 0.492180 0.645708 0.943630
O O10 0.480935 0.207095 0.937925
O O11 0.854235 0.206849 0.895142
O O12 0.256329 0.027482 0.276165
O O13 0.841803 0.097270 0.378182
O O14 0.368315 0.916230 0.806540
O O15 0.654053 0.991369 0.504197
O O16 0.000000 0.000000 0.500000
O O17 0.372770 0.142692 0.644475
#
# Coordination Sequence:
#
# PCOD8010948 Si02
#       8
#     2   2   2   2   2   2   2   2
#     4  11  24  40  62  87 110 149 208 257 287 334
#     4  10  21  38  59  88 122 156 193 237 298 352
#     4  10  19  40  64  83 115 160 195 240 289 351
#     4   9  18  37  58  83 109 157 201 230 291 360
#     4  10  18  33  56  84 121 151 190 234 286 349
#     4  10  16  32  56  83 114 158 189 228 283 349
#     4   9  18  32  55  85 123 153 188 230 286 351
#     4   9  18  33  56  89 116 151 198 228 280 357
#
# _framework density 23.676283000000002
#
# number of rings (size 3 to 8) (size 9 to 14) (size 15 to 20)
#    0.000    2.250    5.000    0.750    0.000    4.000 
#    2.250    0.625    0.000    0.000    0.000    0.000 
#    0.000    0.000    0.000    0.000    0.000    0.000 
#
# Total GULP energy -198325.251368 kJ/mol
# GULP energy per Si atom -12395.328210 kJ/mol
# Density = 2.362240 g / cm^3
# Si number density = 23.676283 Si / 1000 Ang^3
#
#
#
# Elastic Constant Matrix: (Units=GPa)
#
#
# Indices 1 2 3 4 5 6 
#
# 1 53.2645 30.4295 27.0108 -7.8942 -11.3442 -9.6511
# 2 30.4295 116.0442 51.1356 -28.5400 -5.9611 4.7462
# 3 27.0108 51.1356 147.0333 -39.8269 -7.4927 -3.2774
# 4 -7.8942 -28.5400 -39.8269 45.0410 7.2135 -2.1427
# 5 -11.3442 -5.9611 -7.4927 7.2135 32.0946 2.9729
# 6 -9.6511 4.7462 -3.2774 -2.1427 2.9729 36.2308
#
#
#
# Elastic Compliance Matrix: (Units=1/GPa)
#
#
# Indices 1 2 3 4 5 6 
#
# 1 0.026144 -0.006155 -0.002872 -0.002724 0.007415 0.006741
# 2 -0.006155 0.012402 -0.001922 0.005126 -0.001192 -0.003037
# 3 -0.002872 -0.001922 0.009936 0.007227 -0.000758 0.000875
# 4 -0.002724 0.005126 0.007227 0.032362 -0.005749 0.001642
# 5 0.007415 -0.001192 -0.000758 -0.005749 0.034778 -0.001131
# 6 0.006741 -0.003037 0.000875 0.001642 -0.001131 0.030063
#
#
# Mechanical properties :
#
#
# Convention : Reuss Voigt Hill
#
# Bulk Modulus (GPa) = 37.61743 59.27708 48.44725
# Shear Modulus (GPa) = 28.33751 36.52435 32.43093
#
# Velocity S-wave (km/s) = 3.46334 3.93193 3.70505
# Velocity P-wave (km/s) = 5.64940 6.76049 6.22976
#
# Compressibility (1/GPa) = 0.02658342
#
# Stress axis : x y z
#
# Youngs Moduli (GPa) = 38.25019 80.63054 100.64520
#
# Poissons Ratio (x) = 0.49626 0.28905
# Poissons Ratio (y) = 0.23542 0.19349
# Poissons Ratio (z) = 0.10986 0.15501
#
# Static dielectric constant tensor:
#      x y z
#    x 3.994890 0.195290 -0.223530 
#    y 0.195290 4.672220 -0.316170 
#    z -0.223530 -0.316170 4.717660 
# 
# 
# High freq. dielectric constant tensor:
#      x y z
#    x 1.910270 0.016090 -0.006330 
#    y 0.016090 1.951490 -0.011880 
#    z -0.006330 -0.011880 1.946630 
# 
# From -- ./inp_files/224017.got.cif
#   From: 2010.06.25/outbox.cif.g09.slc.cpg/sg2_113_cif.got.tgz:224017.got - 2010.06.27 13:26:56.
