data_PCOD8010210
_publ_section_title
;
Structure prediction by ZEFSAII (Michael W. Deem and Ramdas Pophale) SiO2 
 PCOD8010210
Probable space group: P -1
;
_chemical_formula_sum "Si O2"
_cell_formula_units_Z 14
_cell_length_a 6.412429
_cell_length_b 9.362367
_cell_length_c 9.503215
_cell_angle_alpha 94.999952
_cell_angle_beta 100.290489
_cell_angle_gamma 108.403359
_cell_volume 526.309931
_symmetry_space_group_name_H-M "P -1"
_symmetry_group_IT_number 2
_symmetry_cell_setting 'triclinic'
loop_
_space_group_symop_operation_xyz
x,y,z
-x,-y,-z
loop_
_atom_site_type_symbol
_atom_site_label
_atom_site_fract_x
_atom_site_fract_y
_atom_site_fract_z
Si Si1 0.654236 0.176283 0.231887
Si Si2 0.290964 0.220938 0.029844
Si Si3 0.529101 0.150594 0.765353
Si Si4 0.902480 0.578706 0.615527
Si Si5 0.066417 0.974516 0.206743
Si Si6 0.770026 0.471439 0.886358
Si Si7 0.662068 0.802396 0.549109
O O1 0.535199 0.203412 0.076778
O O2 0.517102 0.210428 0.349611
O O3 0.907573 0.285012 0.273203
O O4 0.660144 0.003895 0.211468
O O5 0.326484 0.397249 0.072352
O O6 0.114846 0.114082 0.112789
O O7 0.181949 0.155259 0.857349
O O8 0.763948 0.119943 0.795764
O O9 0.574995 0.306047 0.878477
O O10 0.452665 0.171593 0.602492
O O11 0.799778 0.461195 0.719567
O O12 0.719585 0.646089 0.532993
O O13 0.000000 0.500000 0.500000
O O14 0.110520 0.053352 0.373938
O O15 0.000000 0.500000 0.000000
#
# Coordination Sequence:
#
# PCOD8010210 Si02
#       7
#     2   2   2   2   2   2   2
#     4  10  22  43  67  99 133 178 234 275 342 414
#     4   9  18  36  68  90 133 179 222 268 347 405
#     4  10  21  37  70 101 130 182 226 281 334 416
#     4  12  27  43  69 106 141 180 231 287 341 417
#     4   9  16  36  64  97 122 176 229 266 329 415
#     4  12  23  43  71 101 140 184 227 283 351 398
#     4  10  21  41  70  92 141 183 228 271 357 397
#
# _framework density 26.600294999999999
#
# number of rings (size 3 to 8) (size 9 to 14) (size 15 to 20)
#    0.000    2.000    4.286    2.571    2.000    1.714 
#    0.000    3.571    0.000    0.000    0.000    0.000 
#    0.000    0.000    0.000    0.000    0.000    0.000 
#
# Total GULP energy -173533.962294 kJ/mol
# GULP energy per Si atom -12395.283021 kJ/mol
# Density = 2.653975 g / cm^3
# Si number density = 26.600295 Si / 1000 Ang^3
#
#
#
# Elastic Constant Matrix: (Units=GPa)
#
#
# Indices 1 2 3 4 5 6 
#
# 1 36.1642 42.2864 23.2958 10.3706 -1.5353 -8.0177
# 2 42.2864 182.0094 67.7614 19.9383 11.0340 -17.1509
# 3 23.2958 67.7614 127.6876 9.0150 6.7635 -5.7803
# 4 10.3706 19.9383 9.0150 48.9805 0.5897 6.5308
# 5 -1.5353 11.0340 6.7635 0.5897 54.2656 17.8862
# 6 -8.0177 -17.1509 -5.7803 6.5308 17.8862 53.7344
#
#
#
# Elastic Compliance Matrix: (Units=1/GPa)
#
#
# Indices 1 2 3 4 5 6 
#
# 1 0.040847 -0.007581 -0.002998 -0.005481 0.002028 0.003343
# 2 -0.007581 0.008943 -0.002998 -0.001778 -0.002441 0.002429
# 3 -0.002998 -0.002998 0.009999 0.000037 -0.000687 -0.000104
# 4 -0.005481 -0.001778 0.000037 0.022897 0.001489 -0.004660
# 5 0.002028 -0.002441 -0.000687 0.001489 0.021669 -0.007944
# 6 0.003343 0.002429 -0.000104 -0.004660 -0.007944 0.023084
#
#
# Mechanical properties :
#
#
# Convention : Reuss Voigt Hill
#
# Bulk Modulus (GPa) = 30.64314 68.06092 49.35203
# Shear Modulus (GPa) = 30.21654 45.56394 37.89024
#
# Velocity S-wave (km/s) = 3.37404 4.14322 3.77826
# Velocity P-wave (km/s) = 5.16950 6.96638 6.13409
#
# Compressibility (1/GPa) = 0.03263373
#
# Stress axis : x y z
#
# Youngs Moduli (GPa) = 24.48180 111.81340 100.01266
#
# Poissons Ratio (x) = 0.84769 0.29985
# Poissons Ratio (y) = 0.18560 0.29986
# Poissons Ratio (z) = 0.07340 0.33524
#
# Static dielectric constant tensor:
#      x y z
#    x 4.693310 0.080360 0.432690 
#    y 0.080360 5.266850 0.255800 
#    z 0.432690 0.255800 5.236650 
# 
# 
# High freq. dielectric constant tensor:
#      x y z
#    x 2.075610 -0.010010 0.013720 
#    y -0.010010 2.083070 0.009720 
#    z 0.013720 0.009720 2.085370 
# 
# From -- ./inp_files/376772.got.cif
#   From: 2010.06.25/outbox.cif.g09.slc.cpg/sg2_189_cif.got.tgz:376772.got - 2010.06.27 13:26:56.
