data_PCOD8010344
_publ_section_title
;
Structure prediction by ZEFSAII (Michael W. Deem and Ramdas Pophale) SiO2 
 PCOD8010344
Probable space group: P -1
;
_chemical_formula_sum "Si O2"
_cell_formula_units_Z 14
_cell_length_a 10.871591
_cell_length_b 14.482653
_cell_length_c 14.135767
_cell_angle_alpha 20.966805
_cell_angle_beta 62.673551
_cell_angle_gamma 71.866798
_cell_volume 657.480975
_symmetry_space_group_name_H-M "P -1"
_symmetry_group_IT_number 2
_symmetry_cell_setting 'triclinic'
loop_
_space_group_symop_operation_xyz
x,y,z
-x,-y,-z
loop_
_atom_site_type_symbol
_atom_site_label
_atom_site_fract_x
_atom_site_fract_y
_atom_site_fract_z
Si Si1 0.094255 0.266429 0.768610
Si Si2 0.962223 0.179588 0.209861
Si Si3 0.446545 0.057872 0.116076
Si Si4 0.858287 0.178167 0.454939
Si Si5 0.619502 0.794023 0.199142
Si Si6 0.290093 0.509705 0.306764
Si Si7 0.180000 0.881208 0.876356
O O1 0.219554 0.211501 0.837332
O O2 0.173085 0.514067 0.428110
O O3 0.981501 0.315531 0.836197
O O4 0.000000 0.000000 0.000000
O O5 0.869991 0.115320 0.400811
O O6 0.838602 0.096655 0.250355
O O7 0.065775 0.996074 0.342919
O O8 0.064867 0.499667 0.857206
O O9 0.316460 0.909621 0.378042
O O10 0.567935 0.912280 0.198757
O O11 0.368159 0.025855 0.071998
O O12 0.543127 0.368506 0.823505
O O13 0.500000 0.500000 0.500000
O O14 0.252792 0.193917 0.590667
O O15 0.284550 0.709855 0.030515
#
# Coordination Sequence:
#
# PCOD8010344 Si02
#       7
#     2   2   2   2   2   2   2
#     4  10  21  38  59  86 122 164 204 250 305 361
#     4  10  22  43  63  96 119 153 217 257 311 366
#     4  11  24  38  62  88 128 164 206 249 324 362
#     4  10  23  40  68  90 123 160 199 268 313 365
#     4  11  23  39  59  91 128 162 210 252 301 385
#     4  11  23  39  57  90 124 166 201 255 299 384
#     4  11  23  38  64  85 125 162 209 252 310 356
#
# _framework density 21.293392999999998
#
# number of rings (size 3 to 8) (size 9 to 14) (size 15 to 20)
#    0.000    1.429    1.429    3.857    4.000    2.286 
#    0.000    1.429    0.000    0.000    0.000    0.000 
#    0.000    0.000    0.000    0.000    0.000    0.000 
#
# Total GULP energy -173546.422791 kJ/mol
# GULP energy per Si atom -12396.173057 kJ/mol
# Density = 2.124493 g / cm^3
# Si number density = 21.293393 Si / 1000 Ang^3
#
#
#
# Elastic Constant Matrix: (Units=GPa)
#
#
# Indices 1 2 3 4 5 6 
#
# 1 107.3469 28.6652 39.1598 0.5769 1.3570 19.8868
# 2 28.6652 69.5655 39.0141 10.5795 -7.4671 8.3512
# 3 39.1598 39.0141 110.4998 -5.2940 -0.3272 -1.9760
# 4 0.5769 10.5795 -5.2940 22.5323 -4.9200 1.1368
# 5 1.3570 -7.4671 -0.3272 -4.9200 44.9020 3.1711
# 6 19.8868 8.3512 -1.9760 1.1368 3.1711 31.8402
#
#
#
# Elastic Compliance Matrix: (Units=1/GPa)
#
#
# Indices 1 2 3 4 5 6 
#
# 1 0.012721 -0.002215 -0.003856 0.000141 -0.000230 -0.007586
# 2 -0.002215 0.022181 -0.007665 -0.011306 0.002799 -0.004785
# 3 -0.003856 -0.007665 0.013521 0.006462 -0.000712 0.005098
# 4 0.000141 -0.011306 0.006462 0.051978 0.003784 0.001046
# 5 -0.000230 0.002799 -0.000712 0.003784 0.023371 -0.003098
# 6 -0.007586 -0.004785 0.005098 0.001046 -0.003098 0.037987
#
#
# Mechanical properties :
#
#
# Convention : Reuss Voigt Hill
#
# Bulk Modulus (GPa) = 47.73003 55.67671 51.70337
# Shear Modulus (GPa) = 25.48217 31.89310 28.68764
#
# Velocity S-wave (km/s) = 3.46311 3.87433 3.67448
# Velocity P-wave (km/s) = 6.20121 6.79839 6.50665
#
# Compressibility (1/GPa) = 0.02095117
#
# Stress axis : x y z
#
# Youngs Moduli (GPa) = 78.60958 45.08378 73.95717
#
# Poissons Ratio (x) = 0.09985 0.28516
# Poissons Ratio (y) = 0.17411 0.56692
# Poissons Ratio (z) = 0.30310 0.34559
#
# Static dielectric constant tensor:
#      x y z
#    x 4.139110 0.201030 -0.005420 
#    y 0.201030 3.968570 0.132650 
#    z -0.005420 0.132650 3.995880 
# 
# 
# High freq. dielectric constant tensor:
#      x y z
#    x 1.841910 0.015550 0.002620 
#    y 0.015550 1.815420 -0.005930 
#    z 0.002620 -0.005930 1.840060 
# 
# From -- ./inp_files/34533.got.cif
#   From: 2010.06.25/outbox.cif.g09.slc.cpg/sg2_18_cif.got.tgz:34533.got - 2010.06.27 13:26:56.
