data_PCOD8010709
_publ_section_title
;
Structure prediction by ZEFSAII (Michael W. Deem and Ramdas Pophale) SiO2 
 PCOD8010709
Probable space group: P -1
;
_chemical_formula_sum "Si O2"
_cell_formula_units_Z 16
_cell_length_a 27.911124
_cell_length_b 16.539667
_cell_length_c 22.206124
_cell_angle_alpha 21.645511
_cell_angle_beta 168.744259
_cell_angle_gamma 159.036354
_cell_volume 702.099961
_symmetry_space_group_name_H-M "P -1"
_symmetry_group_IT_number 2
_symmetry_cell_setting 'triclinic'
loop_
_space_group_symop_operation_xyz
x,y,z
-x,-y,-z
loop_
_atom_site_type_symbol
_atom_site_label
_atom_site_fract_x
_atom_site_fract_y
_atom_site_fract_z
Si Si1 0.698724 0.621627 0.540184
Si Si2 0.138437 0.501762 0.298974
Si Si3 0.844200 0.852129 0.355986
Si Si4 0.717567 0.976374 0.851345
Si Si5 0.186606 0.649604 0.837200
Si Si6 0.379784 0.766863 0.192803
Si Si7 0.876538 0.026343 0.557495
Si Si8 0.131533 0.881710 0.192403
O O1 0.840369 0.548052 0.710279
O O2 0.596774 0.393590 0.612246
O O3 0.914638 0.844373 0.680298
O O4 0.466272 0.710857 0.168900
O O5 0.305738 0.390028 0.627287
O O6 0.229414 0.763965 0.243942
O O7 0.829890 0.379392 0.014057
O O8 0.020345 0.793414 0.563302
O O9 0.000000 0.000000 0.500000
O O10 0.670228 0.993586 0.013747
O O11 0.820019 0.969799 0.913337
O O12 0.413269 0.855788 0.572334
O O13 0.875244 0.865365 0.168594
O O14 0.206510 0.756723 0.719927
O O15 0.058007 0.375357 0.871169
O O16 0.653748 0.843087 0.446659
O O17 0.000000 0.000000 0.000000
#
# Coordination Sequence:
#
# PCOD8010709 Si02
#       8
#     2   2   2   2   2   2   2   2
#     4  12  23  39  69 104 148 190 227 276 358 433
#     4  11  21  40  65 101 144 183 227 285 353 422
#     4  10  21  38  62  97 142 182 219 275 346 419
#     4  11  25  46  74 105 134 186 243 301 350 415
#     4  12  25  45  70 100 144 190 230 289 354 418
#     4  11  23  37  62 102 147 183 225 275 343 434
#     4  12  25  41  67 108 145 182 234 285 354 430
#     4  11  26  52  77  98 134 188 251 301 358 409
#
# _framework density 22.788778000000001
#
# number of rings (size 3 to 8) (size 9 to 14) (size 15 to 20)
#    0.000    0.750    2.500    6.375    1.750    0.500 
#    0.000    0.625    0.000    0.000    0.000    0.000 
#    0.000    0.000    0.000    0.000    0.000    0.000 
#
# Total GULP energy -198220.157270 kJ/mol
# GULP energy per Si atom -12388.759829 kJ/mol
# Density = 2.273691 g / cm^3
# Si number density = 22.788778 Si / 1000 Ang^3
#
#
#
# Elastic Constant Matrix: (Units=GPa)
#
#
# Indices 1 2 3 4 5 6 
#
# 1 97.3622 13.5082 35.0709 -2.8631 -0.9923 3.0897
# 2 13.5082 6.2561 45.5461 17.5167 -4.8049 13.2387
# 3 35.0709 45.5461 64.4131 -26.7499 -20.5276 -8.0702
# 4 -2.8631 17.5167 -26.7499 32.5995 5.0857 -9.6423
# 5 -0.9923 -4.8049 -20.5276 5.0857 44.9213 -13.4850
# 6 3.0897 13.2387 -8.0702 -9.6423 -13.4850 40.6563
#
#
#
# Elastic Compliance Matrix: (Units=1/GPa)
#
#
# Indices 1 2 3 4 5 6 
#
# 1 0.012222 -0.004918 -0.003452 0.001076 -0.002091 -0.000451
# 2 -0.004918 -0.003132 0.015425 0.015872 0.008080 0.010900
# 3 -0.003452 0.015425 0.003539 -0.007566 0.002544 -0.005008
# 4 0.001076 0.015872 -0.007566 0.015400 -0.004897 -0.004724
# 5 -0.002091 0.008080 0.002544 -0.004897 0.026495 0.005659
# 6 -0.000451 0.010900 -0.005008 -0.004724 0.005659 0.020844
#
#
# Mechanical properties :
#
#
# Convention : Reuss Voigt Hill
#
# Bulk Modulus (GPa) = 37.40272 39.58687 38.49479
# Shear Modulus (GPa) = 71.25394 28.56251 49.90823
#
# Velocity S-wave (km/s) = 5.59777 3.54412 4.68486
# Velocity P-wave (km/s) = 7.63075 5.84437 6.79651
#
# Compressibility (1/GPa) = 0.02673603
#
# Stress axis : x y z
#
# Youngs Moduli (GPa) = 81.82256 -319.23472 282.56042
#
# Poissons Ratio (x) = -1.57012 0.97554
# Poissons Ratio (y) = 0.40243 -4.35844
# Poissons Ratio (z) = 0.28249 4.92413
#
# Static dielectric constant tensor:
#      x y z
#    x 4.584120 0.218410 -0.135360 
#    y 0.218410 4.294210 -0.281000 
#    z -0.135360 -0.281000 4.516050 
# 
# 
# High freq. dielectric constant tensor:
#      x y z
#    x 1.908140 0.021660 0.003770 
#    y 0.021660 1.887480 -0.019560 
#    z 0.003770 -0.019560 1.898140 
# 
# From -- ./inp_files/614550.got.cif
#   From: 2010.06.25/outbox.cif.g09.slc.cpg/sg2_308_cif.got.tgz:614550.got - 2010.06.27 13:26:56.
