data_PCOD8010798
_publ_section_title
;
Structure prediction by ZEFSAII (Michael W. Deem and Ramdas Pophale) SiO2 
 PCOD8010798
Probable space group: P -1
;
_chemical_formula_sum "Si O2"
_cell_formula_units_Z 16
_cell_length_a 12.320235
_cell_length_b 14.277451
_cell_length_c 9.807255
_cell_angle_alpha 112.767964
_cell_angle_beta 59.899513
_cell_angle_gamma 62.947964
_cell_volume 800.507613
_symmetry_space_group_name_H-M "P -1"
_symmetry_group_IT_number 2
_symmetry_cell_setting 'triclinic'
loop_
_space_group_symop_operation_xyz
x,y,z
-x,-y,-z
loop_
_atom_site_type_symbol
_atom_site_label
_atom_site_fract_x
_atom_site_fract_y
_atom_site_fract_z
Si Si1 0.411235 0.096862 0.254117
Si Si2 0.437776 0.311215 0.783308
Si Si3 0.482842 0.271441 0.414110
Si Si4 0.007523 0.701159 0.262186
Si Si5 0.883832 0.004716 0.471335
Si Si6 0.637032 0.860757 0.215876
Si Si7 0.066021 0.664778 0.889409
Si Si8 0.124230 0.857664 0.957028
O O1 0.509343 0.140816 0.263565
O O2 0.149651 0.268859 0.532407
O O3 0.492296 0.957284 0.227317
O O4 0.500000 0.000000 0.000000
O O5 0.526283 0.252984 0.539057
O O6 0.629954 0.194078 0.707715
O O7 0.309081 0.290762 0.868901
O O8 0.259418 0.516452 0.039408
O O9 0.248135 0.463719 0.626903
O O10 0.647062 0.239440 0.218351
O O11 0.985930 0.698112 0.112742
O O12 0.930812 0.865531 0.431724
O O13 0.000000 0.000000 0.500000
O O14 0.993944 0.949118 0.227694
O O15 0.500000 0.000000 0.500000
O O16 0.855082 0.778844 0.998216
O O17 0.151556 0.720345 0.827794
O O18 0.000000 0.000000 0.000000
#
# Coordination Sequence:
#
# PCOD8010798 Si02
#       8
#     2   2   2   2   2   2   2   2
#     4  12  25  39  62  95 133 164 202 262 326 373
#     4  11  21  40  70  94 119 164 221 262 303 374
#     4  11  22  38  63  94 127 164 208 265 314 361
#     4  10  22  42  64  93 125 163 216 258 306 377
#     4  11  24  42  65  91 129 170 206 256 316 381
#     4  12  19  38  67  91 121 163 215 255 310 372
#     4  10  21  38  63  96 120 161 218 264 299 369
#     4  11  21  38  62  91 125 161 212 255 312 369
#
# _framework density 19.987317000000001
#
# number of rings (size 3 to 8) (size 9 to 14) (size 15 to 20)
#    0.000    1.000    5.000    2.625    1.750    2.500 
#    0.000    3.750    0.000    0.000    0.000    0.000 
#    0.000    0.000    0.000    0.000    0.000    0.000 
#
# Total GULP energy -198322.889901 kJ/mol
# GULP energy per Si atom -12395.180619 kJ/mol
# Density = 1.994183 g / cm^3
# Si number density = 19.987317 Si / 1000 Ang^3
#
#
#
# Elastic Constant Matrix: (Units=GPa)
#
#
# Indices 1 2 3 4 5 6 
#
# 1 102.9375 35.6956 39.7926 12.6864 -19.7859 1.4041
# 2 35.6956 95.1536 33.3692 15.1841 -0.6790 3.6385
# 3 39.7926 33.3692 78.3156 11.5207 -18.3085 2.4582
# 4 12.6864 15.1841 11.5207 35.9038 0.5134 -8.6780
# 5 -19.7859 -0.6790 -18.3085 0.5134 32.5351 -6.3622
# 6 1.4041 3.6385 2.4582 -8.6780 -6.3622 31.3342
#
#
#
# Elastic Compliance Matrix: (Units=1/GPa)
#
#
# Indices 1 2 3 4 5 6 
#
# 1 0.013880 -0.003541 -0.003754 -0.002099 0.006447 0.000811
# 2 -0.003541 0.014231 -0.004779 -0.003947 -0.005119 -0.003251
# 3 -0.003754 -0.004779 0.019103 -0.002868 0.008441 0.000144
# 4 -0.002099 -0.003947 -0.002868 0.033562 -0.001596 0.009748
# 5 0.006447 -0.005119 0.008441 -0.001596 0.040788 0.007483
# 6 0.000811 -0.003251 0.000144 0.009748 0.007483 0.036463
#
#
# Mechanical properties :
#
#
# Convention : Reuss Voigt Hill
#
# Bulk Modulus (GPa) = 43.34966 54.90237 49.12601
# Shear Modulus (GPa) = 26.33480 31.12456 28.72968
#
# Velocity S-wave (km/s) = 3.63378 3.95044 3.79541
# Velocity P-wave (km/s) = 6.27228 6.95242 6.62109
#
# Compressibility (1/GPa) = 0.02306823
#
# Stress axis : x y z
#
# Youngs Moduli (GPa) = 72.04496 70.26933 52.34821
#
# Poissons Ratio (x) = 0.24881 0.19649
# Poissons Ratio (y) = 0.25509 0.25015
# Poissons Ratio (z) = 0.27042 0.33579
#
# Static dielectric constant tensor:
#      x y z
#    x 2.583920 -0.019700 1.475820 
#    y -0.019700 3.564060 0.352120 
#    z 1.475820 0.352120 0.554780 
# 
# 
# High freq. dielectric constant tensor:
#      x y z
#    x 1.770070 0.012680 -0.023200 
#    y 0.012680 1.783700 0.011790 
#    z -0.023200 0.011790 1.776070 
# 
# From -- ./inp_files/189382.got.cif
#   From: 2010.06.25/outbox.cif.g09.slc.cpg/sg2_95_cif.got.tgz:189382.got - 2010.06.27 13:26:56.
