data_PCOD8010512
_publ_section_title
;
Structure prediction by ZEFSAII (Michael W. Deem and Ramdas Pophale) SiO2 
 PCOD8010512
Probable space group: P -1
;
_chemical_formula_sum "Si O2"
_cell_formula_units_Z 16
_cell_length_a 13.680366
_cell_length_b 14.819503
_cell_length_c 11.838759
_cell_angle_alpha 152.124970
_cell_angle_beta 64.437642
_cell_angle_gamma 132.119677
_cell_volume 736.769491
_symmetry_space_group_name_H-M "P -1"
_symmetry_group_IT_number 2
_symmetry_cell_setting 'triclinic'
loop_
_space_group_symop_operation_xyz
x,y,z
-x,-y,-z
loop_
_atom_site_type_symbol
_atom_site_label
_atom_site_fract_x
_atom_site_fract_y
_atom_site_fract_z
Si Si1 0.095990 0.205250 0.778141
Si Si2 0.199978 0.784245 0.107857
Si Si3 0.131499 0.674927 0.263786
Si Si4 0.634770 0.081571 0.398147
Si Si5 0.348841 0.647900 0.758231
Si Si6 0.825527 0.952441 0.771718
Si Si7 0.319785 0.907179 0.872155
Si Si8 0.586085 0.421884 0.916651
O O1 0.149887 0.474350 0.001348
O O2 0.250474 0.286978 0.818560
O O3 0.000000 0.000000 0.500000
O O4 0.998833 0.109744 0.836250
O O5 0.322937 0.770184 0.008453
O O6 0.043944 0.496276 0.822293
O O7 0.193812 0.852059 0.315029
O O8 0.237844 0.024418 0.285132
O O9 0.229800 0.841329 0.508566
O O10 0.594810 0.255206 0.638338
O O11 0.687567 0.141905 0.310463
O O12 0.494492 0.767552 0.141916
O O13 0.261893 0.345853 0.485588
O O14 0.294355 0.677185 0.699664
O O15 0.523274 0.812157 0.853649
O O16 0.807140 0.088073 0.030798
O O17 0.500000 0.500000 0.000000
#
# Coordination Sequence:
#
# PCOD8010512 Si02
#       8
#     2   2   2   2   2   2   2   2
#     4  10  21  38  63  97 126 162 213 264 310 377
#     4   9  19  35  61  92 124 158 211 255 316 371
#     4   9  19  38  60  92 127 169 200 258 321 374
#     4  10  23  42  64  89 135 164 212 257 314 387
#     4  10  21  38  61  88 121 164 215 260 310 365
#     4  10  21  38  62  93 124 161 211 263 312 369
#     4  10  23  41  60  90 122 170 211 259 311 376
#     4  10  24  42  62  96 129 171 205 256 327 379
#
# _framework density 21.716425000000001
#
# number of rings (size 3 to 8) (size 9 to 14) (size 15 to 20)
#    0.000    2.250    0.000    1.125    7.000    5.000 
#    4.500   11.250    0.000    8.250    0.000    0.000 
#    0.000    0.000    0.000    0.000    0.000    0.000 
#
# Total GULP energy -198282.996774 kJ/mol
# GULP energy per Si atom -12392.687298 kJ/mol
# Density = 2.166700 g / cm^3
# Si number density = 21.716425 Si / 1000 Ang^3
#
#
#
# Elastic Constant Matrix: (Units=GPa)
#
#
# Indices 1 2 3 4 5 6 
#
# 1 109.7518 56.4272 50.2321 2.5238 1.4646 5.8071
# 2 56.4272 156.7740 62.9786 -0.4392 1.6085 -12.8381
# 3 50.2321 62.9786 86.2131 4.6582 -0.5673 -9.0382
# 4 2.5238 -0.4392 4.6582 29.2460 -8.6232 2.3400
# 5 1.4646 1.6085 -0.5673 -8.6232 29.1316 10.1433
# 6 5.8071 -12.8381 -9.0382 2.3400 10.1433 39.1709
#
#
#
# Elastic Compliance Matrix: (Units=1/GPa)
#
#
# Indices 1 2 3 4 5 6 
#
# 1 0.013721 -0.002715 -0.006532 0.000535 0.001149 -0.004761
# 2 -0.002715 0.009705 -0.005273 0.000645 -0.001233 0.002647
# 3 -0.006532 -0.005273 0.019903 -0.003508 -0.001581 0.004451
# 4 0.000535 0.000645 -0.003508 0.039313 0.013805 -0.006601
# 5 0.001149 -0.001233 -0.001581 0.013805 0.042873 -0.012866
# 6 -0.004761 0.002647 0.004451 -0.006601 -0.012866 0.031856
#
#
# Mechanical properties :
#
#
# Convention : Reuss Voigt Hill
#
# Bulk Modulus (GPa) = 69.98230 76.89050 73.43640
# Shear Modulus (GPa) = 26.15415 31.71640 28.93527
#
# Velocity S-wave (km/s) = 3.47414 3.82577 3.65418
# Velocity P-wave (km/s) = 6.95617 7.41612 7.18982
#
# Compressibility (1/GPa) = 0.01428933
#
# Stress axis : x y z
#
# Youngs Moduli (GPa) = 72.88086 103.03558 50.24361
#
# Poissons Ratio (x) = 0.27971 0.32819
# Poissons Ratio (y) = 0.19785 0.26496
# Poissons Ratio (z) = 0.47605 0.54335
#
# Static dielectric constant tensor:
#      x y z
#    x 4.482440 0.355050 0.273750 
#    y 0.355050 4.243170 0.321110 
#    z 0.273750 0.321110 3.962730 
# 
# 
# High freq. dielectric constant tensor:
#      x y z
#    x 1.856680 0.007970 -0.014540 
#    y 0.007970 1.861950 0.018480 
#    z -0.014540 0.018480 1.825250 
# 
# From -- ./inp_files/456015.got.cif
#   From: 2010.06.25/outbox.cif.g09.slc.cpg/sg2_229_cif.got.tgz:456015.got - 2010.06.27 13:26:56.
