data_PCOD8010665
_publ_section_title
;
Structure prediction by ZEFSAII (Michael W. Deem and Ramdas Pophale) SiO2 
 PCOD8010665
Probable space group: P -1
;
_chemical_formula_sum "Si O2"
_cell_formula_units_Z 16
_cell_length_a 14.231872
_cell_length_b 10.035311
_cell_length_c 7.984858
_cell_angle_alpha 49.423888
_cell_angle_beta 93.497760
_cell_angle_gamma 120.637677
_cell_volume 678.451169
_symmetry_space_group_name_H-M "P -1"
_symmetry_group_IT_number 2
_symmetry_cell_setting 'triclinic'
loop_
_space_group_symop_operation_xyz
x,y,z
-x,-y,-z
loop_
_atom_site_type_symbol
_atom_site_label
_atom_site_fract_x
_atom_site_fract_y
_atom_site_fract_z
Si Si1 0.039755 0.541211 0.162368
Si Si2 0.716848 0.545036 0.511633
Si Si3 0.940910 0.049426 0.596261
Si Si4 0.655053 0.348588 0.191980
Si Si5 0.692407 0.718709 0.693202
Si Si6 0.685471 0.176452 0.011635
Si Si7 0.108126 0.308089 0.879154
Si Si8 0.503955 0.734399 0.478189
O O1 0.984711 0.637111 0.186553
O O2 0.000000 0.500000 0.000000
O O3 0.180581 0.741122 0.029941
O O4 0.009331 0.312665 0.419672
O O5 0.751433 0.692651 0.558893
O O6 0.836674 0.670630 0.313101
O O7 0.603150 0.498687 0.436571
O O8 0.672615 0.299764 0.760465
O O9 0.803486 0.940136 0.619396
O O10 0.946653 0.939388 0.856576
O O11 0.000000 0.000000 0.500000
O O12 0.641967 0.188452 0.180354
O O13 0.793383 0.508254 0.130753
O O14 0.567867 0.211742 0.452162
O O15 0.627117 0.506673 0.981257
O O16 0.588034 0.725515 0.619667
O O17 0.586940 0.909776 0.194439
#
# Coordination Sequence:
#
# PCOD8010665 Si02
#       8
#     2   2   2   2   2   2   2   2
#     4  12  21  39  68  94 125 157 211 263 304 368
#     4  10  23  43  58  85 133 164 197 254 313 371
#     4  11  21  39  66  93 123 160 206 261 312 359
#     4   9  19  37  60  89 121 154 202 263 305 358
#     4  10  21  38  62  92 120 162 206 249 316 371
#     4  11  22  39  59  91 122 164 204 249 313 368
#     4  10  22  40  64  91 127 163 203 258 314 365
#     4  11  21  36  63  89 121 161 210 250 305 373
#
# _framework density 23.583127000000001
#
# number of rings (size 3 to 8) (size 9 to 14) (size 15 to 20)
#    0.000    1.500    2.500    3.750    0.000    0.500 
#    2.250    2.500    0.000    0.000    0.000    0.000 
#    0.000    0.000    0.000    0.000    0.000    0.000 
#
# Total GULP energy -198339.451229 kJ/mol
# GULP energy per Si atom -12396.215702 kJ/mol
# Density = 2.352945 g / cm^3
# Si number density = 23.583127 Si / 1000 Ang^3
#
#
#
# Elastic Constant Matrix: (Units=GPa)
#
#
# Indices 1 2 3 4 5 6 
#
# 1 105.5646 9.3370 52.8034 -16.2974 -5.2534 13.9013
# 2 9.3370 35.9230 21.1003 -3.9150 -11.3109 3.7794
# 3 52.8034 21.1003 132.0595 -7.8009 -17.8150 -11.8706
# 4 -16.2974 -3.9150 -7.8009 31.4870 0.9522 -1.8805
# 5 -5.2534 -11.3109 -17.8150 0.9522 37.5798 0.7958
# 6 13.9013 3.7794 -11.8706 -1.8805 0.7958 28.4378
#
#
#
# Elastic Compliance Matrix: (Units=1/GPa)
#
#
# Indices 1 2 3 4 5 6 
#
# 1 0.014925 0.001633 -0.006876 0.005646 -0.000613 -0.009992
# 2 0.001633 0.034352 -0.005575 0.003032 0.008011 -0.007715
# 3 -0.006876 -0.005575 0.012405 -0.000725 0.003066 0.009147
# 4 0.005646 0.003032 -0.000725 0.034793 0.000502 -0.001179
# 5 -0.000613 0.008011 0.003066 0.000502 0.030383 -0.000302
# 6 -0.009992 -0.007715 0.009147 -0.001179 -0.000302 0.044823
#
#
# Mechanical properties :
#
#
# Convention : Reuss Voigt Hill
#
# Bulk Modulus (GPa) = 24.97116 48.89205 36.93161
# Shear Modulus (GPa) = 24.19354 32.18802 28.19078
#
# Velocity S-wave (km/s) = 3.20642 3.69843 3.46118
# Velocity P-wave (km/s) = 4.93150 6.24617 5.62736
#
# Compressibility (1/GPa) = 0.04004619
#
# Stress axis : x y z
#
# Youngs Moduli (GPa) = 67.00256 29.11015 80.60953
#
# Poissons Ratio (x) = -0.04754 0.55427
# Poissons Ratio (y) = -0.10942 0.44943
# Poissons Ratio (z) = 0.46071 0.16230
#
# Static dielectric constant tensor:
#      x y z
#    x 4.197600 0.243650 -0.015750 
#    y 0.243650 4.029720 0.043460 
#    z -0.015750 0.043460 4.382480 
# 
# 
# High freq. dielectric constant tensor:
#      x y z
#    x 1.937500 0.021990 -0.010700 
#    y 0.021990 1.918830 0.004840 
#    z -0.010700 0.004840 1.938810 
# 
# From -- ./inp_files/306266.got.cif
#   From: 2010.06.25/outbox.cif.g09.slc.cpg/sg2_154_cif.got.tgz:306266.got - 2010.06.27 13:26:56.
