data_PCOD8010317
_publ_section_title
;
Structure prediction by ZEFSAII (Michael W. Deem and Ramdas Pophale) SiO2 
 PCOD8010317
Probable space group: P -1
;
_chemical_formula_sum "Si O2"
_cell_formula_units_Z 16
_cell_length_a 9.300922
_cell_length_b 29.317962
_cell_length_c 12.529520
_cell_angle_alpha 25.643325
_cell_angle_beta 35.530320
_cell_angle_gamma 42.408710
_cell_volume 859.110652
_symmetry_space_group_name_H-M "P -1"
_symmetry_group_IT_number 2
_symmetry_cell_setting 'triclinic'
loop_
_space_group_symop_operation_xyz
x,y,z
-x,-y,-z
loop_
_atom_site_type_symbol
_atom_site_label
_atom_site_fract_x
_atom_site_fract_y
_atom_site_fract_z
Si Si1 0.058022 0.198950 0.768415
Si Si2 0.068786 0.181108 0.314523
Si Si3 0.763479 0.008042 0.272149
Si Si4 0.177422 0.389220 0.926556
Si Si5 0.268511 0.616152 0.384703
Si Si6 0.525834 0.118768 0.768074
Si Si7 0.860215 0.321795 0.448262
Si Si8 0.519753 0.141533 0.971273
O O1 0.328219 0.190742 0.672321
O O2 0.896895 0.281749 0.765151
O O3 0.064577 0.245878 0.544893
O O4 0.926083 0.086534 0.080320
O O5 0.789369 0.165450 0.477314
O O6 0.106276 0.108067 0.553313
O O7 0.106802 0.302562 0.064520
O O8 0.258734 0.143064 0.188544
O O9 0.500000 0.000000 0.500000
O O10 0.712382 0.051092 0.092090
O O11 0.166967 0.505657 0.632703
O O12 0.450292 0.365211 0.859985
O O13 0.984701 0.390206 0.137917
O O14 0.266638 0.603469 0.542760
O O15 0.466868 0.120200 0.925763
O O16 0.500000 0.000000 0.000000
O O17 0.644018 0.254209 0.669105
#
# Coordination Sequence:
#
# PCOD8010317 Si02
#       8
#     2   2   2   2   2   2   2   2
#     4   9  20  39  52  83 119 145 186 235 278 327
#     4  11  21  36  58  84 114 148 193 227 284 336
#     4   9  17  35  59  80 108 144 187 235 282 323
#     4  11  18  34  64  91 106 149 185 238 281 331
#     4   9  20  35  59  87 121 133 192 237 281 325
#     4  12  24  39  55  80 117 156 190 227 278 347
#     4   9  18  36  60  84 112 143 187 237 278 325
#     4  10  21  38  59  82 113 150 185 241 280 327
#
# _framework density 18.623911
#
# number of rings (size 3 to 8) (size 9 to 14) (size 15 to 20)
#    0.750    1.250    3.750    1.125    0.000    2.000 
#    2.250    0.625    0.000    0.750    0.000    0.000 
#    0.000    0.000    0.000    0.000    0.000    0.000 
#
# Total GULP energy -198260.214594 kJ/mol
# GULP energy per Si atom -12391.263412 kJ/mol
# Density = 1.858152 g / cm^3
# Si number density = 18.623911 Si / 1000 Ang^3
#
#
#
# Elastic Constant Matrix: (Units=GPa)
#
#
# Indices 1 2 3 4 5 6 
#
# 1 89.5392 27.7786 32.6423 -0.2549 -17.4354 -5.5521
# 2 27.7786 66.5969 25.6359 -7.0443 -10.2531 2.7293
# 3 32.6423 25.6359 93.2946 -2.2527 -26.5967 0.9107
# 4 -0.2549 -7.0443 -2.2527 39.9957 4.0665 -4.3683
# 5 -17.4354 -10.2531 -26.5967 4.0665 24.4441 3.6174
# 6 -5.5521 2.7293 0.9107 -4.3683 3.6174 30.7495
#
#
#
# Elastic Compliance Matrix: (Units=1/GPa)
#
#
# Indices 1 2 3 4 5 6 
#
# 1 0.014705 -0.004570 -0.002224 -0.001203 0.006019 0.002248
# 2 -0.004570 0.018669 -0.003163 0.002750 0.000984 -0.002114
# 3 -0.002224 -0.003163 0.016983 -0.001566 0.016234 -0.002756
# 4 -0.001203 0.002750 -0.001566 0.026492 -0.006423 0.004104
# 5 0.006019 0.000984 0.016234 -0.006423 0.065548 -0.008105
# 6 0.002248 -0.002114 -0.002756 0.004104 -0.008105 0.034733
#
#
# Mechanical properties :
#
#
# Convention : Reuss Voigt Hill
#
# Bulk Modulus (GPa) = 32.84952 46.83824 39.84388
# Shear Modulus (GPa) = 24.13220 29.92945 27.03083
#
# Velocity S-wave (km/s) = 3.60358 4.01314 3.81386
# Velocity P-wave (km/s) = 5.91532 6.83212 6.39018
#
# Compressibility (1/GPa) = 0.03044185
#
# Stress axis : x y z
#
# Youngs Moduli (GPa) = 68.00392 53.56566 58.88137
#
# Poissons Ratio (x) = 0.24480 0.13097
# Poissons Ratio (y) = 0.31079 0.18625
# Poissons Ratio (z) = 0.15126 0.16944
#
# Static dielectric constant tensor:
#      x y z
#    x 3.337200 -0.219510 -0.026280 
#    y -0.219510 3.555060 -0.148020 
#    z -0.026280 -0.148020 3.544330 
# 
# 
# High freq. dielectric constant tensor:
#      x y z
#    x 1.685220 -0.005190 -0.019210 
#    y -0.005190 1.724360 -0.001560 
#    z -0.019210 -0.001560 1.730200 
# 
# From -- ./inp_files/407104.got.cif
#   From: 2010.06.25/outbox.cif.g09.slc.cpg/sg2_204_cif.got.tgz:407104.got - 2010.06.27 13:26:56.
