data_PCOD8010747
_publ_section_title
;
Structure prediction by ZEFSAII (Michael W. Deem and Ramdas Pophale) SiO2 
 PCOD8010747
Probable space group: P -1
;
_chemical_formula_sum "Si O2"
_cell_formula_units_Z 16
_cell_length_a 16.267552
_cell_length_b 19.606567
_cell_length_c 7.788363
_cell_angle_alpha 38.242003
_cell_angle_beta 121.741018
_cell_angle_gamma 149.511680
_cell_volume 684.408055
_symmetry_space_group_name_H-M "P -1"
_symmetry_group_IT_number 2
_symmetry_cell_setting 'triclinic'
loop_
_space_group_symop_operation_xyz
x,y,z
-x,-y,-z
loop_
_atom_site_type_symbol
_atom_site_label
_atom_site_fract_x
_atom_site_fract_y
_atom_site_fract_z
Si Si1 0.255075 0.934818 0.423105
Si Si2 0.630104 0.991128 0.137749
Si Si3 0.503466 0.504535 0.700253
Si Si4 0.637419 0.163296 0.094201
Si Si5 0.159031 0.458967 0.224127
Si Si6 0.431381 0.669060 0.818570
Si Si7 0.891282 0.817503 0.108459
Si Si8 0.215315 0.033804 0.849148
O O1 0.373045 0.934394 0.564410
O O2 0.050998 0.715584 0.708509
O O3 0.364011 0.130262 0.268470
O O4 0.243852 0.971687 0.150296
O O5 0.448840 0.754289 0.491847
O O6 0.782144 0.042946 0.163790
O O7 0.717369 0.166473 0.015799
O O8 0.558063 0.978174 0.907324
O O9 0.500000 0.500000 0.500000
O O10 0.290856 0.301956 0.933210
O O11 0.613455 0.717137 0.467483
O O12 0.606905 0.498942 0.908029
O O13 0.771859 0.391956 0.845098
O O14 0.178617 0.355571 0.522209
O O15 0.280576 0.584483 0.937543
O O16 0.000000 0.000000 0.000000
O O17 0.024033 0.913352 0.905272
#
# Coordination Sequence:
#
# PCOD8010747 Si02
#       8
#     2   2   2   2   2   2   2   2
#     4  10  21  38  63  91 116 156 210 263 297 346
#     4  10  24  41  58  88 130 172 195 247 319 369
#     4  12  19  36  64  96 116 155 204 255 301 356
#     4  10  22  41  62  88 123 163 215 251 302 366
#     4  11  21  38  65  94 117 157 213 262 299 351
#     4  11  22  39  62  92 128 159 202 253 308 370
#     4  11  20  35  61  94 119 149 199 256 307 350
#     4  11  22  39  61  90 127 157 200 252 308 366
#
# _framework density 23.377865
#
# number of rings (size 3 to 8) (size 9 to 14) (size 15 to 20)
#    0.000    1.250    3.750    2.625    0.000    6.000 
#    0.000   11.250    0.000    0.000    0.000    0.000 
#    0.000    0.000    0.000    0.000    0.000    0.000 
#
# Total GULP energy -198266.310317 kJ/mol
# GULP energy per Si atom -12391.644395 kJ/mol
# Density = 2.332466 g / cm^3
# Si number density = 23.377865 Si / 1000 Ang^3
#
#
#
# Elastic Constant Matrix: (Units=GPa)
#
#
# Indices 1 2 3 4 5 6 
#
# 1 176.1772 28.1648 43.7457 -22.8188 4.0472 4.4396
# 2 28.1648 42.8894 24.3247 -11.0606 0.0632 13.0306
# 3 43.7457 24.3247 100.9410 -4.8838 13.5286 3.5278
# 4 -22.8188 -11.0606 -4.8838 33.2014 3.4976 2.2933
# 5 4.0472 0.0632 13.5286 3.4976 29.7216 -6.6341
# 6 4.4396 13.0306 3.5278 2.2933 -6.6341 29.0631
#
#
#
# Elastic Compliance Matrix: (Units=1/GPa)
#
#
# Indices 1 2 3 4 5 6 
#
# 1 0.007127 -0.002354 -0.002275 0.003834 -0.000416 -0.000155
# 2 -0.002354 0.036257 -0.006381 0.010842 -0.001786 -0.016385
# 3 -0.002275 -0.006381 0.013073 -0.001234 -0.005372 0.000492
# 4 0.003834 0.010842 -0.001234 0.037552 -0.006582 -0.009763
# 5 -0.000416 -0.001786 -0.005372 -0.006582 0.039387 0.011026
# 6 -0.000155 -0.016385 0.000492 -0.009763 0.011026 0.045005
#
#
# Mechanical properties :
#
#
# Convention : Reuss Voigt Hill
#
# Bulk Modulus (GPa) = 29.03680 56.94198 42.98939
# Shear Modulus (GPa) = 23.59594 33.31538 28.45566
#
# Velocity S-wave (km/s) = 3.18044 3.77912 3.49263
# Velocity P-wave (km/s) = 5.09260 6.59185 5.89012
#
# Compressibility (1/GPa) = 0.03443905
#
# Stress axis : x y z
#
# Youngs Moduli (GPa) = 140.30461 27.58092 76.49126
#
# Poissons Ratio (x) = 0.06492 0.17402
# Poissons Ratio (y) = 0.33024 0.48806
# Poissons Ratio (z) = 0.31919 0.17598
#
# Static dielectric constant tensor:
#      x y z
#    x 4.503500 0.133580 0.138900 
#    y 0.133580 3.929970 -0.018830 
#    z 0.138900 -0.018830 4.390410 
# 
# 
# High freq. dielectric constant tensor:
#      x y z
#    x 1.941820 0.002690 0.018580 
#    y 0.002690 1.891380 0.001100 
#    z 0.018580 0.001100 1.925080 
# 
# From -- ./inp_files/337467.got.cif
#   From: 2010.06.25/outbox.cif.g09.slc.cpg/sg2_169_cif.got.tgz:337467.got - 2010.06.27 13:26:56.
