data_PCOD8010444
_publ_section_title
;
Structure prediction by ZEFSAII (Michael W. Deem and Ramdas Pophale) SiO2 
 PCOD8010444
Probable space group: P -1
;
_chemical_formula_sum "Si O2"
_cell_formula_units_Z 16
_cell_length_a 7.247261
_cell_length_b 31.311018
_cell_length_c 4.887796
_cell_angle_alpha 86.536456
_cell_angle_beta 70.816601
_cell_angle_gamma 45.203280
_cell_volume 718.714886
_symmetry_space_group_name_H-M "P -1"
_symmetry_group_IT_number 2
_symmetry_cell_setting 'triclinic'
loop_
_space_group_symop_operation_xyz
x,y,z
-x,-y,-z
loop_
_atom_site_type_symbol
_atom_site_label
_atom_site_fract_x
_atom_site_fract_y
_atom_site_fract_z
Si Si1 0.367915 0.428571 0.574571
Si Si2 0.328991 0.954804 0.326659
Si Si3 0.077011 0.823289 0.585177
Si Si4 0.899866 0.569471 0.804905
Si Si5 0.556358 0.959559 0.732886
Si Si6 0.836408 0.817457 0.220867
Si Si7 0.983048 0.654674 0.610951
Si Si8 0.724059 0.738115 0.202866
O O1 0.304901 0.424045 0.300133
O O2 0.699922 0.382751 0.455120
O O3 0.209923 0.498236 0.694364
O O4 0.253366 0.409086 0.835195
O O5 0.404300 0.985701 0.481811
O O6 0.516730 0.886988 0.392255
O O7 0.401290 0.944162 0.971138
O O8 0.000000 0.000000 0.500000
O O9 0.887715 0.894722 0.562293
O O10 0.007730 0.794489 0.430068
O O11 0.398881 0.787023 0.428841
O O12 0.011087 0.818805 0.924372
O O13 0.935987 0.612086 0.682644
O O14 0.500000 0.000000 0.000000
O O15 0.830324 0.769654 0.154586
O O16 0.917819 0.677363 0.322721
O O17 0.764274 0.715543 0.883678
#
# Coordination Sequence:
#
# PCOD8010444 Si02
#       8
#     2   2   2   2   2   2   2   2
#     4  10  22  41  65  93 127 164 200 251 310 355
#     4  10  21  38  60  90 116 152 196 252 318 371
#     4  10  23  43  61  85 124 159 203 254 306 370
#     4  10  22  41  65  93 127 164 200 251 310 355
#     4  10  21  38  60  90 116 152 196 252 318 371
#     4  10  23  43  61  85 124 159 203 254 306 370
#     4  12  25  40  62  96 122 160 216 250 296 362
#     4  12  26  40  63  90 120 172 206 248 312 356
#
# _framework density 22.261956000000001
#
# number of rings (size 3 to 8) (size 9 to 14) (size 15 to 20)
#    0.000    1.500    0.000    4.125    1.750    6.000 
#    2.250    5.000    0.000    0.000    0.000    0.000 
#    0.000    0.000    0.000    0.000    0.000    0.000 
#
# Total GULP energy -198393.935406 kJ/mol
# GULP energy per Si atom -12399.620963 kJ/mol
# Density = 2.221129 g / cm^3
# Si number density = 22.261956 Si / 1000 Ang^3
#
#
#
# Elastic Constant Matrix: (Units=GPa)
#
#
# Indices 1 2 3 4 5 6 
#
# 1 79.0639 37.5347 17.6721 11.8709 -3.4977 -2.4583
# 2 37.5347 87.5266 30.0474 -2.0274 -9.6970 -3.9796
# 3 17.6721 30.0474 95.1530 -2.6506 1.3069 -10.3133
# 4 11.8709 -2.0274 -2.6506 37.9705 -8.3745 0.9449
# 5 -3.4977 -9.6970 1.3069 -8.3745 34.6815 10.8065
# 6 -2.4583 -3.9796 -10.3133 0.9449 10.8065 49.8032
#
#
#
# Elastic Compliance Matrix: (Units=1/GPa)
#
#
# Indices 1 2 3 4 5 6 
#
# 1 0.017260 -0.007419 -0.000944 -0.006319 -0.002018 0.000621
# 2 -0.007419 0.016603 -0.003943 0.004147 0.005388 -0.001104
# 3 -0.000944 -0.003943 0.012265 0.000340 -0.002418 0.002696
# 4 -0.006319 0.004147 0.000340 0.030515 0.008612 -0.002358
# 5 -0.002018 0.005388 -0.002418 0.008612 0.034762 -0.007876
# 6 0.000621 -0.001104 0.002696 -0.002358 -0.007876 0.022334
#
#
# Mechanical properties :
#
#
# Convention : Reuss Voigt Hill
#
# Bulk Modulus (GPa) = 46.47793 48.02798 47.25296
# Shear Modulus (GPa) = 30.20743 36.25699 33.23221
#
# Velocity S-wave (km/s) = 3.68762 4.04004 3.86784
# Velocity P-wave (km/s) = 6.24936 6.58660 6.42020
#
# Compressibility (1/GPa) = 0.02151559
#
# Stress axis : x y z
#
# Youngs Moduli (GPa) = 57.93766 60.22920 81.53460
#
# Poissons Ratio (x) = 0.44686 0.07694
# Poissons Ratio (y) = 0.42986 0.32150
# Poissons Ratio (z) = 0.05467 0.23749
#
# Static dielectric constant tensor:
#      x y z
#    x 3.938690 0.081670 0.095260 
#    y 0.081670 3.434090 0.639750 
#    z 0.095260 0.639750 3.428830 
# 
# 
# High freq. dielectric constant tensor:
#      x y z
#    x 1.875670 0.001530 0.007130 
#    y 0.001530 1.881820 -0.008610 
#    z 0.007130 -0.008610 1.899750 
# 
# From -- ./inp_files/14990.got.cif
#   From: 2010.06.25/outbox.cif.g09.slc.cpg/sg2_8_cif.got.tgz:14990.got - 2010.06.27 13:26:56.
