data_PCOD8010340
_publ_section_title
;
Structure prediction by ZEFSAII (Michael W. Deem and Ramdas Pophale) SiO2 
 PCOD8010340
Probable space group: P -1
;
_chemical_formula_sum "Si O2"
_cell_formula_units_Z 12
_cell_length_a 14.665032
_cell_length_b 16.747324
_cell_length_c 8.708707
_cell_angle_alpha 139.089993
_cell_angle_beta 124.658378
_cell_angle_gamma 25.036750
_cell_volume 538.300814
_symmetry_space_group_name_H-M "P -1"
_symmetry_group_IT_number 2
_symmetry_cell_setting 'triclinic'
loop_
_space_group_symop_operation_xyz
x,y,z
-x,-y,-z
loop_
_atom_site_type_symbol
_atom_site_label
_atom_site_fract_x
_atom_site_fract_y
_atom_site_fract_z
Si Si1 0.117242 0.080012 0.006155
Si Si2 0.268831 0.743246 0.434520
Si Si3 0.523084 0.707064 0.072203
Si Si4 0.871678 0.542448 0.277124
Si Si5 0.697526 0.733840 0.714298
Si Si6 0.392856 0.438971 0.714845
O O1 0.042059 0.265948 0.097267
O O2 0.286718 0.817239 0.702451
O O3 0.266507 0.983510 0.154923
O O4 0.874109 0.247807 0.067910
O O5 0.352988 0.525264 0.237554
O O6 0.437815 0.625198 0.287957
O O7 0.000000 0.000000 0.500000
O O8 0.496421 0.706137 0.226367
O O9 0.691002 0.664238 0.153461
O O10 0.043057 0.479782 0.277895
O O11 0.719829 0.743593 0.567648
O O12 0.635622 0.651718 0.555151
O O13 0.500000 0.000000 0.000000
#
# Coordination Sequence:
#
# PCOD8010340 Si02
#       6
#     2   2   2   2   2   2
#     4  10  21  39  57  86 118 147 187 231 278 339
#     4  12  21  38  61  83 117 150 188 233 280 334
#     4  10  21  38  59  86 115 152 184 230 284 329
#     4   9  19  36  56  83 113 145 187 229 277 331
#     4   9  17  34  60  79 107 151 185 227 281 329
#     4  10  23  39  57  84 115 151 188 233 282 331
#
# _framework density 22.292369999999998
#
# number of rings (size 3 to 8) (size 9 to 14) (size 15 to 20)
#    0.000    2.333    3.333    2.000    0.000    0.667 
#    3.000   13.333    0.000   18.000    0.000    0.000 
#    0.000    0.000    0.000    0.000    0.000    0.000 
#
# Total GULP energy -148687.310360 kJ/mol
# GULP energy per Si atom -12390.609197 kJ/mol
# Density = 2.224163 g / cm^3
# Si number density = 22.292370 Si / 1000 Ang^3
#
#
#
# Elastic Constant Matrix: (Units=GPa)
#
#
# Indices 1 2 3 4 5 6 
#
# 1 41.6183 29.1573 9.0870 -3.0545 0.7308 -26.4824
# 2 29.1573 135.4131 -0.6520 -19.8515 -12.4401 -17.1552
# 3 9.0870 -0.6520 117.5920 3.7546 -0.1673 1.2694
# 4 -3.0545 -19.8515 3.7546 32.3578 -9.6120 2.6069
# 5 0.7308 -12.4401 -0.1673 -9.6120 22.2978 2.9267
# 6 -26.4824 -17.1552 1.2694 2.6069 2.9267 24.3282
#
#
#
# Elastic Compliance Matrix: (Units=1/GPa)
#
#
# Indices 1 2 3 4 5 6 
#
# 1 0.107488 -0.014405 -0.009120 -0.016764 -0.033709 0.113175
# 2 -0.014405 0.011966 0.000969 0.010538 0.013008 -0.009987
# 3 -0.009120 0.000969 0.009321 0.000138 0.002284 -0.010020
# 4 -0.016764 0.010538 0.000138 0.045846 0.028711 -0.019191
# 5 -0.033709 0.013008 0.002284 0.028711 0.070752 -0.039228
# 6 0.113175 -0.009987 -0.010020 -0.019191 -0.039228 0.164557
#
#
# Mechanical properties :
#
#
# Convention : Reuss Voigt Hill
#
# Bulk Modulus (GPa) = 11.95269 41.08979 26.52124
# Shear Modulus (GPa) = 10.35349 32.93216 21.64282
#
# Velocity S-wave (km/s) = 2.15743 3.84771 3.11925
# Velocity P-wave (km/s) = 3.40285 6.18159 4.98957
#
# Compressibility (1/GPa) = 0.08366319
#
# Stress axis : x y z
#
# Youngs Moduli (GPa) = 9.30337 83.57224 107.28285
#
# Poissons Ratio (x) = 1.20383 0.97847
# Poissons Ratio (y) = 0.13401 -0.10399
# Poissons Ratio (z) = 0.08485 -0.08101
#
# Static dielectric constant tensor:
#      x y z
#    x 3.815410 -0.564020 0.280890 
#    y -0.564020 4.047380 -0.174200 
#    z 0.280890 -0.174200 4.352490 
# 
# 
# High freq. dielectric constant tensor:
#      x y z
#    x 1.842620 -0.043400 0.023080 
#    y -0.043400 1.874430 -0.007210 
#    z 0.023080 -0.007210 1.889540 
# 
# From -- ./inp_files/313487.got.cif
#   From: 2010.06.25/outbox.cif.g09.slc.cpg/sg2_157_cif.got.tgz:313487.got - 2010.06.27 13:26:56.
