data_PCOD8010137
_publ_section_title
;
Structure prediction by ZEFSAII (Michael W. Deem and Ramdas Pophale) SiO2 
 PCOD8010137
Probable space group: P -1
;
_chemical_formula_sum "Si O2"
_cell_formula_units_Z 16
_cell_length_a 27.345181
_cell_length_b 9.787048
_cell_length_c 9.095694
_cell_angle_alpha 114.214482
_cell_angle_beta 43.878833
_cell_angle_gamma 148.553689
_cell_volume 725.486956
_symmetry_space_group_name_H-M "P -1"
_symmetry_group_IT_number 2
_symmetry_cell_setting 'triclinic'
loop_
_space_group_symop_operation_xyz
x,y,z
-x,-y,-z
loop_
_atom_site_type_symbol
_atom_site_label
_atom_site_fract_x
_atom_site_fract_y
_atom_site_fract_z
Si Si1 0.806835 0.911660 0.554205
Si Si2 0.007466 0.860868 0.336063
Si Si3 0.220027 0.870605 0.805843
Si Si4 0.114225 0.679134 0.631749
Si Si5 0.953862 0.876266 0.885817
Si Si6 0.682829 0.676003 0.040091
Si Si7 0.347566 0.585570 0.568583
Si Si8 0.546929 0.920075 0.546058
O O1 0.705456 0.726704 0.837887
O O2 0.727166 0.674679 0.490683
O O3 0.824428 0.115899 0.551510
O O4 0.967994 0.134172 0.341154
O O5 0.895080 0.516337 0.474125
O O6 0.000000 0.000000 0.500000
O O7 0.975514 0.850207 0.234146
O O8 0.175378 0.121738 0.093783
O O9 0.220384 0.900201 0.641634
O O10 0.285289 0.831234 0.692640
O O11 0.050090 0.562031 0.090985
O O12 0.334365 0.194418 0.788317
O O13 0.772445 0.542646 0.128432
O O14 0.000000 0.000000 0.000000
O O15 0.542230 0.306215 0.216793
O O16 0.459248 0.709118 0.492931
O O17 0.438949 0.873286 0.395100
#
# Coordination Sequence:
#
# PCOD8010137 Si02
#       8
#     2   2   2   2   2   2   2   2
#     4  11  23  41  63  95 131 160 201 268 314 359
#     4  11  22  41  62  97 128 158 202 260 315 370
#     4  10  23  40  67  88 121 166 213 252 304 374
#     4  10  24  41  66  95 123 160 209 256 316 371
#     4  10  21  37  66  93 126 159 205 259 312 360
#     4  11  23  40  62  89 132 162 209 256 309 367
#     4  10  23  39  65  92 126 160 219 254 301 376
#     4  11  22  41  62  90 120 176 212 250 303 372
#
# _framework density 22.054152999999999
#
# number of rings (size 3 to 8) (size 9 to 14) (size 15 to 20)
#    0.000    1.500    2.500    1.875   12.250    2.500 
#    2.250    2.500    0.000    0.000    0.000    0.000 
#    0.000    0.000    0.000    0.000    0.000    0.000 
#
# Total GULP energy -198254.443865 kJ/mol
# GULP energy per Si atom -12390.902742 kJ/mol
# Density = 2.200396 g / cm^3
# Si number density = 22.054153 Si / 1000 Ang^3
#
#
#
# Elastic Constant Matrix: (Units=GPa)
#
#
# Indices 1 2 3 4 5 6 
#
# 1 156.9769 46.8961 49.0176 -4.4330 18.1917 -14.2176
# 2 46.8961 103.1010 41.7885 -2.0818 12.8792 -17.3354
# 3 49.0176 41.7885 66.2681 -2.9194 19.6237 -6.3879
# 4 -4.4330 -2.0818 -2.9194 25.3015 -2.2912 2.7585
# 5 18.1917 12.8792 19.6237 -2.2912 36.5615 -13.3966
# 6 -14.2176 -17.3354 -6.3879 2.7585 -13.3966 35.9300
#
#
#
# Elastic Compliance Matrix: (Units=1/GPa)
#
#
# Indices 1 2 3 4 5 6 
#
# 1 0.008632 -0.001520 -0.005133 0.000588 -0.000389 0.001580
# 2 -0.001520 0.014317 -0.007984 -0.000443 0.002054 0.005687
# 3 -0.005133 -0.007984 0.026663 0.001115 -0.010800 -0.005255
# 4 0.000588 -0.000443 0.001115 0.040072 0.000844 -0.002545
# 5 -0.000389 0.002054 -0.010800 0.000844 0.037353 0.012779
# 6 0.001580 0.005687 -0.005255 -0.002545 0.012779 0.035227
#
#
# Mechanical properties :
#
#
# Convention : Reuss Voigt Hill
#
# Bulk Modulus (GPa) = 49.16933 66.86117 58.01525
# Shear Modulus (GPa) = 25.21219 32.13485 28.67352
#
# Velocity S-wave (km/s) = 3.38478 3.82132 3.60966
# Velocity P-wave (km/s) = 6.13342 7.06064 6.61330
#
# Compressibility (1/GPa) = 0.02033788
#
# Stress axis : x y z
#
# Youngs Moduli (GPa) = 115.84743 69.84686 37.50582
#
# Poissons Ratio (x) = 0.10614 0.19253
# Poissons Ratio (y) = 0.17604 0.29944
# Poissons Ratio (z) = 0.59470 0.55764
#
# Static dielectric constant tensor:
#      x y z
#    x 4.433650 0.148230 -0.497510 
#    y 0.148230 3.664030 -0.129180 
#    z -0.497510 -0.129180 4.825820 
# 
# 
# High freq. dielectric constant tensor:
#      x y z
#    x 1.893350 -0.006120 0.003710 
#    y -0.006120 1.853950 -0.007210 
#    z 0.003710 -0.007210 1.839580 
# 
# From -- ./inp_files/352241.got.cif
#   From: 2010.06.25/outbox.cif.g09.slc.cpg/sg2_177_cif.got.tgz:352241.got - 2010.06.27 13:26:56.
