data_PCOD8010116
_publ_section_title
;
Structure prediction by ZEFSAII (Michael W. Deem and Ramdas Pophale) SiO2 
 PCOD8010116
Probable space group: P -1
;
_chemical_formula_sum "Si O2"
_cell_formula_units_Z 10
_cell_length_a 12.021473
_cell_length_b 9.223633
_cell_length_c 9.623968
_cell_angle_alpha 79.748102
_cell_angle_beta 125.988197
_cell_angle_gamma 144.004534
_cell_volume 395.947006
_symmetry_space_group_name_H-M "P -1"
_symmetry_group_IT_number 2
_symmetry_cell_setting 'triclinic'
loop_
_space_group_symop_operation_xyz
x,y,z
-x,-y,-z
loop_
_atom_site_type_symbol
_atom_site_label
_atom_site_fract_x
_atom_site_fract_y
_atom_site_fract_z
Si Si1 0.232001 0.897778 0.358560
Si Si2 0.175602 0.715708 0.728039
Si Si3 0.661399 0.146862 0.815728
Si Si4 0.147518 0.194088 0.936212
Si Si5 0.788464 0.907121 0.274610
O O1 0.388893 0.040016 0.295766
O O2 0.980114 0.529570 0.225469
O O3 0.078297 0.904318 0.281097
O O4 0.475139 0.106886 0.621837
O O5 0.000000 0.500000 0.500000
O O6 0.522847 0.992449 0.898220
O O7 0.126074 0.842051 0.688847
O O8 0.000000 0.500000 0.000000
O O9 0.188449 0.102055 0.872039
O O10 0.454648 0.562857 0.137637
O O11 0.000000 0.000000 0.000000
O O12 0.000000 0.000000 0.500000
#
# Coordination Sequence:
#
# PCOD8010116 Si02
#       5
#     2   2   2   2   2
#     4  10  23  42  64  96 135 175 226 283 342 412
#     4  10  22  42  69  99 135 176 227 290 349 408
#     4  10  21  37  65  98 128 167 222 284 342 398
#     4  11  27  47  69 102 145 189 234 287 354 423
#     4  11  25  46  73 103 139 187 238 290 352 421
#
# _framework density 25.255904000000001
#
# number of rings (size 3 to 8) (size 9 to 14) (size 15 to 20)
#    0.000    1.600    0.000    3.600    0.000   15.200 
#    0.000    0.000    0.000    0.000    0.000    0.000 
#    0.000    0.000    0.000    0.000    0.000    0.000 
#
# Total GULP energy -123964.899435 kJ/mol
# GULP energy per Si atom -12396.489943 kJ/mol
# Density = 2.519842 g / cm^3
# Si number density = 25.255904 Si / 1000 Ang^3
#
#
#
# Elastic Constant Matrix: (Units=GPa)
#
#
# Indices 1 2 3 4 5 6 
#
# 1 157.1603 77.1634 35.5232 7.4114 3.2034 2.7220
# 2 77.1634 130.6825 41.4831 8.0142 -1.8381 11.1612
# 3 35.5232 41.4831 117.0555 14.2578 35.3144 1.2416
# 4 7.4114 8.0142 14.2578 29.1543 -0.5472 -3.6853
# 5 3.2034 -1.8381 35.3144 -0.5472 53.8179 -1.8382
# 6 2.7220 11.1612 1.2416 -3.6853 -1.8382 63.7238
#
#
#
# Elastic Compliance Matrix: (Units=1/GPa)
#
#
# Indices 1 2 3 4 5 6 
#
# 1 0.009078 -0.005107 -0.000856 -0.000425 -0.000140 0.000495
# 2 -0.005107 0.012006 -0.003526 -0.000444 0.002963 -0.001756
# 3 -0.000856 -0.003526 0.013433 -0.005574 -0.008947 -0.000188
# 4 -0.000425 -0.000444 -0.005574 0.037650 0.004136 0.002501
# 5 -0.000140 0.002963 -0.008947 0.004136 0.024624 0.000611
# 6 0.000495 -0.001756 -0.000188 0.002501 0.000611 0.016145
#
#
# Mechanical properties :
#
#
# Convention : Reuss Voigt Hill
#
# Bulk Modulus (GPa) = 64.35901 79.24863 71.80382
# Shear Modulus (GPa) = 36.47143 46.05444 41.26293
#
# Velocity S-wave (km/s) = 3.80422 4.27489 4.04641
# Velocity P-wave (km/s) = 6.69584 7.47079 7.09390
#
# Compressibility (1/GPa) = 0.01553784
#
# Stress axis : x y z
#
# Youngs Moduli (GPa) = 110.15509 83.29411 74.44599
#
# Poissons Ratio (x) = 0.42535 0.06375
# Poissons Ratio (y) = 0.56252 0.26252
# Poissons Ratio (z) = 0.09433 0.29372
#
# Static dielectric constant tensor:
#      x y z
#    x 5.900140 1.403320 0.137930 
#    y 1.403320 5.739540 0.093150 
#    z 0.137930 0.093150 5.137460 
# 
# 
# High freq. dielectric constant tensor:
#      x y z
#    x 2.034340 0.032610 -0.003990 
#    y 0.032610 1.986370 -0.005050 
#    z -0.003990 -0.005050 2.041880 
# 
# From -- ./inp_files/415005.got.cif
#   From: 2010.06.25/outbox.cif.g09.slc.cpg/sg2_208_cif.got.tgz:415005.got - 2010.06.27 13:26:56.
