data_PCOD8010500
_publ_section_title
;
Structure prediction by ZEFSAII (Michael W. Deem and Ramdas Pophale) SiO2 
 PCOD8010500
Probable space group: P -1
;
_chemical_formula_sum "Si O2"
_cell_formula_units_Z 16
_cell_length_a 19.499413
_cell_length_b 11.180707
_cell_length_c 5.316218
_cell_angle_alpha 81.751693
_cell_angle_beta 73.240368
_cell_angle_gamma 132.699755
_cell_volume 714.719644
_symmetry_space_group_name_H-M "P -1"
_symmetry_group_IT_number 2
_symmetry_cell_setting 'triclinic'
loop_
_space_group_symop_operation_xyz
x,y,z
-x,-y,-z
loop_
_atom_site_type_symbol
_atom_site_label
_atom_site_fract_x
_atom_site_fract_y
_atom_site_fract_z
Si Si1 0.167172 0.021207 0.366971
Si Si2 0.109784 0.471442 0.830641
Si Si3 0.611699 0.570353 0.901285
Si Si4 0.945317 0.353052 0.391799
Si Si5 0.456743 0.579626 0.482438
Si Si6 0.353605 0.826133 0.463106
Si Si7 0.575198 0.962720 0.176582
Si Si8 0.954292 0.072361 0.966168
O O1 0.155172 0.863215 0.355580
O O2 0.123217 0.990465 0.702336
O O3 0.294748 0.216106 0.185099
O O4 0.109633 0.022358 0.202456
O O5 0.103644 0.608415 0.750288
O O6 0.238807 0.604662 0.667239
O O7 0.038868 0.377118 0.190545
O O8 0.050427 0.298340 0.760738
O O9 0.630350 0.524928 0.628663
O O10 0.500000 0.500000 0.000000
O O11 0.600840 0.459607 0.177264
O O12 0.000000 0.500000 0.500000
O O13 0.500000 0.500000 0.500000
O O14 0.560229 0.799244 0.249737
O O15 0.451385 0.855703 0.340493
O O16 0.359469 0.914071 0.681291
O O17 0.357751 0.913191 0.180497
O O18 0.000000 0.000000 0.000000
#
# Coordination Sequence:
#
# PCOD8010500 Si02
#       8
#     2   2   2   2   2   2   2   2
#     4  11  23  41  66  90 130 165 206 267 319 367
#     4  10  23  39  63  95 124 165 211 266 321 380
#     4  10  22  39  58  93 125 165 206 246 307 381
#     4  10  21  41  63  92 126 158 212 270 321 377
#     4  10  21  38  61  86 130 163 209 253 302 368
#     4  10  23  40  64  90 124 166 213 258 314 372
#     4  10  22  42  61  92 127 167 210 258 310 378
#     4  11  24  43  64  92 127 165 214 254 316 383
#
# _framework density 22.386399999999998
#
# number of rings (size 3 to 8) (size 9 to 14) (size 15 to 20)
#    0.000    1.750    1.250    1.875    1.750    6.000 
#    0.000    0.000    0.000    0.000    0.000    0.000 
#    0.000    0.000    0.000    0.000    0.000    0.000 
#
# Total GULP energy -198218.025989 kJ/mol
# GULP energy per Si atom -12388.626624 kJ/mol
# Density = 2.233545 g / cm^3
# Si number density = 22.386400 Si / 1000 Ang^3
#
#
#
# Elastic Constant Matrix: (Units=GPa)
#
#
# Indices 1 2 3 4 5 6 
#
# 1 53.2241 32.1967 21.1864 -10.8921 8.4356 1.5933
# 2 32.1967 156.5901 60.6381 -10.7791 8.4442 24.5651
# 3 21.1864 60.6381 114.5866 8.8956 25.9752 20.4546
# 4 -10.8921 -10.7791 8.8956 50.8536 9.5336 5.3394
# 5 8.4356 8.4442 25.9752 9.5336 31.2056 -4.9679
# 6 1.5933 24.5651 20.4546 5.3394 -4.9679 38.3229
#
#
#
# Elastic Compliance Matrix: (Units=1/GPa)
#
#
# Indices 1 2 3 4 5 6 
#
# 1 0.023679 -0.003622 -0.001789 0.005564 -0.005504 0.000803
# 2 -0.003622 0.009390 -0.003795 0.002265 0.000248 -0.004126
# 3 -0.001789 -0.003795 0.015066 -0.000867 -0.011872 -0.006952
# 4 0.005564 0.002265 -0.000867 0.023900 -0.009620 -0.005797
# 5 -0.005504 0.000248 -0.011872 -0.009620 0.048522 0.014037
# 6 0.000803 -0.004126 -0.006952 -0.005797 0.014037 0.035044
#
#
# Mechanical properties :
#
#
# Convention : Reuss Voigt Hill
#
# Bulk Modulus (GPa) = 33.64484 61.38258 47.51371
# Shear Modulus (GPa) = 27.18575 38.10172 32.64373
#
# Velocity S-wave (km/s) = 3.48859 4.13001 3.82277
# Velocity P-wave (km/s) = 5.59363 7.08673 6.38398
#
# Compressibility (1/GPa) = 0.02972224
#
# Stress axis : x y z
#
# Youngs Moduli (GPa) = 42.23219 106.49263 66.37606
#
# Poissons Ratio (x) = 0.38572 0.11875
# Poissons Ratio (y) = 0.15297 0.25190
# Poissons Ratio (z) = 0.07556 0.40415
#
# Static dielectric constant tensor:
#      x y z
#    x 3.446980 -0.312240 -0.287760 
#    y -0.312240 5.119450 -0.068190 
#    z -0.287760 -0.068190 3.124980 
# 
# 
# High freq. dielectric constant tensor:
#      x y z
#    x 1.848910 0.001310 0.016050 
#    y 0.001310 1.898160 0.001930 
#    z 0.016050 0.001930 1.893870 
# 
# From -- ./inp_files/118655.got.cif
#   From: 2010.06.25/outbox.cif.g09.slc.cpg/sg2_60_cif.got.tgz:118655.got - 2010.06.27 13:26:56.
