data_PCOD8010732
_publ_section_title
;
Structure prediction by ZEFSAII (Michael W. Deem and Ramdas Pophale) SiO2 
 PCOD8010732
Probable space group: P -1
;
_chemical_formula_sum "Si O2"
_cell_formula_units_Z 16
_cell_length_a 9.427749
_cell_length_b 13.614627
_cell_length_c 14.296935
_cell_angle_alpha 42.365187
_cell_angle_beta 135.207350
_cell_angle_gamma 102.218864
_cell_volume 655.556655
_symmetry_space_group_name_H-M "P -1"
_symmetry_group_IT_number 2
_symmetry_cell_setting 'triclinic'
loop_
_space_group_symop_operation_xyz
x,y,z
-x,-y,-z
loop_
_atom_site_type_symbol
_atom_site_label
_atom_site_fract_x
_atom_site_fract_y
_atom_site_fract_z
Si Si1 0.075574 0.582864 0.075068
Si Si2 0.037547 0.767202 0.109805
Si Si3 0.339011 0.796121 0.374112
Si Si4 0.236678 0.000842 0.717079
Si Si5 0.152158 0.710812 0.519976
Si Si6 0.550004 0.704731 0.821256
Si Si7 0.238532 0.355313 0.839799
Si Si8 0.097344 0.124040 0.364563
O O1 0.345129 0.358104 0.350381
O O2 0.118761 0.690143 0.096003
O O3 0.827620 0.598771 0.972954
O O4 0.015226 0.679453 0.877607
O O5 0.000037 0.635465 0.243348
O O6 0.273594 0.751809 0.275111
O O7 0.756707 0.990436 0.821135
O O8 0.164846 0.795067 0.371219
O O9 0.161757 0.132124 0.497398
O O10 0.123517 0.128180 0.667722
O O11 0.132748 0.886807 0.736545
O O12 0.557983 0.836270 0.993485
O O13 0.403485 0.635278 0.756441
O O14 0.140620 0.544679 0.604387
O O15 0.356587 0.939095 0.559689
O O16 0.603912 0.651166 0.993102
#
# Coordination Sequence:
#
# PCOD8010732 Si02
#       8
#     2   2   2   2   2   2   2   2
#     4  11  21  39  65  89 119 161 203 246 299 358
#     4  10  24  46  62  86 121 154 204 264 302 343
#     4  11  25  42  65  88 116 161 208 251 302 352
#     4   9  19  35  55  85 126 160 189 237 298 356
#     4  11  22  38  60  92 124 157 199 243 291 360
#     4   9  20  35  58  92 128 158 190 242 300 360
#     4  10  21  38  63  88 119 160 200 242 299 358
#     4   9  17  33  58  89 125 162 194 235 296 359
#
# _framework density 24.406739000000002
#
# number of rings (size 3 to 8) (size 9 to 14) (size 15 to 20)
#    0.000    2.000    0.000    4.125    0.000    6.000 
#    0.000    5.625    0.000    0.000    0.000    0.000 
#    0.000    0.000    0.000    0.000    0.000    0.000 
#
# Total GULP energy -198416.691454 kJ/mol
# GULP energy per Si atom -12401.043216 kJ/mol
# Density = 2.435119 g / cm^3
# Si number density = 24.406739 Si / 1000 Ang^3
#
#
#
# Elastic Constant Matrix: (Units=GPa)
#
#
# Indices 1 2 3 4 5 6 
#
# 1 107.2754 7.5486 32.0701 -15.8748 3.1463 -10.3241
# 2 7.5486 63.2028 -2.0013 -7.1550 2.9975 -10.6920
# 3 32.0701 -2.0013 78.3721 -21.1309 12.6158 -0.0566
# 4 -15.8748 -7.1550 -21.1309 20.0228 1.6682 -3.9678
# 5 3.1463 2.9975 12.6158 1.6682 26.4173 -6.5544
# 6 -10.3241 -10.6920 -0.0566 -3.9678 -6.5544 32.4932
#
#
#
# Elastic Compliance Matrix: (Units=1/GPa)
#
#
# Indices 1 2 3 4 5 6 
#
# 1 0.011686 0.000062 -0.003023 0.006970 0.000780 0.004736
# 2 0.000062 0.018848 0.004612 0.013357 -0.003412 0.007172
# 3 -0.003023 0.004612 0.022672 0.024419 -0.012258 0.001106
# 4 0.006970 0.013357 0.024419 0.090213 -0.016127 0.014415
# 5 0.000780 -0.003412 -0.012258 -0.016127 0.046644 0.006543
# 6 0.004736 0.007172 0.001106 0.014415 0.006543 0.037723
#
#
# Mechanical properties :
#
#
# Convention : Reuss Voigt Hill
#
# Bulk Modulus (GPa) = 17.69681 36.00948 26.85315
# Shear Modulus (GPa) = 20.54906 29.86885 25.20896
#
# Velocity S-wave (km/s) = 2.90477 3.50207 3.21731
# Velocity P-wave (km/s) = 4.30311 5.58020 4.98274
#
# Compressibility (1/GPa) = 0.05650735
#
# Stress axis : x y z
#
# Youngs Moduli (GPa) = 85.57540 53.05608 44.10661
#
# Poissons Ratio (x) = -0.00329 0.13333
# Poissons Ratio (y) = -0.00530 -0.20341
# Poissons Ratio (z) = 0.25869 -0.24468
#
# Static dielectric constant tensor:
#      x y z
#    x 4.326980 -0.219050 0.037460 
#    y -0.219050 4.196940 -0.089900 
#    z 0.037460 -0.089900 4.244620 
# 
# 
# High freq. dielectric constant tensor:
#      x y z
#    x 1.969210 -0.006140 0.002260 
#    y -0.006140 1.961060 -0.010660 
#    z 0.002260 -0.010660 1.955880 
# 
# From -- ./inp_files/505316.got.cif
#   From: 2010.06.25/outbox.cif.g09.slc.cpg/sg2_253_cif.got.tgz:505316.got - 2010.06.27 13:26:56.
