data_PCOD8010026
_publ_section_title
;
Structure prediction by ZEFSAII (Michael W. Deem and Ramdas Pophale) SiO2 
 PCOD8010026
Probable space group: P -1
;
_chemical_formula_sum "Si O2"
_cell_formula_units_Z 16
_cell_length_a 9.881938
_cell_length_b 15.160156
_cell_length_c 8.530819
_cell_angle_alpha 91.061603
_cell_angle_beta 67.733247
_cell_angle_gamma 47.279249
_cell_volume 794.315665
_symmetry_space_group_name_H-M "P -1"
_symmetry_group_IT_number 2
_symmetry_cell_setting 'triclinic'
loop_
_space_group_symop_operation_xyz
x,y,z
-x,-y,-z
loop_
_atom_site_type_symbol
_atom_site_label
_atom_site_fract_x
_atom_site_fract_y
_atom_site_fract_z
Si Si1 0.987581 0.577937 0.724196
Si Si2 0.025445 0.364506 0.612017
Si Si3 0.453502 0.373077 0.648396
Si Si4 0.474282 0.112317 0.548356
Si Si5 0.236908 0.872599 0.711988
Si Si6 0.764585 0.148190 0.925327
Si Si7 0.598771 0.764433 0.111804
Si Si8 0.329246 0.624541 0.186025
O O1 0.922975 0.654708 0.594916
O O2 0.933010 0.498353 0.723044
O O3 0.239159 0.490928 0.644899
O O4 0.833760 0.684346 0.933191
O O5 0.242639 0.252886 0.608183
O O6 0.869526 0.352543 0.708748
O O7 0.649452 0.251140 0.449895
O O8 0.374434 0.337124 0.806921
O O9 0.552656 0.411954 0.699413
O O10 0.654064 0.081556 0.365015
O O11 0.493694 0.118934 0.727519
O O12 0.500000 0.000000 0.500000
O O13 0.262913 0.827700 0.876370
O O14 0.984949 0.997304 0.781577
O O15 0.571062 0.172296 0.952111
O O16 0.759532 0.245351 0.846529
O O17 0.500000 0.500000 0.000000
#
# Coordination Sequence:
#
# PCOD8010026 Si02
#       8
#     2   2   2   2   2   2   2   2
#     4  11  22  40  66  90 124 161 209 246 306 373
#     4  11  23  39  62  92 123 164 197 259 305 358
#     4  10  22  39  65  89 122 165 203 253 300 371
#     4  11  23  39  62  90 127 160 207 251 308 364
#     4  10  21  42  64  90 117 169 208 248 306 364
#     4  10  22  41  65  87 124 159 211 255 301 370
#     4  10  21  37  64  92 116 164 206 251 300 369
#     4  11  25  39  60  93 127 160 203 257 308 357
#
# _framework density 20.143122999999999
#
# number of rings (size 3 to 8) (size 9 to 14) (size 15 to 20)
#    0.000    1.500    2.500    3.375    5.250    6.000 
#    0.000    3.750    0.000    0.000    0.000    0.000 
#    0.000    0.000    0.000    0.000    0.000    0.000 
#
# Total GULP energy -198415.304637 kJ/mol
# GULP energy per Si atom -12400.956540 kJ/mol
# Density = 2.009728 g / cm^3
# Si number density = 20.143123 Si / 1000 Ang^3
#
#
#
# Elastic Constant Matrix: (Units=GPa)
#
#
# Indices 1 2 3 4 5 6 
#
# 1 -191.7970 119.4699 93.9290 19.3426 79.4866 -138.1201
# 2 119.4699 44.8819 16.6103 -4.3027 -18.5845 29.5803
# 3 93.9290 16.6103 107.5883 1.3409 -20.9730 22.2714
# 4 19.3426 -4.3027 1.3409 23.7225 -9.1081 5.4475
# 5 79.4866 -18.5845 -20.9730 -9.1081 8.0040 33.9645
# 6 -138.1201 29.5803 22.2714 5.4475 33.9645 -27.8257
#
#
#
# Elastic Compliance Matrix: (Units=1/GPa)
#
#
# Indices 1 2 3 4 5 6 
#
# 1 0.003062 -0.000320 0.000159 0.001497 0.005683 -0.008180
# 2 -0.000320 0.017136 -0.005225 -0.000524 -0.006017 0.008177
# 3 0.000159 -0.005225 0.009713 -0.001789 0.000829 0.002092
# 4 0.001497 -0.000524 -0.001789 0.041762 0.005183 0.005083
# 5 0.005683 -0.006017 0.000829 0.005183 0.032742 0.007035
# 6 -0.008180 0.008177 0.002092 0.005083 0.007035 0.024615
#
#
# Mechanical properties :
#
#
# Convention : Reuss Voigt Hill
#
# Bulk Modulus (GPa) = 52.25168 46.74350 49.49759
# Shear Modulus (GPa) = 34.20388 -17.17558 8.51415
#
# Velocity S-wave (km/s) = 4.12520 -2.92323 2.05816
# Velocity P-wave (km/s) = 6.97755 3.44418 5.50221
#
# Compressibility (1/GPa) = 0.01913814
#
# Stress axis : x y z
#
# Youngs Moduli (GPa) = 326.62255 58.35666 102.95098
#
# Poissons Ratio (x) = 0.01870 -0.01638
# Poissons Ratio (y) = 0.10466 0.53793
# Poissons Ratio (z) = -0.05197 0.30492
#
# Static dielectric constant tensor:
#      x y z
#    x 3.425430 -0.461430 0.892260 
#    y -0.461430 3.490050 0.339960 
#    z 0.892260 0.339960 1.418470 
# 
# 
# High freq. dielectric constant tensor:
#      x y z
#    x 1.789950 -0.017760 0.001470 
#    y -0.017760 1.776820 -0.001940 
#    z 0.001470 -0.001940 1.799220 
# 
# From -- ./inp_files/189260.got.cif
#   From: 2010.06.25/outbox.cif.g09.slc.cpg/sg2_95_cif.got.tgz:189260.got - 2010.06.27 13:26:56.
