data_PCOD8010284
_publ_section_title
;
Structure prediction by ZEFSAII (Michael W. Deem and Ramdas Pophale) SiO2 
 PCOD8010284
Probable space group: P -1
;
_chemical_formula_sum "Si O2"
_cell_formula_units_Z 16
_cell_length_a 7.869539
_cell_length_b 21.620980
_cell_length_c 27.061758
_cell_angle_alpha 11.091152
_cell_angle_beta 127.693561
_cell_angle_gamma 128.126298
_cell_volume 696.316712
_symmetry_space_group_name_H-M "P -1"
_symmetry_group_IT_number 2
_symmetry_cell_setting 'triclinic'
loop_
_space_group_symop_operation_xyz
x,y,z
-x,-y,-z
loop_
_atom_site_type_symbol
_atom_site_label
_atom_site_fract_x
_atom_site_fract_y
_atom_site_fract_z
Si Si1 0.985808 0.741268 0.608101
Si Si2 0.088154 0.830747 0.021309
Si Si3 0.231649 0.855141 0.337320
Si Si4 0.277490 0.152895 0.269992
Si Si5 0.411064 0.889448 0.729786
Si Si6 0.789823 0.878932 0.086323
Si Si7 0.411771 0.129535 0.770595
Si Si8 0.045077 0.866597 0.853570
O O1 0.817283 0.965135 0.425839
O O2 0.892855 0.537066 0.703419
O O3 0.028749 0.483943 0.859719
O O4 0.214821 0.939170 0.475914
O O5 0.199256 0.870023 0.063277
O O6 0.218379 0.089372 0.806186
O O7 0.843503 0.934154 0.888382
O O8 0.221448 0.482324 0.611315
O O9 0.470521 0.988882 0.293808
O O10 0.080131 0.870560 0.346381
O O11 0.447454 0.012760 0.371881
O O12 0.040426 0.163263 0.194062
O O13 0.374460 0.504209 0.029375
O O14 0.590286 0.901168 0.996885
O O15 0.000000 0.000000 0.000000
O O16 0.500000 0.500000 0.500000
O O17 0.303750 0.993559 0.805488
#
# Coordination Sequence:
#
# PCOD8010284 Si02
#       8
#     2   2   2   2   2   2   2   2
#     4  10  21  41  64  89 129 164 210 264 313 380
#     4  10  23  40  59  89 121 166 205 254 319 370
#     4   9  19  39  59  83 129 153 203 269 294 372
#     4  10  22  41  68  90 128 170 204 265 327 364
#     4  10  21  40  66  96 122 164 215 258 316 381
#     4  12  23  36  61  89 121 164 207 250 318 375
#     4  10  21  38  58  84 121 160 205 258 306 371
#     4   9  21  41  59  92 128 162 212 262 310 379
#
# _framework density 22.978048000000001
#
# number of rings (size 3 to 8) (size 9 to 14) (size 15 to 20)
#    0.000    2.250    0.000    4.125    5.250    0.500 
#    2.250   12.500    0.000    0.000    0.000    0.000 
#    0.000    0.000    0.000    0.000    0.000    0.000 
#
# Total GULP energy -198216.736946 kJ/mol
# GULP energy per Si atom -12388.546059 kJ/mol
# Density = 2.292575 g / cm^3
# Si number density = 22.978048 Si / 1000 Ang^3
#
#
#
# Elastic Constant Matrix: (Units=GPa)
#
#
# Indices 1 2 3 4 5 6 
#
# 1 71.7194 -0.8557 34.3936 -9.1468 -1.3857 10.2183
# 2 -0.8557 51.5731 -0.3954 -6.8147 -1.3628 4.5224
# 3 34.3936 -0.3954 100.6758 -14.8769 -3.8604 2.7139
# 4 -9.1468 -6.8147 -14.8769 28.9405 8.0580 6.8227
# 5 -1.3857 -1.3628 -3.8604 8.0580 37.2339 -6.3860
# 6 10.2183 4.5224 2.7139 6.8227 -6.3860 22.9308
#
#
#
# Elastic Compliance Matrix: (Units=1/GPa)
#
#
# Indices 1 2 3 4 5 6 
#
# 1 0.018971 0.002173 -0.005191 0.007455 -0.003323 -0.011411
# 2 0.002173 0.021279 0.000777 0.008788 -0.002428 -0.008548
# 3 -0.005191 0.000777 0.012501 0.005229 -0.000158 -0.000920
# 4 0.007455 0.008788 0.005229 0.051540 -0.014299 -0.024991
# 5 -0.003323 -0.002428 -0.000158 -0.014299 0.032336 0.015238
# 6 -0.011411 -0.008548 -0.000920 -0.024991 0.015238 0.062169
#
#
# Mechanical properties :
#
#
# Convention : Reuss Voigt Hill
#
# Bulk Modulus (GPa) = 20.71733 32.25035 26.48384
# Shear Modulus (GPa) = 22.79295 30.54275 26.66785
#
# Velocity S-wave (km/s) = 3.15293 3.64979 3.41042
# Velocity P-wave (km/s) = 4.72127 5.64155 5.20180
#
# Compressibility (1/GPa) = 0.04826876
#
# Stress axis : x y z
#
# Youngs Moduli (GPa) = 52.71276 46.99574 79.99586
#
# Poissons Ratio (x) = -0.10212 0.41523
# Poissons Ratio (y) = -0.11454 -0.06217
# Poissons Ratio (z) = 0.27361 -0.03652
#
# Static dielectric constant tensor:
#      x y z
#    x 4.094390 0.478720 -0.047770 
#    y 0.478720 2.833130 0.620270 
#    z -0.047770 0.620270 3.611200 
# 
# 
# High freq. dielectric constant tensor:
#      x y z
#    x 1.883220 0.015100 0.000140 
#    y 0.015100 1.912170 -0.010750 
#    z 0.000140 -0.010750 1.904070 
# 
# From -- ./inp_files/622727.got.cif
#   From: 2010.06.25/outbox.cif.g09.slc.cpg/sg2_312_cif.got.tgz:622727.got - 2010.06.27 13:26:56.
