data_PCOD8010590
_publ_section_title
;
Structure prediction by ZEFSAII (Michael W. Deem and Ramdas Pophale) SiO2 
 PCOD8010590
Probable space group: P -1
;
_chemical_formula_sum "Si O2"
_cell_formula_units_Z 16
_cell_length_a 21.295482
_cell_length_b 8.395336
_cell_length_c 8.555403
_cell_angle_alpha 130.306124
_cell_angle_beta 140.494511
_cell_angle_gamma 58.516861
_cell_volume 741.188257
_symmetry_space_group_name_H-M "P -1"
_symmetry_group_IT_number 2
_symmetry_cell_setting 'triclinic'
loop_
_space_group_symop_operation_xyz
x,y,z
-x,-y,-z
loop_
_atom_site_type_symbol
_atom_site_label
_atom_site_fract_x
_atom_site_fract_y
_atom_site_fract_z
Si Si1 0.688317 0.097213 0.289171
Si Si2 0.870665 0.216634 0.570850
Si Si3 0.056046 0.036823 0.971297
Si Si4 0.608705 0.530394 0.289264
Si Si5 0.811602 0.240103 0.137500
Si Si6 0.623480 0.247121 0.589141
Si Si7 0.594902 0.711556 0.713785
Si Si8 0.797073 0.613280 0.537522
O O1 0.807319 0.115313 0.524647
O O2 0.648248 0.293489 0.236267
O O3 0.646284 0.109946 0.391150
O O4 0.665446 0.881569 0.025303
O O5 0.835276 0.124103 0.275919
O O6 0.852634 0.470688 0.689879
O O7 0.984282 0.155722 0.784775
O O8 0.098702 0.815539 0.845408
O O9 0.154079 0.168558 0.256953
O O10 0.000000 0.000000 0.000000
O O11 0.609260 0.675353 0.534718
O O12 0.680027 0.642749 0.373836
O O13 0.500000 0.500000 0.000000
O O14 0.808451 0.490475 0.316231
O O15 0.705091 0.177211 0.829713
O O16 0.623129 0.495072 0.717133
O O17 0.516062 0.195183 0.411150
#
# Coordination Sequence:
#
# PCOD8010590 Si02
#       8
#     2   2   2   2   2   2   2   2
#     4  10  21  39  61  90 123 168 209 258 314 373
#     4   9  22  44  60  90 126 161 210 262 307 374
#     4  12  24  41  66  94 123 165 214 260 319 375
#     4  10  21  38  61  97 129 161 215 257 308 378
#     4  10  23  40  64  88 125 161 207 259 313 377
#     4  10  21  40  57  93 130 163 205 262 317 375
#     4  10  22  36  65  87 127 171 207 256 317 372
#     4   9  23  40  64  90 127 168 203 258 314 369
#
# _framework density 21.586957999999999
#
# number of rings (size 3 to 8) (size 9 to 14) (size 15 to 20)
#    0.750    1.250    0.000    2.625    1.750    4.000 
#    0.000    0.000    0.000    0.000    0.000    0.000 
#    0.000    0.000    0.000    0.000    0.000    0.000 
#
# Total GULP energy -198296.352693 kJ/mol
# GULP energy per Si atom -12393.522043 kJ/mol
# Density = 2.153783 g / cm^3
# Si number density = 21.586958 Si / 1000 Ang^3
#
#
#
# Elastic Constant Matrix: (Units=GPa)
#
#
# Indices 1 2 3 4 5 6 
#
# 1 151.8593 33.5344 42.9269 13.6803 6.6588 -19.9069
# 2 33.5344 34.3389 34.2032 2.0566 1.3343 -5.8910
# 3 42.9269 34.2032 96.7685 10.3848 7.4751 -5.1218
# 4 13.6803 2.0566 10.3848 38.8589 -7.1889 1.1971
# 5 6.6588 1.3343 7.4751 -7.1889 36.9444 3.1775
# 6 -19.9069 -5.8910 -5.1218 1.1971 3.1775 31.1394
#
#
#
# Elastic Compliance Matrix: (Units=1/GPa)
#
#
# Indices 1 2 3 4 5 6 
#
# 1 0.009475 -0.007297 -0.000828 -0.003313 -0.002343 0.004907
# 2 -0.007297 0.051870 -0.015739 0.004586 0.003343 0.002042
# 3 -0.000828 -0.015739 0.016956 -0.004045 -0.003483 -0.000207
# 4 -0.003313 0.004586 -0.004045 0.029198 0.007256 -0.003779
# 5 -0.002343 0.003343 -0.003483 0.007256 0.029896 -0.004768
# 6 0.004907 0.002042 -0.000207 -0.003779 -0.004768 0.036235
#
#
# Mechanical properties :
#
#
# Convention : Reuss Voigt Hill
#
# Bulk Modulus (GPa) = 32.70773 56.03284 44.37029
# Shear Modulus (GPa) = 21.59372 32.87534 27.23453
#
# Velocity S-wave (km/s) = 3.16620 3.90670 3.55578
# Velocity P-wave (km/s) = 5.34331 6.80903 6.12021
#
# Compressibility (1/GPa) = 0.03057381
#
# Stress axis : x y z
#
# Youngs Moduli (GPa) = 105.54250 19.27882 58.97544
#
# Poissons Ratio (x) = 0.14068 0.04880
# Poissons Ratio (y) = 0.77018 0.92821
# Poissons Ratio (z) = 0.08734 0.30343
#
# Static dielectric constant tensor:
#      x y z
#    x 4.089960 -0.272800 0.009730 
#    y -0.272800 3.742400 -0.111680 
#    z 0.009730 -0.111680 3.738450 
# 
# 
# High freq. dielectric constant tensor:
#      x y z
#    x 1.852080 -0.020770 -0.000640 
#    y -0.020770 1.836800 -0.007070 
#    z -0.000640 -0.007070 1.841380 
# 
# From -- ./inp_files/343093.got.cif
#   From: 2010.06.25/outbox.cif.g09.slc.cpg/sg2_172_cif.got.tgz:343093.got - 2010.06.27 13:26:56.
