data_PCOD8010385
_publ_section_title
;
Structure prediction by ZEFSAII (Michael W. Deem and Ramdas Pophale) SiO2 
 PCOD8010385
Probable space group: P -1
;
_chemical_formula_sum "Si O2"
_cell_formula_units_Z 16
_cell_length_a 21.616723
_cell_length_b 8.224111
_cell_length_c 9.400292
_cell_angle_alpha 148.643723
_cell_angle_beta 76.533575
_cell_angle_gamma 114.097061
_cell_volume 769.883752
_symmetry_space_group_name_H-M "P -1"
_symmetry_group_IT_number 2
_symmetry_cell_setting 'triclinic'
loop_
_space_group_symop_operation_xyz
x,y,z
-x,-y,-z
loop_
_atom_site_type_symbol
_atom_site_label
_atom_site_fract_x
_atom_site_fract_y
_atom_site_fract_z
Si Si1 0.277879 0.307725 0.191971
Si Si2 0.208326 0.360315 0.820891
Si Si3 0.203021 0.524793 0.621349
Si Si4 0.924206 0.737664 0.706519
Si Si5 0.283561 0.878311 0.390313
Si Si6 0.570364 0.840249 0.386897
Si Si7 0.920555 0.019756 0.210865
Si Si8 0.576920 0.557119 0.878055
O O1 0.259385 0.411128 0.432522
O O2 0.272767 0.568902 0.272933
O O3 0.355711 0.315158 0.164877
O O4 0.224568 0.928157 0.891365
O O5 0.197889 0.420749 0.708930
O O6 0.235355 0.063483 0.605977
O O7 0.135055 0.257740 0.864037
O O8 0.263190 0.719274 0.125410
O O9 0.127284 0.316209 0.437580
O O10 0.920643 0.387334 0.514739
O O11 0.003230 0.971031 0.787389
O O12 0.901367 0.924035 0.984202
O O13 0.364505 0.159674 0.556229
O O14 0.496158 0.520493 0.225633
O O15 0.565048 0.196835 0.689948
O O16 0.588490 0.830492 0.201871
#
# Coordination Sequence:
#
# PCOD8010385 Si02
#       8
#     2   2   2   2   2   2   2   2
#     4  11  21  37  60  83 110 148 191 231 274 328
#     4  12  24  37  56  84 118 149 182 228 278 330
#     4  12  24  37  56  84 118 149 182 228 278 330
#     4  10  21  38  60  83 108 142 185 229 273 327
#     4  11  21  37  60  83 110 148 191 231 274 328
#     4   9  17  30  52  83 110 135 180 238 281 315
#     4  10  21  38  60  83 108 142 185 229 273 327
#     4   9  17  30  52  83 110 135 180 238 281 315
#
# _framework density 20.782357000000001
#
# number of rings (size 3 to 8) (size 9 to 14) (size 15 to 20)
#    0.000    1.500    0.000    8.250    0.000    0.500 
#    0.000    0.000    0.000   12.000    0.000    0.000 
#    0.000    0.000    0.000    0.000    0.000    0.000 
#
# Total GULP energy -198395.813514 kJ/mol
# GULP energy per Si atom -12399.738345 kJ/mol
# Density = 2.073506 g / cm^3
# Si number density = 20.782357 Si / 1000 Ang^3
#
#
#
# Elastic Constant Matrix: (Units=GPa)
#
#
# Indices 1 2 3 4 5 6 
#
# 1 133.9087 69.7569 46.5904 -13.6424 20.1917 28.5930
# 2 69.7569 65.4609 26.8747 -17.6969 15.4750 12.4943
# 3 46.5904 26.8747 107.0895 -10.3261 6.8224 11.6912
# 4 -13.6424 -17.6969 -10.3261 29.5309 -1.0289 -4.6887
# 5 20.1917 15.4750 6.8224 -1.0289 42.0857 0.0731
# 6 28.5930 12.4943 11.6912 -4.6887 0.0731 18.9481
#
#
#
# Elastic Compliance Matrix: (Units=1/GPa)
#
#
# Indices 1 2 3 4 5 6 
#
# 1 0.024182 -0.021106 -0.003189 -0.006226 -0.003438 -0.022134
# 2 -0.021106 0.041858 -0.000368 0.016395 -0.004820 0.008550
# 3 -0.003189 -0.000368 0.011162 0.001994 -0.000093 -0.001339
# 4 -0.006226 0.016395 0.001994 0.042686 -0.002335 0.007925
# 5 -0.003438 -0.004820 -0.000093 -0.002335 0.027127 0.007741
# 6 -0.022134 0.008550 -0.001339 0.007925 0.007741 0.083296
#
#
# Mechanical properties :
#
#
# Convention : Reuss Voigt Hill
#
# Bulk Modulus (GPa) = 35.87174 65.87812 50.87493
# Shear Modulus (GPa) = 17.30539 28.99542 23.15041
#
# Velocity S-wave (km/s) = 2.88878 3.73928 3.34120
# Velocity P-wave (km/s) = 5.33150 7.10006 6.27836
#
# Compressibility (1/GPa) = 0.02787710
#
# Stress axis : x y z
#
# Youngs Moduli (GPa) = 41.35269 23.89057 89.58979
#
# Poissons Ratio (x) = 0.50422 0.28570
# Poissons Ratio (y) = 0.87277 0.03294
# Poissons Ratio (z) = 0.13187 0.00878
#
# Static dielectric constant tensor:
#      x y z
#    x 4.080380 0.470300 0.058170 
#    y 0.470300 3.290630 0.053130 
#    z 0.058170 0.053130 4.077600 
# 
# 
# High freq. dielectric constant tensor:
#      x y z
#    x 1.822190 0.036720 0.000040 
#    y 0.036720 1.756630 0.000580 
#    z 0.000040 0.000580 1.843020 
# 
# From -- ./inp_files/227479.got.cif
#   From: 2010.06.25/outbox.cif.g09.slc.cpg/sg2_114_cif.got.tgz:227479.got - 2010.06.27 13:26:56.
