data_PCOD8010533
_publ_section_title
;
Structure prediction by ZEFSAII (Michael W. Deem and Ramdas Pophale) SiO2 
 PCOD8010533
Probable space group: P -1
;
_chemical_formula_sum "Si O2"
_cell_formula_units_Z 14
_cell_length_a 24.575734
_cell_length_b 8.005554
_cell_length_c 19.938003
_cell_angle_alpha 35.784361
_cell_angle_beta 166.755426
_cell_angle_gamma 146.918185
_cell_volume 490.247852
_symmetry_space_group_name_H-M "P -1"
_symmetry_group_IT_number 2
_symmetry_cell_setting 'triclinic'
loop_
_space_group_symop_operation_xyz
x,y,z
-x,-y,-z
loop_
_atom_site_type_symbol
_atom_site_label
_atom_site_fract_x
_atom_site_fract_y
_atom_site_fract_z
Si Si1 0.492677 0.879816 0.118500
Si Si2 0.500072 0.682476 0.575440
Si Si3 0.977758 0.809216 0.190739
Si Si4 0.818669 0.726497 0.826720
Si Si5 0.248731 0.503311 0.835052
Si Si6 0.051638 0.238939 0.253236
Si Si7 0.475232 0.754260 0.838699
O O1 0.753580 0.808180 0.442887
O O2 0.516532 0.191657 0.006644
O O3 0.456502 0.930578 0.138615
O O4 0.256052 0.586139 0.898221
O O5 0.539314 0.667387 0.545747
O O6 0.222456 0.447679 0.331362
O O7 0.500000 0.000000 0.500000
O O8 0.722312 0.611954 0.907032
O O9 0.134611 0.137382 0.235997
O O10 0.910802 0.904619 0.156128
O O11 0.185883 0.646626 0.498947
O O12 0.871929 0.413262 0.006547
O O13 0.000000 0.000000 0.000000
O O14 0.000000 0.500000 0.500000
O O15 0.325959 0.214103 0.995468
O O16 0.500000 0.500000 0.000000
#
# Coordination Sequence:
#
# PCOD8010533 Si02
#       7
#     2   2   2   2   2   2   2
#     4   9  22  40  60  94 125 163 207 266 316 371
#     4  11  23  39  62  91 122 170 214 250 325 379
#     4  10  22  41  62  90 126 164 211 266 314 372
#     4  10  21  38  61  89 124 163 206 262 310 370
#     4  10  21  40  66  91 124 166 213 257 318 384
#     4  11  22  42  61  90 132 159 209 267 310 381
#     4   9  20  40  63  89 127 165 202 263 317 366
#
# _framework density 28.556985999999998
#
# number of rings (size 3 to 8) (size 9 to 14) (size 15 to 20)
#    0.000    2.000    2.857    0.429    4.000    4.571 
#    5.143    0.000    0.000    0.000    0.000    0.000 
#    0.000    0.000    0.000    0.000    0.000    0.000 
#
# Total GULP energy -173490.937182 kJ/mol
# GULP energy per Si atom -12392.209799 kJ/mol
# Density = 2.849199 g / cm^3
# Si number density = 28.556986 Si / 1000 Ang^3
#
#
#
# Elastic Constant Matrix: (Units=GPa)
#
#
# Indices 1 2 3 4 5 6 
#
# 1 140.6962 8.5982 44.8722 -9.7720 6.4530 -40.5714
# 2 8.5982 132.5314 40.8635 -7.4429 2.2916 -33.2419
# 3 44.8722 40.8635 153.3575 -24.6416 -3.8571 -30.7746
# 4 -9.7720 -7.4429 -24.6416 53.5119 -4.6682 0.4072
# 5 6.4530 2.2916 -3.8571 -4.6682 52.1774 -5.9750
# 6 -40.5714 -33.2419 -30.7746 0.4072 -5.9750 48.4618
#
#
#
# Elastic Compliance Matrix: (Units=1/GPa)
#
#
# Indices 1 2 3 4 5 6 
#
# 1 0.010154 0.002139 -0.001538 0.001347 -0.000319 0.008940
# 2 0.002139 0.009838 -0.001569 0.000991 0.000141 0.007552
# 3 -0.001538 -0.001569 0.008674 0.003610 0.001602 0.003311
# 4 0.001347 0.000991 0.003610 0.020912 0.002411 0.004222
# 5 -0.000319 0.000141 0.001602 0.002411 0.019909 0.003281
# 6 0.008940 0.007552 0.003311 0.004222 0.003281 0.035771
#
#
# Mechanical properties :
#
#
# Convention : Reuss Voigt Hill
#
# Bulk Modulus (GPa) = 37.41317 68.36141 52.88729
# Shear Modulus (GPa) = 43.06538 52.98032 48.02285
#
# Velocity S-wave (km/s) = 3.88758 4.31193 4.10524
# Velocity P-wave (km/s) = 5.76894 6.98433 6.40553
#
# Compressibility (1/GPa) = 0.02672856
#
# Stress axis : x y z
#
# Youngs Moduli (GPa) = 98.48643 101.64928 115.29162
#
# Poissons Ratio (x) = -0.21745 0.17737
# Poissons Ratio (y) = -0.21068 0.18090
# Poissons Ratio (z) = 0.15151 0.15949
#
# Static dielectric constant tensor:
#      x y z
#    x 7.511840 -0.242770 0.386680 
#    y -0.242770 7.151840 0.468340 
#    z 0.386680 0.468340 5.450060 
# 
# 
# High freq. dielectric constant tensor:
#      x y z
#    x 2.189610 0.009680 -0.006400 
#    y 0.009680 2.204680 0.008980 
#    z -0.006400 0.008980 2.142790 
# 
# From -- ./inp_files/614466.got.cif
#   From: 2010.06.25/outbox.cif.g09.slc.cpg/sg2_308_cif.got.tgz:614466.got - 2010.06.27 13:26:56.
