data_PCOD8010000
_publ_section_title
;
Structure prediction by ZEFSAII (Michael W. Deem and Ramdas Pophale) SiO2 
 PCOD8010000
Probable space group: P -1
;
_chemical_formula_sum "Si O2"
_cell_formula_units_Z 16
_cell_length_a 9.235767
_cell_length_b 18.545831
_cell_length_c 12.908724
_cell_angle_alpha 143.625139
_cell_angle_beta 142.569581
_cell_angle_gamma 40.860287
_cell_volume 753.903921
_symmetry_space_group_name_H-M "P -1"
_symmetry_group_IT_number 2
_symmetry_cell_setting 'triclinic'
loop_
_space_group_symop_operation_xyz
x,y,z
-x,-y,-z
loop_
_atom_site_type_symbol
_atom_site_label
_atom_site_fract_x
_atom_site_fract_y
_atom_site_fract_z
Si Si1 0.073612 0.407218 0.073373
Si Si2 0.655257 0.675143 0.180922
Si Si3 0.788696 0.238794 0.603560
Si Si4 0.171679 0.084330 0.493058
Si Si5 0.467474 0.179586 0.527607
Si Si6 0.986575 0.115583 0.200582
Si Si7 0.587551 0.578607 0.551785
Si Si8 0.576191 0.356221 0.179829
O O1 0.216490 0.360172 0.211543
O O2 0.279274 0.406325 0.101681
O O3 0.898995 0.551377 0.164116
O O4 0.914533 0.317996 0.841927
O O5 0.720350 0.799104 0.322699
O O6 0.553104 0.699137 0.268421
O O7 0.424149 0.663575 0.966741
O O8 0.595447 0.193282 0.508975
O O9 0.645516 0.314869 0.509988
O O10 0.992800 0.113006 0.525843
O O11 0.028085 0.068410 0.288228
O O12 0.392471 0.952404 0.485673
O O13 0.186916 0.179822 0.345778
O O14 0.714222 0.224448 0.165756
O O15 0.000000 0.000000 0.000000
O O16 0.500000 0.500000 0.500000
O O17 0.704687 0.466715 0.402863
#
# Coordination Sequence:
#
# PCOD8010000 Si02
#       8
#     2   2   2   2   2   2   2   2
#     4  11  22  39  69 102 127 169 218 277 332 380
#     4  11  20  40  69  94 126 170 230 270 321 387
#     4  12  24  44  66  98 141 170 214 276 333 397
#     4  11  21  42  68  91 125 177 229 265 317 395
#     4  11  26  43  62  95 134 179 215 269 342 385
#     4  11  23  42  67  97 128 171 227 276 316 390
#     4  10  21  37  63  99 127 163 219 264 320 382
#     4  11  19  37  66  99 125 162 227 278 315 378
#
# _framework density 21.222864000000001
#
# number of rings (size 3 to 8) (size 9 to 14) (size 15 to 20)
#    0.000    1.000    2.500    8.250    0.000    0.500 
#    4.500    1.875    0.000    0.000    0.000    0.000 
#    0.000    0.000    0.000    0.000    0.000    0.000 
#
# Total GULP energy -198329.699497 kJ/mol
# GULP energy per Si atom -12395.606219 kJ/mol
# Density = 2.117456 g / cm^3
# Si number density = 21.222864 Si / 1000 Ang^3
#
#
#
# Elastic Constant Matrix: (Units=GPa)
#
#
# Indices 1 2 3 4 5 6 
#
# 1 94.9949 2.7523 22.3990 2.6160 -9.4814 -8.2585
# 2 2.7523 86.9301 21.7856 -5.5217 -4.4750 -21.9362
# 3 22.3990 21.7856 149.1913 -12.2163 -28.3675 -1.3350
# 4 2.6160 -5.5217 -12.2163 35.4272 -3.3311 -10.4559
# 5 -9.4814 -4.4750 -28.3675 -3.3311 26.2297 5.4724
# 6 -8.2585 -21.9362 -1.3350 -10.4559 5.4724 25.7943
#
#
#
# Elastic Compliance Matrix: (Units=1/GPa)
#
#
# Indices 1 2 3 4 5 6 
#
# 1 0.011393 0.001214 -0.001469 0.000294 0.001871 0.004327
# 2 0.001214 0.016865 -0.002316 0.006802 -0.002039 0.017801
# 3 -0.001469 -0.002316 0.009448 0.003127 0.010287 -0.002866
# 4 0.000294 0.006802 0.003127 0.036677 0.005173 0.019810
# 5 0.001871 -0.002039 0.010287 0.005173 0.052236 -0.009588
# 6 0.004327 0.017801 -0.002866 0.019810 -0.009588 0.065208
#
#
# Mechanical properties :
#
#
# Convention : Reuss Voigt Hill
#
# Bulk Modulus (GPa) = 30.70985 47.22110 38.96548
# Shear Modulus (GPa) = 24.05901 36.43554 30.24728
#
# Velocity S-wave (km/s) = 3.37060 4.14793 3.77931
# Velocity P-wave (km/s) = 5.44514 6.72598 6.11917
#
# Compressibility (1/GPa) = 0.03256284
#
# Stress axis : x y z
#
# Youngs Moduli (GPa) = 87.77385 59.29584 105.84313
#
# Poissons Ratio (x) = -0.07200 0.15550
# Poissons Ratio (y) = -0.10658 0.24517
# Poissons Ratio (z) = 0.12896 0.13735
#
# Static dielectric constant tensor:
#      x y z
#    x 3.661080 -0.253080 -0.487730 
#    y -0.253080 3.911780 -0.162250 
#    z -0.487730 -0.162250 4.604070 
# 
# 
# High freq. dielectric constant tensor:
#      x y z
#    x 1.798880 -0.021230 -0.033370 
#    y -0.021230 1.838390 -0.007720 
#    z -0.033370 -0.007720 1.849080 
# 
# From -- ./inp_files/304212.got.cif
#   From: 2010.06.25/outbox.cif.g09.slc.cpg/sg2_153_cif.got.tgz:304212.got - 2010.06.27 13:26:56.
