data_PCOD8010808
_publ_section_title
;
Structure prediction by ZEFSAII (Michael W. Deem and Ramdas Pophale) SiO2 
 PCOD8010808
Probable space group: P -1
;
_chemical_formula_sum "Si O2"
_cell_formula_units_Z 12
_cell_length_a 17.070285
_cell_length_b 12.351384
_cell_length_c 15.794880
_cell_angle_alpha 28.337338
_cell_angle_beta 25.469663
_cell_angle_gamma 21.109954
_cell_volume 500.068612
_symmetry_space_group_name_H-M "P -1"
_symmetry_group_IT_number 2
_symmetry_cell_setting 'triclinic'
loop_
_space_group_symop_operation_xyz
x,y,z
-x,-y,-z
loop_
_atom_site_type_symbol
_atom_site_label
_atom_site_fract_x
_atom_site_fract_y
_atom_site_fract_z
Si Si1 0.893016 0.050466 0.939450
Si Si2 0.721668 0.345116 0.454524
Si Si3 0.641652 0.129743 0.299939
Si Si4 0.737922 0.212987 0.717442
Si Si5 0.719422 0.670566 0.653986
Si Si6 0.694042 0.892552 0.114473
O O1 0.713661 0.403165 0.837676
O O2 0.744911 0.051020 0.158729
O O3 0.162628 0.908346 0.801961
O O4 0.903398 0.856936 0.987054
O O5 0.500000 0.500000 0.500000
O O6 0.643489 0.309618 0.646297
O O7 0.790674 0.553679 0.247833
O O8 0.964821 0.005706 0.418380
O O9 0.382826 0.481384 0.320295
O O10 0.607629 0.892682 0.526878
O O11 0.661828 0.033589 0.956080
O O12 0.000000 0.500000 0.500000
O O13 0.573948 0.876583 0.737514
#
# Coordination Sequence:
#
# PCOD8010808 Si02
#       6
#     2   2   2   2   2   2
#     4  10  23  40  67 105 146 179 223 278 345 422
#     4  11  28  52  70  98 136 184 240 300 348 402
#     4  10  21  43  67 103 142 184 223 275 347 420
#     4  11  25  47  73 103 132 181 243 285 348 411
#     4  10  21  38  63  98 141 180 216 268 340 412
#     4  12  24  44  69 103 139 183 232 288 346 412
#
# _framework density 23.996706
#
# number of rings (size 3 to 8) (size 9 to 14) (size 15 to 20)
#    0.000    1.333    3.333    1.000    2.333    2.667 
#    6.000    0.000    0.000    0.000    0.000    0.000 
#    0.000    0.000    0.000    0.000    0.000    0.000 
#
# Total GULP energy -148810.824838 kJ/mol
# GULP energy per Si atom -12400.902070 kJ/mol
# Density = 2.394209 g / cm^3
# Si number density = 23.996706 Si / 1000 Ang^3
#
#
#
# Elastic Constant Matrix: (Units=GPa)
#
#
# Indices 1 2 3 4 5 6 
#
# 1 117.5048 30.0333 54.4998 -15.5461 16.0142 -16.6394
# 2 30.0333 111.3415 29.5275 -9.6547 3.7518 -8.9277
# 3 54.4998 29.5275 161.5174 -19.0707 32.1395 -8.9758
# 4 -15.5461 -9.6547 -19.0707 44.4383 1.7873 -4.0588
# 5 16.0142 3.7518 32.1395 1.7873 51.0255 -5.7463
# 6 -16.6394 -8.9277 -8.9758 -4.0588 -5.7463 30.0069
#
#
#
# Elastic Compliance Matrix: (Units=1/GPa)
#
#
# Indices 1 2 3 4 5 6 
#
# 1 0.011496 -0.001666 -0.002659 0.003051 -0.001327 0.005242
# 2 -0.001666 0.009979 -0.001140 0.001251 0.000689 0.002005
# 3 -0.002659 -0.001140 0.008526 0.002684 -0.004520 0.000234
# 4 0.003051 0.001251 0.002684 0.025641 -0.002990 0.005763
# 5 -0.001327 0.000689 -0.004520 -0.002990 0.023157 0.002147
# 6 0.005242 0.002005 0.000234 0.005763 0.002147 0.038090
#
#
# Mechanical properties :
#
#
# Convention : Reuss Voigt Hill
#
# Bulk Modulus (GPa) = 52.43453 68.72052 60.57752
# Shear Modulus (GPa) = 37.26407 43.51434 40.38921
#
# Velocity S-wave (km/s) = 3.94494 4.26296 4.10703
# Velocity P-wave (km/s) = 6.53056 7.27531 6.91297
#
# Compressibility (1/GPa) = 0.01907140
#
# Stress axis : x y z
#
# Youngs Moduli (GPa) = 86.98485 100.20788 117.28578
#
# Poissons Ratio (x) = 0.16697 0.31184
# Poissons Ratio (y) = 0.14494 0.13371
# Poissons Ratio (z) = 0.23128 0.11424
#
# Static dielectric constant tensor:
#      x y z
#    x 4.270540 -0.298570 0.403250 
#    y -0.298570 4.564120 -0.310750 
#    z 0.403250 -0.310750 5.105440 
# 
# 
# High freq. dielectric constant tensor:
#      x y z
#    x 1.950550 -0.015600 0.014920 
#    y -0.015600 1.954900 -0.000600 
#    z 0.014920 -0.000600 1.981950 
# 
# From -- ./inp_files/265030.got.cif
#   From: 2010.06.25/outbox.cif.g09.slc.cpg/sg2_133_cif.got.tgz:265030.got - 2010.06.27 13:26:56.
