data_PCOD8010963
_publ_section_title
;
Structure prediction by ZEFSAII (Michael W. Deem and Ramdas Pophale) SiO2 
 PCOD8010963
Probable space group: P -1
;
_chemical_formula_sum "Si O2"
_cell_formula_units_Z 12
_cell_length_a 11.846000
_cell_length_b 11.254233
_cell_length_c 4.938820
_cell_angle_alpha 87.059458
_cell_angle_beta 97.364376
_cell_angle_gamma 49.212418
_cell_volume 486.350493
_symmetry_space_group_name_H-M "P -1"
_symmetry_group_IT_number 2
_symmetry_cell_setting 'triclinic'
loop_
_space_group_symop_operation_xyz
x,y,z
-x,-y,-z
loop_
_atom_site_type_symbol
_atom_site_label
_atom_site_fract_x
_atom_site_fract_y
_atom_site_fract_z
Si Si1 0.915773 0.688677 0.747942
Si Si2 0.843138 0.952729 0.372383
Si Si3 0.114633 0.549185 0.322572
Si Si4 0.877707 0.143747 0.753284
Si Si5 0.611663 0.235220 0.929787
Si Si6 0.561492 0.581148 0.617579
O O1 0.064716 0.573026 0.615854
O O2 0.806678 0.867980 0.568727
O O3 0.828958 0.622356 0.736347
O O4 0.971620 0.686107 0.066382
O O5 0.025065 0.811998 0.347639
O O6 0.827911 0.089385 0.504230
O O7 0.718630 0.049397 0.079969
O O8 0.254813 0.542968 0.328122
O O9 0.724391 0.269202 0.872062
O O10 0.000000 0.000000 0.000000
O O11 0.493673 0.359707 0.103406
O O12 0.511793 0.269033 0.629961
O O13 0.500000 0.500000 0.500000
#
# Coordination Sequence:
#
# PCOD8010963 Si02
#       6
#     2   2   2   2   2   2
#     4  10  23  43  70  90 121 164 215 270 306 358
#     4  10  21  38  65  92 124 162 210 265 319 351
#     4  10  24  44  63  95 124 163 219 256 304 380
#     4   9  20  34  59  92 126 157 202 265 300 372
#     4  11  23  42  58  96 127 163 210 254 310 386
#     4  12  26  41  65  89 135 173 203 249 321 386
#
# _framework density 24.673566000000001
#
# number of rings (size 3 to 8) (size 9 to 14) (size 15 to 20)
#    0.000    1.667    1.667    1.500    7.000    2.667 
#    0.000    1.667    0.000    0.000    0.000    0.000 
#    0.000    0.000    0.000    0.000    0.000    0.000 
#
# Total GULP energy -148704.494371 kJ/mol
# GULP energy per Si atom -12392.041198 kJ/mol
# Density = 2.461741 g / cm^3
# Si number density = 24.673566 Si / 1000 Ang^3
#
#
#
# Elastic Constant Matrix: (Units=GPa)
#
#
# Indices 1 2 3 4 5 6 
#
# 1 80.6173 3.9683 7.2966 3.2251 -5.2574 2.6036
# 2 3.9683 32.2421 -5.1207 -3.3764 -7.4750 -8.9779
# 3 7.2966 -5.1207 104.7925 -3.7411 -3.3012 -3.8110
# 4 3.2251 -3.3764 -3.7411 55.8042 -5.9433 -16.1340
# 5 -5.2574 -7.4750 -3.3012 -5.9433 35.7188 -1.0202
# 6 2.6036 -8.9779 -3.8110 -16.1340 -1.0202 47.8571
#
#
#
# Elastic Compliance Matrix: (Units=1/GPa)
#
#
# Indices 1 2 3 4 5 6 
#
# 1 0.012774 -0.002056 -0.001058 -0.001271 0.001096 -0.001570
# 2 -0.002056 0.037156 0.002819 0.006303 0.009057 0.009625
# 3 -0.001058 0.002819 0.009937 0.001646 0.001683 0.001969
# 4 -0.001271 0.006303 0.001646 0.021564 0.005122 0.008762
# 5 0.001096 0.009057 0.001683 0.005122 0.031180 0.004165
# 6 -0.001570 0.009625 0.001969 0.008762 0.004165 0.025986
#
#
# Mechanical properties :
#
#
# Convention : Reuss Voigt Hill
#
# Bulk Modulus (GPa) = 16.86977 25.54893 21.20935
# Shear Modulus (GPa) = 31.45699 41.97653 36.71676
#
# Velocity S-wave (km/s) = 3.57449 4.12913 3.86178
# Velocity P-wave (km/s) = 4.88753 5.75414 5.33845
#
# Compressibility (1/GPa) = 0.05927764
#
# Stress axis : x y z
#
# Youngs Moduli (GPa) = 78.28239 26.91339 100.62928
#
# Poissons Ratio (x) = 0.05535 0.10646
# Poissons Ratio (y) = 0.16099 -0.28369
# Poissons Ratio (z) = 0.08281 -0.07587
#
# Static dielectric constant tensor:
#      x y z
#    x 4.966840 -0.402270 -0.162050 
#    y -0.402270 5.097950 0.025040 
#    z -0.162050 0.025040 5.280380 
# 
# 
# High freq. dielectric constant tensor:
#      x y z
#    x 1.942470 -0.001160 -0.009080 
#    y -0.001160 1.982490 -0.012140 
#    z -0.009080 -0.012140 2.011330 
# 
# From -- ./inp_files/63741.got.cif
#   From: 2010.06.25/outbox.cif.g09.slc.cpg/sg2_32_cif.got.tgz:63741.got - 2010.06.27 13:26:56.
