data_PCOD8010511
_publ_section_title
;
Structure prediction by ZEFSAII (Michael W. Deem and Ramdas Pophale) SiO2 
 PCOD8010511
Probable space group: P -1
;
_chemical_formula_sum "Si O2"
_cell_formula_units_Z 16
_cell_length_a 16.144603
_cell_length_b 18.242091
_cell_length_c 10.885794
_cell_angle_alpha 142.987835
_cell_angle_beta 127.581353
_cell_angle_gamma 27.555148
_cell_volume 835.641187
_symmetry_space_group_name_H-M "P -1"
_symmetry_group_IT_number 2
_symmetry_cell_setting 'triclinic'
loop_
_space_group_symop_operation_xyz
x,y,z
-x,-y,-z
loop_
_atom_site_type_symbol
_atom_site_label
_atom_site_fract_x
_atom_site_fract_y
_atom_site_fract_z
Si Si1 0.047902 0.652422 0.356655
Si Si2 0.312311 0.165447 0.974011
Si Si3 0.873923 0.170221 0.224941
Si Si4 0.024266 0.244136 0.855087
Si Si5 0.514900 0.381977 0.214448
Si Si6 0.619680 0.702965 0.172765
Si Si7 0.356703 0.058090 0.602846
Si Si8 0.781059 0.153446 0.355504
O O1 0.107552 0.703336 0.569337
O O2 0.023800 0.718983 0.283222
O O3 0.853111 0.786571 0.414546
O O4 0.213690 0.390022 0.155563
O O5 0.381892 0.029181 0.732286
O O6 0.160653 0.225442 0.984178
O O7 0.500000 0.000000 0.000000
O O8 0.654722 0.346494 0.230670
O O9 0.931239 0.047046 0.241396
O O10 0.000000 0.000000 0.000000
O O11 0.125320 0.021853 0.692011
O O12 0.835287 0.444573 0.035316
O O13 0.596946 0.270543 0.276793
O O14 0.300070 0.646122 0.381950
O O15 0.512522 0.261630 0.973842
O O16 0.619874 0.827977 0.267731
O O17 0.522400 0.812969 0.365329
#
# Coordination Sequence:
#
# PCOD8010511 Si02
#       8
#     2   2   2   2   2   2   2   2
#     4  11  21  42  63  85 121 161 203 244 299 359
#     4  11  24  39  63  89 118 161 202 251 296 357
#     4  10  21  38  61  88 121 155 193 246 300 354
#     4  11  22  39  64  89 121 155 209 247 297 358
#     4   9  21  38  60  89 117 162 200 239 303 347
#     4  11  20  38  63  83 127 154 196 255 292 365
#     4  10  22  39  59  91 114 164 198 240 315 341
#     4   9  22  38  59  94 111 159 208 240 298 351
#
# _framework density 19.146974
#
# number of rings (size 3 to 8) (size 9 to 14) (size 15 to 20)
#    0.750    1.000    2.500    2.250    3.500    2.000 
#    2.250    0.625    0.000    3.750    0.000    0.000 
#    0.000    0.000    0.000    0.000    0.000    0.000 
#
# Total GULP energy -198316.643926 kJ/mol
# GULP energy per Si atom -12394.790245 kJ/mol
# Density = 1.910339 g / cm^3
# Si number density = 19.146974 Si / 1000 Ang^3
#
#
#
# Elastic Constant Matrix: (Units=GPa)
#
#
# Indices 1 2 3 4 5 6 
#
# 1 85.7899 42.4162 62.1991 -1.4198 -1.4509 -9.5511
# 2 42.4162 91.3216 48.3467 9.1331 -2.9136 -8.1776
# 3 62.1991 48.3467 140.4310 7.2461 -5.1890 -13.1121
# 4 -1.4198 9.1331 7.2461 26.6045 -11.2673 10.4146
# 5 -1.4509 -2.9136 -5.1890 -11.2673 32.1611 3.2283
# 6 -9.5511 -8.1776 -13.1121 10.4146 3.2283 37.6132
#
#
#
# Elastic Compliance Matrix: (Units=1/GPa)
#
#
# Indices 1 2 3 4 5 6 
#
# 1 0.019770 -0.006072 -0.006955 0.005738 0.001272 -0.000422
# 2 -0.006072 0.015893 -0.002161 -0.007421 -0.002124 0.003397
# 3 -0.006955 -0.002161 0.011409 -0.004022 -0.000368 0.002887
# 4 0.005738 -0.007421 -0.004022 0.058179 0.021277 -0.019494
# 5 0.001272 -0.002124 -0.000368 0.021277 0.039310 -0.009532
# 6 -0.000422 0.003397 0.002887 -0.019494 -0.009532 0.034440
#
#
# Mechanical properties :
#
#
# Convention : Reuss Voigt Hill
#
# Bulk Modulus (GPa) = 59.88881 69.27408 64.58145
# Shear Modulus (GPa) = 23.26227 30.24779 26.75503
#
# Velocity S-wave (km/s) = 3.48937 3.97894 3.74217
# Velocity P-wave (km/s) = 6.89787 7.57417 7.24392
#
# Compressibility (1/GPa) = 0.01669761
#
# Stress axis : x y z
#
# Youngs Moduli (GPa) = 50.58148 62.92093 87.65353
#
# Poissons Ratio (x) = 0.38205 0.60959
# Poissons Ratio (y) = 0.30712 0.18938
# Poissons Ratio (z) = 0.35177 0.13594
#
# Static dielectric constant tensor:
#      x y z
#    x 3.528200 -0.303590 -0.032740 
#    y -0.303590 3.339280 0.027810 
#    z -0.032740 0.027810 3.602220 
# 
# 
# High freq. dielectric constant tensor:
#      x y z
#    x 1.741210 -0.026090 0.005030 
#    y -0.026090 1.727220 -0.001840 
#    z 0.005030 -0.001840 1.751600 
# 
# From -- ./inp_files/472949.got.cif
#   From: 2010.06.25/outbox.cif.g09.slc.cpg/sg2_237_cif.got.tgz:472949.got - 2010.06.27 13:26:56.
