data_PCOD8010094
_publ_section_title
;
Structure prediction by ZEFSAII (Michael W. Deem and Ramdas Pophale) SiO2 
 PCOD8010094
Probable space group: P -1
;
_chemical_formula_sum "Si O2"
_cell_formula_units_Z 16
_cell_length_a 16.753760
_cell_length_b 9.128490
_cell_length_c 8.987167
_cell_angle_alpha 80.824260
_cell_angle_beta 64.504154
_cell_angle_gamma 127.323567
_cell_volume 799.597010
_symmetry_space_group_name_H-M "P -1"
_symmetry_group_IT_number 2
_symmetry_cell_setting 'triclinic'
loop_
_space_group_symop_operation_xyz
x,y,z
-x,-y,-z
loop_
_atom_site_type_symbol
_atom_site_label
_atom_site_fract_x
_atom_site_fract_y
_atom_site_fract_z
Si Si1 0.321448 0.385506 0.376537
Si Si2 0.120032 0.250794 0.796701
Si Si3 0.019732 0.359663 0.634475
Si Si4 0.450980 0.099823 0.984275
Si Si5 0.245797 0.445189 0.965037
Si Si6 0.180008 0.643356 0.187604
Si Si7 0.125066 0.077355 0.319656
Si Si8 0.517713 0.652024 0.836573
O O1 0.207360 0.264690 0.609714
O O2 0.428907 0.657645 0.235546
O O3 0.255372 0.273671 0.285063
O O4 0.395108 0.321297 0.365718
O O5 0.223087 0.443628 0.808569
O O6 0.059927 0.317083 0.752238
O O7 0.000000 0.000000 0.000000
O O8 0.951228 0.424106 0.739014
O O9 0.153677 0.554708 0.393313
O O10 0.909018 0.137168 0.652165
O O11 0.407391 0.122407 0.170370
O O12 0.500000 0.000000 0.000000
O O13 0.315978 0.915847 0.022723
O O14 0.394854 0.577068 0.863779
O O15 0.199382 0.530937 0.079579
O O16 0.147619 0.183832 0.125573
O O17 0.000000 0.000000 0.500000
O O18 0.500000 0.500000 0.000000
#
# Coordination Sequence:
#
# PCOD8010094 Si02
#       8
#     2   2   2   2   2   2   2   2
#     4  11  23  39  64  97 122 162 213 266 309 371
#     4  12  25  41  65  91 133 170 206 263 323 375
#     4  11  24  41  65  98 126 167 219 263 313 374
#     4  11  19  37  67  93 126 157 205 269 315 363
#     4  12  22  40  61  93 126 168 209 257 325 371
#     4  11  24  41  67  95 126 168 215 265 313 375
#     4  12  18  37  68  90 121 158 220 269 300 356
#     4  10  21  37  65  94 120 157 214 270 304 362
#
# _framework density 20.010079999999999
#
# number of rings (size 3 to 8) (size 9 to 14) (size 15 to 20)
#    0.000    0.750    7.500    1.500    1.750    1.000 
#    0.000    0.625    2.750    0.000    0.000    0.000 
#    0.000    0.000    0.000    0.000    0.000    0.000 
#
# Total GULP energy -198220.190511 kJ/mol
# GULP energy per Si atom -12388.761907 kJ/mol
# Density = 1.996454 g / cm^3
# Si number density = 20.010080 Si / 1000 Ang^3
#
#
#
# Elastic Constant Matrix: (Units=GPa)
#
#
# Indices 1 2 3 4 5 6 
#
# 1 129.3374 47.5853 52.6573 24.8017 -10.2218 -9.2760
# 2 47.5853 94.6306 35.4486 2.9770 -4.7899 -6.3524
# 3 52.6573 35.4486 97.1840 3.9179 -7.8217 -4.7349
# 4 24.8017 2.9770 3.9179 31.5969 -2.9877 -4.0686
# 5 -10.2218 -4.7899 -7.8217 -2.9877 32.6616 10.1550
# 6 -9.2760 -6.3524 -4.7349 -4.0686 10.1550 38.7866
#
#
#
# Elastic Compliance Matrix: (Units=1/GPa)
#
#
# Indices 1 2 3 4 5 6 
#
# 1 0.013350 -0.004401 -0.005125 -0.009237 0.001293 0.000539
# 2 -0.004401 0.013783 -0.002702 0.002631 -0.000131 0.001185
# 3 -0.005125 -0.002702 0.014072 0.002675 0.001646 -0.000101
# 4 -0.009237 0.002631 0.002675 0.038713 0.000942 0.002363
# 5 0.001293 -0.000131 0.001646 0.000942 0.034074 -0.008334
# 6 0.000539 0.001185 -0.000101 0.002363 -0.008334 0.028522
#
#
# Mechanical properties :
#
#
# Convention : Reuss Voigt Hill
#
# Bulk Modulus (GPa) = 59.70657 65.83714 62.77185
# Shear Modulus (GPa) = 28.97687 32.97308 30.97498
#
# Velocity S-wave (km/s) = 3.80954 4.06374 3.93869
# Velocity P-wave (km/s) = 7.01806 7.41567 7.21960
#
# Compressibility (1/GPa) = 0.01674858
#
# Stress axis : x y z
#
# Youngs Moduli (GPa) = 74.90881 72.55554 71.06321
#
# Poissons Ratio (x) = 0.31930 0.36422
# Poissons Ratio (y) = 0.32965 0.19199
# Poissons Ratio (z) = 0.38393 0.19602
#
# Static dielectric constant tensor:
#      x y z
#    x 4.361920 0.799100 -0.757130 
#    y 0.799100 5.904590 -0.840930 
#    z -0.757130 -0.840930 4.120430 
# 
# 
# High freq. dielectric constant tensor:
#      x y z
#    x 1.786180 -0.009820 -0.029930 
#    y -0.009820 1.785170 -0.002410 
#    z -0.029930 -0.002410 1.764640 
# 
# From -- ./inp_files/327570.got.cif
#   From: 2010.06.25/outbox.cif.g09.slc.cpg/sg2_164_cif.got.tgz:327570.got - 2010.06.27 13:26:56.
