data_PCOD8010287
_publ_section_title
;
Structure prediction by ZEFSAII (Michael W. Deem and Ramdas Pophale) SiO2 
 PCOD8010287
Probable space group: P -1
;
_chemical_formula_sum "Si O2"
_cell_formula_units_Z 16
_cell_length_a 6.177664
_cell_length_b 21.800342
_cell_length_c 11.729076
_cell_angle_alpha 143.071288
_cell_angle_beta 85.544385
_cell_angle_gamma 112.930951
_cell_volume 792.233135
_symmetry_space_group_name_H-M "P -1"
_symmetry_group_IT_number 2
_symmetry_cell_setting 'triclinic'
loop_
_space_group_symop_operation_xyz
x,y,z
-x,-y,-z
loop_
_atom_site_type_symbol
_atom_site_label
_atom_site_fract_x
_atom_site_fract_y
_atom_site_fract_z
Si Si1 0.839636 0.470573 0.847862
Si Si2 0.581648 0.911687 0.409995
Si Si3 0.943928 0.872909 0.188515
Si Si4 0.923797 0.841008 0.879972
Si Si5 0.744908 0.735554 0.393644
Si Si6 0.344959 0.105144 0.211948
Si Si7 0.013496 0.733259 0.170134
Si Si8 0.928807 0.287126 0.474555
O O1 0.543579 0.381481 0.763778
O O2 0.914654 0.406593 0.651982
O O3 0.000000 0.500000 0.000000
O O4 0.877197 0.588497 0.960390
O O5 0.697996 0.870849 0.244767
O O6 0.312434 0.793188 0.290379
O O7 0.500000 0.000000 0.500000
O O8 0.801563 0.987586 0.610432
O O9 0.999617 0.781702 0.118452
O O10 0.874319 0.823661 0.990124
O O11 0.702401 0.853135 0.847151
O O12 0.918880 0.723759 0.655324
O O13 0.202979 0.960420 0.013196
O O14 0.775775 0.853891 0.624234
O O15 0.850986 0.769155 0.310321
O O16 0.929879 0.702176 0.397815
O O17 0.645490 0.164277 0.307085
#
# Coordination Sequence:
#
# PCOD8010287 Si02
#       8
#     2   2   2   2   2   2   2   2
#     4  11  23  38  62  92 118 155 197 258 300 352
#     4   9  22  39  56  91 119 161 195 239 292 359
#     4  10  23  38  59  85 128 159 197 245 288 363
#     4  10  21  38  58  85 119 161 200 240 297 352
#     4  10  22  36  60  94 119 148 196 251 307 359
#     4   9  21  36  59  88 117 155 197 247 297 356
#     4  11  23  37  60  91 122 157 198 242 310 353
#     4  10  21  39  59  86 120 153 199 254 294 353
#
# _framework density 20.196075
#
# number of rings (size 3 to 8) (size 9 to 14) (size 15 to 20)
#    0.000    2.000    1.250    0.750    8.750    2.000 
#    0.000    0.625    0.000    7.500    0.000    0.000 
#    0.000    0.000    0.000    0.000    0.000    0.000 
#
# Total GULP energy -198353.835133 kJ/mol
# GULP energy per Si atom -12397.114696 kJ/mol
# Density = 2.015011 g / cm^3
# Si number density = 20.196075 Si / 1000 Ang^3
#
#
#
# Elastic Constant Matrix: (Units=GPa)
#
#
# Indices 1 2 3 4 5 6 
#
# 1 95.4416 33.5463 37.8526 -2.9033 7.7888 6.4146
# 2 33.5463 93.2431 47.2556 -17.9333 -3.1692 -2.2027
# 3 37.8526 47.2556 96.8700 -9.7612 -4.3839 2.7459
# 4 -2.9033 -17.9333 -9.7612 27.4097 3.8799 0.5626
# 5 7.7888 -3.1692 -4.3839 3.8799 43.6064 0.5809
# 6 6.4146 -2.2027 2.7459 0.5626 0.5809 25.5670
#
#
#
# Elastic Compliance Matrix: (Units=1/GPa)
#
#
# Indices 1 2 3 4 5 6 
#
# 1 0.013614 -0.003450 -0.003849 -0.001713 -0.002874 -0.003196
# 2 -0.003450 0.016690 -0.006016 0.008292 0.000450 0.002757
# 3 -0.003849 -0.006016 0.014950 0.000765 0.001701 -0.001214
# 4 -0.001713 0.008292 0.000765 0.042390 -0.002789 0.000193
# 5 -0.002874 0.000450 0.001701 -0.002789 0.023896 0.000096
# 6 -0.003196 0.002757 -0.001214 0.000193 0.000096 0.040276
#
#
# Mechanical properties :
#
#
# Convention : Reuss Voigt Hill
#
# Bulk Modulus (GPa) = 53.69281 58.09596 55.89438
# Shear Modulus (GPa) = 27.07761 30.44332 28.76047
#
# Velocity S-wave (km/s) = 3.66558 3.88672 3.77777
# Velocity P-wave (km/s) = 6.67524 6.99790 6.83847
#
# Compressibility (1/GPa) = 0.01862447
#
# Stress axis : x y z
#
# Youngs Moduli (GPa) = 73.45376 59.91667 66.88874
#
# Poissons Ratio (x) = 0.20672 0.25744
# Poissons Ratio (y) = 0.25342 0.40239
# Poissons Ratio (z) = 0.28271 0.36045
#
# Static dielectric constant tensor:
#      x y z
#    x 4.013160 0.080730 0.105410 
#    y 0.080730 3.321580 0.060230 
#    z 0.105410 0.060230 3.884520 
# 
# 
# High freq. dielectric constant tensor:
#      x y z
#    x 1.808190 -0.002910 -0.003630 
#    y -0.002910 1.751880 -0.002760 
#    z -0.003630 -0.002760 1.792100 
# 
# From -- ./inp_files/71988.got.cif
#   From: 2010.06.25/outbox.cif.g09.slc.cpg/sg2_36_cif.got.tgz:71988.got - 2010.06.27 13:26:56.
