data_PCOD8010367
_publ_section_title
;
Structure prediction by ZEFSAII (Michael W. Deem and Ramdas Pophale) SiO2 
 PCOD8010367
Probable space group: P -1
;
_chemical_formula_sum "Si O2"
_cell_formula_units_Z 12
_cell_length_a 12.330525
_cell_length_b 15.166589
_cell_length_c 8.350103
_cell_angle_alpha 108.020780
_cell_angle_beta 93.013433
_cell_angle_gamma 25.953604
_cell_volume 546.123523
_symmetry_space_group_name_H-M "P -1"
_symmetry_group_IT_number 2
_symmetry_cell_setting 'triclinic'
loop_
_space_group_symop_operation_xyz
x,y,z
-x,-y,-z
loop_
_atom_site_type_symbol
_atom_site_label
_atom_site_fract_x
_atom_site_fract_y
_atom_site_fract_z
Si Si1 0.234683 0.570461 0.396045
Si Si2 0.271255 0.532432 0.734082
Si Si3 0.875335 0.039187 0.657035
Si Si4 0.167432 0.278816 0.573718
Si Si5 0.320060 0.687197 0.946548
Si Si6 0.826623 0.729580 0.807169
O O1 0.372256 0.432812 0.501811
O O2 0.484863 0.399941 0.195941
O O3 0.038619 0.643906 0.347264
O O4 0.025196 0.822407 0.559123
O O5 0.530379 0.296787 0.741677
O O6 0.185209 0.709412 0.847003
O O7 0.990102 0.694360 0.849529
O O8 0.926056 0.052845 0.839531
O O9 0.000000 0.000000 0.500000
O O10 0.190626 0.269070 0.381431
O O11 0.011233 0.494682 0.757875
O O12 0.500000 0.000000 0.500000
O O13 0.500000 0.500000 0.000000
O O14 0.500000 0.000000 0.000000
#
# Coordination Sequence:
#
# PCOD8010367 Si02
#       6
#     2   2   2   2   2   2
#     4  11  22  40  62  90 128 161 208 258 314 377
#     4  10  22  41  61  90 128 159 209 262 308 377
#     4  11  22  39  60  90 125 162 205 257 316 374
#     4  10  23  42  66  95 127 168 215 265 316 374
#     4  10  21  38  59  91 119 160 205 248 315 373
#     4  10  23  44  64  94 129 168 215 262 317 374
#
# _framework density 21.973051999999999
#
# number of rings (size 3 to 8) (size 9 to 14) (size 15 to 20)
#    0.000    1.667    3.333    1.500    0.000    6.667 
#    9.000    0.000    0.000    0.000    0.000    0.000 
#    0.000    0.000    0.000    0.000    0.000    0.000 
#
# Total GULP energy -148763.404032 kJ/mol
# GULP energy per Si atom -12396.950336 kJ/mol
# Density = 2.192304 g / cm^3
# Si number density = 21.973052 Si / 1000 Ang^3
#
#
#
# Elastic Constant Matrix: (Units=GPa)
#
#
# Indices 1 2 3 4 5 6 
#
# 1 175.9981 27.4960 73.3678 10.4058 -3.1849 -10.6175
# 2 27.4960 55.9632 15.9980 22.9921 10.4443 -4.6850
# 3 73.3678 15.9980 132.2428 17.0288 -4.5480 -6.1838
# 4 10.4058 22.9921 17.0288 33.2019 1.4767 6.7274
# 5 -3.1849 10.4443 -4.5480 1.4767 29.1446 4.1655
# 6 -10.6175 -4.6850 -6.1838 6.7274 4.1655 34.9340
#
#
#
# Elastic Compliance Matrix: (Units=1/GPa)
#
#
# Indices 1 2 3 4 5 6 
#
# 1 0.007935 -0.003768 -0.004135 0.002058 0.001380 0.000613
# 2 -0.003768 0.031628 0.001203 -0.022655 -0.011706 0.009068
# 3 -0.004135 0.001203 0.010499 -0.005299 0.000782 0.001690
# 4 0.002058 -0.022655 -0.005299 0.050383 0.006948 -0.013882
# 5 0.001380 -0.011706 0.000782 0.006948 0.039435 -0.007052
# 6 0.000613 0.009068 0.001690 -0.013882 -0.007052 0.033841
#
#
# Mechanical properties :
#
#
# Convention : Reuss Voigt Hill
#
# Bulk Modulus (GPa) = 27.27712 66.43640 46.85676
# Shear Modulus (GPa) = 25.08257 35.94561 30.51409
#
# Velocity S-wave (km/s) = 3.38230 4.04901 3.73058
# Velocity P-wave (km/s) = 5.26252 7.22221 6.31880
#
# Compressibility (1/GPa) = 0.03666076
#
# Stress axis : x y z
#
# Youngs Moduli (GPa) = 126.02933 31.61797 95.24954
#
# Poissons Ratio (x) = 0.11914 0.39387
# Poissons Ratio (y) = 0.47488 -0.11458
# Poissons Ratio (z) = 0.52114 -0.03804
#
# Static dielectric constant tensor:
#      x y z
#    x 4.308080 -0.082730 0.392510 
#    y -0.082730 4.026800 -0.017380 
#    z 0.392510 -0.017380 4.247110 
# 
# 
# High freq. dielectric constant tensor:
#      x y z
#    x 1.874100 0.003050 0.006980 
#    y 0.003050 1.868570 -0.003810 
#    z 0.006980 -0.003810 1.862320 
# 
# From -- ./inp_files/269998.got.cif
#   From: 2010.06.25/outbox.cif.g09.slc.cpg/sg2_135_cif.got.tgz:269998.got - 2010.06.27 13:26:56.
