data_PCOD8010765
_publ_section_title
;
Structure prediction by ZEFSAII (Michael W. Deem and Ramdas Pophale) SiO2 
 PCOD8010765
Probable space group: P -1
;
_chemical_formula_sum "Si O2"
_cell_formula_units_Z 16
_cell_length_a 14.355068
_cell_length_b 7.237871
_cell_length_c 22.234656
_cell_angle_alpha 104.416800
_cell_angle_beta 21.458312
_cell_angle_gamma 108.865823
_cell_volume 790.657748
_symmetry_space_group_name_H-M "P -1"
_symmetry_group_IT_number 2
_symmetry_cell_setting 'triclinic'
loop_
_space_group_symop_operation_xyz
x,y,z
-x,-y,-z
loop_
_atom_site_type_symbol
_atom_site_label
_atom_site_fract_x
_atom_site_fract_y
_atom_site_fract_z
Si Si1 0.234222 0.866904 0.221962
Si Si2 0.516981 0.831234 0.523162
Si Si3 0.650169 0.915698 0.582974
Si Si4 0.283552 0.513363 0.803901
Si Si5 0.853088 0.566416 0.256145
Si Si6 0.393712 0.717922 0.993142
Si Si7 0.662248 0.340639 0.637317
Si Si8 0.238573 0.539265 0.279241
O O1 0.291753 0.757233 0.238077
O O2 0.949323 0.905194 0.399948
O O3 0.458849 0.068727 0.102678
O O4 0.255168 0.731558 0.141153
O O5 0.540516 0.927285 0.582673
O O6 0.771030 0.747712 0.352342
O O7 0.261954 0.642661 0.657383
O O8 0.500000 0.000000 0.500000
O O9 0.471215 0.733947 0.713052
O O10 0.629419 0.108599 0.647260
O O11 0.257162 0.443308 0.745532
O O12 0.414545 0.369097 0.751107
O O13 0.000000 0.500000 0.000000
O O14 0.168662 0.614886 0.072265
O O15 0.598129 0.585155 0.866210
O O16 0.672746 0.447676 0.703750
O O17 0.930770 0.432098 0.447092
#
# Coordination Sequence:
#
# PCOD8010765 Si02
#       8
#     2   2   2   2   2   2   2   2
#     4  11  23  41  65  95 128 168 206 263 318 367
#     4  10  21  38  63  92 123 165 207 257 314 369
#     4  11  22  42  66  92 128 164 211 260 318 375
#     4  11  24  43  66  91 128 170 208 264 312 374
#     4  10  22  39  62  94 124 164 208 254 315 374
#     4  11  23  42  64  96 132 159 216 260 313 377
#     4  11  24  41  65  93 127 167 216 256 312 379
#     4  11  24  40  63  95 126 172 211 257 313 371
#
# _framework density 20.236315999999999
#
# number of rings (size 3 to 8) (size 9 to 14) (size 15 to 20)
#    0.000    1.250    3.750    1.875    0.000    5.000 
#    0.000    0.000    0.000    0.000    0.000    0.000 
#    0.000    0.000    0.000    0.000    0.000    0.000 
#
# Total GULP energy -198489.578360 kJ/mol
# GULP energy per Si atom -12405.598648 kJ/mol
# Density = 2.019026 g / cm^3
# Si number density = 20.236316 Si / 1000 Ang^3
#
#
#
# Elastic Constant Matrix: (Units=GPa)
#
#
# Indices 1 2 3 4 5 6 
#
# 1 63.1147 31.8994 31.8149 -0.0494 -13.2407 -11.5689
# 2 31.8994 110.5608 43.6532 5.2687 -3.7156 -9.5431
# 3 31.8149 43.6532 132.1084 3.1979 -12.7738 -2.9853
# 4 -0.0494 5.2687 3.1979 33.6677 0.0865 0.5613
# 5 -13.2407 -3.7156 -12.7738 0.0865 27.5352 1.6079
# 6 -11.5689 -9.5431 -2.9853 0.5613 1.6079 33.6954
#
#
#
# Elastic Compliance Matrix: (Units=1/GPa)
#
#
# Indices 1 2 3 4 5 6 
#
# 1 0.022489 -0.004577 -0.002976 0.000914 0.008478 0.005742
# 2 -0.004577 0.011642 -0.002869 -0.001577 -0.002049 0.001596
# 3 -0.002976 -0.002869 0.009475 -0.000444 0.002644 -0.001114
# 4 0.000914 -0.001577 -0.000444 0.030004 -0.000034 -0.000670
# 5 0.008478 -0.002049 0.002644 -0.000034 0.041309 0.000594
# 6 0.005742 0.001596 -0.001114 -0.000670 0.000594 0.031985
#
#
# Mechanical properties :
#
#
# Convention : Reuss Voigt Hill
#
# Bulk Modulus (GPa) = 43.92981 57.83543 50.88262
# Shear Modulus (GPa) = 28.51671 32.20740 30.36206
#
# Velocity S-wave (km/s) = 3.75798 3.99377 3.87767
# Velocity P-wave (km/s) = 6.37067 7.06463 6.72661
#
# Compressibility (1/GPa) = 0.02276359
#
# Stress axis : x y z
#
# Youngs Moduli (GPa) = 44.46553 85.89645 105.53624
#
# Poissons Ratio (x) = 0.39311 0.31411
# Poissons Ratio (y) = 0.20350 0.30274
# Poissons Ratio (z) = 0.13235 0.24640
#
# Static dielectric constant tensor:
#      x y z
#    x 3.558510 0.041430 0.033730 
#    y 0.041430 3.705870 -0.073690 
#    z 0.033730 -0.073690 3.711220 
# 
# 
# High freq. dielectric constant tensor:
#      x y z
#    x 1.788220 0.001710 -0.000970 
#    y 0.001710 1.796060 -0.000720 
#    z -0.000970 -0.000720 1.797420 
# 
# From -- ./inp_files/69008.got.cif
#   From: 2010.06.25/outbox.cif.g09.slc.cpg/sg2_35_cif.got.tgz:69008.got - 2010.06.27 13:26:56.
