data_PCOD8010041
_publ_section_title
;
Structure prediction by ZEFSAII (Michael W. Deem and Ramdas Pophale) SiO2 
 PCOD8010041
Probable space group: P -1
;
_chemical_formula_sum "Si O2"
_cell_formula_units_Z 14
_cell_length_a 13.708290
_cell_length_b 15.114256
_cell_length_c 11.606110
_cell_angle_alpha 152.824145
_cell_angle_beta 42.723449
_cell_angle_gamma 141.756078
_cell_volume 674.321860
_symmetry_space_group_name_H-M "P -1"
_symmetry_group_IT_number 2
_symmetry_cell_setting 'triclinic'
loop_
_space_group_symop_operation_xyz
x,y,z
-x,-y,-z
loop_
_atom_site_type_symbol
_atom_site_label
_atom_site_fract_x
_atom_site_fract_y
_atom_site_fract_z
Si Si1 0.336012 0.674804 0.607132
Si Si2 0.372439 0.338985 0.794389
Si Si3 0.347600 0.769036 0.954498
Si Si4 0.163453 0.329651 0.519922
Si Si5 0.548146 0.807172 0.216655
Si Si6 0.345064 0.078119 0.989032
Si Si7 0.880614 0.023035 0.538698
O O1 0.463122 0.632885 0.374103
O O2 0.189328 0.451661 0.514624
O O3 0.266481 0.818975 0.764542
O O4 0.421937 0.807373 0.803895
O O5 0.348537 0.209670 0.784948
O O6 0.220449 0.210221 0.698439
O O7 0.390715 0.580097 0.079229
O O8 0.473823 0.839799 0.029346
O O9 0.235353 0.891022 0.202031
O O10 0.242823 0.511019 0.759851
O O11 0.251621 0.173268 0.260973
O O12 0.979287 0.189188 0.545044
O O13 0.655190 0.851499 0.060704
O O14 0.500000 0.000000 0.500000
O O15 0.000000 0.000000 0.500000
#
# Coordination Sequence:
#
# PCOD8010041 Si02
#       7
#     2   2   2   2   2   2   2
#     4  10  21  37  64  93 129 163 218 262 312 377
#     4  11  24  42  64  98 127 168 219 273 308 381
#     4  10  22  38  62  95 135 166 214 261 312 387
#     4  10  25  37  61  97 136 168 205 267 327 381
#     4  11  22  41  69  94 121 166 231 270 309 366
#     4  12  20  39  68  95 122 173 222 267 313 380
#     4  12  25  42  63  98 140 174 204 259 338 390
#
# _framework density 20.761599
#
# number of rings (size 3 to 8) (size 9 to 14) (size 15 to 20)
#    0.857    0.286    4.286    2.143    4.000    0.000 
#    2.571    0.714    0.000    1.714    0.000    0.000 
#    0.000    0.000    0.000    0.000    0.000    0.000 
#
# Total GULP energy -173531.721474 kJ/mol
# GULP energy per Si atom -12395.122962 kJ/mol
# Density = 2.071435 g / cm^3
# Si number density = 20.761599 Si / 1000 Ang^3
#
#
#
# Elastic Constant Matrix: (Units=GPa)
#
#
# Indices 1 2 3 4 5 6 
#
# 1 77.5755 35.1994 42.2511 2.5556 4.4004 -8.1054
# 2 35.1994 104.9320 27.5838 11.0353 0.1893 -17.8998
# 3 42.2511 27.5838 124.5018 17.4424 -4.9411 3.9711
# 4 2.5556 11.0353 17.4424 40.6641 -5.1241 0.7299
# 5 4.4004 0.1893 -4.9411 -5.1241 26.5053 1.1538
# 6 -8.1054 -17.8998 3.9711 0.7299 1.1538 26.9725
#
#
#
# Elastic Compliance Matrix: (Units=1/GPa)
#
#
# Indices 1 2 3 4 5 6 
#
# 1 0.018590 -0.004236 -0.005921 0.001956 -0.003945 0.003763
# 2 -0.004236 0.012880 -0.001274 -0.002883 -0.000513 0.007562
# 3 -0.005921 -0.001274 0.011069 -0.003634 0.002539 -0.004264
# 4 0.001956 -0.002883 -0.003634 0.027394 0.004389 -0.001719
# 5 -0.003945 -0.000513 0.002539 0.004389 0.039871 -0.003724
# 6 0.003763 0.007562 -0.004264 -0.001719 -0.003724 0.044058
#
#
# Mechanical properties :
#
#
# Convention : Reuss Voigt Hill
#
# Bulk Modulus (GPa) = 50.81861 57.45310 54.13586
# Shear Modulus (GPa) = 27.28030 32.29338 29.78684
#
# Velocity S-wave (km/s) = 3.62882 3.94818 3.79186
# Velocity P-wave (km/s) = 6.48753 6.96542 6.73072
#
# Compressibility (1/GPa) = 0.01967783
#
# Stress axis : x y z
#
# Youngs Moduli (GPa) = 53.79195 77.64020 90.33955
#
# Poissons Ratio (x) = 0.32891 0.53489
# Poissons Ratio (y) = 0.22788 0.11505
# Poissons Ratio (z) = 0.31849 0.09888
#
# Static dielectric constant tensor:
#      x y z
#    x 3.382620 -0.274420 0.123690 
#    y -0.274420 3.977140 0.215340 
#    z 0.123690 0.215340 3.953840 
# 
# 
# High freq. dielectric constant tensor:
#      x y z
#    x 1.765180 -0.028320 0.005540 
#    y -0.028320 1.819610 0.014640 
#    z 0.005540 0.014640 1.830970 
# 
# From -- ./inp_files/455197.got.cif
#   From: 2010.06.25/outbox.cif.g09.slc.cpg/sg2_228_cif.got.tgz:455197.got - 2010.06.27 13:26:56.
