data_PCOD8010068
_publ_section_title
;
Structure prediction by ZEFSAII (Michael W. Deem and Ramdas Pophale) SiO2 
 PCOD8010068
Probable space group: P -1
;
_chemical_formula_sum "Si O2"
_cell_formula_units_Z 14
_cell_length_a 7.654899
_cell_length_b 6.739533
_cell_length_c 21.323520
_cell_angle_alpha 124.572212
_cell_angle_beta 136.036402
_cell_angle_gamma 42.007296
_cell_volume 509.816256
_symmetry_space_group_name_H-M "P -1"
_symmetry_group_IT_number 2
_symmetry_cell_setting 'triclinic'
loop_
_space_group_symop_operation_xyz
x,y,z
-x,-y,-z
loop_
_atom_site_type_symbol
_atom_site_label
_atom_site_fract_x
_atom_site_fract_y
_atom_site_fract_z
Si Si1 0.369826 0.003897 0.209444
Si Si2 0.710545 0.802533 0.576677
Si Si3 0.390878 0.430361 0.635923
Si Si4 0.339424 0.794200 0.580312
Si Si5 0.201718 0.619499 0.174679
Si Si6 0.568291 0.134277 0.097147
Si Si7 0.309300 0.500759 0.890613
O O1 0.272440 0.819648 0.188779
O O2 0.548273 0.826993 0.159498
O O3 0.590280 0.045689 0.319234
O O4 0.062508 0.320971 0.161212
O O5 0.591186 0.652383 0.563269
O O6 0.060002 0.552025 0.602333
O O7 0.500000 0.000000 0.500000
O O8 0.644885 0.077377 0.651499
O O9 0.352879 0.521632 0.568671
O O10 0.541384 0.565893 0.737340
O O11 0.000000 0.000000 0.500000
O O12 0.263210 0.348155 0.098951
O O13 0.852851 0.829796 0.150332
O O14 0.683361 0.322375 0.134382
O O15 0.500000 0.000000 0.000000
O O16 0.500000 0.500000 0.000000
#
# Coordination Sequence:
#
# PCOD8010068 Si02
#       7
#     2   2   2   2   2   2   2
#     4  10  23  42  67  99 142 190 235 302 363 435
#     4  12  27  49  74 103 151 189 246 320 367 427
#     4  12  27  47  75 106 141 199 247 304 379 431
#     4  12  28  49  76 114 150 200 262 303 366 455
#     4  10  21  41  65  93 139 185 232 295 370 423
#     4  10  21  37  64  97 132 180 232 292 361 443
#     4  10  22  41  67  98 137 186 232 296 376 427
#
# _framework density 27.460875999999999
#
# number of rings (size 3 to 8) (size 9 to 14) (size 15 to 20)
#    0.000    1.143    2.857    2.143    4.000    5.143 
#    0.000    0.000    0.000    0.000    0.000    0.000 
#    0.000    0.000    0.000    0.000    0.000    0.000 
#
# Total GULP energy -173466.936426 kJ/mol
# GULP energy per Si atom -12390.495459 kJ/mol
# Density = 2.739837 g / cm^3
# Si number density = 27.460876 Si / 1000 Ang^3
#
#
#
# Elastic Constant Matrix: (Units=GPa)
#
#
# Indices 1 2 3 4 5 6 
#
# 1 122.6913 59.7526 21.8676 -7.9358 -10.3675 -32.2501
# 2 59.7526 162.8120 46.4606 -11.1847 -2.9876 -18.4843
# 3 21.8676 46.4606 160.6103 -20.1384 -2.1168 -19.6276
# 4 -7.9358 -11.1847 -20.1384 39.4990 3.1206 -2.6943
# 5 -10.3675 -2.9876 -2.1168 3.1206 37.0174 -3.0983
# 6 -32.2501 -18.4843 -19.6276 -2.6943 -3.0983 47.1903
#
#
#
# Elastic Compliance Matrix: (Units=1/GPa)
#
#
# Indices 1 2 3 4 5 6 
#
# 1 0.012208 -0.003593 0.000592 0.001964 0.003628 0.007532
# 2 -0.003593 0.007992 -0.001749 0.000687 -0.000523 -0.000047
# 3 0.000592 -0.001749 0.007485 0.003617 0.000404 0.003066
# 4 0.001964 0.000687 0.003617 0.028160 -0.001173 0.004647
# 5 0.003628 -0.000523 0.000404 -0.001173 0.028465 0.004245
# 6 0.007532 -0.000047 0.003066 0.004647 0.004245 0.028139
#
#
# Mechanical properties :
#
#
# Convention : Reuss Voigt Hill
#
# Bulk Modulus (GPa) = 54.99001 78.03057 66.51029
# Shear Modulus (GPa) = 39.05882 45.94355 42.50118
#
# Velocity S-wave (km/s) = 3.77549 4.09474 3.93835
# Velocity P-wave (km/s) = 6.25093 7.12970 6.70473
#
# Compressibility (1/GPa) = 0.01818512
#
# Stress axis : x y z
#
# Youngs Moduli (GPa) = 81.91133 125.12554 133.59741
#
# Poissons Ratio (x) = 0.44953 -0.07905
# Poissons Ratio (y) = 0.29428 0.23369
# Poissons Ratio (z) = -0.04847 0.21887
#
# Static dielectric constant tensor:
#      x y z
#    x 6.497330 1.082660 0.689020 
#    y 1.082660 9.717220 1.506850 
#    z 0.689020 1.506850 5.887440 
# 
# 
# High freq. dielectric constant tensor:
#      x y z
#    x 2.125520 0.011060 -0.011280 
#    y 0.011060 2.130030 0.014380 
#    z -0.011280 0.014380 2.117100 
# 
# From -- ./inp_files/606820.got.cif
#   From: 2010.06.25/outbox.cif.g09.slc.cpg/sg2_304_cif.got.tgz:606820.got - 2010.06.27 13:26:56.
