data_PCOD8010802
_publ_section_title
;
Structure prediction by ZEFSAII (Michael W. Deem and Ramdas Pophale) SiO2 
 PCOD8010802
Probable space group: P -1
;
_chemical_formula_sum "Si O2"
_cell_formula_units_Z 14
_cell_length_a 9.226653
_cell_length_b 6.590181
_cell_length_c 10.506827
_cell_angle_alpha 104.006924
_cell_angle_beta 86.114236
_cell_angle_gamma 92.901666
_cell_volume 618.063503
_symmetry_space_group_name_H-M "P -1"
_symmetry_group_IT_number 2
_symmetry_cell_setting 'triclinic'
loop_
_space_group_symop_operation_xyz
x,y,z
-x,-y,-z
loop_
_atom_site_type_symbol
_atom_site_label
_atom_site_fract_x
_atom_site_fract_y
_atom_site_fract_z
Si Si1 0.266716 0.219673 0.223734
Si Si2 0.871105 0.135005 0.970867
Si Si3 0.219456 0.566559 0.758059
Si Si4 0.535432 0.226213 0.367716
Si Si5 0.842484 0.005186 0.564740
Si Si6 0.608234 0.802587 0.374664
Si Si7 0.093114 0.601874 0.234311
O O1 0.430784 0.288119 0.265924
O O2 0.196365 0.408215 0.180131
O O3 0.256247 0.019072 0.100392
O O4 0.174695 0.166616 0.348561
O O5 0.939317 0.288149 0.881903
O O6 0.793839 0.280507 0.099087
O O7 0.000000 0.000000 0.000000
O O8 0.299407 0.694516 0.657966
O O9 0.322176 0.368268 0.748094
O O10 0.061575 0.478833 0.709641
O O11 0.484229 0.311992 0.522752
O O12 0.514913 0.969859 0.329021
O O13 0.821006 0.239012 0.653222
O O14 0.730868 0.956832 0.452258
O O15 0.000000 0.000000 0.500000
#
# Coordination Sequence:
#
# PCOD8010802 Si02
#       7
#     2   2   2   2   2   2   2
#     4  10  24  44  63  93 137 170 212 274 320 380
#     4  11  25  43  69  98 129 167 220 277 326 379
#     4  12  24  38  72  97 124 175 217 263 327 390
#     4  10  25  44  64  94 135 178 211 264 324 391
#     4  10  21  38  63  97 127 169 218 267 322 377
#     4  10  23  44  66  94 138 169 219 266 317 388
#     4  11  24  41  67  98 130 166 219 276 325 380
#
# _framework density 22.651395999999998
#
# number of rings (size 3 to 8) (size 9 to 14) (size 15 to 20)
#    0.000    1.429    2.857    0.857    4.000    8.000 
#    0.000    1.429    0.000    0.000    0.000    0.000 
#    0.000    0.000    0.000    0.000    0.000    0.000 
#
# Total GULP energy -173554.537235 kJ/mol
# GULP energy per Si atom -12396.752660 kJ/mol
# Density = 2.259984 g / cm^3
# Si number density = 22.651396 Si / 1000 Ang^3
#
#
#
# Elastic Constant Matrix: (Units=GPa)
#
#
# Indices 1 2 3 4 5 6 
#
# 1 90.3463 42.4310 40.5023 -11.1494 -12.7226 5.7644
# 2 42.4310 112.2914 39.6702 1.5112 -5.7120 -9.7934
# 3 40.5023 39.6702 96.8964 19.7424 -13.3688 -2.9882
# 4 -11.1494 1.5112 19.7424 38.8479 -7.1571 -8.0906
# 5 -12.7226 -5.7120 -13.3688 -7.1571 32.5786 -0.9970
# 6 5.7644 -9.7934 -2.9882 -8.0906 -0.9970 47.6398
#
#
#
# Elastic Compliance Matrix: (Units=1/GPa)
#
#
# Indices 1 2 3 4 5 6 
#
# 1 0.018492 -0.004456 -0.007183 0.009780 0.005585 -0.001826
# 2 -0.004456 0.011878 -0.003074 0.000265 -0.000775 0.002817
# 3 -0.007183 -0.003074 0.016857 -0.010363 0.001283 -0.000439
# 4 0.009780 0.000265 -0.010363 0.036165 0.007696 0.004524
# 5 0.005585 -0.000775 0.001283 0.007696 0.034997 0.001285
# 6 -0.001826 0.002817 -0.000439 0.004524 0.001285 0.022559
#
#
# Mechanical properties :
#
#
# Convention : Reuss Voigt Hill
#
# Bulk Modulus (GPa) = 56.18530 60.52681 58.35606
# Shear Modulus (GPa) = 28.35962 35.60863 31.98413
#
# Velocity S-wave (km/s) = 3.54220 3.96918 3.76176
# Velocity P-wave (km/s) = 6.44886 6.91266 6.68479
#
# Compressibility (1/GPa) = 0.01779825
#
# Stress axis : x y z
#
# Youngs Moduli (GPa) = 54.07851 84.18837 59.32427
#
# Poissons Ratio (x) = 0.37518 0.42614
# Poissons Ratio (y) = 0.24100 0.18238
# Poissons Ratio (z) = 0.38846 0.25882
#
# Static dielectric constant tensor:
#      x y z
#    x 3.469430 0.374150 -0.269690 
#    y 0.374150 4.389790 0.283400 
#    z -0.269690 0.283400 3.868950 
# 
# 
# High freq. dielectric constant tensor:
#      x y z
#    x 1.889430 0.007870 -0.003320 
#    y 0.007870 1.914580 0.011920 
#    z -0.003320 0.011920 1.869860 
# 
# From -- ./inp_files/52740.got.cif
#   From: 2010.06.25/outbox.cif.g09.slc.cpg/sg2_27_cif.got.tgz:52740.got - 2010.06.27 13:26:56.
