data_PCOD8010250
_publ_section_title
;
Structure prediction by ZEFSAII (Michael W. Deem and Ramdas Pophale) SiO2 
 PCOD8010250
Probable space group: P -1
;
_chemical_formula_sum "Si O2"
_cell_formula_units_Z 16
_cell_length_a 16.597081
_cell_length_b 5.196837
_cell_length_c 12.438572
_cell_angle_alpha 100.876347
_cell_angle_beta 92.249626
_cell_angle_gamma 129.069887
_cell_volume 800.181576
_symmetry_space_group_name_H-M "P -1"
_symmetry_group_IT_number 2
_symmetry_cell_setting 'triclinic'
loop_
_space_group_symop_operation_xyz
x,y,z
-x,-y,-z
loop_
_atom_site_type_symbol
_atom_site_label
_atom_site_fract_x
_atom_site_fract_y
_atom_site_fract_z
Si Si1 0.064612 0.810020 0.112221
Si Si2 0.147889 0.458552 0.843389
Si Si3 0.253864 0.149417 0.790799
Si Si4 0.567770 0.385339 0.993423
Si Si5 0.581545 0.517352 0.359683
Si Si6 0.191207 0.588184 0.103393
Si Si7 0.426028 0.624193 0.421166
Si Si8 0.612019 0.223019 0.772485
O O1 0.141400 0.751328 0.163920
O O2 0.978982 0.759692 0.183508
O O3 0.127792 0.185364 0.092645
O O4 0.000000 0.500000 0.000000
O O5 0.169922 0.210278 0.783946
O O6 0.196925 0.757356 0.782241
O O7 0.198683 0.622285 0.976866
O O8 0.316275 0.237082 0.690037
O O9 0.331232 0.382898 0.909064
O O10 0.608452 0.440564 0.878702
O O11 0.500000 0.500000 0.000000
O O12 0.500000 0.000000 0.000000
O O13 0.499955 0.583442 0.355205
O O14 0.628448 0.606039 0.492038
O O15 0.509320 0.125028 0.282181
O O16 0.306823 0.826133 0.184281
O O17 0.344625 0.569385 0.323358
O O18 0.500000 0.000000 0.500000
#
# Coordination Sequence:
#
# PCOD8010250 Si02
#       8
#     2   2   2   2   2   2   2   2
#     4  10  21  38  57  78 118 157 200 243 286 338
#     4  11  22  37  55  84 116 157 196 237 285 349
#     4  12  23  35  58  85 121 160 195 227 290 353
#     4  12  24  35  50  79 127 166 186 225 283 348
#     4  10  22  39  58  85 119 156 200 245 288 342
#     4  11  22  36  58  85 116 160 196 239 290 343
#     4   9  21  40  60  78 116 154 204 249 285 333
#     4  11  23  35  58  85 121 155 199 241 289 346
#
# _framework density 19.995460999999999
#
# number of rings (size 3 to 8) (size 9 to 14) (size 15 to 20)
#    0.000    1.250    2.500    5.250    5.250    0.000 
#    0.000    0.000    0.000    0.000    0.000    5.250 
#    0.000    0.000    0.000    0.000    0.000    0.000 
#
# Total GULP energy -198257.883984 kJ/mol
# GULP energy per Si atom -12391.117749 kJ/mol
# Density = 1.994995 g / cm^3
# Si number density = 19.995461 Si / 1000 Ang^3
#
#
#
# Elastic Constant Matrix: (Units=GPa)
#
#
# Indices 1 2 3 4 5 6 
#
# 1 145.0919 29.9492 57.9712 -21.7510 -4.2537 -9.5598
# 2 29.9492 78.2265 18.6986 -28.0787 -2.5898 -12.2981
# 3 57.9712 18.6986 112.4182 -27.0330 -2.0285 3.6000
# 4 -21.7510 -28.0787 -27.0330 25.5297 -2.1983 -3.6687
# 5 -4.2537 -2.5898 -2.0285 -2.1983 28.7164 -2.1747
# 6 -9.5598 -12.2981 3.6000 -3.6687 -2.1747 34.9715
#
#
#
# Elastic Compliance Matrix: (Units=1/GPa)
#
#
# Indices 1 2 3 4 5 6 
#
# 1 0.009423 -0.000877 -0.003954 0.003460 0.001540 0.003133
# 2 -0.000877 0.027494 0.004367 0.036572 0.006459 0.013218
# 3 -0.003954 0.004367 0.014274 0.016864 0.002175 0.000890
# 4 0.003460 0.036572 0.016864 0.104925 0.014852 0.024001
# 5 0.001540 0.006459 0.002175 0.014852 0.037406 0.006352
# 6 0.003133 0.013218 0.000890 0.024001 0.006352 0.036921
#
#
# Mechanical properties :
#
#
# Convention : Reuss Voigt Hill
#
# Bulk Modulus (GPa) = 19.89553 60.99717 40.44635
# Shear Modulus (GPa) = 20.15104 33.11802 26.63453
#
# Velocity S-wave (km/s) = 3.17800 4.07415 3.65366
# Velocity P-wave (km/s) = 4.84127 7.25971 6.17014
#
# Compressibility (1/GPa) = 0.05026254
#
# Stress axis : x y z
#
# Youngs Moduli (GPa) = 106.11973 36.37118 70.05776
#
# Poissons Ratio (x) = 0.03191 0.27701
# Poissons Ratio (y) = 0.09309 -0.30593
# Poissons Ratio (z) = 0.41960 -0.15883
#
# Static dielectric constant tensor:
#      x y z
#    x 4.234990 -0.327680 0.078770 
#    y -0.327680 4.593500 0.015640 
#    z 0.078770 0.015640 4.284420 
# 
# 
# High freq. dielectric constant tensor:
#      x y z
#    x 1.795120 -0.022820 -0.005610 
#    y -0.022820 1.769840 -0.016120 
#    z -0.005610 -0.016120 1.754450 
# 
# From -- ./inp_files/127449.got.cif
#   From: 2010.06.25/outbox.cif.g09.slc.cpg/sg2_64_cif.got.tgz:127449.got - 2010.06.27 13:26:56.
