data_PCOD8010273
_publ_section_title
;
Structure prediction by ZEFSAII (Michael W. Deem and Ramdas Pophale) SiO2 
 PCOD8010273
Probable space group: P -1
;
_chemical_formula_sum "Si O2"
_cell_formula_units_Z 14
_cell_length_a 26.002733
_cell_length_b 11.548060
_cell_length_c 23.843248
_cell_angle_alpha 31.797793
_cell_angle_beta 10.670843
_cell_angle_gamma 30.003720
_cell_volume 662.893759
_symmetry_space_group_name_H-M "P -1"
_symmetry_group_IT_number 2
_symmetry_cell_setting 'triclinic'
loop_
_space_group_symop_operation_xyz
x,y,z
-x,-y,-z
loop_
_atom_site_type_symbol
_atom_site_label
_atom_site_fract_x
_atom_site_fract_y
_atom_site_fract_z
Si Si1 0.475295 0.164041 0.298053
Si Si2 0.584433 0.736475 0.000189
Si Si3 0.919979 0.817386 0.380669
Si Si4 0.523629 0.741998 0.356255
Si Si5 0.915710 0.476972 0.363378
Si Si6 0.267609 0.100584 0.334980
Si Si7 0.876246 0.790137 0.855432
O O1 0.280405 0.253395 0.526090
O O2 0.278214 0.286031 0.404732
O O3 0.573039 0.885018 0.299922
O O4 0.752973 0.256564 0.963897
O O5 0.793929 0.578960 0.887176
O O6 0.748731 0.713069 0.773413
O O7 0.284465 0.676978 0.339341
O O8 0.500000 0.000000 0.000000
O O9 0.776472 0.101431 0.416284
O O10 0.910876 0.748126 0.483926
O O11 0.500000 0.500000 0.500000
O O12 0.791576 0.703862 0.041256
O O13 0.002984 0.433800 0.222398
O O14 0.131603 0.903186 0.543086
O O15 0.605119 0.979391 0.039084
#
# Coordination Sequence:
#
# PCOD8010273 Si02
#       7
#     2   2   2   2   2   2   2
#     4  10  21  38  58  81 123 152 177 236 298 343
#     4  12  22  35  59  84 118 152 208 230 260 349
#     4   9  19  38  59  79 117 148 186 233 293 330
#     4   9  21  39  66  87 105 149 198 233 278 352
#     4  12  23  37  56  89 118 157 183 237 298 319
#     4  11  19  36  57  84 108 152 198 242 262 321
#     4  11  20  36  60  83 117 145 192 236 287 332
#
# _framework density 21.119523000000001
#
# number of rings (size 3 to 8) (size 9 to 14) (size 15 to 20)
#    0.857    0.571    4.286    2.143    0.000    0.571 
#    0.000    5.000    0.000    0.857    0.000    0.000 
#    0.000    0.000    0.000    0.000    0.000    0.000 
#
# Total GULP energy -173503.363540 kJ/mol
# GULP energy per Si atom -12393.097396 kJ/mol
# Density = 2.107145 g / cm^3
# Si number density = 21.119523 Si / 1000 Ang^3
#
#
#
# Elastic Constant Matrix: (Units=GPa)
#
#
# Indices 1 2 3 4 5 6 
#
# 1 49.1601 13.5053 16.2408 1.1179 -3.2513 13.1943
# 2 13.5053 56.1753 19.6403 5.3063 16.9645 13.9865
# 3 16.2408 19.6403 83.2724 6.7757 -8.0076 1.5700
# 4 1.1179 5.3063 6.7757 37.7584 8.8231 10.4404
# 5 -3.2513 16.9645 -8.0076 8.8231 41.0034 4.1094
# 6 13.1943 13.9865 1.5700 10.4404 4.1094 28.1141
#
#
#
# Elastic Compliance Matrix: (Units=1/GPa)
#
#
# Indices 1 2 3 4 5 6 
#
# 1 0.025856 -0.003033 -0.004049 0.002974 0.003073 -0.011953
# 2 -0.003033 0.027278 -0.007129 0.003580 -0.012562 -0.011242
# 3 -0.004049 -0.007129 0.015330 -0.004535 0.006058 0.005389
# 4 0.002974 0.003580 -0.004535 0.032323 -0.007703 -0.013801
# 5 0.003073 -0.012562 0.006058 -0.007703 0.032410 0.002592
# 6 -0.011953 -0.011242 0.005389 -0.013801 0.002592 0.051217
#
#
# Mechanical properties :
#
#
# Convention : Reuss Voigt Hill
#
# Bulk Modulus (GPa) = 24.97425 31.93118 28.45272
# Shear Modulus (GPa) = 22.10593 30.65659 26.38126
#
# Velocity S-wave (km/s) = 3.23879 3.81409 3.53815
# Velocity P-wave (km/s) = 5.08303 5.87779 5.49480
#
# Compressibility (1/GPa) = 0.04004124
#
# Stress axis : x y z
#
# Youngs Moduli (GPa) = 38.67526 36.65984 65.23224
#
# Poissons Ratio (x) = 0.11121 0.26410
# Poissons Ratio (y) = 0.11732 0.46506
# Poissons Ratio (z) = 0.15658 0.26136
#
# Static dielectric constant tensor:
#      x y z
#    x 3.922610 0.438550 0.007380 
#    y 0.438550 3.586650 0.288290 
#    z 0.007380 0.288290 3.833300 
# 
# 
# High freq. dielectric constant tensor:
#      x y z
#    x 1.815590 0.042690 -0.012640 
#    y 0.042690 1.799750 0.024440 
#    z -0.012640 0.024440 1.834930 
# 
# From -- ./inp_files/55823.got.cif
#   From: 2010.06.25/outbox.cif.g09.slc.cpg/sg2_28_cif.got.tgz:55823.got - 2010.06.27 13:26:56.
