data_PCOD8010223
_publ_section_title
;
Structure prediction by ZEFSAII (Michael W. Deem and Ramdas Pophale) SiO2 
 PCOD8010223
Probable space group: P -1
;
_chemical_formula_sum "Si O2"
_cell_formula_units_Z 16
_cell_length_a 11.899001
_cell_length_b 12.925168
_cell_length_c 8.966595
_cell_angle_alpha 101.525588
_cell_angle_beta 130.637149
_cell_angle_gamma 50.958282
_cell_volume 759.223393
_symmetry_space_group_name_H-M "P -1"
_symmetry_group_IT_number 2
_symmetry_cell_setting 'triclinic'
loop_
_space_group_symop_operation_xyz
x,y,z
-x,-y,-z
loop_
_atom_site_type_symbol
_atom_site_label
_atom_site_fract_x
_atom_site_fract_y
_atom_site_fract_z
Si Si1 0.603266 0.459110 0.796200
Si Si2 0.674925 0.593939 0.489854
Si Si3 0.897485 0.025616 0.573920
Si Si4 0.118751 0.313410 0.843131
Si Si5 0.167418 0.333424 0.567557
Si Si6 0.541211 0.719235 0.722364
Si Si7 0.983135 0.229217 0.212513
Si Si8 0.046667 0.790295 0.146539
O O1 0.408518 0.479630 0.654486
O O2 0.534979 0.612406 0.776068
O O3 0.269403 0.631063 0.271412
O O4 0.747502 0.371758 0.038592
O O5 0.650398 0.690086 0.360213
O O6 0.544623 0.699504 0.543169
O O7 0.907476 0.475072 0.701583
O O8 0.661386 0.120872 0.369610
O O9 0.932804 0.102293 0.743747
O O10 0.993488 0.874137 0.678112
O O11 0.000000 0.000000 0.500000
O O12 0.221368 0.255195 0.751270
O O13 0.085769 0.213015 0.852925
O O14 0.264731 0.307719 0.074233
O O15 0.101610 0.275292 0.379006
O O16 0.000000 0.500000 0.500000
O O17 0.061326 0.156395 0.094189
#
# Coordination Sequence:
#
# PCOD8010223 Si02
#       8
#     2   2   2   2   2   2   2   2
#     4  10  21  37  73  98 122 163 234 275 320 374
#     4  11  19  37  63  98 132 165 218 276 322 392
#     4  12  26  44  66  96 141 176 214 275 335 392
#     4  11  22  37  63  98 137 166 211 280 330 377
#     4  10  22  38  61  94 136 171 207 271 336 376
#     4  12  22  41  66 102 126 178 227 263 328 398
#     4  10  22  44  65  94 129 176 222 262 328 395
#     4  10  21  42  70  95 128 173 226 268 322 393
#
# _framework density 21.074168
#
# number of rings (size 3 to 8) (size 9 to 14) (size 15 to 20)
#    0.750    0.500    2.500    4.875    0.000    2.000 
#    0.000   10.000    0.000    0.000    0.000    0.000 
#    0.000    0.000    0.000    0.000    0.000    0.000 
#
# Total GULP energy -198375.207025 kJ/mol
# GULP energy per Si atom -12398.450439 kJ/mol
# Density = 2.102620 g / cm^3
# Si number density = 21.074168 Si / 1000 Ang^3
#
#
#
# Elastic Constant Matrix: (Units=GPa)
#
#
# Indices 1 2 3 4 5 6 
#
# 1 146.9748 21.6016 48.6288 -11.5109 -3.9408 19.0566
# 2 21.6016 50.7146 16.3546 2.9261 -4.5589 5.4023
# 3 48.6288 16.3546 62.2391 4.1218 -1.5676 8.9229
# 4 -11.5109 2.9261 4.1218 30.8503 10.5326 6.8965
# 5 -3.9408 -4.5589 -1.5676 10.5326 39.6498 2.8899
# 6 19.0566 5.4023 8.9229 6.8965 2.8899 31.0397
#
#
#
# Elastic Compliance Matrix: (Units=1/GPa)
#
#
# Indices 1 2 3 4 5 6 
#
# 1 0.010854 -0.002044 -0.007619 0.006795 -0.000858 -0.005547
# 2 -0.002044 0.022415 -0.003840 -0.003201 0.003155 -0.001125
# 3 -0.007619 -0.003840 0.023490 -0.006034 0.001347 -0.000191
# 4 0.006795 -0.003201 -0.006034 0.041863 -0.010307 -0.010221
# 5 -0.000858 0.003155 0.001347 -0.010307 0.028345 -0.000758
# 6 -0.005547 -0.001125 -0.000191 -0.010221 -0.000758 0.038215
#
#
# Mechanical properties :
#
#
# Convention : Reuss Voigt Hill
#
# Bulk Modulus (GPa) = 33.61141 48.12204 40.86672
# Shear Modulus (GPa) = 24.73934 31.86420 28.30177
#
# Velocity S-wave (km/s) = 3.42997 3.89267 3.66862
# Velocity P-wave (km/s) = 5.62761 6.56414 6.11383
#
# Compressibility (1/GPa) = 0.02975180
#
# Stress axis : x y z
#
# Youngs Moduli (GPa) = 92.13436 44.61220 42.57077
#
# Poissons Ratio (x) = 0.09120 0.32436
# Poissons Ratio (y) = 0.18834 0.16348
# Poissons Ratio (z) = 0.70201 0.17132
#
# Static dielectric constant tensor:
#      x y z
#    x 4.281540 0.078790 -0.173780 
#    y 0.078790 3.559140 0.107380 
#    z -0.173780 0.107380 3.775910 
# 
# 
# High freq. dielectric constant tensor:
#      x y z
#    x 1.841510 0.012380 -0.003830 
#    y 0.012380 1.797500 0.017540 
#    z -0.003830 0.017540 1.820060 
# 
# From -- ./inp_files/273500.got.cif
#   From: 2010.06.25/outbox.cif.g09.slc.cpg/sg2_137_cif.got.tgz:273500.got - 2010.06.27 13:26:56.
