data_PCOD8010369
_publ_section_title
;
Structure prediction by ZEFSAII (Michael W. Deem and Ramdas Pophale) SiO2 
 PCOD8010369
Probable space group: P -1
;
_chemical_formula_sum "Si O2"
_cell_formula_units_Z 16
_cell_length_a 23.387856
_cell_length_b 4.998135
_cell_length_c 10.629469
_cell_angle_alpha 98.938016
_cell_angle_beta 144.158731
_cell_angle_gamma 80.800049
_cell_volume 717.485689
_symmetry_space_group_name_H-M "P -1"
_symmetry_group_IT_number 2
_symmetry_cell_setting 'triclinic'
loop_
_space_group_symop_operation_xyz
x,y,z
-x,-y,-z
loop_
_atom_site_type_symbol
_atom_site_label
_atom_site_fract_x
_atom_site_fract_y
_atom_site_fract_z
Si Si1 0.620940 0.902165 0.564743
Si Si2 0.560064 0.729342 0.694374
Si Si3 0.748590 0.157789 0.386341
Si Si4 0.912883 0.295525 0.082393
Si Si5 0.714549 0.344381 0.610993
Si Si6 0.959325 0.206433 0.689070
Si Si7 0.902592 0.357711 0.345870
Si Si8 0.717734 0.597047 0.167806
O O1 0.633741 0.855760 0.734247
O O2 0.510350 0.027191 0.355355
O O3 0.643022 0.614208 0.513922
O O4 0.693405 0.119793 0.660959
O O5 0.500000 0.500000 0.500000
O O6 0.623434 0.608512 0.912198
O O7 0.699009 0.227309 0.436516
O O8 0.863389 0.216129 0.605569
O O9 0.698670 0.341075 0.201931
O O10 0.727946 0.850760 0.295876
O O11 0.827689 0.399200 0.842677
O O12 0.999277 0.498183 0.232146
O O13 0.868591 0.257382 0.141505
O O14 0.961478 0.997719 0.117757
O O15 0.927231 0.125704 0.481242
O O16 0.816880 0.562830 0.261500
O O17 0.000000 0.500000 0.500000
#
# Coordination Sequence:
#
# PCOD8010369 Si02
#       8
#     2   2   2   2   2   2   2   2
#     4  11  25  43  72  99 134 163 209 288 345 389
#     4  11  25  47  76 104 135 162 216 288 349 415
#     4  11  25  44  64  92 140 183 231 268 316 399
#     4  11  22  36  63  95 129 177 225 274 342 379
#     4  12  25  44  65  98 136 181 228 276 319 397
#     4  10  21  38  59  92 134 177 222 277 324 393
#     4   9  19  36  60  94 131 160 212 274 330 390
#     4  11  25  42  69  98 130 184 222 267 349 398
#
# _framework density 22.300097000000001
#
# number of rings (size 3 to 8) (size 9 to 14) (size 15 to 20)
#    0.000    1.250    1.250    4.875    3.500    6.000 
#    0.000    3.750    0.000    0.000    0.000    0.000 
#    0.000    0.000    0.000    0.000    0.000    0.000 
#
# Total GULP energy -198323.035024 kJ/mol
# GULP energy per Si atom -12395.189689 kJ/mol
# Density = 2.224934 g / cm^3
# Si number density = 22.300097 Si / 1000 Ang^3
#
#
#
# Elastic Constant Matrix: (Units=GPa)
#
#
# Indices 1 2 3 4 5 6 
#
# 1 83.2002 30.9726 32.7951 -3.8088 4.0745 -15.0829
# 2 30.9726 106.2627 14.8653 -11.3358 6.9862 -16.1853
# 3 32.7951 14.8653 87.5222 -16.7521 4.7608 -18.2327
# 4 -3.8088 -11.3358 -16.7521 33.6047 -1.6255 6.6108
# 5 4.0745 6.9862 4.7608 -1.6255 13.6159 0.1570
# 6 -15.0829 -16.1853 -18.2327 6.6108 0.1570 36.6553
#
#
#
# Elastic Compliance Matrix: (Units=1/GPa)
#
#
# Indices 1 2 3 4 5 6 
#
# 1 0.015881 -0.003664 -0.005167 -0.002636 -0.001413 0.002828
# 2 -0.003664 0.011522 0.001000 0.003037 -0.004843 0.003551
# 3 -0.005167 0.001000 0.015654 0.006398 -0.003734 0.004964
# 4 -0.002636 0.003037 0.006398 0.034267 0.001116 -0.002746
# 5 -0.001413 -0.004843 -0.003734 0.001116 0.077849 -0.005112
# 6 0.002828 0.003551 0.004964 -0.002746 -0.005112 0.032999
#
#
# Mechanical properties :
#
#
# Convention : Reuss Voigt Hill
#
# Bulk Modulus (GPa) = 36.50175 48.25014 42.37595
# Shear Modulus (GPa) = 23.47813 29.99866 26.73840
#
# Velocity S-wave (km/s) = 3.24825 3.67171 3.46645
# Velocity P-wave (km/s) = 5.52016 6.29754 5.92162
#
# Compressibility (1/GPa) = 0.02739595
#
# Stress axis : x y z
#
# Youngs Moduli (GPa) = 62.96842 86.79226 63.88269
#
# Poissons Ratio (x) = 0.31797 0.33008
# Poissons Ratio (y) = 0.23069 -0.06390
# Poissons Ratio (z) = 0.32536 -0.08682
#
# Static dielectric constant tensor:
#      x y z
#    x 4.240800 -0.020780 -0.162390 
#    y -0.020780 4.068070 -0.186560 
#    z -0.162390 -0.186560 3.850030 
# 
# 
# High freq. dielectric constant tensor:
#      x y z
#    x 1.882270 0.000260 0.000750 
#    y 0.000260 1.886180 -0.016640 
#    z 0.000750 -0.016640 1.856020 
# 
# From -- ./inp_files/339435.got.cif
#   From: 2010.06.25/outbox.cif.g09.slc.cpg/sg2_170_cif.got.tgz:339435.got - 2010.06.27 13:26:56.
