data_PCOD8010127
_publ_section_title
;
Structure prediction by ZEFSAII (Michael W. Deem and Ramdas Pophale) SiO2 
 PCOD8010127
Probable space group: P -1
;
_chemical_formula_sum "Si O2"
_cell_formula_units_Z 12
_cell_length_a 16.597459
_cell_length_b 13.534063
_cell_length_c 11.436449
_cell_angle_alpha 34.673385
_cell_angle_beta 32.955392
_cell_angle_gamma 26.048774
_cell_volume 587.879095
_symmetry_space_group_name_H-M "P -1"
_symmetry_group_IT_number 2
_symmetry_cell_setting 'triclinic'
loop_
_space_group_symop_operation_xyz
x,y,z
-x,-y,-z
loop_
_atom_site_type_symbol
_atom_site_label
_atom_site_fract_x
_atom_site_fract_y
_atom_site_fract_z
Si Si1 0.689579 0.595051 0.994631
Si Si2 0.262552 0.954521 0.281294
Si Si3 0.389801 0.674181 0.799906
Si Si4 0.038242 0.805724 0.778508
Si Si5 0.806145 0.243276 0.802627
Si Si6 0.206061 0.118088 0.444618
O O1 0.753856 0.715666 0.726023
O O2 0.475245 0.794885 0.117293
O O3 0.690032 0.432651 0.064928
O O4 0.853325 0.436241 0.051396
O O5 0.210542 0.795597 0.528007
O O6 0.263378 0.066725 0.288162
O O7 0.094563 0.165922 0.192811
O O8 0.626696 0.479158 0.723138
O O9 0.350271 0.875813 0.575821
O O10 0.270751 0.785188 0.957858
O O11 0.893382 0.023316 0.830485
O O12 0.974785 0.252678 0.616902
#
# Coordination Sequence:
#
# PCOD8010127 Si02
#       6
#     2   2   2   2   2   2
#     4  12  23  38  64  94 120 159 198 249 302 351
#     4  10  21  39  59  92 123 156 200 242 300 358
#     4  11  23  43  65  84 124 160 202 250 292 362
#     4  10  21  37  66  88 119 162 199 243 299 360
#     4  10  22  44  62  88 120 163 200 246 304 347
#     4  11  25  39  63  94 120 158 201 248 299 357
#
# _framework density 20.412358999999999
#
# number of rings (size 3 to 8) (size 9 to 14) (size 15 to 20)
#    0.000    1.333    5.000    1.500    0.000    2.667 
#    0.000    1.667    0.000    0.000    0.000    0.000 
#    0.000    0.000    0.000    0.000    0.000    0.000 
#
# Total GULP energy -148850.527955 kJ/mol
# GULP energy per Si atom -12404.210663 kJ/mol
# Density = 2.036590 g / cm^3
# Si number density = 20.412359 Si / 1000 Ang^3
#
#
#
# Elastic Constant Matrix: (Units=GPa)
#
#
# Indices 1 2 3 4 5 6 
#
# 1 61.2511 28.2356 34.0063 -17.4635 14.2853 -22.8058
# 2 28.2356 48.6586 52.6629 -18.9162 -7.2757 -37.9681
# 3 34.0063 52.6629 91.0938 -17.5686 -8.9935 -10.0595
# 4 -17.4635 -18.9162 -17.5686 33.9962 4.4940 3.4267
# 5 14.2853 -7.2757 -8.9935 4.4940 15.3725 -5.1877
# 6 -22.8058 -37.9681 -10.0595 3.4267 -5.1877 24.8355
#
#
#
# Elastic Compliance Matrix: (Units=1/GPa)
#
#
# Indices 1 2 3 4 5 6 
#
# 1 0.057214 -0.014539 -0.015248 0.022592 -0.073676 0.005628
# 2 -0.014539 -0.025343 0.012677 -0.009831 -0.003854 -0.046408
# 3 -0.015248 0.012677 0.014955 0.000422 0.035111 0.018712
# 4 0.022592 -0.009831 0.000422 0.041963 -0.040490 -0.008361
# 5 -0.073676 -0.003854 0.035111 -0.040490 0.157003 -0.020943
# 6 0.005628 -0.046408 0.018712 -0.008361 -0.020943 -0.021158
#
#
# Mechanical properties :
#
#
# Convention : Reuss Voigt Hill
#
# Bulk Modulus (GPa) = 79.32850 47.86813 63.59831
# Shear Modulus (GPa) = 19.00719 20.58077 19.79398
#
# Velocity S-wave (km/s) = 3.05480 3.17874 3.11739
# Velocity P-wave (km/s) = 7.16867 6.08062 6.64695
#
# Compressibility (1/GPa) = 0.01260581
#
# Stress axis : x y z
#
# Youngs Moduli (GPa) = 17.47818 -39.45890 66.86600
#
# Poissons Ratio (x) = -0.57371 1.01960
# Poissons Ratio (y) = 0.25412 -0.84769
# Poissons Ratio (z) = 0.26651 0.50024
#
# Static dielectric constant tensor:
#      x y z
#    x 3.893320 -0.216440 0.118740 
#    y -0.216440 3.716010 0.081190 
#    z 0.118740 0.081190 3.625720 
# 
# 
# High freq. dielectric constant tensor:
#      x y z
#    x 1.800500 -0.015130 0.013150 
#    y -0.015130 1.804700 0.009650 
#    z 0.013150 0.009650 1.788370 
# 
# From -- ./inp_files/221944.got.cif
#   From: 2010.06.25/outbox.cif.g09.slc.cpg/sg2_111_cif.got.tgz:221944.got - 2010.06.27 13:26:56.
