data_PCOD8010875
_publ_section_title
;
Structure prediction by ZEFSAII (Michael W. Deem and Ramdas Pophale) SiO2 
 PCOD8010875
Probable space group: P -1
;
_chemical_formula_sum "Si O2"
_cell_formula_units_Z 16
_cell_length_a 14.524249
_cell_length_b 13.964240
_cell_length_c 11.165490
_cell_angle_alpha 103.938782
_cell_angle_beta 29.843496
_cell_angle_gamma 124.102422
_cell_volume 749.549058
_symmetry_space_group_name_H-M "P -1"
_symmetry_group_IT_number 2
_symmetry_cell_setting 'triclinic'
loop_
_space_group_symop_operation_xyz
x,y,z
-x,-y,-z
loop_
_atom_site_type_symbol
_atom_site_label
_atom_site_fract_x
_atom_site_fract_y
_atom_site_fract_z
Si Si1 0.103488 0.280433 0.199241
Si Si2 0.252750 0.442335 0.842853
Si Si3 0.262723 0.006539 0.603625
Si Si4 0.893379 0.245573 0.988372
Si Si5 0.823941 0.337426 0.674268
Si Si6 0.095045 0.963733 0.047958
Si Si7 0.944369 0.435916 0.819959
Si Si8 0.496225 0.261033 0.810918
O O1 0.998083 0.310362 0.431253
O O2 0.265667 0.400971 0.948452
O O3 0.307209 0.283303 0.032777
O O4 0.838623 0.126264 0.396981
O O5 0.500000 0.500000 0.500000
O O6 0.252903 0.561958 0.890731
O O7 0.977293 0.301368 0.046610
O O8 0.578740 0.135809 0.292766
O O9 0.141730 0.950306 0.854893
O O10 0.162756 0.065560 0.664757
O O11 0.970660 0.162300 0.842614
O O12 0.039946 0.383417 0.781319
O O13 0.779208 0.319740 0.862376
O O14 0.543609 0.238606 0.886263
O O15 0.000000 0.500000 0.500000
O O16 0.361263 0.121657 0.844370
O O17 0.210414 0.600177 0.531908
#
# Coordination Sequence:
#
# PCOD8010875 Si02
#       8
#     2   2   2   2   2   2   2   2
#     4  11  21  41  66  98 123 165 216 264 308 375
#     4  12  25  40  63  96 134 164 202 266 328 380
#     4  10  22  37  63  92 126 166 214 253 308 387
#     4  12  24  39  64  93 130 167 199 262 330 371
#     4  10  21  41  64  90 127 170 222 257 301 377
#     4  10  21  38  64  93 125 165 214 255 308 385
#     4  11  25  43  61  94 133 170 209 264 318 378
#     4  10  21  41  67  93 124 168 216 260 312 370
#
# _framework density 21.346167999999999
#
# number of rings (size 3 to 8) (size 9 to 14) (size 15 to 20)
#    0.000    1.250    3.750    3.000    1.750    2.000 
#    2.250    2.500    0.000    3.000    0.000    0.000 
#    0.000    0.000    0.000    0.000    0.000    0.000 
#
# Total GULP energy -198352.950160 kJ/mol
# GULP energy per Si atom -12397.059385 kJ/mol
# Density = 2.129758 g / cm^3
# Si number density = 21.346168 Si / 1000 Ang^3
#
#
#
# Elastic Constant Matrix: (Units=GPa)
#
#
# Indices 1 2 3 4 5 6 
#
# 1 95.0478 47.7512 27.6594 18.6737 -15.1487 -10.7621
# 2 47.7512 145.8450 42.8743 32.0025 -1.9865 -7.2813
# 3 27.6594 42.8743 74.7841 14.4783 -18.4289 6.7620
# 4 18.6737 32.0025 14.4783 27.4573 -2.0749 -1.5568
# 5 -15.1487 -1.9865 -18.4289 -2.0749 26.3353 -1.7467
# 6 -10.7621 -7.2813 6.7620 -1.5568 -1.7467 38.8702
#
#
#
# Elastic Compliance Matrix: (Units=1/GPa)
#
#
# Indices 1 2 3 4 5 6 
#
# 1 0.015118 -0.003128 -0.001341 -0.005147 0.007379 0.003959
# 2 -0.003128 0.011257 -0.005001 -0.008649 -0.005029 0.001540
# 3 -0.001341 -0.005001 0.021051 -0.003634 0.012995 -0.004532
# 4 -0.005147 -0.008649 -0.003634 0.051733 -0.002109 -0.000436
# 5 0.007379 -0.005029 0.012995 -0.002109 0.050833 0.001040
# 6 0.003959 0.001540 -0.004532 -0.000436 0.001040 0.027929
#
#
# Mechanical properties :
#
#
# Convention : Reuss Voigt Hill
#
# Bulk Modulus (GPa) = 35.10608 61.36075 48.23341
# Shear Modulus (GPa) = 24.22976 31.69202 27.96089
#
# Velocity S-wave (km/s) = 3.37276 3.85732 3.62315
# Velocity P-wave (km/s) = 5.62576 6.97471 6.33623
#
# Compressibility (1/GPa) = 0.02848509
#
# Stress axis : x y z
#
# Youngs Moduli (GPa) = 66.14482 88.83266 47.50434
#
# Poissons Ratio (x) = 0.27788 0.06373
# Poissons Ratio (y) = 0.20691 0.23757
# Poissons Ratio (z) = 0.08873 0.44425
#
# Static dielectric constant tensor:
#      x y z
#    x 4.738710 0.200410 -0.331030 
#    y 0.200410 4.059220 -0.001140 
#    z -0.331030 -0.001140 3.451160 
# 
# 
# High freq. dielectric constant tensor:
#      x y z
#    x 1.841450 -0.002600 -0.030290 
#    y -0.002600 1.855930 0.003730 
#    z -0.030290 0.003730 1.806740 
# 
# From -- ./inp_files/454821.got.cif
#   From: 2010.06.25/outbox.cif.g09.slc.cpg/sg2_228_cif.got.tgz:454821.got - 2010.06.27 13:26:56.
