data_PCOD8010362
_publ_section_title
;
Structure prediction by ZEFSAII (Michael W. Deem and Ramdas Pophale) SiO2 
 PCOD8010362
Probable space group: P -1
;
_chemical_formula_sum "Si O2"
_cell_formula_units_Z 14
_cell_length_a 14.784379
_cell_length_b 26.347500
_cell_length_c 26.072017
_cell_angle_alpha 11.207600
_cell_angle_beta 20.857678
_cell_angle_gamma 21.653161
_cell_volume 690.713957
_symmetry_space_group_name_H-M "P -1"
_symmetry_group_IT_number 2
_symmetry_cell_setting 'triclinic'
loop_
_space_group_symop_operation_xyz
x,y,z
-x,-y,-z
loop_
_atom_site_type_symbol
_atom_site_label
_atom_site_fract_x
_atom_site_fract_y
_atom_site_fract_z
Si Si1 0.308785 0.460721 0.095061
Si Si2 0.712264 0.300605 0.816229
Si Si3 0.340922 0.949773 0.521552
Si Si4 0.468369 0.626380 0.275293
Si Si5 0.223227 0.666371 0.467196
Si Si6 0.321267 0.180228 0.626158
Si Si7 0.219992 0.935241 0.302482
O O1 0.015395 0.486130 0.246380
O O2 0.410836 0.169974 0.305151
O O3 0.500000 0.500000 0.000000
O O4 0.316918 0.681011 0.829779
O O5 0.655266 0.328992 0.758607
O O6 0.582543 0.567144 0.650673
O O7 0.016467 0.242243 0.719805
O O8 0.590192 0.063342 0.140269
O O9 0.562745 0.887937 0.423425
O O10 0.068454 0.058252 0.529401
O O11 0.240330 0.734629 0.330117
O O12 0.584326 0.315853 0.529571
O O13 0.695352 0.792224 0.997327
O O14 0.500000 0.500000 0.500000
O O15 0.191140 0.921813 0.268651
#
# Coordination Sequence:
#
# PCOD8010362 Si02
#       7
#     2   2   2   2   2   2   2
#     4  11  24  39  59  95 125 153 210 250 288 373
#     4  10  22  40  61  89 116 149 212 255 289 358
#     4  11  22  42  63  82 125 165 191 239 324 353
#     4  11  21  37  62  89 119 155 205 251 290 344
#     4   9  20  38  59  86 123 165 192 239 302 361
#     4  10  22  42  62  83 118 162 195 250 315 349
#     4  10  21  38  59  89 121 160 197 239 297 374
#
# _framework density 20.268882000000001
#
# number of rings (size 3 to 8) (size 9 to 14) (size 15 to 20)
#    0.000    1.714    0.000    5.143    2.000    3.429 
#    5.143    4.286    0.000    0.000    0.000    0.000 
#    0.000    0.000    0.000    0.000    0.000    0.000 
#
# Total GULP energy -173576.943905 kJ/mol
# GULP energy per Si atom -12398.353136 kJ/mol
# Density = 2.022275 g / cm^3
# Si number density = 20.268882 Si / 1000 Ang^3
#
#
#
# Elastic Constant Matrix: (Units=GPa)
#
#
# Indices 1 2 3 4 5 6 
#
# 1 121.4559 21.5816 45.9742 0.2374 4.2425 9.7031
# 2 21.5816 55.2558 40.3601 -5.3382 -2.0866 14.7023
# 3 45.9742 40.3601 110.6865 -5.3475 -0.8753 10.1410
# 4 0.2374 -5.3382 -5.3475 19.1342 1.8167 -2.2350
# 5 4.2425 -2.0866 -0.8753 1.8167 31.5121 -3.8534
# 6 9.7031 14.7023 10.1410 -2.2350 -3.8534 24.0990
#
#
#
# Elastic Compliance Matrix: (Units=1/GPa)
#
#
# Indices 1 2 3 4 5 6 
#
# 1 0.010047 -0.000737 -0.003769 -0.001504 -0.001716 -0.002424
# 2 -0.000737 0.028657 -0.008745 0.004033 -0.000086 -0.013146
# 3 -0.003769 -0.008745 0.013751 0.001563 0.000376 0.001271
# 4 -0.001504 0.004033 0.001563 0.054318 -0.002356 0.002148
# 5 -0.001716 -0.000086 0.000376 -0.002356 0.032791 0.005610
# 6 -0.002424 -0.013146 0.001271 0.002148 0.005610 0.051053
#
#
# Mechanical properties :
#
#
# Convention : Reuss Voigt Hill
#
# Bulk Modulus (GPa) = 38.52867 55.91444 47.22155
# Shear Modulus (GPa) = 22.14652 26.91455 24.53054
#
# Velocity S-wave (km/s) = 3.30909 3.64796 3.48265
# Velocity P-wave (km/s) = 5.80088 6.73719 6.28649
#
# Compressibility (1/GPa) = 0.02595470
#
# Stress axis : x y z
#
# Youngs Moduli (GPa) = 99.52790 34.89553 72.72426
#
# Poissons Ratio (x) = 0.02570 0.27408
# Poissons Ratio (y) = 0.07331 0.63596
# Poissons Ratio (z) = 0.37510 0.30515
#
# Static dielectric constant tensor:
#      x y z
#    x 3.739280 0.191930 -0.010330 
#    y 0.191930 3.905580 -0.073900 
#    z -0.010330 -0.073900 3.944640 
# 
# 
# High freq. dielectric constant tensor:
#      x y z
#    x 1.785650 0.006170 -0.004950 
#    y 0.006170 1.788670 -0.003910 
#    z -0.004950 -0.003910 1.803100 
# 
# From -- ./inp_files/51508.got.cif
#   From: 2010.06.25/outbox.cif.g09.slc.cpg/sg2_26_cif.got.tgz:51508.got - 2010.06.27 13:26:56.
