data_PCOD8010834
_publ_section_title
;
Structure prediction by ZEFSAII (Michael W. Deem and Ramdas Pophale) SiO2 
 PCOD8010834
Probable space group: P -1
;
_chemical_formula_sum "Si O2"
_cell_formula_units_Z 16
_cell_length_a 11.915601
_cell_length_b 11.146128
_cell_length_c 14.357657
_cell_angle_alpha 101.822438
_cell_angle_beta 100.349704
_cell_angle_gamma 24.752924
_cell_volume 781.390555
_symmetry_space_group_name_H-M "P -1"
_symmetry_group_IT_number 2
_symmetry_cell_setting 'triclinic'
loop_
_space_group_symop_operation_xyz
x,y,z
-x,-y,-z
loop_
_atom_site_type_symbol
_atom_site_label
_atom_site_fract_x
_atom_site_fract_y
_atom_site_fract_z
Si Si1 0.573809 0.768044 0.786409
Si Si2 0.254425 0.363987 0.596563
Si Si3 0.043915 0.069462 0.951317
Si Si4 0.942251 0.590438 0.112246
Si Si5 0.538009 0.648637 0.238165
Si Si6 0.046662 0.228990 0.143834
Si Si7 0.450648 0.459744 0.179069
Si Si8 0.257350 0.279865 0.387524
O O1 0.511215 0.683006 0.759633
O O2 0.638822 0.744528 0.687978
O O3 0.840064 0.519751 0.847807
O O4 0.347171 0.069476 0.853028
O O5 0.340792 0.410939 0.658784
O O6 0.182082 0.445206 0.488582
O O7 0.000827 0.554896 0.646207
O O8 0.502575 0.035293 0.593184
O O9 0.795853 0.334749 0.890031
O O10 0.291226 0.792700 0.883925
O O11 0.115817 0.118557 0.031756
O O12 0.000000 0.000000 0.000000
O O13 0.985438 0.432669 0.161982
O O14 0.000000 0.500000 0.000000
O O15 0.781975 0.410951 0.163325
O O16 0.430325 0.617281 0.242710
O O17 0.294181 0.965122 0.209052
#
# Coordination Sequence:
#
# PCOD8010834 Si02
#       8
#     2   2   2   2   2   2   2   2
#     4  12  24  41  61  84 126 162 197 234 303 366
#     4  10  21  38  64  90 119 143 198 255 296 353
#     4  12  22  41  56  84 118 159 205 242 288 345
#     4  12  25  41  57  88 120 159 199 247 294 348
#     4  12  22  37  58  91 114 149 197 251 296 337
#     4  12  23  36  62  83 116 153 202 249 296 341
#     4  12  24  39  58  86 120 161 200 243 289 357
#     4  10  21  40  63  90 115 157 191 241 308 359
#
# _framework density 20.476316000000001
#
# number of rings (size 3 to 8) (size 9 to 14) (size 15 to 20)
#    0.000    0.500    2.500    8.250    0.000    0.000 
#    0.000    0.625    0.000    0.000    0.000   10.500 
#    0.000    0.000    0.000    0.000    0.000    0.000 
#
# Total GULP energy -198340.500505 kJ/mol
# GULP energy per Si atom -12396.281282 kJ/mol
# Density = 2.042971 g / cm^3
# Si number density = 20.476316 Si / 1000 Ang^3
#
#
#
# Elastic Constant Matrix: (Units=GPa)
#
#
# Indices 1 2 3 4 5 6 
#
# 1 136.2531 23.5361 52.0153 -3.6611 -5.0616 7.0127
# 2 23.5361 103.6358 23.6631 -2.9522 -10.5626 -13.3311
# 3 52.0153 23.6631 115.9090 1.2310 -4.0243 -1.5650
# 4 -3.6611 -2.9522 1.2310 26.8077 -6.5698 2.6260
# 5 -5.0616 -10.5626 -4.0243 -6.5698 43.7630 2.8004
# 6 7.0127 -13.3311 -1.5650 2.6260 2.8004 30.5532
#
#
#
# Elastic Compliance Matrix: (Units=1/GPa)
#
#
# Indices 1 2 3 4 5 6 
#
# 1 0.009342 -0.001506 -0.003919 0.001811 0.000836 -0.003234
# 2 -0.001506 0.011219 -0.001483 0.001177 0.002263 0.004856
# 3 -0.003919 -0.001483 0.010712 -0.001300 -0.000080 0.000920
# 4 0.001811 0.001177 -0.001300 0.039747 0.006596 -0.003990
# 5 0.000836 0.002263 -0.000080 0.006596 0.024606 -0.002031
# 6 -0.003234 0.004856 0.000920 -0.003990 -0.002031 0.036167
#
#
# Mechanical properties :
#
#
# Convention : Reuss Voigt Hill
#
# Bulk Modulus (GPa) = 57.28215 61.58078 59.43146
# Shear Modulus (GPa) = 33.01944 37.33036 35.17490
#
# Velocity S-wave (km/s) = 4.02003 4.27441 4.14917
# Velocity P-wave (km/s) = 7.04153 7.38243 7.21399
#
# Compressibility (1/GPa) = 0.01745745
#
# Stress axis : x y z
#
# Youngs Moduli (GPa) = 107.04893 89.13758 93.35230
#
# Poissons Ratio (x) = 0.13425 0.36580
# Poissons Ratio (y) = 0.16122 0.13842
# Poissons Ratio (z) = 0.41948 0.13217
#
# Static dielectric constant tensor:
#      x y z
#    x 4.138210 -0.179870 0.499440 
#    y -0.179870 3.987160 0.061220 
#    z 0.499440 0.061220 5.334300 
# 
# 
# High freq. dielectric constant tensor:
#      x y z
#    x 1.799120 -0.009450 0.006990 
#    y -0.009450 1.818710 0.002490 
#    z 0.006990 0.002490 1.789970 
# 
# From -- ./inp_files/519762.got.cif
#   From: 2010.06.25/outbox.cif.g09.slc.cpg/sg2_260_cif.got.tgz:519762.got - 2010.06.27 13:26:56.
