data_PCOD8010997
_publ_section_title
;
Structure prediction by ZEFSAII (Michael W. Deem and Ramdas Pophale) SiO2 
 PCOD8010997
Probable space group: P -1
;
_chemical_formula_sum "Si O2"
_cell_formula_units_Z 14
_cell_length_a 10.815239
_cell_length_b 15.919697
_cell_length_c 13.756966
_cell_angle_alpha 34.876322
_cell_angle_beta 148.268322
_cell_angle_gamma 149.766075
_cell_volume 593.637492
_symmetry_space_group_name_H-M "P -1"
_symmetry_group_IT_number 2
_symmetry_cell_setting 'triclinic'
loop_
_space_group_symop_operation_xyz
x,y,z
-x,-y,-z
loop_
_atom_site_type_symbol
_atom_site_label
_atom_site_fract_x
_atom_site_fract_y
_atom_site_fract_z
Si Si1 0.906352 0.316432 0.066759
Si Si2 0.388625 0.803321 0.635315
Si Si3 0.306056 0.741086 0.429202
Si Si4 0.175210 0.873516 0.609962
Si Si5 0.475718 0.485802 0.748828
Si Si6 0.850121 0.805428 0.038074
Si Si7 0.422956 0.322478 0.668785
O O1 0.796544 0.175557 0.214601
O O2 0.191554 0.355021 0.170263
O O3 0.654658 0.269648 0.866086
O O4 0.000000 0.500000 0.000000
O O5 0.209179 0.691946 0.525811
O O6 0.223074 0.758393 0.670972
O O7 0.500000 0.000000 0.500000
O O8 0.662322 0.791844 0.834489
O O9 0.309299 0.582091 0.535166
O O10 0.086636 0.769689 0.198188
O O11 0.611917 0.919859 0.457891
O O12 0.865374 0.835837 0.421069
O O13 0.379832 0.356636 0.897269
O O14 0.386910 0.349886 0.730787
O O15 0.000000 0.000000 0.000000
O O16 0.500000 0.500000 0.500000
#
# Coordination Sequence:
#
# PCOD8010997 Si02
#       7
#     2   2   2   2   2   2   2
#     4  10  21  40  64  97 124 168 216 263 315 380
#     4  10  21  38  65  95 126 169 219 252 310 387
#     4  11  26  43  63 101 135 167 208 274 329 371
#     4  11  21  39  68  93 128 168 219 255 313 389
#     4  11  25  45  65  95 141 159 212 280 325 369
#     4  12  23  41  69  96 127 177 217 260 314 389
#     4  11  22  39  68  94 120 173 223 252 314 390
#
# _framework density 23.583416
#
# number of rings (size 3 to 8) (size 9 to 14) (size 15 to 20)
#    0.000    1.143    5.714    3.000    2.000    1.143 
#    2.571    0.714    0.000    0.000    0.000    0.000 
#    0.000    0.000    0.000    0.000    0.000    0.000 
#
# Total GULP energy -173473.700011 kJ/mol
# GULP energy per Si atom -12390.978572 kJ/mol
# Density = 2.352974 g / cm^3
# Si number density = 23.583416 Si / 1000 Ang^3
#
#
#
# Elastic Constant Matrix: (Units=GPa)
#
#
# Indices 1 2 3 4 5 6 
#
# 1 46.1309 21.2191 26.5234 -7.9197 11.5720 23.4941
# 2 21.2191 64.0445 36.3795 4.2760 -0.7767 30.6458
# 3 26.5234 36.3795 176.9536 21.1485 16.2518 17.6634
# 4 -7.9197 4.2760 21.1485 41.7391 3.1761 1.3525
# 5 11.5720 -0.7767 16.2518 3.1761 36.3919 -6.3931
# 6 23.4941 30.6458 17.6634 1.3525 -6.3931 29.7646
#
#
#
# Elastic Compliance Matrix: (Units=1/GPa)
#
#
# Indices 1 2 3 4 5 6 
#
# 1 0.064901 0.012651 -0.004636 0.018048 -0.032029 -0.069203
# 2 0.012651 0.035695 -0.004037 0.003054 -0.009913 -0.046610
# 3 -0.004636 -0.004037 0.007437 -0.004271 -0.000965 0.003389
# 4 0.018048 0.003054 -0.004271 0.030562 -0.009652 -0.018317
# 5 -0.032029 -0.009913 -0.000965 -0.009652 0.046907 0.046574
# 6 -0.069203 -0.046610 0.003389 -0.018317 0.046574 0.145035
#
#
# Mechanical properties :
#
#
# Convention : Reuss Voigt Hill
#
# Bulk Modulus (GPa) = 8.62150 50.59699 29.60925
# Shear Modulus (GPa) = 13.84109 35.11293 24.47701
#
# Velocity S-wave (km/s) = 2.42523 3.86279 3.22513
# Velocity P-wave (km/s) = 3.39205 6.43397 5.14305
#
# Compressibility (1/GPa) = 0.11598907
#
# Stress axis : x y z
#
# Youngs Moduli (GPa) = 15.40801 28.01545 134.46805
#
# Poissons Ratio (x) = -0.35443 0.62346
# Poissons Ratio (y) = -0.19493 0.54280
# Poissons Ratio (z) = 0.07144 0.11309
#
# Static dielectric constant tensor:
#      x y z
#    x 4.872170 0.197740 -0.330500 
#    y 0.197740 5.789650 2.210160 
#    z -0.330500 2.210160 7.553330 
# 
# 
# High freq. dielectric constant tensor:
#      x y z
#    x 1.906780 0.030820 0.002940 
#    y 0.030820 1.921790 0.007340 
#    z 0.002940 0.007340 1.954100 
# 
# From -- ./inp_files/182072.got.cif
#   From: 2010.06.25/outbox.cif.g09.slc.cpg/sg2_92_cif.got.tgz:182072.got - 2010.06.27 13:26:56.
