data_PCOD8010867
_publ_section_title
;
Structure prediction by ZEFSAII (Michael W. Deem and Ramdas Pophale) SiO2 
 PCOD8010867
Probable space group: P -1
;
_chemical_formula_sum "Si O2"
_cell_formula_units_Z 16
_cell_length_a 15.576502
_cell_length_b 8.419550
_cell_length_c 8.736634
_cell_angle_alpha 113.484528
_cell_angle_beta 132.048480
_cell_angle_gamma 81.735964
_cell_volume 767.492020
_symmetry_space_group_name_H-M "P -1"
_symmetry_group_IT_number 2
_symmetry_cell_setting 'triclinic'
loop_
_space_group_symop_operation_xyz
x,y,z
-x,-y,-z
loop_
_atom_site_type_symbol
_atom_site_label
_atom_site_fract_x
_atom_site_fract_y
_atom_site_fract_z
Si Si1 0.363049 0.145290 0.982631
Si Si2 0.093711 0.152603 0.098749
Si Si3 0.030051 0.373510 0.854582
Si Si4 0.605483 0.233452 0.166204
Si Si5 0.767510 0.561091 0.113785
Si Si6 0.433982 0.749260 0.226062
Si Si7 0.657932 0.904881 0.708140
Si Si8 0.164105 0.513381 0.499776
O O1 0.267882 0.247066 0.829046
O O2 0.344111 0.947220 0.816856
O O3 0.497786 0.242477 0.154305
O O4 0.339357 0.149705 0.134784
O O5 0.214652 0.082653 0.206941
O O6 0.114152 0.325371 0.295102
O O7 0.046423 0.193166 0.888729
O O8 0.000000 0.000000 0.000000
O O9 0.149945 0.449629 0.937537
O O10 0.923869 0.351270 0.595727
O O11 0.000000 0.500000 0.000000
O O12 0.707843 0.401643 0.381888
O O13 0.554259 0.235965 0.936028
O O14 0.831037 0.502930 0.317718
O O15 0.645741 0.431032 0.884449
O O16 0.564606 0.758470 0.451802
O O17 0.375338 0.905236 0.284633
#
# Coordination Sequence:
#
# PCOD8010867 Si02
#       8
#     2   2   2   2   2   2   2   2
#     4  10  21  38  64  92 131 159 204 256 311 374
#     4  11  25  43  64  91 124 167 216 263 302 373
#     4  10  23  44  61  89 126 165 212 258 310 367
#     4   9  21  42  61  93 130 162 200 256 320 371
#     4  11  22  40  67  98 123 163 210 261 312 375
#     4   9  22  37  64  89 128 164 200 260 308 382
#     4  10  21  41  58  92 125 167 209 249 320 362
#     4  10  24  42  66  91 127 170 206 258 316 370
#
# _framework density 20.847121999999999
#
# number of rings (size 3 to 8) (size 9 to 14) (size 15 to 20)
#    0.000    2.000    1.250    0.375    7.000    4.500 
#    6.750    1.250    0.000    0.000    0.000    0.000 
#    0.000    0.000    0.000    0.000    0.000    0.000 
#
# Total GULP energy -198391.027971 kJ/mol
# GULP energy per Si atom -12399.439248 kJ/mol
# Density = 2.079967 g / cm^3
# Si number density = 20.847122 Si / 1000 Ang^3
#
#
#
# Elastic Constant Matrix: (Units=GPa)
#
#
# Indices 1 2 3 4 5 6 
#
# 1 133.6989 46.9892 42.6827 0.5102 25.2333 12.6458
# 2 46.9892 91.6075 52.3262 -8.3483 11.4949 13.4401
# 3 42.6827 52.3262 110.9376 -5.5990 17.6393 5.9503
# 4 0.5102 -8.3483 -5.5990 38.0496 0.0339 6.7038
# 5 25.2333 11.4949 17.6393 0.0339 25.1579 0.2519
# 6 12.6458 13.4401 5.9503 6.7038 0.2519 33.4013
#
#
#
# Elastic Compliance Matrix: (Units=1/GPa)
#
#
# Indices 1 2 3 4 5 6 
#
# 1 0.010929 -0.003679 -0.001025 -0.000697 -0.008538 -0.002270
# 2 -0.003679 0.017586 -0.006431 0.003899 0.000212 -0.005322
# 3 -0.001025 -0.006431 0.013287 0.000465 -0.005356 0.000556
# 4 -0.000697 0.003899 0.000465 0.028465 -0.001376 -0.007090
# 5 -0.008538 0.000212 -0.005356 -0.001376 0.051933 0.003986
# 6 -0.002270 -0.005322 0.000556 -0.007090 0.003986 0.034234
#
#
# Mechanical properties :
#
#
# Convention : Reuss Voigt Hill
#
# Bulk Modulus (GPa) = 51.20017 68.91558 60.05787
# Shear Modulus (GPa) = 26.99574 32.27148 29.63361
#
# Velocity S-wave (km/s) = 3.60243 3.93874 3.77433
# Velocity P-wave (km/s) = 6.47429 7.33582 6.91848
#
# Compressibility (1/GPa) = 0.01953119
#
# Stress axis : x y z
#
# Youngs Moduli (GPa) = 91.50278 56.86278 75.26166
#
# Poissons Ratio (x) = 0.20921 0.07716
# Poissons Ratio (y) = 0.33666 0.48399
# Poissons Ratio (z) = 0.09381 0.36567
#
# Static dielectric constant tensor:
#      x y z
#    x 3.685280 0.057400 0.105030 
#    y 0.057400 3.963850 -0.279980 
#    z 0.105030 -0.279980 3.857600 
# 
# 
# High freq. dielectric constant tensor:
#      x y z
#    x 1.820540 0.006440 0.009620 
#    y 0.006440 1.819850 -0.016230 
#    z 0.009620 -0.016230 1.806570 
# 
# From -- ./inp_files/177423.got.cif
#   From: 2010.06.25/outbox.cif.g09.slc.cpg/sg2_89_cif.got.tgz:177423.got - 2010.06.27 13:26:56.
