data_PCOD8010334
_publ_section_title
;
Structure prediction by ZEFSAII (Michael W. Deem and Ramdas Pophale) SiO2 
 PCOD8010334
Probable space group: P -1
;
_chemical_formula_sum "Si O2"
_cell_formula_units_Z 16
_cell_length_a 23.529280
_cell_length_b 11.709016
_cell_length_c 26.009634
_cell_angle_alpha 141.164400
_cell_angle_beta 169.744224
_cell_angle_gamma 39.569239
_cell_volume 799.439798
_symmetry_space_group_name_H-M "P -1"
_symmetry_group_IT_number 2
_symmetry_cell_setting 'triclinic'
loop_
_space_group_symop_operation_xyz
x,y,z
-x,-y,-z
loop_
_atom_site_type_symbol
_atom_site_label
_atom_site_fract_x
_atom_site_fract_y
_atom_site_fract_z
Si Si1 0.684086 0.879544 0.454610
Si Si2 0.727027 0.481538 0.375488
Si Si3 0.735500 0.606001 0.539104
Si Si4 0.370573 0.786878 0.664597
Si Si5 0.220489 0.846801 0.116622
Si Si6 0.578028 0.040280 0.855145
Si Si7 0.354208 0.155720 0.960639
Si Si8 0.798390 0.612188 0.317824
O O1 0.625541 0.663933 0.317184
O O2 0.480731 0.942898 0.345855
O O3 0.545809 0.999521 0.326397
O O4 0.060007 0.898905 0.804142
O O5 0.859076 0.543415 0.570452
O O6 0.996454 0.364420 0.543367
O O7 0.424849 0.355016 0.070152
O O8 0.629446 0.431734 0.416024
O O9 0.417185 0.736473 0.296976
O O10 0.015610 0.707178 0.852610
O O11 0.017030 0.871929 0.377054
O O12 0.569025 0.858650 0.817870
O O13 0.515823 0.863160 0.872776
O O14 0.000000 0.000000 0.000000
O O15 0.324721 0.189587 0.704571
O O16 0.500000 0.000000 0.000000
O O17 0.000000 0.500000 0.500000
O O18 0.500000 0.500000 0.000000
#
# Coordination Sequence:
#
# PCOD8010334 Si02
#       8
#     2   2   2   2   2   2   2   2
#     4  11  22  38  60  88 119 156 195 244 317 357
#     4  10  21  38  59  84 122 156 210 255 299 342
#     4  10  22  40  66  92 120 160 196 254 310 363
#     4  11  23  40  59  85 119 166 210 241 302 360
#     4  11  23  42  71  98 120 144 193 258 318 379
#     4  12  23  39  57  86 126 167 202 244 289 364
#     4  11  23  38  58  82 116 164 218 269 291 332
#     4  12  23  35  52  82 122 163 206 247 288 341
#
# _framework density 20.014015000000001
#
# number of rings (size 3 to 8) (size 9 to 14) (size 15 to 20)
#    0.000    1.000    2.500    6.000    0.000    5.000 
#    0.000    0.000    0.000    4.500    0.000    0.000 
#    0.000    0.000    0.000    0.000    0.000    0.000 
#
# Total GULP energy -198409.660941 kJ/mol
# GULP energy per Si atom -12400.603809 kJ/mol
# Density = 1.996846 g / cm^3
# Si number density = 20.014015 Si / 1000 Ang^3
#
#
#
# Elastic Constant Matrix: (Units=GPa)
#
#
# Indices 1 2 3 4 5 6 
#
# 1 90.7600 51.4176 41.5146 -3.5975 14.1062 12.7670
# 2 51.4176 81.2891 30.1059 -9.1815 16.3626 11.4412
# 3 41.5146 30.1059 122.9488 -3.3139 -0.9992 4.3807
# 4 -3.5975 -9.1815 -3.3139 37.9809 -1.5267 1.3302
# 5 14.1062 16.3626 -0.9992 -1.5267 41.2746 -6.3818
# 6 12.7670 11.4412 4.3807 1.3302 -6.3818 38.0457
#
#
#
# Elastic Compliance Matrix: (Units=1/GPa)
#
#
# Indices 1 2 3 4 5 6 
#
# 1 0.019368 -0.009596 -0.004110 -0.000856 -0.003518 -0.003700
# 2 -0.009596 0.021163 -0.001737 0.003970 -0.005628 -0.004027
# 3 -0.004110 -0.001737 0.009928 0.000117 0.002520 0.001177
# 4 -0.000856 0.003970 0.000117 0.027264 -0.000575 -0.001970
# 5 -0.003518 -0.005628 0.002520 -0.000575 0.028852 0.007443
# 6 -0.003700 -0.004027 0.001177 -0.001970 0.007443 0.029919
#
#
# Mechanical properties :
#
#
# Convention : Reuss Voigt Hill
#
# Bulk Modulus (GPa) = 51.09096 60.11936 55.60516
# Shear Modulus (GPa) = 28.75146 34.92420 31.83783
#
# Velocity S-wave (km/s) = 3.79432 4.18184 3.99278
# Velocity P-wave (km/s) = 6.69170 7.30896 7.00713
#
# Compressibility (1/GPa) = 0.01957294
#
# Stress axis : x y z
#
# Youngs Moduli (GPa) = 51.63193 47.25218 100.72317
#
# Poissons Ratio (x) = 0.45344 0.41394
# Poissons Ratio (y) = 0.49547 0.17497
# Poissons Ratio (z) = 0.21219 0.08208
#
# Static dielectric constant tensor:
#      x y z
#    x 3.712310 0.193420 0.027680 
#    y 0.193420 3.573530 0.007860 
#    z 0.027680 0.007860 3.729840 
# 
# 
# High freq. dielectric constant tensor:
#      x y z
#    x 1.775320 0.018390 -0.003940 
#    y 0.018390 1.760870 -0.000590 
#    z -0.003940 -0.000590 1.797120 
# 
# From -- ./inp_files/475743.got.cif
#   From: 2010.06.25/outbox.cif.g09.slc.cpg/sg2_238_cif.got.tgz:475743.got - 2010.06.27 13:26:56.
