data_PCOD8010018
_publ_section_title
;
Structure prediction by ZEFSAII (Michael W. Deem and Ramdas Pophale) SiO2 
 PCOD8010018
Probable space group: P -1
;
_chemical_formula_sum "Si O2"
_cell_formula_units_Z 16
_cell_length_a 20.718399
_cell_length_b 6.681039
_cell_length_c 7.910594
_cell_angle_alpha 71.058014
_cell_angle_beta 96.805895
_cell_angle_gamma 137.006541
_cell_volume 694.144609
_symmetry_space_group_name_H-M "P -1"
_symmetry_group_IT_number 2
_symmetry_cell_setting 'triclinic'
loop_
_space_group_symop_operation_xyz
x,y,z
-x,-y,-z
loop_
_atom_site_type_symbol
_atom_site_label
_atom_site_fract_x
_atom_site_fract_y
_atom_site_fract_z
Si Si1 0.131302 0.501039 0.397160
Si Si2 0.372487 0.135615 0.808540
Si Si3 0.683639 0.164208 0.470409
Si Si4 0.246709 0.054271 0.038891
Si Si5 0.407748 0.660983 0.495314
Si Si6 0.931954 0.139808 0.029218
Si Si7 0.581596 0.534072 0.789638
Si Si8 0.023643 0.960986 0.279410
O O1 0.206298 0.633632 0.532477
O O2 0.170075 0.795265 0.226371
O O3 0.033541 0.313615 0.521643
O O4 0.117485 0.278742 0.317170
O O5 0.389582 0.403644 0.658790
O O6 0.471125 0.294772 0.887577
O O7 0.345131 0.904557 0.716878
O O8 0.282303 0.945008 0.960756
O O9 0.679336 0.388529 0.484682
O O10 0.615596 0.842098 0.644031
O O11 0.346382 0.378250 0.065530
O O12 0.182235 0.076640 0.916047
O O13 0.418066 0.642971 0.305365
O O14 0.500000 0.000000 0.500000
O O15 0.957568 0.001686 0.190838
O O16 0.000000 0.500000 0.000000
O O17 0.947206 0.117496 0.843804
#
# Coordination Sequence:
#
# PCOD8010018 Si02
#       8
#     2   2   2   2   2   2   2   2
#     4  10  23  44  65  95 124 170 205 268 315 373
#     4  11  22  39  62  92 131 170 209 258 313 374
#     4  10  21  37  64  90 127 163 216 256 311 376
#     4  11  25  42  64  95 132 170 212 256 321 379
#     4  11  19  38  64  89 119 172 215 254 313 368
#     4  11  24  45  66  94 127 165 206 264 325 379
#     4  10  21  41  60  91 129 169 211 259 308 371
#     4  10  24  46  69  91 130 160 212 266 324 372
#
# _framework density 23.049952999999999
#
# number of rings (size 3 to 8) (size 9 to 14) (size 15 to 20)
#    0.000    1.500    3.750    1.125    5.250    0.500 
#    0.000    0.625    0.000    0.000    0.000    0.000 
#    0.000    0.000    0.000    0.000    0.000    0.000 
#
# Total GULP energy -198311.542290 kJ/mol
# GULP energy per Si atom -12394.471393 kJ/mol
# Density = 2.299749 g / cm^3
# Si number density = 23.049953 Si / 1000 Ang^3
#
#
#
# Elastic Constant Matrix: (Units=GPa)
#
#
# Indices 1 2 3 4 5 6 
#
# 1 123.5407 41.2271 24.4467 14.1455 -15.5957 15.9699
# 2 41.2271 81.5819 17.9200 22.4555 -3.4708 12.8099
# 3 24.4467 17.9200 69.9577 12.3102 -16.4766 5.9869
# 4 14.1455 22.4555 12.3102 37.1316 0.6168 -0.7189
# 5 -15.5957 -3.4708 -16.4766 0.6168 29.5159 10.2446
# 6 15.9699 12.8099 5.9869 -0.7189 10.2446 42.1607
#
#
#
# Elastic Compliance Matrix: (Units=1/GPa)
#
#
# Indices 1 2 3 4 5 6 
#
# 1 0.011214 -0.004016 -0.000571 -0.001856 0.006778 -0.004625
# 2 -0.004016 0.017640 -0.000951 -0.008919 0.001033 -0.004107
# 3 -0.000571 -0.000951 0.019087 -0.005840 0.012192 -0.005267
# 4 -0.001856 -0.008919 -0.005840 0.035242 -0.008417 0.006889
# 5 0.006778 0.001033 0.012192 -0.008417 0.050472 -0.017021
# 6 -0.004625 -0.004107 -0.005267 0.006889 -0.017021 0.031720
#
#
# Mechanical properties :
#
#
# Convention : Reuss Voigt Hill
#
# Bulk Modulus (GPa) = 27.12595 49.14087 38.13341
# Shear Modulus (GPa) = 26.49168 34.52740 30.50954
#
# Velocity S-wave (km/s) = 3.39383 3.87452 3.64212
# Velocity P-wave (km/s) = 5.21070 6.43284 5.85375
#
# Compressibility (1/GPa) = 0.03686507
#
# Stress axis : x y z
#
# Youngs Moduli (GPa) = 89.17635 56.69037 52.39076
#
# Poissons Ratio (x) = 0.22766 0.02992
# Poissons Ratio (y) = 0.35812 0.04982
# Poissons Ratio (z) = 0.05093 0.05391
#
# Static dielectric constant tensor:
#      x y z
#    x 4.858300 -0.161960 -0.123820 
#    y -0.161960 4.430930 0.251640 
#    z -0.123820 0.251640 4.215040 
# 
# 
# High freq. dielectric constant tensor:
#      x y z
#    x 1.907260 0.013260 -0.005730 
#    y 0.013260 1.911610 0.016240 
#    z -0.005730 0.016240 1.904000 
# 
# From -- ./inp_files/323474.got.cif
#   From: 2010.06.25/outbox.cif.g09.slc.cpg/sg2_162_cif.got.tgz:323474.got - 2010.06.27 13:26:56.
