data_PCOD8010082
_publ_section_title
;
Structure prediction by ZEFSAII (Michael W. Deem and Ramdas Pophale) SiO2 
 PCOD8010082
Probable space group: P -1
;
_chemical_formula_sum "Si O2"
_cell_formula_units_Z 16
_cell_length_a 15.040788
_cell_length_b 9.431630
_cell_length_c 9.336796
_cell_angle_alpha 136.614864
_cell_angle_beta 95.944684
_cell_angle_gamma 61.607898
_cell_volume 733.378653
_symmetry_space_group_name_H-M "P -1"
_symmetry_group_IT_number 2
_symmetry_cell_setting 'triclinic'
loop_
_space_group_symop_operation_xyz
x,y,z
-x,-y,-z
loop_
_atom_site_type_symbol
_atom_site_label
_atom_site_fract_x
_atom_site_fract_y
_atom_site_fract_z
Si Si1 0.363009 0.705089 0.460082
Si Si2 0.913049 0.878578 0.892884
Si Si3 0.287174 0.606223 0.656540
Si Si4 0.827998 0.287912 0.673739
Si Si5 0.771869 0.695175 0.762875
Si Si6 0.497874 0.104699 0.426328
Si Si7 0.986160 0.037457 0.772281
Si Si8 0.463015 0.866624 0.995143
O O1 0.323227 0.722805 0.628043
O O2 0.266139 0.762512 0.377818
O O3 0.392168 0.906535 0.592188
O O4 0.474896 0.426474 0.246190
O O5 0.805405 0.170697 0.094721
O O6 0.989853 0.813517 0.998495
O O7 0.881464 0.681012 0.744825
O O8 0.970972 0.851666 0.730508
O O9 0.234050 0.475552 0.480886
O O10 0.392496 0.396219 0.610857
O O11 0.774869 0.581884 0.837766
O O12 0.914481 0.121332 0.439045
O O13 0.878733 0.232565 0.800665
O O14 0.667484 0.990695 0.947176
O O15 0.500000 0.000000 0.500000
O O16 0.492138 0.906675 0.185919
O O17 0.500000 0.000000 0.000000
#
# Coordination Sequence:
#
# PCOD8010082 Si02
#       8
#     2   2   2   2   2   2   2   2
#     4  11  21  39  67  86 124 166 195 245 299 358
#     4  11  22  40  65  86 118 160 201 249 304 353
#     4  10  21  40  59  92 122 157 200 246 294 362
#     4  10  21  41  61  89 122 155 201 253 299 348
#     4  10  21  37  65  89 118 154 203 241 299 361
#     4  11  25  38  60  96 128 154 199 247 300 360
#     4  10  23  41  60  88 121 155 204 253 300 348
#     4  11  21  38  64  93 119 159 204 235 292 379
#
# _framework density 21.816834
#
# number of rings (size 3 to 8) (size 9 to 14) (size 15 to 20)
#    0.000    1.500    6.250    1.125    1.750    4.500 
#    0.000    0.000    0.000    0.000    0.000    0.000 
#    0.000    0.000    0.000    0.000    0.000    0.000 
#
# Total GULP energy -198325.629036 kJ/mol
# GULP energy per Si atom -12395.351815 kJ/mol
# Density = 2.176718 g / cm^3
# Si number density = 21.816834 Si / 1000 Ang^3
#
#
#
# Elastic Constant Matrix: (Units=GPa)
#
#
# Indices 1 2 3 4 5 6 
#
# 1 127.3837 68.7791 7.0829 -7.3011 33.0047 -2.8904
# 2 68.7791 102.8400 24.9208 -37.5666 10.6837 -4.9730
# 3 7.0829 24.9208 46.7473 -9.3432 1.0719 -2.7632
# 4 -7.3011 -37.5666 -9.3432 30.9823 -6.7551 0.3580
# 5 33.0047 10.6837 1.0719 -6.7551 23.3816 2.2638
# 6 -2.8904 -4.9730 -2.7632 0.3580 2.2638 29.5361
#
#
#
# Elastic Compliance Matrix: (Units=1/GPa)
#
#
# Indices 1 2 3 4 5 6 
#
# 1 0.042522 -0.043680 0.007710 -0.052838 -0.055921 0.002454
# 2 -0.043680 0.064036 -0.013750 0.075134 0.054724 0.000116
# 3 0.007710 -0.013750 0.026073 -0.008868 -0.008516 0.001639
# 4 -0.052838 0.075134 -0.008868 0.125017 0.076852 -0.000755
# 5 -0.055921 0.054724 -0.008516 0.076852 0.119988 -0.007183
# 6 0.002454 0.000116 0.001639 -0.000755 -0.007183 0.034830
#
#
# Mechanical properties :
#
#
# Convention : Reuss Voigt Hill
#
# Bulk Modulus (GPa) = 30.12970 53.17076 41.65023
# Shear Modulus (GPa) = 9.56078 28.52590 19.04334
#
# Velocity S-wave (km/s) = 2.09566 3.61988 2.95765
# Velocity P-wave (km/s) = 4.43802 6.47269 5.54940
#
# Compressibility (1/GPa) = 0.03318984
#
# Stress axis : x y z
#
# Youngs Moduli (GPa) = 23.51709 15.61633 38.35357
#
# Poissons Ratio (x) = 0.68213 -0.29570
# Poissons Ratio (y) = 1.02723 0.52736
# Poissons Ratio (z) = -0.18131 0.21472
#
# Static dielectric constant tensor:
#      x y z
#    x 4.328810 -0.314760 -0.089730 
#    y -0.314760 3.931210 -0.033720 
#    z -0.089730 -0.033720 3.554030 
# 
# 
# High freq. dielectric constant tensor:
#      x y z
#    x 1.878600 -0.010790 0.005810 
#    y -0.010790 1.837850 -0.003040 
#    z 0.005810 -0.003040 1.844420 
# 
# From -- ./inp_files/296797.got.cif
#   From: 2010.06.25/outbox.cif.g09.slc.cpg/sg2_149_cif.got.tgz:296797.got - 2010.06.27 13:26:56.
