data_PCOD8010978
_publ_section_title
;
Structure prediction by ZEFSAII (Michael W. Deem and Ramdas Pophale) SiO2 
 PCOD8010978
Probable space group: P -1
;
_chemical_formula_sum "Si O2"
_cell_formula_units_Z 14
_cell_length_a 9.300710
_cell_length_b 9.501934
_cell_length_c 14.974777
_cell_angle_alpha 113.594177
_cell_angle_beta 129.519612
_cell_angle_gamma 42.957145
_cell_volume 690.260620
_symmetry_space_group_name_H-M "P -1"
_symmetry_group_IT_number 2
_symmetry_cell_setting 'triclinic'
loop_
_space_group_symop_operation_xyz
x,y,z
-x,-y,-z
loop_
_atom_site_type_symbol
_atom_site_label
_atom_site_fract_x
_atom_site_fract_y
_atom_site_fract_z
Si Si1 0.996013 0.127647 0.140650
Si Si2 0.329281 0.695893 0.791431
Si Si3 0.218703 0.925074 0.633476
Si Si4 0.258450 0.277096 0.228726
Si Si5 0.574377 0.291861 0.887422
Si Si6 0.729288 0.722394 0.965131
Si Si7 0.797400 0.754499 0.188593
O O1 0.143711 0.205109 0.221969
O O2 0.932795 0.117420 0.214699
O O3 0.173849 0.900328 0.113511
O O4 0.715630 0.305347 0.027820
O O5 0.274697 0.751518 0.678979
O O6 0.411800 0.478708 0.799031
O O7 0.550815 0.681295 0.909103
O O8 0.474573 0.813423 0.648952
O O9 0.141782 0.123949 0.704417
O O10 0.000000 0.000000 0.500000
O O11 0.336915 0.168188 0.130751
O O12 0.063313 0.524018 0.216760
O O13 0.400591 0.247501 0.840274
O O14 0.707835 0.848436 0.075079
O O15 0.000000 0.500000 0.000000
#
# Coordination Sequence:
#
# PCOD8010978 Si02
#       7
#     2   2   2   2   2   2   2
#     4  11  21  35  62 100 132 158 194 243 315 391
#     4  11  22  39  62  90 130 159 199 257 310 366
#     4  11  27  46  62  87 119 166 227 267 295 353
#     4  10  21  38  65  93 128 158 203 254 311 375
#     4  11  21  34  63  99 133 159 192 240 318 390
#     4   9  19  33  58  96 127 157 193 237 308 384
#     4  11  20  39  67  89 128 166 199 250 320 368
#
# _framework density 20.282195000000002
#
# number of rings (size 3 to 8) (size 9 to 14) (size 15 to 20)
#    0.000    1.429    4.286    2.143    0.000    8.571 
#    0.000    1.429    0.000    0.000    0.000    0.000 
#    0.000    0.000    0.000    0.000    0.000    0.000 
#
# Total GULP energy -173460.430184 kJ/mol
# GULP energy per Si atom -12390.030727 kJ/mol
# Density = 2.023603 g / cm^3
# Si number density = 20.282195 Si / 1000 Ang^3
#
#
#
# Elastic Constant Matrix: (Units=GPa)
#
#
# Indices 1 2 3 4 5 6 
#
# 1 138.9446 39.8369 55.2108 -4.6112 15.7758 -6.6168
# 2 39.8369 53.8444 43.3648 -5.7090 0.3839 7.8135
# 3 55.2108 43.3648 124.2390 -9.3510 16.9898 1.5597
# 4 -4.6112 -5.7090 -9.3510 20.6472 -2.5255 0.6261
# 5 15.7758 0.3839 16.9898 -2.5255 21.7325 -2.5596
# 6 -6.6168 7.8135 1.5597 0.6261 -2.5596 33.2468
#
#
#
# Elastic Compliance Matrix: (Units=1/GPa)
#
#
# Indices 1 2 3 4 5 6 
#
# 1 0.010718 -0.007309 -0.001494 -0.001169 -0.006211 0.003465
# 2 -0.007309 0.033218 -0.009483 0.004939 0.011763 -0.008004
# 3 -0.001494 -0.009483 0.013385 0.001999 -0.008911 0.000580
# 4 -0.001169 0.004939 0.001999 0.051104 0.004893 -0.002073
# 5 -0.006211 0.011763 -0.008911 0.004893 0.057942 0.000786
# 6 0.003465 -0.008004 0.000580 -0.002073 0.000786 0.032721
#
#
# Mechanical properties :
#
#
# Convention : Reuss Voigt Hill
#
# Bulk Modulus (GPa) = 48.19495 65.98365 57.08930
# Shear Modulus (GPa) = 20.61218 27.03301 23.82260
#
# Velocity S-wave (km/s) = 3.19136 3.65477 3.43090
# Velocity P-wave (km/s) = 6.11502 7.10023 6.62596
#
# Compressibility (1/GPa) = 0.02074906
#
# Stress axis : x y z
#
# Youngs Moduli (GPa) = 93.30478 30.10416 74.71263
#
# Poissons Ratio (x) = 0.22002 0.11161
# Poissons Ratio (y) = 0.68193 0.70850
# Poissons Ratio (z) = 0.13939 0.28548
#
# Static dielectric constant tensor:
#      x y z
#    x 4.000000 -0.299530 0.023260 
#    y -0.299530 3.698940 -0.091490 
#    z 0.023260 -0.091490 3.298220 
# 
# 
# High freq. dielectric constant tensor:
#      x y z
#    x 1.818010 -0.019480 0.010160 
#    y -0.019480 1.806230 -0.010670 
#    z 0.010160 -0.010670 1.733670 
# 
# From -- ./inp_files/179607.got.cif
#   From: 2010.06.25/outbox.cif.g09.slc.cpg/sg2_90_cif.got.tgz:179607.got - 2010.06.27 13:26:56.
