data_PCOD8010666
_publ_section_title
;
Structure prediction by ZEFSAII (Michael W. Deem and Ramdas Pophale) SiO2 
 PCOD8010666
Probable space group: P -1
;
_chemical_formula_sum "Si O2"
_cell_formula_units_Z 16
_cell_length_a 9.855558
_cell_length_b 12.629972
_cell_length_c 16.681533
_cell_angle_alpha 115.879835
_cell_angle_beta 24.151922
_cell_angle_gamma 115.953306
_cell_volume 760.004928
_symmetry_space_group_name_H-M "P -1"
_symmetry_group_IT_number 2
_symmetry_cell_setting 'triclinic'
loop_
_space_group_symop_operation_xyz
x,y,z
-x,-y,-z
loop_
_atom_site_type_symbol
_atom_site_label
_atom_site_fract_x
_atom_site_fract_y
_atom_site_fract_z
Si Si1 0.165586 0.769551 0.933269
Si Si2 0.753671 0.078541 0.203303
Si Si3 0.822697 0.479199 0.370156
Si Si4 0.454919 0.855906 0.360044
Si Si5 0.457301 0.321211 0.165446
Si Si6 0.792459 0.539974 0.996323
Si Si7 0.079481 0.761937 0.686616
Si Si8 0.899772 0.363322 0.592999
O O1 0.839068 0.831211 0.150481
O O2 0.066049 0.631013 0.921831
O O3 0.365521 0.832605 0.770541
O O4 0.421214 0.777211 0.872470
O O5 0.943170 0.158833 0.196374
O O6 0.451094 0.992255 0.377792
O O7 0.000000 0.000000 0.000000
O O8 0.500000 0.500000 0.500000
O O9 0.767751 0.361722 0.416589
O O10 0.910285 0.598183 0.414456
O O11 0.131201 0.462733 0.139982
O O12 0.304848 0.834514 0.522184
O O13 0.248091 0.775200 0.377835
O O14 0.788071 0.409478 0.994295
O O15 0.299211 0.261098 0.149878
O O16 0.162892 0.388122 0.387030
O O17 0.413832 0.563788 0.223116
#
# Coordination Sequence:
#
# PCOD8010666 Si02
#       8
#     2   2   2   2   2   2   2   2
#     4  10  21  38  62  92 120 162 209 251 302 365
#     4  10  21  43  66  86 118 165 212 257 303 361
#     4  12  25  37  61  95 134 161 203 253 306 376
#     4   9  22  39  67  85 120 167 206 252 307 362
#     4  11  23  37  62  93 131 157 205 254 309 372
#     4  11  21  37  59  88 127 171 197 245 310 370
#     4  11  23  41  63  92 125 160 206 253 311 367
#     4  10  22  39  59  93 124 164 202 249 309 372
#
# _framework density 21.052495
#
# number of rings (size 3 to 8) (size 9 to 14) (size 15 to 20)
#    0.000    1.500    2.500    2.250    5.250    0.000 
#    0.000    5.000    2.750    0.000    0.000    0.000 
#    0.000    0.000    0.000    0.000    0.000    0.000 
#
# Total GULP energy -198310.530548 kJ/mol
# GULP energy per Si atom -12394.408159 kJ/mol
# Density = 2.100458 g / cm^3
# Si number density = 21.052495 Si / 1000 Ang^3
#
#
#
# Elastic Constant Matrix: (Units=GPa)
#
#
# Indices 1 2 3 4 5 6 
#
# 1 151.7884 76.8796 17.6529 -1.1667 -4.2174 0.9068
# 2 76.8796 129.4042 31.2512 -24.1019 3.7555 -9.4978
# 3 17.6529 31.2512 58.4566 -11.6056 4.4203 -5.4932
# 4 -1.1667 -24.1019 -11.6056 28.7703 1.1474 19.7349
# 5 -4.2174 3.7555 4.4203 1.1474 26.7367 -0.8084
# 6 0.9068 -9.4978 -5.4932 19.7349 -0.8084 36.1835
#
#
#
# Elastic Compliance Matrix: (Units=1/GPa)
#
#
# Indices 1 2 3 4 5 6 
#
# 1 0.010416 -0.007342 -0.000759 -0.007397 0.003172 0.001802
# 2 -0.007342 0.015321 -0.003282 0.014162 -0.003499 -0.004095
# 3 -0.000759 -0.003282 0.020523 0.006592 -0.003377 -0.001397
# 4 -0.007397 0.014162 0.006592 0.073633 -0.008478 -0.035447
# 5 0.003172 -0.003499 -0.003377 -0.008478 0.039436 0.003994
# 6 0.001802 -0.004095 -0.001397 -0.035447 0.003994 0.045727
#
#
# Mechanical properties :
#
#
# Convention : Reuss Voigt Hill
#
# Bulk Modulus (GPa) = 42.56608 65.69072 54.12840
# Shear Modulus (GPa) = 21.21745 32.59580 26.90662
#
# Velocity S-wave (km/s) = 3.17809 3.93913 3.57889
# Velocity P-wave (km/s) = 5.80774 7.20833 6.54560
#
# Compressibility (1/GPa) = 0.02349289
#
# Stress axis : x y z
#
# Youngs Moduli (GPa) = 96.00920 65.26988 48.72497
#
# Poissons Ratio (x) = 0.47922 0.03700
# Poissons Ratio (y) = 0.70491 0.15992
# Poissons Ratio (z) = 0.07290 0.21422
#
# Static dielectric constant tensor:
#      x y z
#    x 3.789720 0.030330 0.227010 
#    y 0.030330 4.168000 -0.287730 
#    z 0.227010 -0.287730 3.696760 
# 
# 
# High freq. dielectric constant tensor:
#      x y z
#    x 1.824070 0.003360 0.016770 
#    y 0.003360 1.823560 -0.019720 
#    z 0.016770 -0.019720 1.810280 
# 
# From -- ./inp_files/200389.got.cif
#   From: 2010.06.25/outbox.cif.g09.slc.cpg/sg2_101_cif.got.tgz:200389.got - 2010.06.27 13:26:56.
