data_PCOD8010049
_publ_section_title
;
Structure prediction by ZEFSAII (Michael W. Deem and Ramdas Pophale) SiO2 
 PCOD8010049
Probable space group: P -1
;
_chemical_formula_sum "Si O2"
_cell_formula_units_Z 16
_cell_length_a 12.134844
_cell_length_b 8.703778
_cell_length_c 13.978522
_cell_angle_alpha 53.467154
_cell_angle_beta 137.635557
_cell_angle_gamma 102.488899
_cell_volume 728.044887
_symmetry_space_group_name_H-M "P -1"
_symmetry_group_IT_number 2
_symmetry_cell_setting 'triclinic'
loop_
_space_group_symop_operation_xyz
x,y,z
-x,-y,-z
loop_
_atom_site_type_symbol
_atom_site_label
_atom_site_fract_x
_atom_site_fract_y
_atom_site_fract_z
Si Si1 0.324234 0.465222 0.073857
Si Si2 0.930723 0.497243 0.264469
Si Si3 0.949646 0.122162 0.539190
Si Si4 0.323634 0.633332 0.211239
Si Si5 0.310633 0.408621 0.469100
Si Si6 0.399446 0.949106 0.676122
Si Si7 0.187276 0.073368 0.875608
Si Si8 0.342071 0.862961 0.872285
O O1 0.281124 0.514019 0.139509
O O2 0.458231 0.223893 0.235863
O O3 0.137187 0.517882 0.880039
O O4 0.415246 0.615575 0.034634
O O5 0.890426 0.347487 0.367955
O O6 0.811661 0.731749 0.137939
O O7 0.142521 0.441510 0.417143
O O8 0.796116 0.039365 0.472741
O O9 0.996112 0.142098 0.673398
O O10 0.130701 0.947278 0.670204
O O11 0.247276 0.573285 0.280386
O O12 0.538854 0.557433 0.384054
O O13 0.220232 0.883786 0.040323
O O14 0.398710 0.173465 0.569024
O O15 0.453964 0.897509 0.843225
O O16 0.342856 0.993564 0.921104
#
# Coordination Sequence:
#
# PCOD8010049 Si02
#       8
#     2   2   2   2   2   2   2   2
#     4  11  24  39  65  92 134 160 208 259 314 368
#     4  12  22  41  66  99 122 169 208 255 315 379
#     4  10  21  37  64  94 137 155 205 254 309 379
#     4  10  25  49  60  92 125 164 214 270 306 365
#     4  11  25  43  71  86 123 168 216 259 315 369
#     4  12  21  39  64  97 126 172 201 255 314 372
#     4   9  22  40  62  91 130 165 204 257 307 370
#     4   9  19  37  56  91 128 167 190 253 307 371
#
# _framework density 21.976666000000002
#
# number of rings (size 3 to 8) (size 9 to 14) (size 15 to 20)
#    0.750    0.750    2.500    2.625    1.750    1.500 
#    0.000    3.750    0.000    0.000    0.000    0.000 
#    0.000    0.000    0.000    0.000    0.000    0.000 
#
# Total GULP energy -198389.128938 kJ/mol
# GULP energy per Si atom -12399.320559 kJ/mol
# Density = 2.192665 g / cm^3
# Si number density = 21.976666 Si / 1000 Ang^3
#
#
#
# Elastic Constant Matrix: (Units=GPa)
#
#
# Indices 1 2 3 4 5 6 
#
# 1 29.0011 22.5098 19.8027 3.2532 -7.2729 4.7315
# 2 22.5098 98.2989 33.6236 -15.3526 -13.8440 -16.7604
# 3 19.8027 33.6236 92.5876 -4.9436 -20.7828 -4.8656
# 4 3.2532 -15.3526 -4.9436 44.6358 -5.1670 0.4383
# 5 -7.2729 -13.8440 -20.7828 -5.1670 35.8884 -2.8800
# 6 4.7315 -16.7604 -4.8656 0.4383 -2.8800 27.6742
#
#
#
# Elastic Compliance Matrix: (Units=1/GPa)
#
#
# Indices 1 2 3 4 5 6 
#
# 1 0.056259 -0.015458 -0.008682 -0.010495 -0.002756 -0.020627
# 2 -0.015458 0.018493 -0.000961 0.007904 0.005717 0.014143
# 3 -0.008682 -0.000961 0.015019 0.002770 0.007308 0.004260
# 4 -0.010495 0.007904 0.002770 0.026931 0.006995 0.007369
# 5 -0.002756 0.005717 0.007308 0.006995 0.035456 0.008798
# 6 -0.020627 0.014143 0.004260 0.007369 0.008798 0.049775
#
#
# Mechanical properties :
#
#
# Convention : Reuss Voigt Hill
#
# Bulk Modulus (GPa) = 25.27240 41.30664 33.28952
# Shear Modulus (GPa) = 18.84492 31.23644 25.04068
#
# Velocity S-wave (km/s) = 2.93148 3.77416 3.37919
# Velocity P-wave (km/s) = 4.79403 6.15052 5.51415
#
# Compressibility (1/GPa) = 0.03956886
#
# Stress axis : x y z
#
# Youngs Moduli (GPa) = 17.77488 54.07572 66.58423
#
# Poissons Ratio (x) = 0.83588 0.57810
# Poissons Ratio (y) = 0.27476 0.06398
# Poissons Ratio (z) = 0.15433 0.05196
#
# Static dielectric constant tensor:
#      x y z
#    x 3.455200 -0.113720 -0.168260 
#    y -0.113720 3.955920 0.035310 
#    z -0.168260 0.035310 4.030690 
# 
# 
# High freq. dielectric constant tensor:
#      x y z
#    x 1.821210 -0.007800 -0.008480 
#    y -0.007800 1.872580 0.003300 
#    z -0.008480 0.003300 1.877060 
# 
# From -- ./inp_files/515113.got.cif
#   From: 2010.06.25/outbox.cif.g09.slc.cpg/sg2_258_cif.got.tgz:515113.got - 2010.06.27 13:26:56.
