data_PCOD8010853
_publ_section_title
;
Structure prediction by ZEFSAII (Michael W. Deem and Ramdas Pophale) SiO2 
 PCOD8010853
Probable space group: P -1
;
_chemical_formula_sum "Si O2"
_cell_formula_units_Z 14
_cell_length_a 8.443120
_cell_length_b 9.723669
_cell_length_c 8.685246
_cell_angle_alpha 68.587846
_cell_angle_beta 89.079493
_cell_angle_gamma 72.167728
_cell_volume 628.237150
_symmetry_space_group_name_H-M "P -1"
_symmetry_group_IT_number 2
_symmetry_cell_setting 'triclinic'
loop_
_space_group_symop_operation_xyz
x,y,z
-x,-y,-z
loop_
_atom_site_type_symbol
_atom_site_label
_atom_site_fract_x
_atom_site_fract_y
_atom_site_fract_z
Si Si1 0.009251 0.479432 0.325504
Si Si2 0.879272 0.236775 0.271014
Si Si3 0.347166 0.233858 0.336493
Si Si4 0.543693 0.318050 0.057530
Si Si5 0.950963 0.799699 0.033678
Si Si6 0.302115 0.908828 0.457803
Si Si7 0.262539 0.874320 0.121176
O O1 0.204817 0.391092 0.326332
O O2 0.000000 0.500000 0.500000
O O3 0.890193 0.383621 0.307987
O O4 0.936498 0.637882 0.162420
O O5 0.713558 0.255059 0.172299
O O6 0.862581 0.110794 0.448943
O O7 0.026640 0.191945 0.157848
O O8 0.394451 0.261127 0.149234
O O9 0.517200 0.202783 0.442748
O O10 0.276292 0.090709 0.410034
O O11 0.500000 0.500000 0.000000
O O12 0.575733 0.243918 0.917288
O O13 0.103341 0.819301 0.119518
O O14 0.783527 0.945713 0.012377
O O15 0.306028 0.859263 0.303442
#
# Coordination Sequence:
#
# PCOD8010853 Si02
#       7
#     2   2   2   2   2   2   2
#     4  12  25  40  63  93 124 160 207 257 303 364
#     4  10  22  40  63  88 124 167 202 251 309 363
#     4  10  23  41  61  89 127 163 202 255 309 363
#     4  10  22  41  63  89 124 164 203 251 312 367
#     4  10  22  39  61  94 125 158 205 255 310 361
#     4  10  22  41  64  92 123 164 209 250 306 363
#     4  10  21  38  64  91 123 161 205 253 300 366
#
# _framework density 22.284579999999998
#
# number of rings (size 3 to 8) (size 9 to 14) (size 15 to 20)
#    0.000    1.714    0.000    3.857    0.000   10.857 
#    0.000    3.571    0.000    0.000    0.000    0.000 
#    0.000    0.000    0.000    0.000    0.000    0.000 
#
# Total GULP energy -173476.017168 kJ/mol
# GULP energy per Si atom -12391.144083 kJ/mol
# Density = 2.223386 g / cm^3
# Si number density = 22.284580 Si / 1000 Ang^3
#
#
#
# Elastic Constant Matrix: (Units=GPa)
#
#
# Indices 1 2 3 4 5 6 
#
# 1 43.6704 33.8836 38.4624 -3.6443 -28.0089 5.5036
# 2 33.8836 142.6754 67.8838 -0.7145 -23.9027 -9.2721
# 3 38.4624 67.8838 130.6580 13.7011 -28.5686 -1.4380
# 4 -3.6443 -0.7145 13.7011 48.3498 8.5259 -2.1570
# 5 -28.0089 -23.9027 -28.5686 8.5259 31.6143 0.2909
# 6 5.5036 -9.2721 -1.4380 -2.1570 0.2909 44.4246
#
#
#
# Elastic Compliance Matrix: (Units=1/GPa)
#
#
# Indices 1 2 3 4 5 6 
#
# 1 0.063651 -0.005100 -0.005272 -0.002783 0.048610 -0.009574
# 2 -0.005100 0.010200 -0.004076 0.001189 -0.000835 0.002692
# 3 -0.005272 -0.004076 0.013042 -0.005110 0.005411 -0.000059
# 4 -0.002783 0.001189 -0.005110 0.024261 -0.012743 0.001689
# 5 0.048610 -0.000835 0.005411 -0.012743 0.082459 -0.007180
# 6 -0.009574 0.002692 -0.000059 0.001689 -0.007180 0.024385
#
#
# Mechanical properties :
#
#
# Convention : Reuss Voigt Hill
#
# Bulk Modulus (GPa) = 17.24251 66.38484 41.81368
# Shear Modulus (GPa) = 18.78100 36.66265 27.72182
#
# Velocity S-wave (km/s) = 2.90622 4.06051 3.53085
# Velocity P-wave (km/s) = 4.36070 7.19986 5.95204
#
# Compressibility (1/GPa) = 0.05799618
#
# Stress axis : x y z
#
# Youngs Moduli (GPa) = 15.71070 98.03489 76.67770
#
# Poissons Ratio (x) = 0.49999 0.40427
# Poissons Ratio (y) = 0.08013 0.31253
# Poissons Ratio (z) = 0.08283 0.39958
#
# Static dielectric constant tensor:
#      x y z
#    x 4.383890 -0.177600 -0.291340 
#    y -0.177600 4.204020 0.166640 
#    z -0.291340 0.166640 4.330400 
# 
# 
# High freq. dielectric constant tensor:
#      x y z
#    x 1.879430 0.003900 0.003980 
#    y 0.003900 1.881960 -0.000610 
#    z 0.003980 -0.000610 1.886560 
# 
# From -- ./inp_files/157392.got.cif
#   From: 2010.06.25/outbox.cif.g09.slc.cpg/sg2_79_cif.got.tgz:157392.got - 2010.06.27 13:26:56.
