data_PCOD8010952
_publ_section_title
;
Structure prediction by ZEFSAII (Michael W. Deem and Ramdas Pophale) SiO2 
 PCOD8010952
Probable space group: P -1
;
_chemical_formula_sum "Si O2"
_cell_formula_units_Z 14
_cell_length_a 10.560492
_cell_length_b 10.657055
_cell_length_c 12.794794
_cell_angle_alpha 128.206007
_cell_angle_beta 48.546303
_cell_angle_gamma 141.020816
_cell_volume 662.210455
_symmetry_space_group_name_H-M "P -1"
_symmetry_group_IT_number 2
_symmetry_cell_setting 'triclinic'
loop_
_space_group_symop_operation_xyz
x,y,z
-x,-y,-z
loop_
_atom_site_type_symbol
_atom_site_label
_atom_site_fract_x
_atom_site_fract_y
_atom_site_fract_z
Si Si1 0.963191 0.215276 0.839520
Si Si2 0.657826 0.773083 0.338477
Si Si3 0.468764 0.170842 0.118094
Si Si4 0.013599 0.752880 0.636194
Si Si5 0.132310 0.606130 0.850105
Si Si6 0.218147 0.595737 0.564665
Si Si7 0.572628 0.566026 0.875445
O O1 0.200102 0.286844 0.723438
O O2 0.942922 0.367743 0.862589
O O3 0.784929 0.974143 0.782787
O O4 0.930327 0.255036 0.999325
O O5 0.476875 0.720646 0.493501
O O6 0.538889 0.645772 0.233238
O O7 0.823229 0.008209 0.343194
O O8 0.637390 0.322656 0.193360
O O9 0.496726 0.302247 0.068551
O O10 0.500000 0.000000 0.000000
O O11 0.899630 0.637819 0.528460
O O12 0.831332 0.695550 0.790775
O O13 0.162922 0.695534 0.561064
O O14 0.136847 0.614336 0.728207
O O15 0.500000 0.500000 0.000000
#
# Coordination Sequence:
#
# PCOD8010952 Si02
#       7
#     2   2   2   2   2   2   2
#     4  10  21  38  65  91 126 161 202 265 316 368
#     4  11  22  41  65  90 130 163 210 259 320 370
#     4  10  21  40  61  93 133 163 204 264 317 377
#     4  10  23  44  63  88 132 165 213 259 319 373
#     4  10  22  40  64  91 127 162 212 256 319 370
#     4  10  24  42  64  91 124 173 211 261 308 389
#     4  11  24  39  65 100 128 162 213 266 316 378
#
# _framework density 21.141314000000001
#
# number of rings (size 3 to 8) (size 9 to 14) (size 15 to 20)
#    0.000    1.714    2.857    0.429    2.000    4.571 
#    0.000    1.429    0.000    0.000    0.000    0.000 
#    0.000    0.000    0.000    0.000    0.000    0.000 
#
# Total GULP energy -173474.981256 kJ/mol
# GULP energy per Si atom -12391.070090 kJ/mol
# Density = 2.109320 g / cm^3
# Si number density = 21.141314 Si / 1000 Ang^3
#
#
#
# Elastic Constant Matrix: (Units=GPa)
#
#
# Indices 1 2 3 4 5 6 
#
# 1 73.4719 23.3806 22.8136 -3.1809 -12.9221 -1.4903
# 2 23.3806 140.1124 18.5281 5.0143 -1.1959 7.5686
# 3 22.8136 18.5281 84.5595 -6.6128 -12.8685 0.7965
# 4 -3.1809 5.0143 -6.6128 20.8466 -0.2812 -7.2836
# 5 -12.9221 -1.1959 -12.8685 -0.2812 30.3652 0.3015
# 6 -1.4903 7.5686 0.7965 -7.2836 0.3015 25.0051
#
#
#
# Elastic Compliance Matrix: (Units=1/GPa)
#
#
# Indices 1 2 3 4 5 6 
#
# 1 0.016513 -0.002606 -0.002776 0.003306 0.005751 0.002755
# 2 -0.002606 0.008124 -0.001592 -0.004193 -0.001465 -0.003767
# 3 -0.002776 -0.001592 0.014015 0.004903 0.004729 0.001241
# 4 0.003306 -0.004193 0.004903 0.057368 0.003672 0.017976
# 5 0.005751 -0.001465 0.004729 0.003672 0.037348 0.001255
# 6 0.002755 -0.003767 0.001241 0.017976 0.001255 0.046478
#
#
# Mechanical properties :
#
#
# Convention : Reuss Voigt Hill
#
# Bulk Modulus (GPa) = 40.48260 47.50983 43.99622
# Shear Modulus (GPa) = 24.74906 30.80481 27.77694
#
# Velocity S-wave (km/s) = 3.42519 3.82133 3.62867
# Velocity P-wave (km/s) = 5.90192 6.48007 6.19774
#
# Compressibility (1/GPa) = 0.02470197
#
# Stress axis : x y z
#
# Youngs Moduli (GPa) = 60.55985 123.09741 71.35145
#
# Poissons Ratio (x) = 0.32084 0.19808
# Poissons Ratio (y) = 0.15784 0.11361
# Poissons Ratio (z) = 0.16812 0.19600
#
# Static dielectric constant tensor:
#      x y z
#    x 4.111060 0.427700 -0.490300 
#    y 0.427700 4.270630 0.020720 
#    z -0.490300 0.020720 3.814640 
# 
# 
# High freq. dielectric constant tensor:
#      x y z
#    x 1.824030 0.014440 -0.029000 
#    y 0.014440 1.847150 0.005780 
#    z -0.029000 0.005780 1.803930 
# 
# From -- ./inp_files/382879.got.cif
#   From: 2010.06.25/outbox.cif.g09.slc.cpg/sg2_192_cif.got.tgz:382879.got - 2010.06.27 13:26:56.
