data_PCOD8010690
_publ_section_title
;
Structure prediction by ZEFSAII (Michael W. Deem and Ramdas Pophale) SiO2 
 PCOD8010690
Probable space group: P -1
;
_chemical_formula_sum "Si O2"
_cell_formula_units_Z 16
_cell_length_a 9.241670
_cell_length_b 11.096240
_cell_length_c 11.021001
_cell_angle_alpha 54.689066
_cell_angle_beta 63.105223
_cell_angle_gamma 58.670694
_cell_volume 768.874691
_symmetry_space_group_name_H-M "P -1"
_symmetry_group_IT_number 2
_symmetry_cell_setting 'triclinic'
loop_
_space_group_symop_operation_xyz
x,y,z
-x,-y,-z
loop_
_atom_site_type_symbol
_atom_site_label
_atom_site_fract_x
_atom_site_fract_y
_atom_site_fract_z
Si Si1 0.943160 0.179635 0.454949
Si Si2 0.802044 0.346369 0.169008
Si Si3 0.786729 0.182962 0.767991
Si Si4 0.166776 0.336327 0.395536
Si Si5 0.851036 0.825558 0.994356
Si Si6 0.950132 0.690240 0.289469
Si Si7 0.506228 0.332691 0.144785
Si Si8 0.421047 0.286713 0.951762
O O1 0.830096 0.287387 0.329466
O O2 0.823367 0.217458 0.596617
O O3 0.116618 0.219655 0.391233
O O4 0.000000 0.000000 0.500000
O O5 0.684488 0.260507 0.194970
O O6 0.709813 0.534064 0.097745
O O7 0.981005 0.305129 0.052472
O O8 0.581451 0.266861 0.814120
O O9 0.882613 0.261603 0.778432
O O10 0.859603 0.997246 0.874612
O O11 0.175953 0.272962 0.566970
O O12 0.350157 0.347389 0.286433
O O13 0.014159 0.505445 0.341860
O O14 0.840177 0.788265 0.161847
O O15 0.679086 0.824276 0.992976
O O16 0.500000 0.500000 0.000000
O O17 0.496975 0.227898 0.092330
#
# Coordination Sequence:
#
# PCOD8010690 Si02
#       8
#     2   2   2   2   2   2   2   2
#     4  11  23  43  65  92 134 172 209 262 326 380
#     4  11  22  39  67  90 124 173 220 258 315 383
#     4  11  24  41  63  89 137 168 204 272 322 369
#     4  10  21  40  64  94 129 168 211 273 308 378
#     4  12  22  39  64  93 130 171 215 259 320 385
#     4  10  21  38  65  93 124 168 222 255 320 376
#     4  10  21  38  62  93 128 157 208 265 314 364
#     4  11  23  39  62  96 124 167 217 268 313 371
#
# _framework density 20.809633999999999
#
# number of rings (size 3 to 8) (size 9 to 14) (size 15 to 20)
#    0.000    1.250    1.250    6.375    0.000    1.500 
#    0.000    0.625    0.000    0.000    0.000    0.000 
#    0.000    0.000    0.000    0.000    0.000    0.000 
#
# Total GULP energy -198462.449432 kJ/mol
# GULP energy per Si atom -12403.903089 kJ/mol
# Density = 2.076227 g / cm^3
# Si number density = 20.809634 Si / 1000 Ang^3
#
#
#
# Elastic Constant Matrix: (Units=GPa)
#
#
# Indices 1 2 3 4 5 6 
#
# 1 135.6451 23.1610 57.7902 20.7132 -1.9028 13.1312
# 2 23.1610 70.1726 15.8647 5.5201 -10.4050 5.1735
# 3 57.7902 15.8647 120.6204 13.2026 8.5229 0.5399
# 4 20.7132 5.5201 13.2026 32.2995 -0.6844 -9.6974
# 5 -1.9028 -10.4050 8.5229 -0.6844 46.1349 7.1862
# 6 13.1312 5.1735 0.5399 -9.6974 7.1862 33.0565
#
#
#
# Elastic Compliance Matrix: (Units=1/GPa)
#
#
# Indices 1 2 3 4 5 6 
#
# 1 0.011320 -0.001357 -0.004571 -0.007137 0.001947 -0.006727
# 2 -0.001357 0.016133 -0.001520 -0.002246 0.004387 -0.003574
# 3 -0.004571 -0.001520 0.010948 -0.000649 -0.002925 0.002320
# 4 -0.007137 -0.002246 -0.000649 0.040856 -0.002525 0.015732
# 5 0.001947 0.004387 -0.002925 -0.002525 0.024410 -0.007460
# 6 -0.006727 -0.003574 0.002320 0.015732 -0.007460 0.039681
#
#
# Mechanical properties :
#
#
# Convention : Reuss Voigt Hill
#
# Bulk Modulus (GPa) = 42.54524 57.78555 50.16540
# Shear Modulus (GPa) = 30.10637 37.60633 33.85635
#
# Velocity S-wave (km/s) = 3.80775 4.25568 4.03793
# Velocity P-wave (km/s) = 6.31041 7.20949 6.77488
#
# Compressibility (1/GPa) = 0.02350439
#
# Stress axis : x y z
#
# Youngs Moduli (GPa) = 88.34184 61.98651 91.34234
#
# Poissons Ratio (x) = 0.08409 0.41754
# Poissons Ratio (y) = 0.11984 0.13884
# Poissons Ratio (z) = 0.40383 0.09422
#
# Static dielectric constant tensor:
#      x y z
#    x 4.363070 0.273320 0.283620 
#    y 0.273320 3.600310 0.140050 
#    z 0.283620 0.140050 4.126090 
# 
# 
# High freq. dielectric constant tensor:
#      x y z
#    x 1.826930 0.017030 -0.001700 
#    y 0.017030 1.802340 0.012290 
#    z -0.001700 0.012290 1.822420 
# 
# From -- ./inp_files/205317.got.cif
#   From: 2010.06.25/outbox.cif.g09.slc.cpg/sg2_103_cif.got.tgz:205317.got - 2010.06.27 13:26:56.
