data_PCOD8010929
_publ_section_title
;
Structure prediction by ZEFSAII (Michael W. Deem and Ramdas Pophale) SiO2 
 PCOD8010929
Probable space group: P -1
;
_chemical_formula_sum "Si O2"
_cell_formula_units_Z 16
_cell_length_a 21.357666
_cell_length_b 9.022251
_cell_length_c 8.151178
_cell_angle_alpha 126.438765
_cell_angle_beta 129.239820
_cell_angle_gamma 34.926649
_cell_volume 686.357570
_symmetry_space_group_name_H-M "P -1"
_symmetry_group_IT_number 2
_symmetry_cell_setting 'triclinic'
loop_
_space_group_symop_operation_xyz
x,y,z
-x,-y,-z
loop_
_atom_site_type_symbol
_atom_site_label
_atom_site_fract_x
_atom_site_fract_y
_atom_site_fract_z
Si Si1 0.567064 0.284500 0.105585
Si Si2 0.819958 0.824956 0.237346
Si Si3 0.998349 0.255431 0.004934
Si Si4 0.802185 0.581393 0.317592
Si Si5 0.986350 0.809739 0.375660
Si Si6 0.601376 0.596093 0.519145
Si Si7 0.839151 0.235223 0.863803
Si Si8 0.424635 0.180474 0.725046
O O1 0.573461 0.421054 0.355831
O O2 0.694710 0.029928 0.078405
O O3 0.500000 0.500000 0.000000
O O4 0.499994 0.201711 0.974901
O O5 0.794442 0.793568 0.357098
O O6 0.877373 0.936435 0.399068
O O7 0.916228 0.551147 0.123814
O O8 0.038104 0.238115 0.875371
O O9 0.925613 0.181946 0.837421
O O10 0.110294 0.043051 0.169802
O O11 0.894573 0.462098 0.535228
O O12 0.681128 0.716563 0.277123
O O13 0.841682 0.366193 0.111074
O O14 0.000000 0.000000 0.500000
O O15 0.713249 0.429075 0.707243
O O16 0.621346 0.645744 0.402180
O O17 0.498318 0.878205 0.613448
#
# Coordination Sequence:
#
# PCOD8010929 Si02
#       8
#     2   2   2   2   2   2   2   2
#     4  10  24  42  70 102 135 177 231 285 334 412
#     4  11  26  45  66 102 140 177 227 288 343 406
#     4  10  22  41  66  97 137 180 225 279 342 414
#     4  11  24  43  70 101 142 179 227 288 342 408
#     4  12  25  42  70 100 132 184 230 275 342 415
#     4  10  22  41  70 100 139 182 229 287 342 411
#     4  10  21  38  65 101 137 181 221 281 348 402
#     4  10  22  45  70 100 137 187 231 280 348 406
#
# _framework density 23.311464999999998
#
# number of rings (size 3 to 8) (size 9 to 14) (size 15 to 20)
#    0.000    1.500    1.250    3.000    5.250    5.000 
#    0.000    3.750    0.000    0.000    0.000    0.000 
#    0.000    0.000    0.000    0.000    0.000    0.000 
#
# Total GULP energy -198300.393124 kJ/mol
# GULP energy per Si atom -12393.774570 kJ/mol
# Density = 2.325841 g / cm^3
# Si number density = 23.311465 Si / 1000 Ang^3
#
#
#
# Elastic Constant Matrix: (Units=GPa)
#
#
# Indices 1 2 3 4 5 6 
#
# 1 175.6229 48.5181 39.9770 -9.1539 25.6485 -5.4228
# 2 48.5181 138.9576 33.4570 -28.2717 3.7138 1.0470
# 3 39.9770 33.4570 76.0929 -20.3280 10.1682 6.4576
# 4 -9.1539 -28.2717 -20.3280 43.3648 -1.8531 6.5414
# 5 25.6485 3.7138 10.1682 -1.8531 28.2466 -4.3320
# 6 -5.4228 1.0470 6.4576 6.5414 -4.3320 27.3429
#
#
#
# Elastic Compliance Matrix: (Units=1/GPa)
#
#
# Indices 1 2 3 4 5 6 
#
# 1 0.007755 -0.002205 -0.002986 -0.001717 -0.005503 0.001867
# 2 -0.002205 0.009387 -0.001676 0.005143 0.001495 -0.001394
# 3 -0.002986 -0.001676 0.018852 0.008072 -0.004494 -0.007623
# 4 -0.001717 0.005143 0.008072 0.031304 -0.001529 -0.010175
# 5 -0.005503 0.001495 -0.004494 -0.001529 0.042803 0.007060
# 6 0.001867 -0.001394 -0.007623 -0.010175 0.007060 0.042349
#
#
# Mechanical properties :
#
#
# Convention : Reuss Voigt Hill
#
# Bulk Modulus (GPa) = 44.92869 70.50863 57.71866
# Shear Modulus (GPa) = 28.80122 37.70561 33.25341
#
# Velocity S-wave (km/s) = 3.51878 4.02614 3.78098
# Velocity P-wave (km/s) = 5.98532 7.20591 6.62379
#
# Compressibility (1/GPa) = 0.02225749
#
# Stress axis : x y z
#
# Youngs Moduli (GPa) = 128.95293 106.53253 53.04567
#
# Poissons Ratio (x) = 0.23490 0.15842
# Poissons Ratio (y) = 0.28434 0.08893
# Poissons Ratio (z) = 0.38512 0.17859
#
# Static dielectric constant tensor:
#      x y z
#    x 4.610430 0.306610 0.138190 
#    y 0.306610 4.381790 0.194410 
#    z 0.138190 0.194410 5.027930 
# 
# 
# High freq. dielectric constant tensor:
#      x y z
#    x 1.914200 0.010040 0.008720 
#    y 0.010040 1.942990 -0.005580 
#    z 0.008720 -0.005580 1.918720 
# 
# From -- ./inp_files/343796.got.cif
#   From: 2010.06.25/outbox.cif.g09.slc.cpg/sg2_172_cif.got.tgz:343796.got - 2010.06.27 13:26:56.
