data_PCOD8010528
_publ_section_title
;
Structure prediction by ZEFSAII (Michael W. Deem and Ramdas Pophale) SiO2 
 PCOD8010528
Probable space group: P -1
;
_chemical_formula_sum "Si O2"
_cell_formula_units_Z 14
_cell_length_a 9.945356
_cell_length_b 9.484529
_cell_length_c 13.070177
_cell_angle_alpha 101.539953
_cell_angle_beta 42.007814
_cell_angle_gamma 116.639492
_cell_volume 718.998777
_symmetry_space_group_name_H-M "P -1"
_symmetry_group_IT_number 2
_symmetry_cell_setting 'triclinic'
loop_
_space_group_symop_operation_xyz
x,y,z
-x,-y,-z
loop_
_atom_site_type_symbol
_atom_site_label
_atom_site_fract_x
_atom_site_fract_y
_atom_site_fract_z
Si Si1 0.285780 0.212611 0.911230
Si Si2 0.168582 0.349773 0.613316
Si Si3 0.708329 0.167641 0.935784
Si Si4 0.390448 0.445756 0.300578
Si Si5 0.387505 0.643453 0.668888
Si Si6 0.199759 0.863939 0.887867
Si Si7 0.579983 0.674368 0.935689
O O1 0.507446 0.369693 0.770284
O O2 0.302566 0.055632 0.836571
O O3 0.270810 0.198696 0.042697
O O4 0.066076 0.222358 0.996469
O O5 0.194442 0.497820 0.692797
O O6 0.369118 0.299649 0.517752
O O7 0.927730 0.196833 0.748389
O O8 0.188103 0.405830 0.490869
O O9 0.766772 0.175080 0.021657
O O10 0.642420 0.307871 0.963919
O O11 0.500000 0.000000 0.000000
O O12 0.590663 0.420459 0.239697
O O13 0.290946 0.318863 0.243306
O O14 0.324540 0.790963 0.732612
O O15 0.500000 0.500000 0.000000
#
# Coordination Sequence:
#
# PCOD8010528 Si02
#       7
#     2   2   2   2   2   2   2
#     4  10  22  37  60  92 130 152 206 252 295 357
#     4   9  21  37  62  94 120 150 211 257 292 363
#     4  12  22  39  67  87 119 159 205 252 306 359
#     4   9  18  39  61  83 121 157 194 254 296 353
#     4   9  19  38  64  92 116 159 208 247 300 360
#     4  11  22  37  64  91 119 165 203 248 303 357
#     4  10  21  38  61  89 121 156 203 247 299 363
#
# _framework density 19.471520999999999
#
# number of rings (size 3 to 8) (size 9 to 14) (size 15 to 20)
#    0.857    1.143    2.857    0.857    4.000    1.143 
#    0.000    6.429    3.143    0.000    0.000    0.000 
#    0.000    0.000    0.000    0.000    0.000    0.000 
#
# Total GULP energy -173473.942082 kJ/mol
# GULP energy per Si atom -12390.995863 kJ/mol
# Density = 1.942720 g / cm^3
# Si number density = 19.471521 Si / 1000 Ang^3
#
#
#
# Elastic Constant Matrix: (Units=GPa)
#
#
# Indices 1 2 3 4 5 6 
#
# 1 107.1034 26.4256 37.6588 10.1130 1.1944 8.4419
# 2 26.4256 101.8829 66.4921 18.5533 -5.8240 1.9061
# 3 37.6588 66.4921 110.1459 0.4421 -1.6036 8.7924
# 4 10.1130 18.5533 0.4421 34.2780 3.9771 -2.8607
# 5 1.1944 -5.8240 -1.6036 3.9771 25.8854 9.1388
# 6 8.4419 1.9061 8.7924 -2.8607 9.1388 34.8633
#
#
#
# Elastic Compliance Matrix: (Units=1/GPa)
#
#
# Indices 1 2 3 4 5 6 
#
# 1 0.011104 0.000359 -0.003811 -0.003687 0.000686 -0.002230
# 2 0.000359 0.019992 -0.012015 -0.011484 0.005709 -0.000589
# 3 -0.003811 -0.012015 0.017717 0.007479 -0.001957 -0.001762
# 4 -0.003687 -0.011484 0.007479 0.037939 -0.009642 0.005275
# 5 0.000686 0.005709 -0.001957 -0.009642 0.045753 -0.012769
# 6 -0.002230 -0.000589 -0.001762 0.005275 -0.012769 0.033480
#
#
# Mechanical properties :
#
#
# Convention : Reuss Voigt Hill
#
# Bulk Modulus (GPa) = 55.92819 64.47614 60.20217
# Shear Modulus (GPa) = 24.64522 31.57572 28.11047
#
# Velocity S-wave (km/s) = 3.56154 4.03132 3.80369
# Velocity P-wave (km/s) = 6.76004 7.40633 7.09055
#
# Compressibility (1/GPa) = 0.01788007
#
# Stress axis : x y z
#
# Youngs Moduli (GPa) = 90.05571 50.01946 56.44250
#
# Poissons Ratio (x) = -0.01796 0.21508
# Poissons Ratio (y) = -0.03234 0.67818
# Poissons Ratio (z) = 0.34316 0.60100
#
# Static dielectric constant tensor:
#      x y z
#    x 2.268850 -0.311930 0.987980 
#    y -0.311930 3.399770 0.504960 
#    z 0.987980 0.504960 2.963060 
# 
# 
# High freq. dielectric constant tensor:
#      x y z
#    x 1.767190 0.004840 0.010000 
#    y 0.004840 1.752500 0.016900 
#    z 0.010000 0.016900 1.728910 
# 
# From -- ./inp_files/414201.got.cif
#   From: 2010.06.25/outbox.cif.g09.slc.cpg/sg2_208_cif.got.tgz:414201.got - 2010.06.27 13:26:56.
