data_PCOD8010013
_publ_section_title
;
Structure prediction by ZEFSAII (Michael W. Deem and Ramdas Pophale) SiO2 
 PCOD8010013
Probable space group: P -1
;
_chemical_formula_sum "Si O2"
_cell_formula_units_Z 12
_cell_length_a 10.155003
_cell_length_b 16.145482
_cell_length_c 9.930602
_cell_angle_alpha 45.495333
_cell_angle_beta 39.717977
_cell_angle_gamma 34.146203
_cell_volume 574.519277
_symmetry_space_group_name_H-M "P -1"
_symmetry_group_IT_number 2
_symmetry_cell_setting 'triclinic'
loop_
_space_group_symop_operation_xyz
x,y,z
-x,-y,-z
loop_
_atom_site_type_symbol
_atom_site_label
_atom_site_fract_x
_atom_site_fract_y
_atom_site_fract_z
Si Si1 0.391356 0.228979 0.682692
Si Si2 0.902463 0.335271 0.789982
Si Si3 0.626964 0.365176 0.230773
Si Si4 0.664710 0.930925 0.663236
Si Si5 0.049812 0.355739 0.063954
Si Si6 0.170941 0.042494 0.763413
O O1 0.611103 0.249250 0.454858
O O2 0.131919 0.336333 0.669245
O O3 0.527663 0.054664 0.749123
O O4 0.298326 0.272239 0.860823
O O5 0.675055 0.491868 0.722527
O O6 0.028830 0.214145 0.711713
O O7 0.784074 0.294019 0.047696
O O8 0.776403 0.410210 0.148712
O O9 0.876545 0.764058 0.743610
O O10 0.801634 0.972145 0.403558
O O11 0.453052 0.932407 0.742047
O O12 0.000000 0.500000 0.000000
O O13 0.000000 0.000000 0.000000
#
# Coordination Sequence:
#
# PCOD8010013 Si02
#       6
#     2   2   2   2   2   2
#     4  10  21  41  64  84 118 162 199 252 294 348
#     4   9  20  37  59  94 116 151 205 247 292 358
#     4  10  21  38  62  88 121 159 197 245 306 350
#     4  10  23  41  59  91 122 154 205 244 295 358
#     4  11  26  40  58  91 126 160 199 244 297 362
#     4  10  21  37  64  88 119 158 197 250 298 348
#
# _framework density 20.887027
#
# number of rings (size 3 to 8) (size 9 to 14) (size 15 to 20)
#    0.000    2.000    0.000    2.000    4.667    2.667 
#    6.000    0.000    0.000    0.000    0.000    0.000 
#    0.000    0.000    0.000    0.000    0.000    0.000 
#
# Total GULP energy -148809.285367 kJ/mol
# GULP energy per Si atom -12400.773781 kJ/mol
# Density = 2.083949 g / cm^3
# Si number density = 20.887027 Si / 1000 Ang^3
#
#
#
# Elastic Constant Matrix: (Units=GPa)
#
#
# Indices 1 2 3 4 5 6 
#
# 1 72.2719 38.3141 37.6835 -4.5031 1.4636 7.8289
# 2 38.3141 93.4850 24.0123 0.0142 10.0420 3.9071
# 3 37.6835 24.0123 122.0392 1.4298 -6.4393 6.1760
# 4 -4.5031 0.0142 1.4298 31.3774 1.3655 5.4490
# 5 1.4636 10.0420 -6.4393 1.3655 32.1979 6.0275
# 6 7.8289 3.9071 6.1760 5.4490 6.0275 28.7659
#
#
#
# Elastic Compliance Matrix: (Units=1/GPa)
#
#
# Indices 1 2 3 4 5 6 
#
# 1 0.020912 -0.007262 -0.004783 0.003985 0.001060 -0.004655
# 2 -0.007262 0.014326 -0.000872 -0.001049 -0.004523 0.001364
# 3 -0.004783 -0.000872 0.010057 -0.001071 0.002754 -0.001113
# 4 0.003985 -0.001049 -0.001071 0.033726 -0.000176 -0.007064
# 5 0.001060 -0.004523 0.002754 -0.000176 0.034370 -0.007434
# 6 -0.004655 0.001364 -0.001113 -0.007064 -0.007434 0.038980
#
#
# Mechanical properties :
#
#
# Convention : Reuss Voigt Hill
#
# Bulk Modulus (GPa) = 51.38662 54.20176 52.79419
# Shear Modulus (GPa) = 27.07221 30.98730 29.02976
#
# Velocity S-wave (km/s) = 3.60408 3.85589 3.73211
# Velocity P-wave (km/s) = 6.47879 6.76980 6.62589
#
# Compressibility (1/GPa) = 0.01946032
#
# Stress axis : x y z
#
# Youngs Moduli (GPa) = 47.82044 69.80298 99.43408
#
# Poissons Ratio (x) = 0.50689 0.47564
# Poissons Ratio (y) = 0.34726 0.08670
# Poissons Ratio (z) = 0.22875 0.06086
#
# Static dielectric constant tensor:
#      x y z
#    x -18.511910 -31.379660 1.256970 
#    y -31.379660 -40.618790 1.994540 
#    z 1.256970 1.994540 3.689500 
# 
# 
# High freq. dielectric constant tensor:
#      x y z
#    x 1.810630 0.000040 -0.001400 
#    y 0.000040 1.814340 0.012670 
#    z -0.001400 0.012670 1.823340 
# 
# From -- ./inp_files/26550.got.cif
#   From: 2010.06.25/outbox.cif.g09.slc.cpg/sg2_14_cif.got.tgz:26550.got - 2010.06.27 13:26:56.
