data_PCOD8010197
_publ_section_title
;
Structure prediction by ZEFSAII (Michael W. Deem and Ramdas Pophale) SiO2 
 PCOD8010197
Probable space group: P -1
;
_chemical_formula_sum "Si O2"
_cell_formula_units_Z 16
_cell_length_a 7.868935
_cell_length_b 14.949245
_cell_length_c 11.977550
_cell_angle_alpha 145.873891
_cell_angle_beta 65.299288
_cell_angle_gamma 99.429745
_cell_volume 670.743498
_symmetry_space_group_name_H-M "P -1"
_symmetry_group_IT_number 2
_symmetry_cell_setting 'triclinic'
loop_
_space_group_symop_operation_xyz
x,y,z
-x,-y,-z
loop_
_atom_site_type_symbol
_atom_site_label
_atom_site_fract_x
_atom_site_fract_y
_atom_site_fract_z
Si Si1 0.215818 0.487523 0.629764
Si Si2 0.665116 0.735758 0.440948
Si Si3 0.709481 0.503540 0.980477
Si Si4 0.452303 0.399828 0.263401
Si Si5 0.010166 0.044770 0.864483
Si Si6 0.215708 0.298832 0.045288
Si Si7 0.028743 0.119277 0.519799
Si Si8 0.741328 0.213759 0.304833
O O1 0.183009 0.362928 0.603519
O O2 0.373541 0.369080 0.374638
O O3 0.316764 0.611849 0.796219
O O4 0.005413 0.585899 0.728791
O O5 0.450033 0.835736 0.659712
O O6 0.755880 0.867606 0.498907
O O7 0.669009 0.594384 0.204108
O O8 0.768452 0.624055 0.000591
O O9 0.861283 0.308928 0.753194
O O10 0.500000 0.500000 0.000000
O O11 0.402031 0.283430 0.061316
O O12 0.317463 0.587316 0.451821
O O13 0.940496 0.985641 0.710152
O O14 0.081816 0.883045 0.759767
O O15 0.191263 0.113813 0.856457
O O16 0.814312 0.177637 0.118418
O O17 0.000000 0.000000 0.500000
#
# Coordination Sequence:
#
# PCOD8010197 Si02
#       8
#     2   2   2   2   2   2   2   2
#     4  10  21  37  68  99 132 164 234 284 326 400
#     4  11  24  45  71  97 131 181 234 282 341 395
#     4  12  26  47  74  97 131 183 244 285 330 415
#     4  10  21  40  66 100 133 177 228 280 333 405
#     4  11  25  42  66 102 142 176 218 274 359 413
#     4  12  23  42  70  97 134 183 227 280 340 404
#     4  12  27  45  69  99 142 179 224 287 347 414
#     4  10  23  44  67  99 137 175 223 283 339 421
#
# _framework density 23.854126999999998
#
# number of rings (size 3 to 8) (size 9 to 14) (size 15 to 20)
#    0.000    1.000    2.500    4.500    1.750    2.500 
#    2.250    2.500    0.000    0.000    0.000    0.000 
#    0.000    0.000    0.000    0.000    0.000    0.000 
#
# Total GULP energy -198231.788356 kJ/mol
# GULP energy per Si atom -12389.486772 kJ/mol
# Density = 2.379983 g / cm^3
# Si number density = 23.854127 Si / 1000 Ang^3
#
#
#
# Elastic Constant Matrix: (Units=GPa)
#
#
# Indices 1 2 3 4 5 6 
#
# 1 91.7144 23.1616 23.9367 -8.8826 4.8595 14.6441
# 2 23.1616 141.3389 36.9193 -16.6787 6.9104 13.9695
# 3 23.9367 36.9193 68.4479 -12.6304 10.6602 8.1274
# 4 -8.8826 -16.6787 -12.6304 31.2889 3.1495 1.8470
# 5 4.8595 6.9104 10.6602 3.1495 28.6939 -8.6220
# 6 14.6441 13.9695 8.1274 1.8470 -8.6220 40.1010
#
#
#
# Elastic Compliance Matrix: (Units=1/GPa)
#
#
# Indices 1 2 3 4 5 6 
#
# 1 0.012918 -0.000456 -0.002742 0.002879 -0.002799 -0.004737
# 2 -0.000456 0.008815 -0.003259 0.003634 -0.002094 -0.002861
# 3 -0.002742 -0.003259 0.020350 0.006774 -0.008281 -0.004080
# 4 0.002879 0.003634 0.006774 0.038960 -0.010481 -0.007738
# 5 -0.002799 -0.002094 -0.008281 -0.010481 0.044079 0.013390
# 6 -0.004737 -0.002861 -0.004080 -0.007738 0.013390 0.031726
#
#
# Mechanical properties :
#
#
# Convention : Reuss Voigt Hill
#
# Bulk Modulus (GPa) = 34.28236 52.17071 43.22653
# Shear Modulus (GPa) = 27.85745 34.51567 31.18656
#
# Velocity S-wave (km/s) = 3.42105 3.80800 3.61970
# Velocity P-wave (km/s) = 5.47793 6.42283 5.96910
#
# Compressibility (1/GPa) = 0.02916952
#
# Stress axis : x y z
#
# Youngs Moduli (GPa) = 77.41364 113.44132 49.13907
#
# Poissons Ratio (x) = 0.05172 0.13474
# Poissons Ratio (y) = 0.03529 0.16014
# Poissons Ratio (z) = 0.21227 0.36970
#
# Static dielectric constant tensor:
#      x y z
#    x 4.298310 0.188920 -0.087110 
#    y 0.188920 5.046690 -0.289450 
#    z -0.087110 -0.289450 4.258380 
# 
# 
# High freq. dielectric constant tensor:
#      x y z
#    x 1.946000 0.002060 -0.007180 
#    y 0.002060 1.973520 -0.009560 
#    z -0.007180 -0.009560 1.918510 
# 
# From -- ./inp_files/399772.got.cif
#   From: 2010.06.25/outbox.cif.g09.slc.cpg/sg2_200_cif.got.tgz:399772.got - 2010.06.27 13:26:56.
