data_PCOD8010183
_publ_section_title
;
Structure prediction by ZEFSAII (Michael W. Deem and Ramdas Pophale) SiO2 
 PCOD8010183
Probable space group: P -1
;
_chemical_formula_sum "Si O2"
_cell_formula_units_Z 14
_cell_length_a 11.058120
_cell_length_b 7.898205
_cell_length_c 13.523157
_cell_angle_alpha 104.574804
_cell_angle_beta 30.124091
_cell_angle_gamma 90.880166
_cell_volume 521.566806
_symmetry_space_group_name_H-M "P -1"
_symmetry_group_IT_number 2
_symmetry_cell_setting 'triclinic'
loop_
_space_group_symop_operation_xyz
x,y,z
-x,-y,-z
loop_
_atom_site_type_symbol
_atom_site_label
_atom_site_fract_x
_atom_site_fract_y
_atom_site_fract_z
Si Si1 0.609689 0.686624 0.860654
Si Si2 0.549302 0.388539 0.608725
Si Si3 0.731595 0.049996 0.304158
Si Si4 0.162866 0.700407 0.039936
Si Si5 0.385297 0.124332 0.818477
Si Si6 0.755481 0.963372 0.700626
Si Si7 0.973613 0.527985 0.748597
O O1 0.444397 0.628334 0.888140
O O2 0.770657 0.523654 0.804134
O O3 0.826114 0.752864 0.666915
O O4 0.392861 0.873461 0.092093
O O5 0.627705 0.281074 0.429546
O O6 0.254274 0.563142 0.856118
O O7 0.557350 0.219838 0.652833
O O8 0.762810 0.477276 0.490365
O O9 0.500000 0.000000 0.500000
O O10 0.761441 0.982471 0.158616
O O11 0.006329 0.922054 0.150711
O O12 0.967930 0.649402 0.243200
O O13 0.584725 0.963425 0.725339
O O14 0.156154 0.276881 0.068731
O O15 0.000000 0.000000 0.500000
#
# Coordination Sequence:
#
# PCOD8010183 Si02
#       7
#     2   2   2   2   2   2   2
#     4  10  23  39  66 102 139 176 224 285 337 409
#     4  10  23  44  68 100 136 178 230 279 336 407
#     4  10  24  45  72  95 140 183 228 283 339 400
#     4  11  25  45  69 102 141 179 228 282 341 405
#     4   9  21  41  64  98 134 176 225 282 334 401
#     4  10  21  37  68 103 133 173 228 276 339 406
#     4  10  22  43  69  97 140 178 225 285 346 401
#
# _framework density 26.842196999999999
#
# number of rings (size 3 to 8) (size 9 to 14) (size 15 to 20)
#    0.000    2.000    0.000    1.286   10.000    7.429 
#    0.000    5.000    0.000    0.000    0.000    0.000 
#    0.000    0.000    0.000    0.000    0.000    0.000 
#
# Total GULP energy -173456.401204 kJ/mol
# GULP energy per Si atom -12389.742943 kJ/mol
# Density = 2.678110 g / cm^3
# Si number density = 26.842197 Si / 1000 Ang^3
#
#
#
# Elastic Constant Matrix: (Units=GPa)
#
#
# Indices 1 2 3 4 5 6 
#
# 1 99.1012 5.0252 22.2965 9.5722 1.6903 6.6890
# 2 5.0252 68.4337 24.4204 -2.9295 9.0730 3.8307
# 3 22.2965 24.4204 86.3066 -16.2644 3.9854 1.9668
# 4 9.5722 -2.9295 -16.2644 40.9716 7.1707 3.5914
# 5 1.6903 9.0730 3.9854 7.1707 30.4810 -4.7669
# 6 6.6890 3.8307 1.9668 3.5914 -4.7669 27.8549
#
#
#
# Elastic Compliance Matrix: (Units=1/GPa)
#
#
# Indices 1 2 3 4 5 6 
#
# 1 0.011443 0.000402 -0.003808 -0.004055 0.000394 -0.001944
# 2 0.000402 0.017071 -0.004537 0.000487 -0.005104 -0.003060
# 3 -0.003808 -0.004537 0.015317 0.007113 -0.002247 -0.000845
# 4 -0.004055 0.000487 0.007113 0.030177 -0.008728 -0.004980
# 5 0.000394 -0.005104 -0.002247 -0.008728 0.037964 0.008388
# 6 -0.001944 -0.003060 -0.000845 -0.004980 0.008388 0.038925
#
#
# Mechanical properties :
#
#
# Convention : Reuss Voigt Hill
#
# Bulk Modulus (GPa) = 35.78389 39.70285 37.74337
# Shear Modulus (GPa) = 28.39318 33.33479 30.86398
#
# Velocity S-wave (km/s) = 3.25588 3.52786 3.39459
# Velocity P-wave (km/s) = 5.24352 5.60515 5.42735
#
# Compressibility (1/GPa) = 0.02794553
#
# Stress axis : x y z
#
# Youngs Moduli (GPa) = 87.38787 58.57920 65.28508
#
# Poissons Ratio (x) = -0.02353 0.24860
# Poissons Ratio (y) = -0.03510 0.29618
# Poissons Ratio (z) = 0.33276 0.26576
#
# Static dielectric constant tensor:
#      x y z
#    x 5.097330 0.340950 0.502190 
#    y 0.340950 4.601030 -0.047860 
#    z 0.502190 -0.047860 5.043270 
# 
# 
# High freq. dielectric constant tensor:
#      x y z
#    x 2.067640 0.009310 0.021390 
#    y 0.009310 2.065420 -0.013080 
#    z 0.021390 -0.013080 2.093470 
# 
# From -- ./inp_files/515725.got.cif
#   From: 2010.06.25/outbox.cif.g09.slc.cpg/sg2_258_cif.got.tgz:515725.got - 2010.06.27 13:26:56.
