data_PCOD8010306
_publ_section_title
;
Structure prediction by ZEFSAII (Michael W. Deem and Ramdas Pophale) SiO2 
 PCOD8010306
Probable space group: P -1
;
_chemical_formula_sum "Si O2"
_cell_formula_units_Z 16
_cell_length_a 9.130923
_cell_length_b 9.465012
_cell_length_c 18.117726
_cell_angle_alpha 152.201430
_cell_angle_beta 78.583342
_cell_angle_gamma 101.200216
_cell_volume 715.162679
_symmetry_space_group_name_H-M "P -1"
_symmetry_group_IT_number 2
_symmetry_cell_setting 'triclinic'
loop_
_space_group_symop_operation_xyz
x,y,z
-x,-y,-z
loop_
_atom_site_type_symbol
_atom_site_label
_atom_site_fract_x
_atom_site_fract_y
_atom_site_fract_z
Si Si1 0.594940 0.161980 0.261747
Si Si2 0.173434 0.275984 0.706022
Si Si3 0.274468 0.630437 0.380541
Si Si4 0.962550 0.114796 0.788697
Si Si5 0.717652 0.623728 0.579866
Si Si6 0.181333 0.312754 0.969989
Si Si7 0.066091 0.337738 0.151358
Si Si8 0.435478 0.686054 0.828763
O O1 0.680068 0.425737 0.421021
O O2 0.417000 0.148673 0.287160
O O3 0.634711 0.239022 0.208958
O O4 0.659484 0.838102 0.129010
O O5 0.307559 0.531260 0.822368
O O6 0.090864 0.203870 0.757744
O O7 0.060013 0.413668 0.722416
O O8 0.238895 0.975687 0.524364
O O9 0.261274 0.590944 0.451363
O O10 0.161366 0.393692 0.241461
O O11 0.439798 0.562785 0.305901
O O12 0.046027 0.088681 0.847579
O O13 0.874602 0.803752 0.632792
O O14 0.837245 0.370340 0.924685
O O15 0.169525 0.379006 0.088313
O O16 0.000000 0.000000 0.000000
O O17 0.500000 0.000000 0.000000
#
# Coordination Sequence:
#
# PCOD8010306 Si02
#       8
#     2   2   2   2   2   2   2   2
#     4  10  22  41  64  88 120 160 209 256 301 368
#     4  11  24  41  63  94 126 161 208 258 311 370
#     4  11  23  41  65  91 125 166 208 258 308 367
#     4  10  23  40  62  91 127 163 204 254 308 368
#     4  10  23  42  62  90 123 165 207 250 309 363
#     4  10  21  38  58  90 123 158 204 255 305 360
#     4  11  22  38  62  93 127 163 206 254 309 369
#     4  11  24  43  66  91 123 164 207 256 316 375
#
# _framework density 22.372530999999999
#
# number of rings (size 3 to 8) (size 9 to 14) (size 15 to 20)
#    0.000    1.500    0.000    4.500    0.000   11.500 
#    0.000    8.750    0.000    0.000    0.000    0.000 
#    0.000    0.000    0.000    0.000    0.000    0.000 
#
# Total GULP energy -198383.430300 kJ/mol
# GULP energy per Si atom -12398.964394 kJ/mol
# Density = 2.232161 g / cm^3
# Si number density = 22.372531 Si / 1000 Ang^3
#
#
#
# Elastic Constant Matrix: (Units=GPa)
#
#
# Indices 1 2 3 4 5 6 
#
# 1 103.2784 49.8094 47.6822 10.3435 -0.6584 -3.3503
# 2 49.8094 75.1688 38.4150 -8.0253 2.3622 -3.9342
# 3 47.6822 38.4150 99.9862 -0.3840 1.0098 -5.7799
# 4 10.3435 -8.0253 -0.3840 33.7198 -15.7627 2.7819
# 5 -0.6584 2.3622 1.0098 -15.7627 56.7369 10.4694
# 6 -3.3503 -3.9342 -5.7799 2.7819 10.4694 47.4009
#
#
#
# Elastic Compliance Matrix: (Units=1/GPa)
#
#
# Indices 1 2 3 4 5 6 
#
# 1 0.017536 -0.010205 -0.004411 -0.008804 -0.001884 0.000787
# 2 -0.010205 0.023033 -0.003975 0.009344 0.001627 -0.000202
# 3 -0.004411 -0.003975 0.013697 0.000373 -0.000221 0.001055
# 4 -0.008804 0.009344 0.000373 0.040398 0.011599 -0.004734
# 5 -0.001884 0.001627 -0.000221 0.011599 0.021780 -0.005516
# 6 0.000787 -0.000202 0.001055 -0.004734 -0.005516 0.022760
#
#
# Mechanical properties :
#
#
# Convention : Reuss Voigt Hill
#
# Bulk Modulus (GPa) = 58.53590 61.13851 59.83720
# Shear Modulus (GPa) = 27.46025 37.07331 32.26678
#
# Velocity S-wave (km/s) = 3.50724 4.07515 3.80182
# Velocity P-wave (km/s) = 6.52855 7.03771 6.78790
#
# Compressibility (1/GPa) = 0.01708353
#
# Stress axis : x y z
#
# Youngs Moduli (GPa) = 57.02448 43.41585 73.00975
#
# Poissons Ratio (x) = 0.44308 0.32206
# Poissons Ratio (y) = 0.58196 0.29020
# Poissons Ratio (z) = 0.25155 0.17257
#
# Static dielectric constant tensor:
#      x y z
#    x 4.211940 -0.351240 -0.220820 
#    y -0.351240 3.954210 -0.004920 
#    z -0.220820 -0.004920 4.045740 
# 
# 
# High freq. dielectric constant tensor:
#      x y z
#    x 1.888590 -0.020780 -0.012620 
#    y -0.020780 1.866990 -0.002580 
#    z -0.012620 -0.002580 1.888640 
# 
# From -- ./inp_files/557720.got.cif
#   From: 2010.06.25/outbox.cif.g09.slc.cpg/sg2_279_cif.got.tgz:557720.got - 2010.06.27 13:26:56.
