data_PCOD8010265
_publ_section_title
;
Structure prediction by ZEFSAII (Michael W. Deem and Ramdas Pophale) SiO2 
 PCOD8010265
Probable space group: P -1
;
_chemical_formula_sum "Si O2"
_cell_formula_units_Z 16
_cell_length_a 11.539915
_cell_length_b 17.250372
_cell_length_c 8.664126
_cell_angle_alpha 148.853443
_cell_angle_beta 56.755381
_cell_angle_gamma 120.760018
_cell_volume 742.520324
_symmetry_space_group_name_H-M "P -1"
_symmetry_group_IT_number 2
_symmetry_cell_setting 'triclinic'
loop_
_space_group_symop_operation_xyz
x,y,z
-x,-y,-z
loop_
_atom_site_type_symbol
_atom_site_label
_atom_site_fract_x
_atom_site_fract_y
_atom_site_fract_z
Si Si1 0.196099 0.620313 0.619379
Si Si2 0.834152 0.965151 0.901467
Si Si3 0.012025 0.233269 0.341177
Si Si4 0.560507 0.878804 0.143371
Si Si5 0.454178 0.835775 0.825379
Si Si6 0.725390 0.759305 0.377458
Si Si7 0.285377 0.312007 0.084591
Si Si8 0.061495 0.470881 0.165822
O O1 0.297842 0.774123 0.783869
O O2 0.299550 0.491993 0.363701
O O3 0.111405 0.576371 0.453273
O O4 0.080657 0.632860 0.860950
O O5 0.951848 0.858762 0.690303
O O6 0.790911 0.916360 0.675071
O O7 0.703289 0.947361 0.079968
O O8 0.893648 0.138774 0.163675
O O9 0.140909 0.258910 0.177474
O O10 0.967043 0.396561 0.709811
O O11 0.500000 0.000000 0.500000
O O12 0.451172 0.834123 0.011051
O O13 0.586427 0.735558 0.987714
O O14 0.567297 0.724702 0.495411
O O15 0.500000 0.000000 0.000000
O O16 0.721066 0.773257 0.220777
O O17 0.817204 0.627709 0.145395
#
# Coordination Sequence:
#
# PCOD8010265 Si02
#       8
#     2   2   2   2   2   2   2   2
#     4   9  20  39  59  87 120 161 195 239 304 352
#     4   9  20  36  57  86 122 153 194 249 297 345
#     4   9  18  37  58  82 119 162 190 242 302 346
#     4  10  21  40  57  81 120 158 200 238 298 355
#     4  11  24  40  60  89 124 154 198 252 297 356
#     4  10  21  38  57  94 114 150 204 247 293 348
#     4   9  19  38  61  80 119 156 196 242 292 360
#     4   9  19  37  62  87 119 156 200 244 292 357
#
# _framework density 21.54823
#
# number of rings (size 3 to 8) (size 9 to 14) (size 15 to 20)
#    0.000    2.500    0.000    1.500    3.500    3.500 
#   11.250    0.000    0.000    0.000    0.000    0.000 
#    0.000    0.000    0.000    0.000    0.000    0.000 
#
# Total GULP energy -198296.691742 kJ/mol
# GULP energy per Si atom -12393.543234 kJ/mol
# Density = 2.149919 g / cm^3
# Si number density = 21.548230 Si / 1000 Ang^3
#
#
#
# Elastic Constant Matrix: (Units=GPa)
#
#
# Indices 1 2 3 4 5 6 
#
# 1 83.4647 21.3695 25.9851 1.3537 2.0372 9.3053
# 2 21.3695 60.7183 31.0673 14.7382 2.6984 7.4930
# 3 25.9851 31.0673 85.5789 -8.0594 -12.2674 4.7299
# 4 1.3537 14.7382 -8.0594 30.6679 1.0150 10.7556
# 5 2.0372 2.6984 -12.2674 1.0150 42.0617 0.8250
# 6 9.3053 7.4930 4.7299 10.7556 0.8250 37.5064
#
#
#
# Elastic Compliance Matrix: (Units=1/GPa)
#
#
# Indices 1 2 3 4 5 6 
#
# 1 0.014084 -0.003314 -0.002996 0.001198 -0.001318 -0.002769
# 2 -0.003314 0.027325 -0.011180 -0.016319 -0.004490 0.001552
# 3 -0.002996 -0.011180 0.018733 0.011182 0.006109 -0.002727
# 4 0.001198 -0.016319 0.011182 0.047481 0.003342 -0.012137
# 5 -0.001318 -0.004490 0.006109 0.003342 0.025849 -0.001074
# 6 -0.002769 0.001552 -0.002727 -0.012137 -0.001074 0.030887
#
#
# Mechanical properties :
#
#
# Convention : Reuss Voigt Hill
#
# Bulk Modulus (GPa) = 39.74283 42.95618 41.34951
# Shear Modulus (GPa) = 24.07006 32.13654 28.10330
#
# Velocity S-wave (km/s) = 3.34583 3.86602 3.61530
# Velocity P-wave (km/s) = 5.78012 6.31715 6.05459
#
# Compressibility (1/GPa) = 0.02516177
#
# Stress axis : x y z
#
# Youngs Moduli (GPa) = 71.00288 36.59609 53.38199
#
# Poissons Ratio (x) = 0.12129 0.15995
# Poissons Ratio (y) = 0.23532 0.59679
# Poissons Ratio (z) = 0.21275 0.40913
#
# Static dielectric constant tensor:
#      x y z
#    x 4.300000 -0.244220 -0.290520 
#    y -0.244220 3.810450 0.131750 
#    z -0.290520 0.131750 3.913910 
# 
# 
# High freq. dielectric constant tensor:
#      x y z
#    x 1.859310 -0.010470 -0.015180 
#    y -0.010470 1.823030 0.003460 
#    z -0.015180 0.003460 1.839210 
# 
# From -- ./inp_files/278586.got.cif
#   From: 2010.06.25/outbox.cif.g09.slc.cpg/sg2_140_cif.got.tgz:278586.got - 2010.06.27 13:26:56.
