data_PCOD8010395
_publ_section_title
;
Structure prediction by ZEFSAII (Michael W. Deem and Ramdas Pophale) SiO2 
 PCOD8010395
Probable space group: P -1
;
_chemical_formula_sum "Si O2"
_cell_formula_units_Z 14
_cell_length_a 17.836779
_cell_length_b 12.418563
_cell_length_c 6.398784
_cell_angle_alpha 59.412071
_cell_angle_beta 127.817123
_cell_angle_gamma 144.261827
_cell_volume 653.797603
_symmetry_space_group_name_H-M "P -1"
_symmetry_group_IT_number 2
_symmetry_cell_setting 'triclinic'
loop_
_space_group_symop_operation_xyz
x,y,z
-x,-y,-z
loop_
_atom_site_type_symbol
_atom_site_label
_atom_site_fract_x
_atom_site_fract_y
_atom_site_fract_z
Si Si1 0.786325 0.297659 0.768494
Si Si2 0.037430 0.672869 0.635125
Si Si3 0.685976 0.452968 0.522842
Si Si4 0.562322 0.480814 0.938228
Si Si5 0.817604 0.109987 0.721944
Si Si6 0.419338 0.268748 0.517257
Si Si7 0.992732 0.845742 0.684115
O O1 0.669682 0.285458 0.650657
O O2 0.738029 0.128720 0.723998
O O3 0.883245 0.472144 0.606480
O O4 0.859532 0.324276 0.078655
O O5 0.070946 0.709025 0.410814
O O6 0.047847 0.823520 0.598376
O O7 0.566451 0.383445 0.542838
O O8 0.836066 0.647479 0.671942
O O9 0.668231 0.486447 0.220851
O O10 0.443211 0.291574 0.786842
O O11 0.635453 0.647566 0.735614
O O12 0.500000 0.500000 0.000000
O O13 0.698872 0.944396 0.528826
O O14 0.901416 0.083630 0.014719
O O15 0.000000 0.000000 0.500000
#
# Coordination Sequence:
#
# PCOD8010395 Si02
#       7
#     2   2   2   2   2   2   2
#     4   9  20  38  57  82 117 156 195 239 287 338
#     4   9  20  37  57  82 116 157 194 234 291 347
#     4  10  21  38  60  85 118 155 193 237 287 343
#     4   9  20  39  59  79 116 155 187 229 287 350
#     4  11  22  37  61  87 117 153 194 241 289 345
#     4  10  22  37  59  89 114 151 193 233 293 351
#     4  10  22  38  60  90 118 149 195 246 288 336
#
# _framework density 21.413357000000001
#
# number of rings (size 3 to 8) (size 9 to 14) (size 15 to 20)
#    0.000    2.286    0.000    2.143    0.000   12.571 
#    0.000    1.429    0.000    0.000    0.000    0.000 
#    0.000    0.000    0.000    0.000    0.000    0.000 
#
# Total GULP energy -173492.346024 kJ/mol
# GULP energy per Si atom -12392.310430 kJ/mol
# Density = 2.136462 g / cm^3
# Si number density = 21.413357 Si / 1000 Ang^3
#
#
#
# Elastic Constant Matrix: (Units=GPa)
#
#
# Indices 1 2 3 4 5 6 
#
# 1 73.6222 19.5613 56.2463 -1.2145 9.6428 -14.0531
# 2 19.5613 77.6962 39.1846 12.0197 6.6742 -17.5336
# 3 56.2463 39.1846 89.5142 3.5836 6.4617 -17.5921
# 4 -1.2145 12.0197 3.5836 39.4107 -10.3121 0.4100
# 5 9.6428 6.6742 6.4617 -10.3121 36.1659 -6.3187
# 6 -14.0531 -17.5336 -17.5921 0.4100 -6.3187 31.7660
#
#
#
# Elastic Compliance Matrix: (Units=1/GPa)
#
#
# Indices 1 2 3 4 5 6 
#
# 1 0.027397 0.002988 -0.017620 0.000450 -0.004019 0.003206
# 2 0.002988 0.019064 -0.008454 -0.005895 -0.003337 0.006575
# 3 -0.017620 -0.008454 0.026281 0.000154 0.002043 0.002498
# 4 0.000450 -0.005895 0.000154 0.029569 0.009102 -0.001540
# 5 -0.004019 -0.003337 0.002043 0.009102 0.032233 0.003806
# 6 0.003206 0.006575 0.002498 -0.001540 0.003806 0.038688
#
#
# Mechanical properties :
#
#
# Convention : Reuss Voigt Hill
#
# Bulk Modulus (GPa) = 37.63715 52.31300 44.97508
# Shear Modulus (GPa) = 21.90476 29.85787 25.88132
#
# Velocity S-wave (km/s) = 3.20183 3.73816 3.48034
# Velocity P-wave (km/s) = 5.59317 6.56619 6.09912
#
# Compressibility (1/GPa) = 0.02656949
#
# Stress axis : x y z
#
# Youngs Moduli (GPa) = 36.50099 52.45410 38.05023
#
# Poissons Ratio (x) = -0.15674 0.67046
# Poissons Ratio (y) = -0.10907 0.32167
# Poissons Ratio (z) = 0.64316 0.44344
#
# Static dielectric constant tensor:
#      x y z
#    x 3.910450 -0.320200 0.139090 
#    y -0.320200 3.670660 -0.057220 
#    z 0.139090 -0.057220 4.238470 
# 
# 
# High freq. dielectric constant tensor:
#      x y z
#    x 1.833950 -0.024490 0.002230 
#    y -0.024490 1.823350 -0.002680 
#    z 0.002230 -0.002680 1.847490 
# 
# From -- ./inp_files/68324.got.cif
#   From: 2010.06.25/outbox.cif.g09.slc.cpg/sg2_35_cif.got.tgz:68324.got - 2010.06.27 13:26:56.
