data_PCOD8010325
_publ_section_title
;
Structure prediction by ZEFSAII (Michael W. Deem and Ramdas Pophale) SiO2 
 PCOD8010325
Probable space group: P -1
;
_chemical_formula_sum "Si O2"
_cell_formula_units_Z 12
_cell_length_a 9.273848
_cell_length_b 5.141393
_cell_length_c 14.814403
_cell_angle_alpha 60.874035
_cell_angle_beta 74.385142
_cell_angle_gamma 94.317071
_cell_volume 576.125717
_symmetry_space_group_name_H-M "P -1"
_symmetry_group_IT_number 2
_symmetry_cell_setting 'triclinic'
loop_
_space_group_symop_operation_xyz
x,y,z
-x,-y,-z
loop_
_atom_site_type_symbol
_atom_site_label
_atom_site_fract_x
_atom_site_fract_y
_atom_site_fract_z
Si Si1 0.055407 0.790287 0.697786
Si Si2 0.433273 0.901521 0.264391
Si Si3 0.924394 0.360208 0.629133
Si Si4 0.922705 0.644668 0.067643
Si Si5 0.418593 0.464797 0.820066
Si Si6 0.600596 0.049642 0.386236
O O1 0.049882 0.534400 0.817533
O O2 0.229029 0.990997 0.614527
O O3 0.980369 0.621027 0.649611
O O4 0.964919 0.040856 0.702142
O O5 0.520808 0.830246 0.353288
O O6 0.259530 0.707654 0.334501
O O7 0.510068 0.817638 0.172368
O O8 0.455040 0.272135 0.191582
O O9 0.000000 0.500000 0.500000
O O10 0.741412 0.623078 0.082395
O O11 0.000000 0.500000 0.000000
O O12 0.000000 0.000000 0.000000
O O13 0.381607 0.598786 0.706866
O O14 0.500000 0.000000 0.500000
#
# Coordination Sequence:
#
# PCOD8010325 Si02
#       6
#     2   2   2   2   2   2
#     4  11  25  40  63  98 127 160 227 260 308 388
#     4  10  21  38  59  83 131 169 198 252 317 370
#     4  12  25  40  62  92 139 179 205 247 319 385
#     4  11  22  41  71  95 123 159 215 284 330 358
#     4   9  21  36  60  90 115 162 208 250 324 369
#     4   9  21  35  60  87 122 160 210 260 306 370
#
# _framework density 20.828786000000001
#
# number of rings (size 3 to 8) (size 9 to 14) (size 15 to 20)
#    1.000    0.667    0.000    4.500    7.000    0.667 
#    0.000    0.000    0.000   20.000    0.000    0.000 
#    0.000    0.000    0.000    0.000    0.000    0.000 
#
# Total GULP energy -148697.096033 kJ/mol
# GULP energy per Si atom -12391.424669 kJ/mol
# Density = 2.078138 g / cm^3
# Si number density = 20.828786 Si / 1000 Ang^3
#
#
#
# Elastic Constant Matrix: (Units=GPa)
#
#
# Indices 1 2 3 4 5 6 
#
# 1 139.8608 57.4009 37.5303 9.8349 -34.4410 28.2224
# 2 57.4009 134.1310 25.1316 20.7014 -17.5908 -1.4143
# 3 37.5303 25.1316 83.7057 6.4175 -30.9087 -0.2583
# 4 9.8349 20.7014 6.4175 34.6806 -7.1648 1.0800
# 5 -34.4410 -17.5908 -30.9087 -7.1648 36.3044 1.5334
# 6 28.2224 -1.4143 -0.2583 1.0800 1.5334 33.2790
#
#
#
# Elastic Compliance Matrix: (Units=1/GPa)
#
#
# Indices 1 2 3 4 5 6 
#
# 1 0.015074 -0.005132 -0.001010 0.001857 0.011895 -0.013617
# 2 -0.005132 0.010452 -0.001179 -0.005144 -0.002036 0.005048
# 3 -0.001010 -0.001179 0.017769 0.000521 0.013689 0.000296
# 4 0.001857 -0.005144 0.000521 0.032680 0.006295 -0.003140
# 5 0.011895 -0.002036 0.013689 0.006295 0.051274 -0.012635
# 6 -0.013617 0.005048 0.000296 -0.003140 -0.012635 0.042498
#
#
# Mechanical properties :
#
#
# Convention : Reuss Voigt Hill
#
# Bulk Modulus (GPa) = 34.89890 66.42482 50.66186
# Shear Modulus (GPa) = 25.78114 36.69511 31.23812
#
# Velocity S-wave (km/s) = 3.52201 4.20187 3.87687
# Velocity P-wave (km/s) = 5.77329 7.44991 6.66453
#
# Compressibility (1/GPa) = 0.02865420
#
# Stress axis : x y z
#
# Youngs Moduli (GPa) = 66.34140 95.67100 56.27722
#
# Poissons Ratio (x) = 0.49095 0.05682
# Poissons Ratio (y) = 0.34044 0.06637
# Poissons Ratio (z) = 0.06698 0.11282
#
# Static dielectric constant tensor:
#      x y z
#    x 3.904670 0.013330 -0.213880 
#    y 0.013330 3.790760 0.020630 
#    z -0.213880 0.020630 3.594350 
# 
# 
# High freq. dielectric constant tensor:
#      x y z
#    x 1.814810 0.005370 -0.024680 
#    y 0.005370 1.826550 0.006920 
#    z -0.024680 0.006920 1.796830 
# 
# From -- ./inp_files/28916.got.cif
#   From: 2010.06.25/outbox.cif.g09.slc.cpg/sg2_15_cif.got.tgz:28916.got - 2010.06.27 13:26:56.
