data_PCOD8010477
_publ_section_title
;
Structure prediction by ZEFSAII (Michael W. Deem and Ramdas Pophale) SiO2 
 PCOD8010477
Probable space group: P -1
;
_chemical_formula_sum "Si O2"
_cell_formula_units_Z 16
_cell_length_a 12.086808
_cell_length_b 17.909045
_cell_length_c 20.276439
_cell_angle_alpha 19.668803
_cell_angle_beta 139.587373
_cell_angle_gamma 149.663140
_cell_volume 711.347879
_symmetry_space_group_name_H-M "P -1"
_symmetry_group_IT_number 2
_symmetry_cell_setting 'triclinic'
loop_
_space_group_symop_operation_xyz
x,y,z
-x,-y,-z
loop_
_atom_site_type_symbol
_atom_site_label
_atom_site_fract_x
_atom_site_fract_y
_atom_site_fract_z
Si Si1 0.778079 0.248418 0.566630
Si Si2 0.625357 0.814011 0.604832
Si Si3 0.408780 0.711090 0.925941
Si Si4 0.013182 0.634759 0.761506
Si Si5 0.102927 0.731553 0.543629
Si Si6 0.666056 0.160480 0.079190
Si Si7 0.782142 0.171851 0.934973
Si Si8 0.255021 0.191895 0.665367
O O1 0.614242 0.321308 0.424723
O O2 0.847945 0.214537 0.555800
O O3 0.000000 0.500000 0.500000
O O4 0.642557 0.937831 0.802164
O O5 0.836573 0.019202 0.477233
O O6 0.670128 0.016983 0.518912
O O7 0.602581 0.543883 0.840210
O O8 0.192398 0.582239 0.889124
O O9 0.412150 0.892107 0.837207
O O10 0.820917 0.405013 0.810970
O O11 0.861819 0.523220 0.852699
O O12 0.995576 0.395177 0.794329
O O13 0.927875 0.772589 0.451410
O O14 0.450941 0.993454 0.072246
O O15 0.794370 0.041198 0.218292
O O16 0.765294 0.924013 0.172380
O O17 0.500000 0.500000 0.500000
#
# Coordination Sequence:
#
# PCOD8010477 Si02
#       8
#     2   2   2   2   2   2   2   2
#     4  11  26  45  66  93 127 164 219 274 315 370
#     4  10  23  42  65  92 124 174 215 256 321 379
#     4  11  24  43  63  93 131 168 211 261 319 382
#     4   9  20  38  60  89 131 164 209 257 309 381
#     4  11  23  42  68  93 129 172 213 265 312 374
#     4  11  21  39  63  95 136 167 206 265 315 374
#     4  10  21  38  60  95 127 163 211 258 305 372
#     4  11  22  36  64  99 128 164 208 257 319 377
#
# _framework density 22.492512999999999
#
# number of rings (size 3 to 8) (size 9 to 14) (size 15 to 20)
#    0.000    1.500    1.250    4.500    1.750    3.500 
#    2.250    0.000    0.000    0.000    0.000    0.000 
#    0.000    0.000    0.000    0.000    0.000    0.000 
#
# Total GULP energy -198238.709881 kJ/mol
# GULP energy per Si atom -12389.919368 kJ/mol
# Density = 2.244132 g / cm^3
# Si number density = 22.492513 Si / 1000 Ang^3
#
#
#
# Elastic Constant Matrix: (Units=GPa)
#
#
# Indices 1 2 3 4 5 6 
#
# 1 113.3579 30.0174 49.8703 -8.9334 -33.5813 -16.2715
# 2 30.0174 93.2417 27.5285 -11.9390 -12.0866 -8.5074
# 3 49.8703 27.5285 149.8288 0.3392 -32.8975 -4.4921
# 4 -8.9334 -11.9390 0.3392 30.0149 4.2466 -8.2151
# 5 -33.5813 -12.0866 -32.8975 4.2466 35.9728 1.4394
# 6 -16.2715 -8.5074 -4.4921 -8.2151 1.4394 17.7969
#
#
#
# Elastic Compliance Matrix: (Units=1/GPa)
#
#
# Indices 1 2 3 4 5 6 
#
# 1 0.016385 -0.000604 -0.002365 0.007625 0.011362 0.016696
# 2 -0.000604 0.013314 -0.001765 0.007358 0.001080 0.008676
# 3 -0.002365 -0.001765 0.009011 -0.003061 0.005906 -0.002622
# 4 0.007625 0.007358 -0.003061 0.047173 -0.000037 0.031495
# 5 0.011362 0.001080 0.005906 -0.000037 0.043821 0.008834
# 6 0.016696 0.008676 -0.002622 0.031495 0.008834 0.088764
#
#
# Mechanical properties :
#
#
# Convention : Reuss Voigt Hill
#
# Bulk Modulus (GPa) = 34.19604 63.47341 48.83473
# Shear Modulus (GPa) = 21.03645 33.35774 27.19709
#
# Velocity S-wave (km/s) = 3.06153 3.85523 3.48107
# Velocity P-wave (km/s) = 5.26627 6.93528 6.15758
#
# Compressibility (1/GPa) = 0.02924315
#
# Stress axis : x y z
#
# Youngs Moduli (GPa) = 61.02967 75.10917 110.97873
#
# Poissons Ratio (x) = 0.04538 0.26244
# Poissons Ratio (y) = 0.03687 0.19583
# Poissons Ratio (z) = 0.14432 0.13253
#
# Static dielectric constant tensor:
#      x y z
#    x 4.025380 -0.017200 -0.558230 
#    y -0.017200 4.197170 0.026960 
#    z -0.558230 0.026960 4.447940 
# 
# 
# High freq. dielectric constant tensor:
#      x y z
#    x 1.862640 0.000990 -0.042040 
#    y 0.000990 1.899390 -0.000730 
#    z -0.042040 -0.000730 1.891030 
# 
# From -- ./inp_files/595961.got.cif
#   From: 2010.06.25/outbox.cif.g09.slc.cpg/sg2_298_cif.got.tgz:595961.got - 2010.06.27 13:26:56.
