data_PCOD8010558
_publ_section_title
;
Structure prediction by ZEFSAII (Michael W. Deem and Ramdas Pophale) SiO2 
 PCOD8010558
Probable space group: P -1
;
_chemical_formula_sum "Si O2"
_cell_formula_units_Z 16
_cell_length_a 6.565549
_cell_length_b 12.780710
_cell_length_c 14.247548
_cell_angle_alpha 126.880701
_cell_angle_beta 125.965771
_cell_angle_gamma 83.513025
_cell_volume 719.092453
_symmetry_space_group_name_H-M "P -1"
_symmetry_group_IT_number 2
_symmetry_cell_setting 'triclinic'
loop_
_space_group_symop_operation_xyz
x,y,z
-x,-y,-z
loop_
_atom_site_type_symbol
_atom_site_label
_atom_site_fract_x
_atom_site_fract_y
_atom_site_fract_z
Si Si1 0.099039 0.236620 0.909677
Si Si2 0.793041 0.165873 0.291908
Si Si3 0.363843 0.517236 0.855875
Si Si4 0.828210 0.422800 0.549424
Si Si5 0.751914 0.698361 0.644008
Si Si6 0.832068 0.943511 0.328927
Si Si7 0.623807 0.324002 0.873118
Si Si8 0.794040 0.866324 0.922673
O O1 0.026702 0.136182 0.744111
O O2 0.895523 0.320785 0.897995
O O3 0.404594 0.347191 0.051810
O O4 0.080674 0.145854 0.949239
O O5 0.891215 0.326485 0.437566
O O6 0.497259 0.116832 0.137042
O O7 0.023731 0.171555 0.280842
O O8 0.790433 0.068125 0.326971
O O9 0.435435 0.376545 0.781962
O O10 0.081070 0.492928 0.720760
O O11 0.305844 0.550186 0.964501
O O12 0.783460 0.551113 0.554016
O O13 0.558084 0.325892 0.482767
O O14 0.769897 0.732596 0.779111
O O15 0.536915 0.832697 0.216796
O O16 0.000000 0.000000 0.500000
O O17 0.000000 0.000000 0.000000
#
# Coordination Sequence:
#
# PCOD8010558 Si02
#       8
#     2   2   2   2   2   2   2   2
#     4  11  23  40  66  94 123 166 211 256 317 374
#     4  11  23  40  63  91 126 169 209 250 313 373
#     4  10  21  39  64  92 124 163 208 260 311 368
#     4  10  21  38  61  91 127 160 203 257 311 371
#     4  10  22  39  61  93 126 161 206 255 310 374
#     4  11  25  44  62  88 125 166 212 261 310 371
#     4  10  22  41  63  91 124 161 212 262 308 368
#     4  11  23  39  63  96 130 163 205 258 311 374
#
# _framework density 22.250268999999999
#
# number of rings (size 3 to 8) (size 9 to 14) (size 15 to 20)
#    0.000    1.500    0.000    4.500    0.000    8.500 
#    0.000    7.500    0.000    0.000    0.000    0.000 
#    0.000    0.000    0.000    0.000    0.000    0.000 
#
# Total GULP energy -198327.236367 kJ/mol
# GULP energy per Si atom -12395.452273 kJ/mol
# Density = 2.219963 g / cm^3
# Si number density = 22.250269 Si / 1000 Ang^3
#
#
#
# Elastic Constant Matrix: (Units=GPa)
#
#
# Indices 1 2 3 4 5 6 
#
# 1 125.2554 41.4066 58.6822 -1.9970 10.0256 -8.3728
# 2 41.4066 87.4565 26.3837 -1.5950 -4.1096 -4.0319
# 3 58.6822 26.3837 104.7847 -1.6925 3.3179 -9.1850
# 4 -1.9970 -1.5950 -1.6925 30.0538 0.8711 3.6918
# 5 10.0256 -4.1096 3.3179 0.8711 36.6951 2.7014
# 6 -8.3728 -4.0319 -9.1850 3.6918 2.7014 37.3178
#
#
#
# Elastic Compliance Matrix: (Units=1/GPa)
#
#
# Indices 1 2 3 4 5 6 
#
# 1 0.012402 -0.004270 -0.005656 0.000237 -0.003446 0.001155
# 2 -0.004270 0.013959 -0.001207 0.000305 0.002830 0.000018
# 3 -0.005656 -0.001207 0.013174 0.000075 0.000083 0.001830
# 4 0.000237 0.000305 0.000075 0.033719 -0.000603 -0.003188
# 5 -0.003446 0.002830 0.000083 -0.000603 0.028698 -0.002465
# 6 0.001155 0.000018 0.001830 -0.003188 -0.002465 0.028002
#
#
# Mechanical properties :
#
#
# Convention : Reuss Voigt Hill
#
# Bulk Modulus (GPa) = 57.90489 63.38241 60.64365
# Shear Modulus (GPa) = 31.65044 33.54829 32.59937
#
# Velocity S-wave (km/s) = 3.77566 3.88721 3.83184
# Velocity P-wave (km/s) = 6.71479 6.97820 6.84776
#
# Compressibility (1/GPa) = 0.01726970
#
# Stress axis : x y z
#
# Youngs Moduli (GPa) = 80.63324 71.63734 75.90845
#
# Poissons Ratio (x) = 0.30587 0.42935
# Poissons Ratio (y) = 0.34428 0.09160
# Poissons Ratio (z) = 0.45607 0.08645
#
# Static dielectric constant tensor:
#      x y z
#    x 4.204790 -0.143180 0.017670 
#    y -0.143180 4.090870 0.096010 
#    z 0.017670 0.096010 4.022330 
# 
# 
# High freq. dielectric constant tensor:
#      x y z
#    x 1.885100 -0.006790 0.007500 
#    y -0.006790 1.873040 0.016310 
#    z 0.007500 0.016310 1.874090 
# 
# From -- ./inp_files/484408.got.cif
#   From: 2010.06.25/outbox.cif.g09.slc.cpg/sg2_243_cif.got.tgz:484408.got - 2010.06.27 13:26:56.
