data_PCOD8010494
_publ_section_title
;
Structure prediction by ZEFSAII (Michael W. Deem and Ramdas Pophale) SiO2 
 PCOD8010494
Probable space group: P -1
;
_chemical_formula_sum "Si O2"
_cell_formula_units_Z 14
_cell_length_a 9.477890
_cell_length_b 20.694818
_cell_length_c 15.441794
_cell_angle_alpha 151.269137
_cell_angle_beta 150.670704
_cell_angle_gamma 47.263027
_cell_volume 664.060534
_symmetry_space_group_name_H-M "P -1"
_symmetry_group_IT_number 2
_symmetry_cell_setting 'triclinic'
loop_
_space_group_symop_operation_xyz
x,y,z
-x,-y,-z
loop_
_atom_site_type_symbol
_atom_site_label
_atom_site_fract_x
_atom_site_fract_y
_atom_site_fract_z
Si Si1 0.725226 0.057129 0.768055
Si Si2 0.139504 0.897906 0.758902
Si Si3 0.211415 0.952503 0.667407
Si Si4 0.130334 0.436886 0.235721
Si Si5 0.725326 0.598678 0.167893
Si Si6 0.211804 0.873503 0.390885
Si Si7 0.831518 0.386958 0.203676
O O1 0.500000 0.000000 0.500000
O O2 0.565383 0.952773 0.640924
O O3 0.802940 0.225789 0.026551
O O4 0.045291 0.035574 0.891018
O O5 0.875423 0.751790 0.477126
O O6 0.173410 0.870715 0.642254
O O7 0.456203 0.916222 0.998856
O O8 0.939712 0.010871 0.578242
O O9 0.207262 0.847256 0.461092
O O10 0.500000 0.500000 0.500000
O O11 0.991150 0.532820 0.213087
O O12 0.032308 0.438944 0.285307
O O13 0.979948 0.273504 0.931747
O O14 0.500000 0.500000 0.000000
O O15 0.517826 0.612144 0.991237
O O16 0.000000 0.500000 0.500000
#
# Coordination Sequence:
#
# PCOD8010494 Si02
#       7
#     2   2   2   2   2   2   2
#     4  12  20  40  68  87 119 160 205 254 297 358
#     4  11  21  40  63  90 119 159 206 249 306 354
#     4  10  23  37  62  90 120 152 202 261 300 359
#     4  11  23  40  61  88 126 163 200 251 310 363
#     4  10  21  38  61  84 123 162 199 246 302 364
#     4  11  22  41  62  89 121 162 207 248 306 361
#     4  11  24  41  63  92 122 162 204 251 309 363
#
# _framework density 21.082414
#
# number of rings (size 3 to 8) (size 9 to 14) (size 15 to 20)
#    0.000    1.143    4.286    1.714    0.000    8.571 
#    0.000    1.429    0.000    0.000    0.000    0.000 
#    0.000    0.000    0.000    0.000    0.000    0.000 
#
# Total GULP energy -173540.474284 kJ/mol
# GULP energy per Si atom -12395.748163 kJ/mol
# Density = 2.103443 g / cm^3
# Si number density = 21.082414 Si / 1000 Ang^3
#
#
#
# Elastic Constant Matrix: (Units=GPa)
#
#
# Indices 1 2 3 4 5 6 
#
# 1 110.6261 28.0791 47.5719 0.1616 -11.6181 -7.5653
# 2 28.0791 52.0465 21.9764 7.7875 10.3898 -6.9080
# 3 47.5719 21.9764 131.3606 13.1061 1.2872 -3.6798
# 4 0.1616 7.7875 13.1061 40.7405 -7.4635 3.9854
# 5 -11.6181 10.3898 1.2872 -7.4635 39.7338 -5.3749
# 6 -7.5653 -6.9080 -3.6798 3.9854 -5.3749 19.0055
#
#
#
# Elastic Compliance Matrix: (Units=1/GPa)
#
#
# Indices 1 2 3 4 5 6 
#
# 1 0.013547 -0.007111 -0.004052 0.003584 0.007068 0.003271
# 2 -0.007111 0.027249 -0.001013 -0.007193 -0.009762 0.005625
# 3 -0.004052 -0.001013 0.009589 -0.003213 -0.001830 0.000032
# 4 0.003584 -0.007193 -0.003213 0.028907 0.007692 -0.005697
# 5 0.007068 -0.009762 -0.001830 0.007692 0.032155 0.006391
# 6 0.003271 0.005625 0.000032 -0.005697 0.006391 0.058971
#
#
# Mechanical properties :
#
#
# Convention : Reuss Voigt Hill
#
# Bulk Modulus (GPa) = 38.40997 54.36536 46.38766
# Shear Modulus (GPa) = 24.57639 32.98969 28.78304
#
# Velocity S-wave (km/s) = 3.41798 3.96004 3.69896
# Velocity P-wave (km/s) = 5.81681 6.83756 6.34774
#
# Compressibility (1/GPa) = 0.02603491
#
# Stress axis : x y z
#
# Youngs Moduli (GPa) = 73.81511 36.69826 104.28856
#
# Poissons Ratio (x) = 0.26096 0.42254
# Poissons Ratio (y) = 0.52490 0.10560
# Poissons Ratio (z) = 0.29907 0.03716
#
# Static dielectric constant tensor:
#      x y z
#    x 4.058970 -0.127630 0.149910 
#    y -0.127630 4.065940 -0.247890 
#    z 0.149910 -0.247890 3.927470 
# 
# 
# High freq. dielectric constant tensor:
#      x y z
#    x 1.819190 -0.009380 0.010680 
#    y -0.009380 1.824290 -0.005370 
#    z 0.010680 -0.005370 1.832710 
# 
# From -- ./inp_files/159139.got.cif
#   From: 2010.06.25/outbox.cif.g09.slc.cpg/sg2_80_cif.got.tgz:159139.got - 2010.06.27 13:26:56.
