data_PCOD8010476
_publ_section_title
;
Structure prediction by ZEFSAII (Michael W. Deem and Ramdas Pophale) SiO2 
 PCOD8010476
Probable space group: P -1
;
_chemical_formula_sum "Si O2"
_cell_formula_units_Z 14
_cell_length_a 18.292743
_cell_length_b 12.222912
_cell_length_c 8.794630
_cell_angle_alpha 110.952085
_cell_angle_beta 49.975817
_cell_angle_gamma 150.609753
_cell_volume 622.208561
_symmetry_space_group_name_H-M "P -1"
_symmetry_group_IT_number 2
_symmetry_cell_setting 'triclinic'
loop_
_space_group_symop_operation_xyz
x,y,z
-x,-y,-z
loop_
_atom_site_type_symbol
_atom_site_label
_atom_site_fract_x
_atom_site_fract_y
_atom_site_fract_z
Si Si1 0.680631 0.283860 0.694621
Si Si2 0.821792 0.157586 0.707040
Si Si3 0.388809 0.145237 0.877480
Si Si4 0.990708 0.755187 0.026811
Si Si5 0.667003 0.249677 0.029024
Si Si6 0.660478 0.565747 0.490489
Si Si7 0.279766 0.121590 0.555462
O O1 0.548954 0.211014 0.707422
O O2 0.663323 0.319282 0.909731
O O3 0.925893 0.554899 0.450778
O O4 0.573575 0.034925 0.719418
O O5 0.738859 0.197304 0.860424
O O6 0.772919 0.054923 0.553500
O O7 0.706869 0.938747 0.867623
O O8 0.531038 0.406695 0.743965
O O9 0.180667 0.892567 0.924526
O O10 0.817463 0.469510 0.063811
O O11 0.092850 0.936361 0.837475
O O12 0.876566 0.724723 0.273900
O O13 0.513238 0.364821 0.443486
O O14 0.723239 0.770537 0.499033
#
# Coordination Sequence:
#
# PCOD8010476 Si02
#       7
#     2   2   2   2   2   2   2
#     4  10  21  38  60  95 125 160 201 255 306 365
#     4  11  22  40  65  93 127 159 208 262 299 374
#     4  10  24  41  61  95 129 163 206 248 323 360
#     4  11  22  42  65  90 129 165 203 257 305 374
#     4  10  23  37  66  95 122 163 212 246 314 363
#     4  10  23  43  63  91 127 165 205 259 304 373
#     4  10  23  40  68  94 117 164 218 251 308 362
#
# _framework density 22.500494
#
# number of rings (size 3 to 8) (size 9 to 14) (size 15 to 20)
#    0.000    1.714    1.429    1.714    6.000    4.000 
#    0.000    7.143    0.000    0.000    0.000    0.000 
#    0.000    0.000    0.000    0.000    0.000    0.000 
#
# Total GULP energy -173465.568217 kJ/mol
# GULP energy per Si atom -12390.397730 kJ/mol
# Density = 2.244928 g / cm^3
# Si number density = 22.500494 Si / 1000 Ang^3
#
#
#
# Elastic Constant Matrix: (Units=GPa)
#
#
# Indices 1 2 3 4 5 6 
#
# 1 117.9130 29.4400 36.7321 -9.2487 3.8775 -0.2790
# 2 29.4400 71.1614 24.1521 -13.0145 -15.2174 0.8036
# 3 36.7321 24.1521 114.6608 -24.5721 10.1160 -9.3170
# 4 -9.2487 -13.0145 -24.5721 31.1280 -4.8071 0.1427
# 5 3.8775 -15.2174 10.1160 -4.8071 32.9730 -6.3864
# 6 -0.2790 0.8036 -9.3170 0.1427 -6.3864 25.9132
#
#
#
# Elastic Compliance Matrix: (Units=1/GPa)
#
#
# Indices 1 2 3 4 5 6 
#
# 1 0.010316 -0.004198 -0.002520 -0.001106 -0.002800 -0.001349
# 2 -0.004198 0.020472 -0.002347 0.007305 0.011996 0.001392
# 3 -0.002520 -0.002347 0.012156 0.007429 -0.002715 0.003706
# 4 -0.001106 0.007305 0.007429 0.041956 0.008155 0.004211
# 5 -0.002800 0.011996 -0.002715 0.008155 0.039842 0.008396
# 6 -0.001349 0.001392 0.003706 0.004211 0.008396 0.041911
#
#
# Mechanical properties :
#
#
# Convention : Reuss Voigt Hill
#
# Bulk Modulus (GPa) = 40.30105 53.82041 47.06073
# Shear Modulus (GPa) = 25.89949 32.23025 29.06487
#
# Velocity S-wave (km/s) = 3.39641 3.78884 3.59798
# Velocity P-wave (km/s) = 5.77329 6.56598 6.18235
#
# Compressibility (1/GPa) = 0.02481325
#
# Stress axis : x y z
#
# Youngs Moduli (GPa) = 96.93444 48.84811 82.26476
#
# Poissons Ratio (x) = 0.20508 0.20731
# Poissons Ratio (y) = 0.40697 0.19306
# Poissons Ratio (z) = 0.24428 0.11464
#
# Static dielectric constant tensor:
#      x y z
#    x 4.182720 0.124430 0.204060 
#    y 0.124430 3.811090 -0.490500 
#    z 0.204060 -0.490500 4.309900 
# 
# 
# High freq. dielectric constant tensor:
#      x y z
#    x 1.892180 0.012480 0.005860 
#    y 0.012480 1.861320 -0.036770 
#    z 0.005860 -0.036770 1.891630 
# 
# From -- ./inp_files/333493.got.cif
#   From: 2010.06.25/outbox.cif.g09.slc.cpg/sg2_167_cif.got.tgz:333493.got - 2010.06.27 13:26:56.
