data_PCOD8010388
_publ_section_title
;
Structure prediction by ZEFSAII (Michael W. Deem and Ramdas Pophale) SiO2 
 PCOD8010388
Probable space group: P -1
;
_chemical_formula_sum "Si O2"
_cell_formula_units_Z 14
_cell_length_a 25.304371
_cell_length_b 5.212655
_cell_length_c 5.074831
_cell_angle_alpha 119.305988
_cell_angle_beta 86.384657
_cell_angle_gamma 96.811583
_cell_volume 579.586225
_symmetry_space_group_name_H-M "P -1"
_symmetry_group_IT_number 2
_symmetry_cell_setting 'triclinic'
loop_
_space_group_symop_operation_xyz
x,y,z
-x,-y,-z
loop_
_atom_site_type_symbol
_atom_site_label
_atom_site_fract_x
_atom_site_fract_y
_atom_site_fract_z
Si Si1 0.937447 0.196000 0.249907
Si Si2 0.354110 0.534422 0.294285
Si Si3 0.043716 0.399489 0.127272
Si Si4 0.809770 0.823678 0.239911
Si Si5 0.313736 0.167041 0.626576
Si Si6 0.478960 0.659197 0.336552
Si Si7 0.152739 0.807665 0.095835
O O1 0.916807 0.365731 0.598052
O O2 0.910024 0.297734 0.031190
O O3 0.001990 0.231158 0.269625
O O4 0.918904 0.844939 0.115401
O O5 0.334856 0.346192 0.456865
O O6 0.415832 0.638429 0.349403
O O7 0.323244 0.824416 0.424042
O O8 0.343982 0.318181 0.941773
O O9 0.000000 0.500000 0.000000
O O10 0.748633 0.818983 0.328551
O O11 0.819832 0.487067 0.003819
O O12 0.821564 0.029429 0.086251
O O13 0.843842 0.967911 0.547858
O O14 0.500000 0.500000 0.500000
O O15 0.500000 0.000000 0.500000
O O16 0.500000 0.500000 0.000000
#
# Coordination Sequence:
#
# PCOD8010388 Si02
#       7
#     2   2   2   2   2   2   2
#     4  10  23  37  58  91 116 166 207 261 311 399
#     4  12  24  43  70  98 132 182 221 272 327 392
#     4  10  21  38  60  83 123 158 211 255 316 369
#     4  12  26  46  69 100 132 174 215 287 330 394
#     4  12  25  45  69  98 133 171 233 271 332 392
#     4  12  25  43  66  99 141 177 221 273 327 389
#     4  12  26  44  71  98 135 171 221 268 349 390
#
# _framework density 24.155161
#
# number of rings (size 3 to 8) (size 9 to 14) (size 15 to 20)
#    0.000    0.571    0.000    8.571    4.000    0.000 
#    0.000    0.000    0.000    0.000    0.000    0.000 
#    0.000    0.000    0.000    0.000    0.000    0.000 
#
# Total GULP energy -173605.968865 kJ/mol
# GULP energy per Si atom -12400.426347 kJ/mol
# Density = 2.410018 g / cm^3
# Si number density = 24.155161 Si / 1000 Ang^3
#
#
#
# Elastic Constant Matrix: (Units=GPa)
#
#
# Indices 1 2 3 4 5 6 
#
# 1 103.0903 16.8627 -4.6456 17.6829 0.9916 15.1121
# 2 16.8627 148.8229 47.2931 1.6813 0.9848 -0.3840
# 3 -4.6456 47.2931 191.6173 9.7762 16.2137 -15.8499
# 4 17.6829 1.6813 9.7762 40.1845 -9.2970 -5.0510
# 5 0.9916 0.9848 16.2137 -9.2970 43.1173 1.3240
# 6 15.1121 -0.3840 -15.8499 -5.0510 1.3240 50.4127
#
#
#
# Elastic Compliance Matrix: (Units=1/GPa)
#
#
# Indices 1 2 3 4 5 6 
#
# 1 0.011605 -0.001497 0.000795 -0.006117 -0.001734 -0.003808
# 2 -0.001497 0.007513 -0.002018 0.001024 0.000844 -0.000048
# 3 0.000795 -0.002018 0.006219 -0.002241 -0.002842 0.001552
# 4 -0.006117 0.001024 -0.002241 0.030284 0.007367 0.003978
# 5 -0.001734 0.000844 -0.002842 0.007367 0.025880 -0.000309
# 6 -0.003808 -0.000048 0.001552 0.003978 -0.000309 0.021872
#
#
# Mechanical properties :
#
#
# Convention : Reuss Voigt Hill
#
# Bulk Modulus (GPa) = 50.26012 62.50565 56.38289
# Shear Modulus (GPa) = 43.31048 52.34427 47.82737
#
# Velocity S-wave (km/s) = 4.23899 4.66016 4.45455
# Velocity P-wave (km/s) = 6.69411 7.40871 7.06046
#
# Compressibility (1/GPa) = 0.01989649
#
# Stress axis : x y z
#
# Youngs Moduli (GPa) = 86.17021 133.10158 160.79097
#
# Poissons Ratio (x) = 0.19921 -0.12776
# Poissons Ratio (y) = 0.12897 0.32452
# Poissons Ratio (z) = -0.06847 0.26863
#
# Static dielectric constant tensor:
#      x y z
#    x 5.796670 1.025780 0.475970 
#    y 1.025780 5.337440 0.526720 
#    z 0.475970 0.526720 5.270620 
# 
# 
# High freq. dielectric constant tensor:
#      x y z
#    x 1.969480 0.013210 -0.000300 
#    y 0.013210 1.992770 0.001410 
#    z -0.000300 0.001410 1.987280 
# 
# From -- ./inp_files/13893.got.cif
#   From: 2010.06.25/outbox.cif.g09.slc.cpg/sg2_7_cif.got.tgz:13893.got - 2010.06.27 13:26:56.
