data_PCOD8010034
_publ_section_title
;
Structure prediction by ZEFSAII (Michael W. Deem and Ramdas Pophale) SiO2 
 PCOD8010034
Probable space group: P -1
;
_chemical_formula_sum "Si O2"
_cell_formula_units_Z 16
_cell_length_a 11.580729
_cell_length_b 11.545135
_cell_length_c 5.489537
_cell_angle_alpha 83.563635
_cell_angle_beta 76.550242
_cell_angle_gamma 96.474654
_cell_volume 701.970864
_symmetry_space_group_name_H-M "P -1"
_symmetry_group_IT_number 2
_symmetry_cell_setting 'triclinic'
loop_
_space_group_symop_operation_xyz
x,y,z
-x,-y,-z
loop_
_atom_site_type_symbol
_atom_site_label
_atom_site_fract_x
_atom_site_fract_y
_atom_site_fract_z
Si Si1 0.931726 0.118587 0.779079
Si Si2 0.597353 0.981878 0.649256
Si Si3 0.053466 0.665686 0.562499
Si Si4 0.848242 0.999751 0.334845
Si Si5 0.239265 0.677302 0.839929
Si Si6 0.404084 0.572365 0.409963
Si Si7 0.576731 0.194732 0.930811
Si Si8 0.175804 0.484189 0.293172
O O1 0.926491 0.257340 0.712595
O O2 0.888718 0.059562 0.557524
O O3 0.855525 0.079849 0.067181
O O4 0.070584 0.100522 0.747688
O O5 0.710412 0.944163 0.458113
O O6 0.630556 0.108741 0.733571
O O7 0.500000 0.000000 0.500000
O O8 0.545041 0.875542 0.879539
O O9 0.131983 0.729703 0.733471
O O10 0.108648 0.545255 0.527420
O O11 0.909330 0.639626 0.694234
O O12 0.340529 0.639027 0.627534
O O13 0.309978 0.778396 0.950457
O O14 0.179648 0.560779 0.032429
O O15 0.500000 0.500000 0.500000
O O16 0.459306 0.681590 0.182363
O O17 0.310666 0.477019 0.325534
#
# Coordination Sequence:
#
# PCOD8010034 Si02
#       8
#     2   2   2   2   2   2   2   2
#     4  10  24  44  67  93 130 180 216 281 342 412
#     4  11  25  41  67  98 134 171 224 291 336 413
#     4  10  21  37  64  92 125 164 221 273 334 390
#     4  10  25  45  64  96 133 171 229 273 347 411
#     4  10  21  39  65  91 128 173 219 280 328 407
#     4  10  22  42  62  92 135 178 221 269 339 411
#     4  10  24  41  63 102 128 178 227 276 353 394
#     4   9  21  38  59  96 124 163 221 271 326 392
#
# _framework density 22.792968999999999
#
# number of rings (size 3 to 8) (size 9 to 14) (size 15 to 20)
#    0.000    2.000    0.000    1.125   12.250    2.000 
#    6.750    0.000    0.000    0.000    0.000    0.000 
#    0.000    0.000    0.000    0.000    0.000    0.000 
#
# Total GULP energy -198241.399483 kJ/mol
# GULP energy per Si atom -12390.087468 kJ/mol
# Density = 2.274109 g / cm^3
# Si number density = 22.792969 Si / 1000 Ang^3
#
#
#
# Elastic Constant Matrix: (Units=GPa)
#
#
# Indices 1 2 3 4 5 6 
#
# 1 163.0362 60.5589 65.2369 -25.2288 10.7425 12.4356
# 2 60.5589 80.2377 36.3197 -15.0563 13.2253 14.7888
# 3 65.2369 36.3197 129.9467 -11.0172 7.9505 13.8130
# 4 -25.2288 -15.0563 -11.0172 33.8424 2.4614 2.2618
# 5 10.7425 13.2253 7.9505 2.4614 42.3499 -3.1608
# 6 12.4356 14.7888 13.8130 2.2618 -3.1608 26.3731
#
#
#
# Elastic Compliance Matrix: (Units=1/GPa)
#
#
# Indices 1 2 3 4 5 6 
#
# 1 0.010052 -0.005132 -0.003138 0.004281 -0.000656 -0.000664
# 2 -0.005132 0.020909 -0.001326 0.006145 -0.006072 -0.009865
# 3 -0.003138 -0.001326 0.010099 0.000645 -0.000965 -0.003237
# 4 0.004281 0.006145 0.000645 0.036766 -0.005985 -0.009673
# 5 -0.000656 -0.006072 -0.000965 -0.005985 0.026797 0.007945
# 6 -0.000664 -0.009865 -0.003237 -0.009673 0.007945 0.047239
#
#
# Mechanical properties :
#
#
# Convention : Reuss Voigt Hill
#
# Bulk Modulus (GPa) = 45.73145 77.49462 61.61303
# Shear Modulus (GPa) = 28.03540 34.58676 31.31108
#
# Velocity S-wave (km/s) = 3.51094 3.89965 3.71039
# Velocity P-wave (km/s) = 6.04508 7.37221 6.74138
#
# Compressibility (1/GPa) = 0.02186679
#
# Stress axis : x y z
#
# Youngs Moduli (GPa) = 99.48252 47.82577 99.01535
#
# Poissons Ratio (x) = 0.24546 0.31074
# Poissons Ratio (y) = 0.51058 0.13132
# Poissons Ratio (z) = 0.31220 0.06343
#
# Static dielectric constant tensor:
#      x y z
#    x 4.478820 0.309430 0.022980 
#    y 0.309430 4.001410 -0.197110 
#    z 0.022980 -0.197110 4.271990 
# 
# 
# High freq. dielectric constant tensor:
#      x y z
#    x 1.902160 0.012240 0.006550 
#    y 0.012240 1.871320 -0.005630 
#    z 0.006550 -0.005630 1.918380 
# 
# From -- ./inp_files/66263.got.cif
#   From: 2010.06.25/outbox.cif.g09.slc.cpg/sg2_34_cif.got.tgz:66263.got - 2010.06.27 13:26:56.
