data_PCOD8010683
_publ_section_title
;
Structure prediction by ZEFSAII (Michael W. Deem and Ramdas Pophale) SiO2 
 PCOD8010683
Probable space group: P -1
;
_chemical_formula_sum "Si O2"
_cell_formula_units_Z 16
_cell_length_a 7.030234
_cell_length_b 9.251997
_cell_length_c 19.267736
_cell_angle_alpha 128.089856
_cell_angle_beta 106.321552
_cell_angle_gamma 46.756752
_cell_volume 696.253684
_symmetry_space_group_name_H-M "P -1"
_symmetry_group_IT_number 2
_symmetry_cell_setting 'triclinic'
loop_
_space_group_symop_operation_xyz
x,y,z
-x,-y,-z
loop_
_atom_site_type_symbol
_atom_site_label
_atom_site_fract_x
_atom_site_fract_y
_atom_site_fract_z
Si Si1 0.290362 0.300082 0.332840
Si Si2 0.558041 0.763020 0.959441
Si Si3 0.656477 0.330123 0.533359
Si Si4 0.294497 0.414572 0.643713
Si Si5 0.433059 0.892836 0.138804
Si Si6 0.134290 0.765686 0.847621
Si Si7 0.946933 0.528410 0.166736
Si Si8 0.256997 0.091471 0.630518
O O1 0.216402 0.563561 0.388796
O O2 0.014938 0.377077 0.349700
O O3 0.398777 0.134784 0.223773
O O4 0.488257 0.142966 0.369918
O O5 0.309859 0.795893 0.917995
O O6 0.847647 0.525230 0.886278
O O7 0.581002 0.748634 0.039999
O O8 0.500000 0.000000 0.000000
O O9 0.500000 0.500000 0.500000
O O10 0.459270 0.362925 0.578299
O O11 0.861956 0.029924 0.447379
O O12 0.331936 0.539902 0.746795
O O13 0.364988 0.165633 0.605091
O O14 0.638989 0.691216 0.158210
O O15 0.138254 0.975423 0.138752
O O16 0.978916 0.718393 0.868909
O O17 0.957107 0.671868 0.272196
#
# Coordination Sequence:
#
# PCOD8010683 Si02
#       8
#     2   2   2   2   2   2   2   2
#     4   9  21  40  61  89 124 161 204 253 304 362
#     4  12  24  39  65  92 124 161 207 256 308 369
#     4  10  21  38  62  93 122 157 206 251 303 369
#     4  10  21  38  64  85 122 164 202 250 309 364
#     4  10  21  42  64  89 127 166 202 257 308 359
#     4  10  23  42  60  91 123 163 206 254 306 367
#     4  10  22  43  61  89 128 161 207 256 304 365
#     4   9  20  40  60  88 126 159 203 257 301 363
#
# _framework density 22.980128000000001
#
# number of rings (size 3 to 8) (size 9 to 14) (size 15 to 20)
#    0.000    2.000    1.250    1.125    1.750    3.000 
#    2.250   15.000    0.000    0.000    0.000    0.000 
#    0.000    0.000    0.000    0.000    0.000    0.000 
#
# Total GULP energy -198230.067220 kJ/mol
# GULP energy per Si atom -12389.379201 kJ/mol
# Density = 2.292782 g / cm^3
# Si number density = 22.980128 Si / 1000 Ang^3
#
#
#
# Elastic Constant Matrix: (Units=GPa)
#
#
# Indices 1 2 3 4 5 6 
#
# 1 91.8652 24.6325 61.6636 -5.9278 -2.0330 2.6368
# 2 24.6325 42.0652 26.1495 -0.1051 4.5370 5.1327
# 3 61.6636 26.1495 137.5791 -8.8130 4.4734 11.1386
# 4 -5.9278 -0.1051 -8.8130 30.7219 -3.3733 0.8610
# 5 -2.0330 4.5370 4.4734 -3.3733 36.4770 -5.4424
# 6 2.6368 5.1327 11.1386 0.8610 -5.4424 35.3970
#
#
#
# Elastic Compliance Matrix: (Units=1/GPa)
#
#
# Indices 1 2 3 4 5 6 
#
# 1 0.017210 -0.006544 -0.006640 0.001669 0.003068 0.002187
# 2 -0.006544 0.030090 -0.002480 -0.002268 -0.004571 -0.003743
# 3 -0.006640 -0.002480 0.011125 0.001798 -0.001700 -0.002952
# 4 0.001669 -0.002268 0.001798 0.033748 0.003172 -0.000694
# 5 0.003068 -0.004571 -0.001700 0.003172 0.029465 0.005422
# 6 0.002187 -0.003743 -0.002952 -0.000694 0.005422 0.030410
#
#
# Mechanical properties :
#
#
# Convention : Reuss Voigt Hill
#
# Bulk Modulus (GPa) = 36.90224 55.15563 46.02894
# Shear Modulus (GPa) = 25.98644 31.12343 28.55493
#
# Velocity S-wave (km/s) = 3.36642 3.68416 3.52887
# Velocity P-wave (km/s) = 5.58601 6.49237 6.05617
#
# Compressibility (1/GPa) = 0.02709862
#
# Stress axis : x y z
#
# Youngs Moduli (GPa) = 58.10643 33.23333 89.88567
#
# Poissons Ratio (x) = 0.21747 0.59681
# Poissons Ratio (y) = 0.38024 0.22290
# Poissons Ratio (z) = 0.38581 0.08241
#
# Static dielectric constant tensor:
#      x y z
#    x 4.115990 -0.065790 0.195500 
#    y -0.065790 4.212640 0.150020 
#    z 0.195500 0.150020 4.548430 
# 
# 
# High freq. dielectric constant tensor:
#      x y z
#    x 1.876530 -0.016460 0.014090 
#    y -0.016460 1.915780 -0.003630 
#    z 0.014090 -0.003630 1.935420 
# 
# From -- ./inp_files/582604.got.cif
#   From: 2010.06.25/outbox.cif.g09.slc.cpg/sg2_292_cif.got.tgz:582604.got - 2010.06.27 13:26:56.
