data_PCOD8010463
_publ_section_title
;
Structure prediction by ZEFSAII (Michael W. Deem and Ramdas Pophale) SiO2 
 PCOD8010463
Probable space group: P -1
;
_chemical_formula_sum "Si O2"
_cell_formula_units_Z 14
_cell_length_a 9.545722
_cell_length_b 13.408285
_cell_length_c 8.331953
_cell_angle_alpha 91.509915
_cell_angle_beta 84.327597
_cell_angle_gamma 138.082346
_cell_volume 707.157854
_symmetry_space_group_name_H-M "P -1"
_symmetry_group_IT_number 2
_symmetry_cell_setting 'triclinic'
loop_
_space_group_symop_operation_xyz
x,y,z
-x,-y,-z
loop_
_atom_site_type_symbol
_atom_site_label
_atom_site_fract_x
_atom_site_fract_y
_atom_site_fract_z
Si Si1 0.908269 0.410326 0.339832
Si Si2 0.881177 0.253277 0.616596
Si Si3 0.693160 0.383222 0.882977
Si Si4 0.732082 0.495834 0.228420
Si Si5 0.514561 0.927095 0.135616
Si Si6 0.085702 0.805079 0.721892
Si Si7 0.390025 0.454101 0.179995
O O1 0.715184 0.386110 0.334342
O O2 0.864368 0.284221 0.242784
O O3 0.934486 0.389811 0.525351
O O4 0.110014 0.564665 0.227238
O O5 0.060752 0.331103 0.733778
O O6 0.648176 0.126927 0.709607
O O7 0.893326 0.173836 0.474366
O O8 0.528321 0.207566 0.930428
O O9 0.605870 0.424831 0.773952
O O10 0.758269 0.475848 0.040699
O O11 0.528905 0.458722 0.284509
O O12 0.745820 0.040831 0.193584
O O13 0.500000 0.000000 0.000000
O O14 0.850565 0.713124 0.798264
O O15 0.500000 0.500000 0.000000
#
# Coordination Sequence:
#
# PCOD8010463 Si02
#       7
#     2   2   2   2   2   2   2
#     4   9  19  36  62  91 114 147 201 257 290 334
#     4  10  23  35  63  94 122 152 195 260 301 340
#     4  10  21  38  60  93 115 156 201 254 293 342
#     4  11  19  35  64  95 114 148 209 242 299 349
#     4  12  24  37  63  90 121 162 200 247 300 360
#     4   9  22  41  56  90 125 154 194 240 312 349
#     4   9  21  38  65  86 120 160 197 255 287 351
#
# _framework density 19.797560000000001
#
# number of rings (size 3 to 8) (size 9 to 14) (size 15 to 20)
#    0.857    1.143    1.429    2.143    6.000    0.571 
#    0.000    2.857    3.143    1.714    0.000    0.000 
#    0.000    0.000    0.000    0.000    0.000    0.000 
#
# Total GULP energy -173451.721895 kJ/mol
# GULP energy per Si atom -12389.408707 kJ/mol
# Density = 1.975250 g / cm^3
# Si number density = 19.797560 Si / 1000 Ang^3
#
#
#
# Elastic Constant Matrix: (Units=GPa)
#
#
# Indices 1 2 3 4 5 6 
#
# 1 135.4511 51.6986 32.0150 0.2744 14.3361 19.7924
# 2 51.6986 119.5824 46.8921 1.2021 4.3865 16.6461
# 3 32.0150 46.8921 98.9314 0.1083 -3.0023 11.5231
# 4 0.2744 1.2021 0.1083 34.4626 4.1882 -0.5358
# 5 14.3361 4.3865 -3.0023 4.1882 22.5384 -4.4160
# 6 19.7924 16.6461 11.5231 -0.5358 -4.4160 32.4530
#
#
#
# Elastic Compliance Matrix: (Units=1/GPa)
#
#
# Indices 1 2 3 4 5 6 
#
# 1 0.010429 -0.002864 -0.001626 0.000850 -0.007493 -0.005319
# 2 -0.002864 0.011785 -0.004361 -0.000227 -0.001592 -0.002970
# 3 -0.001626 -0.004361 0.012911 -0.000313 0.003487 -0.000886
# 4 0.000850 -0.000227 -0.000313 0.029762 -0.006194 -0.000642
# 5 -0.007493 -0.001592 0.003487 -0.006194 0.053273 0.011295
# 6 -0.005319 -0.002970 -0.000886 -0.000642 0.011295 0.037422
#
#
# Mechanical properties :
#
#
# Convention : Reuss Voigt Hill
#
# Bulk Modulus (GPa) = 57.39958 68.35292 62.87625
# Shear Modulus (GPa) = 27.91858 32.78143 30.35000
#
# Velocity S-wave (km/s) = 3.75934 4.07361 3.91962
# Velocity P-wave (km/s) = 6.92096 7.53170 7.23278
#
# Compressibility (1/GPa) = 0.01742173
#
# Stress axis : x y z
#
# Youngs Moduli (GPa) = 95.88750 84.85351 77.45508
#
# Poissons Ratio (x) = 0.24305 0.12594
# Poissons Ratio (y) = 0.27465 0.33779
# Poissons Ratio (z) = 0.15591 0.37006
#
# Static dielectric constant tensor:
#      x y z
#    x 4.174720 0.046630 0.099470 
#    y 0.046630 3.423310 0.031180 
#    z 0.099470 0.031180 3.568830 
# 
# 
# High freq. dielectric constant tensor:
#      x y z
#    x 1.761350 -0.000390 -0.003220 
#    y -0.000390 1.753140 0.008270 
#    z -0.003220 0.008270 1.778340 
# 
# From -- ./inp_files/193017.got.cif
#   From: 2010.06.25/outbox.cif.g09.slc.cpg/sg2_97_cif.got.tgz:193017.got - 2010.06.27 13:26:56.
