data_PCOD8010639
_publ_section_title
;
Structure prediction by ZEFSAII (Michael W. Deem and Ramdas Pophale) SiO2 
 PCOD8010639
Probable space group: P -1
;
_chemical_formula_sum "Si O2"
_cell_formula_units_Z 14
_cell_length_a 26.521000
_cell_length_b 12.176172
_cell_length_c 8.838325
_cell_angle_alpha 142.765345
_cell_angle_beta 30.414462
_cell_angle_gamma 151.899188
_cell_volume 673.024939
_symmetry_space_group_name_H-M "P -1"
_symmetry_group_IT_number 2
_symmetry_cell_setting 'triclinic'
loop_
_space_group_symop_operation_xyz
x,y,z
-x,-y,-z
loop_
_atom_site_type_symbol
_atom_site_label
_atom_site_fract_x
_atom_site_fract_y
_atom_site_fract_z
Si Si1 0.619366 0.143879 0.736420
Si Si2 0.637921 0.560155 0.207758
Si Si3 0.930996 0.519058 0.835106
Si Si4 0.729783 0.585104 0.332443
Si Si5 0.526720 0.852203 0.357521
Si Si6 0.759845 0.011619 0.742620
Si Si7 0.204285 0.918708 0.626526
O O1 0.744622 0.201285 0.553820
O O2 0.591168 0.983584 0.492058
O O3 0.641142 0.382894 0.899088
O O4 0.500000 0.000000 0.000000
O O5 0.500000 0.500000 0.500000
O O6 0.678863 0.533627 0.236776
O O7 0.738931 0.826452 0.174765
O O8 0.000000 0.500000 0.500000
O O9 0.048973 0.749344 0.873132
O O10 0.854661 0.274031 0.859978
O O11 0.830551 0.543279 0.052971
O O12 0.604981 0.413553 0.573206
O O13 0.808389 0.861372 0.471512
O O14 0.500000 0.000000 0.500000
O O15 0.621915 0.846459 0.000448
O O16 0.748952 0.045744 0.629986
#
# Coordination Sequence:
#
# PCOD8010639 Si02
#       7
#     2   2   2   2   2   2   2
#     4  12  22  39  62  87 123 158 197 251 309 353
#     4  11  21  35  61  90 120 154 201 251 299 354
#     4  10  21  38  62  90 125 160 204 248 297 360
#     4  11  22  38  63  92 125 159 204 249 307 357
#     4  12  23  39  64  89 125 159 199 254 310 357
#     4  10  22  39  62  93 122 160 201 250 302 358
#     4  10  22  40  64  90 122 154 207 248 296 363
#
# _framework density 20.801608000000002
#
# number of rings (size 3 to 8) (size 9 to 14) (size 15 to 20)
#    0.000    1.143    4.286    3.000    2.000    6.286 
#    2.571    0.714    0.000    1.714    0.000    0.000 
#    0.000    0.000    0.000    0.000    0.000    0.000 
#
# Total GULP energy -173493.376478 kJ/mol
# GULP energy per Si atom -12392.384034 kJ/mol
# Density = 2.075426 g / cm^3
# Si number density = 20.801608 Si / 1000 Ang^3
#
#
#
# Elastic Constant Matrix: (Units=GPa)
#
#
# Indices 1 2 3 4 5 6 
#
# 1 71.5769 48.1089 35.4738 -4.3599 -20.5493 3.1888
# 2 48.1089 154.8971 48.4576 16.2003 -38.4211 2.9352
# 3 35.4738 48.4576 92.1285 0.9550 -26.1555 -3.7343
# 4 -4.3599 16.2003 0.9550 38.3923 -0.6456 -7.6457
# 5 -20.5493 -38.4211 -26.1555 -0.6456 32.1271 -2.6623
# 6 3.1888 2.9352 -3.7343 -7.6457 -2.6623 26.6900
#
#
#
# Elastic Compliance Matrix: (Units=1/GPa)
#
#
# Indices 1 2 3 4 5 6 
#
# 1 0.020682 -0.004346 -0.004527 0.004170 0.004346 -0.000999
# 2 -0.004346 0.011125 -0.001646 -0.005308 0.008948 -0.001562
# 3 -0.004527 -0.001646 0.016046 0.000727 0.008548 0.004028
# 4 0.004170 -0.005308 0.000727 0.030452 -0.001753 0.008736
# 5 0.004346 0.008948 0.008548 -0.001753 0.051893 0.004367
# 6 -0.000999 -0.001562 0.004028 0.008736 0.004367 0.041260
#
#
# Mechanical properties :
#
#
# Convention : Reuss Voigt Hill
#
# Bulk Modulus (GPa) = 37.29401 64.74255 51.01828
# Shear Modulus (GPa) = 24.82184 31.87937 28.35061
#
# Velocity S-wave (km/s) = 3.45812 3.91902 3.69576
# Velocity P-wave (km/s) = 5.82341 7.18816 6.54147
#
# Compressibility (1/GPa) = 0.02681395
#
# Stress axis : x y z
#
# Youngs Moduli (GPa) = 48.35040 89.88744 62.32210
#
# Poissons Ratio (x) = 0.39069 0.28215
# Poissons Ratio (y) = 0.21015 0.10257
# Poissons Ratio (z) = 0.21890 0.14793
#
# Static dielectric constant tensor:
#      x y z
#    x 3.707920 0.242910 -0.302080 
#    y 0.242910 4.998760 0.056270 
#    z -0.302080 0.056270 3.490250 
# 
# 
# High freq. dielectric constant tensor:
#      x y z
#    x 1.791100 -0.002870 -0.023530 
#    y -0.002870 1.838000 0.015310 
#    z -0.023530 0.015310 1.799170 
# 
# From -- ./inp_files/269947.got.cif
#   From: 2010.06.25/outbox.cif.g09.slc.cpg/sg2_135_cif.got.tgz:269947.got - 2010.06.27 13:26:56.
