data_PCOD8010428
_publ_section_title
;
Structure prediction by ZEFSAII (Michael W. Deem and Ramdas Pophale) SiO2 
 PCOD8010428
Probable space group: P -1
;
_chemical_formula_sum "Si O2"
_cell_formula_units_Z 16
_cell_length_a 11.895301
_cell_length_b 6.389535
_cell_length_c 12.221557
_cell_angle_alpha 76.679635
_cell_angle_beta 123.319418
_cell_angle_gamma 92.178440
_cell_volume 750.838556
_symmetry_space_group_name_H-M "P -1"
_symmetry_group_IT_number 2
_symmetry_cell_setting 'triclinic'
loop_
_space_group_symop_operation_xyz
x,y,z
-x,-y,-z
loop_
_atom_site_type_symbol
_atom_site_label
_atom_site_fract_x
_atom_site_fract_y
_atom_site_fract_z
Si Si1 0.463643 0.236641 0.710247
Si Si2 0.051620 0.468503 0.722156
Si Si3 0.920750 0.062577 0.752965
Si Si4 0.488184 0.155469 0.077499
Si Si5 0.275954 0.622560 0.248517
Si Si6 0.211950 0.254976 0.420940
Si Si7 0.336839 0.491029 0.817425
Si Si8 0.090283 0.636048 0.959328
O O1 0.566132 0.342059 0.671224
O O2 0.330959 0.199799 0.576100
O O3 0.422877 0.394577 0.771275
O O4 0.535420 0.000064 0.813795
O O5 0.176509 0.500076 0.703831
O O6 0.105808 0.531723 0.861765
O O7 0.016972 0.222942 0.729050
O O8 0.917479 0.624072 0.598965
O O9 0.818137 0.182650 0.769970
O O10 0.829173 0.968383 0.622157
O O11 0.019907 0.880403 0.888012
O O12 0.623832 0.270165 0.161926
O O13 0.367434 0.341726 0.961129
O O14 0.500000 0.000000 0.000000
O O15 0.255574 0.400819 0.326063
O O16 0.235495 0.620892 0.098618
O O17 0.000000 0.500000 0.000000
#
# Coordination Sequence:
#
# PCOD8010428 Si02
#       8
#     2   2   2   2   2   2   2   2
#     4  11  25  40  63  89 125 168 204 242 301 374
#     4  10  23  38  65  89 121 162 198 258 304 359
#     4  10  21  38  60  88 123 159 202 254 307 352
#     4   9  22  40  59  89 120 157 202 248 299 358
#     4  11  23  37  61  92 124 161 200 251 308 362
#     4  10  23  43  58  91 127 158 209 250 296 363
#     4  10  23  43  62  89 126 156 205 257 303 353
#     4  11  20  35  59  95 124 150 205 256 309 356
#
# _framework density 21.309508000000001
#
# number of rings (size 3 to 8) (size 9 to 14) (size 15 to 20)
#    0.000    1.750    3.750    0.750    7.000    7.000 
#    0.000    1.250    0.000    0.000    0.000    0.000 
#    0.000    0.000    0.000    0.000    0.000    0.000 
#
# Total GULP energy -198347.443732 kJ/mol
# GULP energy per Si atom -12396.715233 kJ/mol
# Density = 2.126101 g / cm^3
# Si number density = 21.309508 Si / 1000 Ang^3
#
#
#
# Elastic Constant Matrix: (Units=GPa)
#
#
# Indices 1 2 3 4 5 6 
#
# 1 104.1995 27.8950 0.3782 2.9247 13.5479 19.0368
# 2 27.8950 124.5688 19.6983 12.6315 -2.9918 18.0014
# 3 0.3782 19.6983 79.9467 9.8468 11.4094 2.7076
# 4 2.9247 12.6315 9.8468 21.3803 4.6106 6.3598
# 5 13.5479 -2.9918 11.4094 4.6106 23.1376 7.5138
# 6 19.0368 18.0014 2.7076 6.3598 7.5138 19.0470
#
#
#
# Elastic Compliance Matrix: (Units=1/GPa)
#
#
# Indices 1 2 3 4 5 6 
#
# 1 0.012542 -0.002072 0.001220 0.003006 -0.005729 -0.009495
# 2 -0.002072 0.010952 -0.003062 -0.003591 0.008043 -0.009819
# 3 0.001220 -0.003062 0.014972 -0.004691 -0.009083 0.004696
# 4 0.003006 -0.003591 -0.004691 0.056554 -0.006183 -0.015388
# 5 -0.005729 0.008043 -0.009083 -0.006183 0.060609 -0.022429
# 6 -0.009495 -0.009819 0.004696 -0.015388 -0.022429 0.084589
#
#
# Mechanical properties :
#
#
# Convention : Reuss Voigt Hill
#
# Bulk Modulus (GPa) = 32.63793 44.96199 38.79996
# Shear Modulus (GPa) = 19.36043 30.09589 24.72816
#
# Velocity S-wave (km/s) = 3.01746 3.76216 3.41020
# Velocity P-wave (km/s) = 5.24304 6.32591 5.80976
#
# Compressibility (1/GPa) = 0.03063920
#
# Stress axis : x y z
#
# Youngs Moduli (GPa) = 79.72969 91.30742 66.79111
#
# Poissons Ratio (x) = 0.18919 -0.08149
# Poissons Ratio (y) = 0.16520 0.20450
# Poissons Ratio (z) = -0.09728 0.27956
#
# Static dielectric constant tensor:
#      x y z
#    x 3.647850 0.182920 0.186580 
#    y 0.182920 4.005970 -0.002540 
#    z 0.186580 -0.002540 4.051550 
# 
# 
# High freq. dielectric constant tensor:
#      x y z
#    x 1.822140 0.009820 0.013010 
#    y 0.009820 1.846530 0.006770 
#    z 0.013010 0.006770 1.830900 
# 
# From -- ./inp_files/70761.got.cif
#   From: 2010.06.25/outbox.cif.g09.slc.cpg/sg2_36_cif.got.tgz:70761.got - 2010.06.27 13:26:56.
