data_PCOD8010542
_publ_section_title
;
Structure prediction by ZEFSAII (Michael W. Deem and Ramdas Pophale) SiO2 
 PCOD8010542
Probable space group: P -1
;
_chemical_formula_sum "Si O2"
_cell_formula_units_Z 14
_cell_length_a 12.612881
_cell_length_b 4.981087
_cell_length_c 11.747073
_cell_angle_alpha 65.705049
_cell_angle_beta 84.522633
_cell_angle_gamma 75.965797
_cell_volume 652.574604
_symmetry_space_group_name_H-M "P -1"
_symmetry_group_IT_number 2
_symmetry_cell_setting 'triclinic'
loop_
_space_group_symop_operation_xyz
x,y,z
-x,-y,-z
loop_
_atom_site_type_symbol
_atom_site_label
_atom_site_fract_x
_atom_site_fract_y
_atom_site_fract_z
Si Si1 0.605461 0.384480 0.649649
Si Si2 0.704984 0.735789 0.757339
Si Si3 0.580471 0.697308 0.001629
Si Si4 0.927784 0.680963 0.642878
Si Si5 0.387342 0.262204 0.634649
Si Si6 0.072613 0.099667 0.640890
Si Si7 0.292653 0.693295 0.746267
O O1 0.634870 0.529232 0.737625
O O2 0.491942 0.280200 0.698682
O O3 0.595927 0.642173 0.511682
O O4 0.690317 0.080806 0.653727
O O5 0.832741 0.594622 0.745182
O O6 0.665676 0.759649 0.887184
O O7 0.665808 0.532605 0.115949
O O8 0.500000 0.500000 0.000000
O O9 0.500000 0.000000 0.000000
O O10 0.882129 0.792350 0.501821
O O11 0.025892 0.387328 0.674260
O O12 0.973456 0.939712 0.655493
O O13 0.288941 0.496340 0.666071
O O14 0.374104 0.921154 0.689001
O O15 0.169585 0.888154 0.739746
#
# Coordination Sequence:
#
# PCOD8010542 Si02
#       7
#     2   2   2   2   2   2   2
#     4  11  22  36  59  91 123 155 198 256 317 376
#     4  12  23  40  62  88 123 167 207 250 306 364
#     4  12  26  44  64  88 124 170 214 252 295 362
#     4  10  21  38  61  90 122 156 200 255 312 367
#     4  11  22  36  59  91 123 155 198 256 317 376
#     4  10  21  38  61  90 122 156 200 255 312 367
#     4  12  23  40  62  88 123 167 207 250 306 364
#
# _framework density 21.453484
#
# number of rings (size 3 to 8) (size 9 to 14) (size 15 to 20)
#    0.000    0.857    0.000    9.429    0.000    4.571 
#    0.000    1.429    0.000    0.000    0.000    0.000 
#    0.000    0.000    0.000    0.000    0.000    0.000 
#
# Total GULP energy -173623.077372 kJ/mol
# GULP energy per Si atom -12401.648384 kJ/mol
# Density = 2.140466 g / cm^3
# Si number density = 21.453484 Si / 1000 Ang^3
#
#
#
# Elastic Constant Matrix: (Units=GPa)
#
#
# Indices 1 2 3 4 5 6 
#
# 1 82.8025 18.2557 50.2582 0.3715 -6.2450 -17.0552
# 2 18.2557 109.4834 28.8021 -4.5651 1.4030 -3.7966
# 3 50.2582 28.8021 73.3473 -4.2884 -6.7928 -18.5699
# 4 0.3715 -4.5651 -4.2884 31.6081 -10.2669 0.9883
# 5 -6.2450 1.4030 -6.7928 -10.2669 34.8583 -4.0214
# 6 -17.0552 -3.7966 -18.5699 0.9883 -4.0214 42.3932
#
#
#
# Elastic Compliance Matrix: (Units=1/GPa)
#
#
# Indices 1 2 3 4 5 6 
#
# 1 0.021064 0.000138 -0.013890 -0.001937 0.000782 0.002522
# 2 0.000138 0.010295 -0.004509 0.000503 -0.001250 -0.001128
# 3 -0.013890 -0.004509 0.027272 0.004676 0.005115 0.006330
# 4 -0.001937 0.000503 0.004676 0.035997 0.011325 0.001549
# 5 0.000782 -0.001250 0.005115 0.011325 0.033832 0.005388
# 6 0.002522 -0.001128 0.006330 0.001549 0.005388 0.027750
#
#
# Mechanical properties :
#
#
# Convention : Reuss Voigt Hill
#
# Bulk Modulus (GPa) = 45.23104 51.14057 48.18581
# Shear Modulus (GPa) = 24.98715 32.99307 28.99011
#
# Velocity S-wave (km/s) = 3.41649 3.92585 3.67999
# Velocity P-wave (km/s) = 6.05742 6.66628 6.36913
#
# Compressibility (1/GPa) = 0.02210871
#
# Stress axis : x y z
#
# Youngs Moduli (GPa) = 47.47354 97.13547 36.66754
#
# Poissons Ratio (x) = -0.01345 0.50932
# Poissons Ratio (y) = -0.00657 0.16535
# Poissons Ratio (z) = 0.65942 0.43803
#
# Static dielectric constant tensor:
#      x y z
#    x 3.737530 -0.003270 0.009270 
#    y -0.003270 4.061280 -0.029300 
#    z 0.009270 -0.029300 3.681580 
# 
# 
# High freq. dielectric constant tensor:
#      x y z
#    x 1.836570 0.003240 -0.002110 
#    y 0.003240 1.870950 -0.002340 
#    z -0.002110 -0.002340 1.814820 
# 
# From -- ./inp_files/408934.got.cif
#   From: 2010.06.25/outbox.cif.g09.slc.cpg/sg2_205_cif.got.tgz:408934.got - 2010.06.27 13:26:56.
