data_PCOD8010705
_publ_section_title
;
Structure prediction by ZEFSAII (Michael W. Deem and Ramdas Pophale) SiO2 
 PCOD8010705
Probable space group: P -1
;
_chemical_formula_sum "Si O2"
_cell_formula_units_Z 12
_cell_length_a 23.136618
_cell_length_b 4.937420
_cell_length_c 8.418364
_cell_angle_alpha 91.313811
_cell_angle_beta 146.275194
_cell_angle_gamma 78.992518
_cell_volume 507.551981
_symmetry_space_group_name_H-M "P -1"
_symmetry_group_IT_number 2
_symmetry_cell_setting 'triclinic'
loop_
_space_group_symop_operation_xyz
x,y,z
-x,-y,-z
loop_
_atom_site_type_symbol
_atom_site_label
_atom_site_fract_x
_atom_site_fract_y
_atom_site_fract_z
Si Si1 0.220805 0.455880 0.133773
Si Si2 0.016003 0.413084 0.357097
Si Si3 0.787576 0.046952 0.113344
Si Si4 0.380813 0.196360 0.772900
Si Si5 0.070048 0.702615 0.219533
Si Si6 0.698720 0.261249 0.238286
O O1 0.323484 0.346754 0.482902
O O2 0.108951 0.539319 0.988768
O O3 0.233576 0.225532 0.020069
O O4 0.216819 0.744932 0.039470
O O5 0.000000 0.500000 0.500000
O O6 0.095826 0.083679 0.524904
O O7 0.072182 0.635019 0.411995
O O8 0.699566 0.194096 0.050876
O O9 0.395137 0.442918 0.928844
O O10 0.312649 0.008525 0.695250
O O11 0.500000 0.000000 0.000000
O O12 0.194565 0.659529 0.453296
O O13 0.000000 0.500000 0.000000
O O14 0.000000 0.000000 0.000000
#
# Coordination Sequence:
#
# PCOD8010705 Si02
#       6
#     2   2   2   2   2   2
#     4  11  23  42  66  98 137 179 223 273 326 400
#     4  10  21  38  62  96 137 176 210 255 320 403
#     4  11  23  41  67 101 137 177 217 268 340 410
#     4  12  27  48  71  96 128 177 235 291 342 390
#     4  12  24  38  62  99 137 178 218 259 326 406
#     4  12  24  45  68  96 136 175 220 286 339 397
#
# _framework density 23.642900000000001
#
# number of rings (size 3 to 8) (size 9 to 14) (size 15 to 20)
#    0.000    0.667    0.000   10.000    0.000    5.333 
#    0.000    5.000    0.000    0.000    0.000    0.000 
#    0.000    0.000    0.000    0.000    0.000    0.000 
#
# Total GULP energy -148685.756030 kJ/mol
# GULP energy per Si atom -12390.479669 kJ/mol
# Density = 2.358909 g / cm^3
# Si number density = 23.642900 Si / 1000 Ang^3
#
#
#
# Elastic Constant Matrix: (Units=GPa)
#
#
# Indices 1 2 3 4 5 6 
#
# 1 112.5058 44.3305 48.4530 -26.6918 -5.4534 9.4189
# 2 44.3305 136.3703 24.7584 -33.7107 -9.8527 7.3063
# 3 48.4530 24.7584 114.8332 -32.2513 -1.8616 10.7389
# 4 -26.6918 -33.7107 -32.2513 44.1131 2.9643 -3.4791
# 5 -5.4534 -9.8527 -1.8616 2.9643 23.0715 -17.7784
# 6 9.4189 7.3063 10.7389 -3.4791 -17.7784 55.1924
#
#
#
# Elastic Compliance Matrix: (Units=1/GPa)
#
#
# Indices 1 2 3 4 5 6 
#
# 1 0.012239 -0.002572 -0.003824 0.002550 0.000677 -0.000625
# 2 -0.002572 0.009795 0.000757 0.006303 0.003136 0.000403
# 3 -0.003824 0.000757 0.012364 0.007282 -0.002119 -0.002077
# 4 0.002550 0.006303 0.007282 0.034364 -0.001242 -0.000920
# 5 0.000677 0.003136 -0.002119 -0.001242 0.059432 0.018947
# 6 -0.000625 0.000403 -0.002077 -0.000920 0.018947 0.024621
#
#
# Mechanical properties :
#
#
# Convention : Reuss Voigt Hill
#
# Bulk Modulus (GPa) = 43.25357 66.53257 54.89307
# Shear Modulus (GPa) = 29.10391 40.88656 34.99523
#
# Velocity S-wave (km/s) = 3.51234 4.16304 3.85146
# Velocity P-wave (km/s) = 5.89771 7.16307 6.56096
#
# Compressibility (1/GPa) = 0.02311948
#
# Stress axis : x y z
#
# Youngs Moduli (GPa) = 81.70836 102.09558 80.88146
#
# Poissons Ratio (x) = 0.26254 0.30930
# Poissons Ratio (y) = 0.21012 -0.06121
# Poissons Ratio (z) = 0.31246 -0.07726
#
# Static dielectric constant tensor:
#      x y z
#    x 5.213330 -0.631550 0.798670 
#    y -0.631550 4.337610 -1.055180 
#    z 0.798670 -1.055180 6.972450 
# 
# 
# High freq. dielectric constant tensor:
#      x y z
#    x 1.955870 -0.006660 -0.023280 
#    y -0.006660 1.963800 -0.014970 
#    z -0.023280 -0.014970 1.912960 
# 
# From -- ./inp_files/339034.got.cif
#   From: 2010.06.25/outbox.cif.g09.slc.cpg/sg2_170_cif.got.tgz:339034.got - 2010.06.27 13:26:56.
