data_PCOD8010039
_publ_section_title
;
Structure prediction by ZEFSAII (Michael W. Deem and Ramdas Pophale) SiO2 
 PCOD8010039
Probable space group: P -1
;
_chemical_formula_sum "Si O2"
_cell_formula_units_Z 16
_cell_length_a 17.101213
_cell_length_b 9.116092
_cell_length_c 11.412958
_cell_angle_alpha 104.910530
_cell_angle_beta 149.504611
_cell_angle_gamma 63.187957
_cell_volume 771.199673
_symmetry_space_group_name_H-M "P -1"
_symmetry_group_IT_number 2
_symmetry_cell_setting 'triclinic'
loop_
_space_group_symop_operation_xyz
x,y,z
-x,-y,-z
loop_
_atom_site_type_symbol
_atom_site_label
_atom_site_fract_x
_atom_site_fract_y
_atom_site_fract_z
Si Si1 0.091416 0.115900 0.609169
Si Si2 0.478522 0.315319 0.120405
Si Si3 0.822909 0.651264 0.096325
Si Si4 0.540970 0.162755 0.931325
Si Si5 0.528900 0.831542 0.569968
Si Si6 0.411329 0.668006 0.195798
Si Si7 0.959179 0.268592 0.218992
Si Si8 0.302938 0.996868 0.523114
O O1 0.061761 0.253615 0.702986
O O2 0.016328 0.226542 0.418528
O O3 0.000000 0.000000 0.500000
O O4 0.298839 0.001525 0.837889
O O5 0.505934 0.473449 0.232669
O O6 0.650294 0.142143 0.342121
O O7 0.306832 0.323292 0.958199
O O8 0.459946 0.314069 0.955034
O O9 0.950067 0.448669 0.203240
O O10 0.713600 0.739593 0.856222
O O11 0.619629 0.213655 0.932433
O O12 0.394266 0.116169 0.687840
O O13 0.531581 0.691731 0.453298
O O14 0.500000 0.000000 0.500000
O O15 0.367576 0.892179 0.464120
O O16 0.229219 0.720007 0.035905
O O17 0.095254 0.119544 0.279279
#
# Coordination Sequence:
#
# PCOD8010039 Si02
#       8
#     2   2   2   2   2   2   2   2
#     4  12  21  37  63  97 134 167 204 263 326 379
#     4  10  21  37  64  93 127 160 212 258 311 376
#     4  10  23  42  64  94 128 174 205 262 320 375
#     4  12  20  40  64  96 128 169 212 251 321 385
#     4  11  22  45  71  86 124 176 222 250 306 392
#     4  11  24  41  64  96 127 168 213 262 310 370
#     4  11  24  39  62 100 133 157 210 268 326 367
#     4  11  22  40  68  91 122 176 208 257 317 380
#
# _framework density 20.746896
#
# number of rings (size 3 to 8) (size 9 to 14) (size 15 to 20)
#    0.000    1.000    6.250    1.875    0.000    6.000 
#    2.250    0.625    0.000    0.000    0.000    0.000 
#    0.000    0.000    0.000    0.000    0.000    0.000 
#
# Total GULP energy -198399.334074 kJ/mol
# GULP energy per Si atom -12399.958380 kJ/mol
# Density = 2.069968 g / cm^3
# Si number density = 20.746896 Si / 1000 Ang^3
#
#
#
# Elastic Constant Matrix: (Units=GPa)
#
#
# Indices 1 2 3 4 5 6 
#
# 1 59.1082 28.8528 14.8948 2.4449 -17.2987 -1.7864
# 2 28.8528 131.5489 35.2035 7.3048 -10.0391 4.1612
# 3 14.8948 35.2035 56.2338 3.0964 -10.3567 8.2220
# 4 2.4449 7.3048 3.0964 45.6936 -6.6939 -3.0864
# 5 -17.2987 -10.0391 -10.3567 -6.6939 29.9498 -1.5646
# 6 -1.7864 4.1612 8.2220 -3.0864 -1.5646 35.2285
#
#
#
# Elastic Compliance Matrix: (Units=1/GPa)
#
#
# Indices 1 2 3 4 5 6 
#
# 1 0.022653 -0.003707 -0.002014 0.001398 0.011598 0.002694
# 2 -0.003707 0.009817 -0.005232 -0.001172 -0.000936 -0.000271
# 3 -0.002014 -0.005232 0.023176 -0.000241 0.004798 -0.004701
# 4 0.001398 -0.001172 -0.000241 0.023006 0.005605 0.002530
# 5 0.011598 -0.000936 0.004798 0.005605 0.042789 0.001970
# 6 0.002694 -0.000271 -0.004701 0.002530 0.001970 0.029961
#
#
# Mechanical properties :
#
#
# Convention : Reuss Voigt Hill
#
# Bulk Modulus (GPa) = 29.63893 44.97701 37.30797
# Shear Modulus (GPa) = 27.09194 33.37035 30.23114
#
# Velocity S-wave (km/s) = 3.61755 4.01490 3.82139
# Velocity P-wave (km/s) = 5.63612 6.57408 6.12309
#
# Compressibility (1/GPa) = 0.03373941
#
# Stress axis : x y z
#
# Youngs Moduli (GPa) = 44.14352 101.86183 43.14801
#
# Poissons Ratio (x) = 0.37763 0.08691
# Poissons Ratio (y) = 0.16365 0.22575
# Poissons Ratio (z) = 0.08892 0.53295
#
# Static dielectric constant tensor:
#      x y z
#    x 3.762970 0.016730 -0.093760 
#    y 0.016730 4.025070 0.022590 
#    z -0.093760 0.022590 3.687980 
# 
# 
# High freq. dielectric constant tensor:
#      x y z
#    x 1.798550 0.003430 -0.010840 
#    y 0.003430 1.825880 -0.000570 
#    z -0.010840 -0.000570 1.797290 
# 
# From -- ./inp_files/181881.got.cif
#   From: 2010.06.25/outbox.cif.g09.slc.cpg/sg2_91_cif.got.tgz:181881.got - 2010.06.27 13:26:56.
