data_PCOD8010199
_publ_section_title
;
Structure prediction by ZEFSAII (Michael W. Deem and Ramdas Pophale) SiO2 
 PCOD8010199
Probable space group: P -1
;
_chemical_formula_sum "Si O2"
_cell_formula_units_Z 16
_cell_length_a 9.373716
_cell_length_b 21.199159
_cell_length_c 8.192868
_cell_angle_alpha 118.861663
_cell_angle_beta 96.840341
_cell_angle_gamma 134.996766
_cell_volume 674.363540
_symmetry_space_group_name_H-M "P -1"
_symmetry_group_IT_number 2
_symmetry_cell_setting 'triclinic'
loop_
_space_group_symop_operation_xyz
x,y,z
-x,-y,-z
loop_
_atom_site_type_symbol
_atom_site_label
_atom_site_fract_x
_atom_site_fract_y
_atom_site_fract_z
Si Si1 0.888157 0.552921 0.663186
Si Si2 0.835421 0.830555 0.426858
Si Si3 0.248607 0.748160 0.459821
Si Si4 0.198314 0.554211 0.834753
Si Si5 0.915504 0.999232 0.820087
Si Si6 0.708965 0.089796 0.484128
Si Si7 0.243896 0.267428 0.351830
Si Si8 0.786191 0.187239 0.142449
O O1 0.823447 0.492364 0.401355
O O2 0.576819 0.437949 0.561045
O O3 0.063449 0.574962 0.831936
O O4 0.089451 0.713471 0.872846
O O5 0.003223 0.982832 0.663165
O O6 0.741981 0.765994 0.515232
O O7 0.050162 0.868053 0.412261
O O8 0.544478 0.710485 0.125822
O O9 0.558352 0.852602 0.564253
O O10 0.136169 0.764260 0.347385
O O11 0.321894 0.805628 0.725199
O O12 0.989726 0.573315 0.213738
O O13 0.000000 0.000000 0.000000
O O14 0.100642 0.155885 0.044581
O O15 0.500000 0.000000 0.500000
O O16 0.503370 0.986147 0.166785
O O17 0.047781 0.252283 0.330785
#
# Coordination Sequence:
#
# PCOD8010199 Si02
#       8
#     2   2   2   2   2   2   2   2
#     4  10  24  43  67 102 137 181 223 276 344 398
#     4  11  25  43  69 103 134 181 229 281 339 397
#     4  11  22  45  70  95 136 185 224 273 339 405
#     4  10  24  44  68  98 141 178 225 280 334 409
#     4  10  21  37  69 101 131 174 227 275 327 401
#     4  12  27  44  66 103 138 177 224 286 343 398
#     4  11  21  41  70 102 135 181 229 273 336 412
#     4  11  22  44  70  96 139 182 225 274 339 410
#
# _framework density 23.726073
#
# number of rings (size 3 to 8) (size 9 to 14) (size 15 to 20)
#    0.000    1.250    2.500    3.750    1.750    6.500 
#    0.000    1.875    0.000    0.000    0.000    0.000 
#    0.000    0.000    0.000    0.000    0.000    0.000 
#
# Total GULP energy -198426.593468 kJ/mol
# GULP energy per Si atom -12401.662092 kJ/mol
# Density = 2.367207 g / cm^3
# Si number density = 23.726073 Si / 1000 Ang^3
#
#
#
# Elastic Constant Matrix: (Units=GPa)
#
#
# Indices 1 2 3 4 5 6 
#
# 1 123.8977 18.0057 33.7715 4.7258 17.1726 -8.4802
# 2 18.0057 75.4476 12.3762 10.1702 -3.3710 -1.9210
# 3 33.7715 12.3762 75.5454 0.6234 23.2825 -10.6315
# 4 4.7258 10.1702 0.6234 25.8450 -1.7995 2.0850
# 5 17.1726 -3.3710 23.2825 -1.7995 33.5307 11.2485
# 6 -8.4802 -1.9210 -10.6315 2.0850 11.2485 26.8120
#
#
#
# Elastic Compliance Matrix: (Units=1/GPa)
#
#
# Indices 1 2 3 4 5 6 
#
# 1 0.010055 -0.002041 -0.001545 -0.001836 -0.006099 0.005123
# 2 -0.002041 0.015220 -0.003891 -0.004831 0.006122 -0.003291
# 3 -0.001545 -0.003891 0.024169 -0.001839 -0.022678 0.018474
# 4 -0.001836 -0.004831 -0.001839 0.042050 0.006564 -0.007680
# 5 -0.006099 0.006122 -0.022678 0.006564 0.062088 -0.037041
# 6 0.005123 -0.003291 0.018474 -0.007680 -0.037041 0.062144
#
#
# Mechanical properties :
#
#
# Convention : Reuss Voigt Hill
#
# Bulk Modulus (GPa) = 28.99259 44.79972 36.89615
# Shear Modulus (GPa) = 20.64610 31.28669 25.96639
#
# Velocity S-wave (km/s) = 2.95309 3.63528 3.31180
# Velocity P-wave (km/s) = 4.88609 6.04511 5.49624
#
# Compressibility (1/GPa) = 0.03449158
#
# Stress axis : x y z
#
# Youngs Moduli (GPa) = 99.45415 65.70106 41.37489
#
# Poissons Ratio (x) = 0.13408 0.06391
# Poissons Ratio (y) = 0.20297 0.16099
# Poissons Ratio (z) = 0.15362 0.25565
#
# Static dielectric constant tensor:
#      x y z
#    x 4.358430 0.016440 -0.700470 
#    y 0.016440 4.004580 0.696760 
#    z -0.700470 0.696760 3.039800 
# 
# 
# High freq. dielectric constant tensor:
#      x y z
#    x 1.952570 -0.005410 -0.003070 
#    y -0.005410 1.939260 0.001070 
#    z -0.003070 0.001070 1.930160 
# 
# From -- ./inp_files/223866.got.cif
#   From: 2010.06.25/outbox.cif.g09.slc.cpg/sg2_112_cif.got.tgz:223866.got - 2010.06.27 13:26:56.
