data_PCOD8010081
_publ_section_title
;
Structure prediction by ZEFSAII (Michael W. Deem and Ramdas Pophale) SiO2 
 PCOD8010081
Probable space group: P -1
;
_chemical_formula_sum "Si O2"
_cell_formula_units_Z 14
_cell_length_a 11.622305
_cell_length_b 23.929621
_cell_length_c 8.720339
_cell_angle_alpha 37.987067
_cell_angle_beta 122.195872
_cell_angle_gamma 148.485857
_cell_volume 703.567399
_symmetry_space_group_name_H-M "P -1"
_symmetry_group_IT_number 2
_symmetry_cell_setting 'triclinic'
loop_
_space_group_symop_operation_xyz
x,y,z
-x,-y,-z
loop_
_atom_site_type_symbol
_atom_site_label
_atom_site_fract_x
_atom_site_fract_y
_atom_site_fract_z
Si Si1 0.516492 0.420230 0.286806
Si Si2 0.967375 0.376940 0.702341
Si Si3 0.665486 0.567582 0.612579
Si Si4 0.834685 0.043009 0.294636
Si Si5 0.640065 0.745386 0.754463
Si Si6 0.595148 0.048048 0.292824
Si Si7 0.154382 0.800166 0.287392
O O1 0.353945 0.353352 0.464847
O O2 0.401383 0.276527 0.412239
O O3 0.792200 0.548280 0.251117
O O4 0.500000 0.500000 0.000000
O O5 0.906111 0.321463 0.599550
O O6 0.000000 0.500000 0.500000
O O7 0.739501 0.220457 0.984467
O O8 0.500000 0.500000 0.500000
O O9 0.939609 0.703784 0.461012
O O10 0.577739 0.426675 0.939749
O O11 0.785266 0.070066 0.359160
O O12 0.113843 0.169464 0.210307
O O13 0.652005 0.856526 0.569772
O O14 0.783318 0.079306 0.035122
O O15 0.500000 0.000000 0.500000
O O16 0.385062 0.909079 0.321850
#
# Coordination Sequence:
#
# PCOD8010081 Si02
#       7
#     2   2   2   2   2   2   2
#     4  10  21  37  65  88 123 161 206 255 307 364
#     4  11  24  42  65  93 125 164 212 253 310 373
#     4  11  19  39  61  92 117 155 205 253 306 359
#     4  10  21  43  59  88 123 165 202 247 313 363
#     4  10  22  36  66  89 121 157 207 257 297 368
#     4  11  26  42  61  88 127 166 202 252 311 375
#     4  11  23  41  66  84 128 167 199 253 314 369
#
# _framework density 19.898591
#
# number of rings (size 3 to 8) (size 9 to 14) (size 15 to 20)
#    0.000    1.429    2.857    4.286   10.000    1.143 
#    0.000    2.143    0.000    0.000    0.000    0.000 
#    0.000    0.000    0.000    0.000    0.000    0.000 
#
# Total GULP energy -173536.041278 kJ/mol
# GULP energy per Si atom -12395.431520 kJ/mol
# Density = 1.985330 g / cm^3
# Si number density = 19.898591 Si / 1000 Ang^3
#
#
#
# Elastic Constant Matrix: (Units=GPa)
#
#
# Indices 1 2 3 4 5 6 
#
# 1 135.0199 33.8761 74.9308 -0.9462 -5.7644 -18.5564
# 2 33.8761 86.8920 26.2380 2.3726 7.1093 -18.0123
# 3 74.9308 26.2380 97.0529 -9.4187 -4.3511 -15.0535
# 4 -0.9462 2.3726 -9.4187 26.4214 -5.0586 -4.7696
# 5 -5.7644 7.1093 -4.3511 -5.0586 38.0611 0.8165
# 6 -18.5564 -18.0123 -15.0535 -4.7696 0.8165 34.0949
#
#
#
# Elastic Compliance Matrix: (Units=1/GPa)
#
#
# Indices 1 2 3 4 5 6 
#
# 1 0.013685 -0.002001 -0.009962 -0.002404 0.000953 0.001634
# 2 -0.002001 0.014308 -0.001785 -0.001668 -0.003520 0.005533
# 3 -0.009962 -0.001785 0.019876 0.007912 0.002074 0.003468
# 4 -0.002404 -0.001668 0.007912 0.043267 0.006448 0.007202
# 5 0.000953 -0.003520 0.002074 0.006448 0.028174 -0.000198
# 6 0.001634 0.005533 0.003468 0.007202 -0.000198 0.035686
#
#
# Mechanical properties :
#
#
# Convention : Reuss Voigt Hill
#
# Bulk Modulus (GPa) = 49.08236 65.45051 57.26643
# Shear Modulus (GPa) = 26.41553 31.97682 29.19617
#
# Velocity S-wave (km/s) = 3.64745 4.01308 3.83462
# Velocity P-wave (km/s) = 6.51600 7.37811 6.96042
#
# Compressibility (1/GPa) = 0.02037392
#
# Stress axis : x y z
#
# Youngs Moduli (GPa) = 73.07119 69.89078 50.31116
#
# Poissons Ratio (x) = 0.13984 0.50121
# Poissons Ratio (y) = 0.14621 0.08980
# Poissons Ratio (z) = 0.72795 0.12474
#
# Static dielectric constant tensor:
#      x y z
#    x -1.259710 -0.080350 2.417250 
#    y -0.080350 4.016250 -0.236620 
#    z 2.417250 -0.236620 2.363710 
# 
# 
# High freq. dielectric constant tensor:
#      x y z
#    x 1.788540 -0.002640 -0.006130 
#    y -0.002640 1.788150 -0.007930 
#    z -0.006130 -0.007930 1.757320 
# 
# From -- ./inp_files/224047.got.cif
#   From: 2010.06.25/outbox.cif.g09.slc.cpg/sg2_113_cif.got.tgz:224047.got - 2010.06.27 13:26:56.
