data_PCOD8010818
_publ_section_title
;
Structure prediction by ZEFSAII (Michael W. Deem and Ramdas Pophale) SiO2 
 PCOD8010818
Probable space group: P -1
;
_chemical_formula_sum "Si O2"
_cell_formula_units_Z 14
_cell_length_a 16.240050
_cell_length_b 27.990554
_cell_length_c 27.986005
_cell_angle_alpha 169.500995
_cell_angle_beta 17.713056
_cell_angle_gamma 162.064190
_cell_volume 679.833866
_symmetry_space_group_name_H-M "P -1"
_symmetry_group_IT_number 2
_symmetry_cell_setting 'triclinic'
loop_
_space_group_symop_operation_xyz
x,y,z
-x,-y,-z
loop_
_atom_site_type_symbol
_atom_site_label
_atom_site_fract_x
_atom_site_fract_y
_atom_site_fract_z
Si Si1 0.228034 0.088443 0.002164
Si Si2 0.283322 0.922187 0.086552
Si Si3 0.114551 0.765130 0.229576
Si Si4 0.190856 0.548297 0.543481
Si Si5 0.837752 0.820167 0.157968
Si Si6 0.714242 0.610379 0.381666
Si Si7 0.176847 0.655290 0.366942
O O1 0.176850 0.361077 0.320798
O O2 0.549148 0.147297 0.864879
O O3 0.172052 0.847721 0.834919
O O4 0.000000 0.000000 0.000000
O O5 0.321105 0.668420 0.845389
O O6 0.972380 0.849950 0.165211
O O7 0.500000 0.000000 0.000000
O O8 0.324740 0.170528 0.343632
O O9 0.007600 0.707916 0.287030
O O10 0.000000 0.000000 0.500000
O O11 0.000000 0.500000 0.000000
O O12 0.478278 0.563762 0.426328
O O13 0.926902 0.416455 0.592952
O O14 0.509068 0.735169 0.264127
O O15 0.939098 0.100450 0.348484
O O16 0.941771 0.597506 0.851394
#
# Coordination Sequence:
#
# PCOD8010818 Si02
#       7
#     2   2   2   2   2   2   2
#     4  12  26  43  67  97 131 164 212 284 333 380
#     4  12  24  39  60  95 132 158 213 272 312 376
#     4  12  23  46  68  93 131 170 221 275 320 400
#     4  12  23  42  65  93 126 165 223 258 330 400
#     4  10  21  39  58  89 127 167 209 261 323 373
#     4  12  24  39  68  90 122 178 213 255 329 390
#     4  10  21  38  64  85 122 172 209 257 320 395
#
# _framework density 20.593267999999998
#
# number of rings (size 3 to 8) (size 9 to 14) (size 15 to 20)
#    0.000    0.571    2.857    6.000    0.000    2.286 
#    0.000    0.000    0.000    0.000    0.000    0.000 
#    0.000    0.000    0.000    0.000    0.000    0.000 
#
# Total GULP energy -173673.852089 kJ/mol
# GULP energy per Si atom -12405.275149 kJ/mol
# Density = 2.054640 g / cm^3
# Si number density = 20.593268 Si / 1000 Ang^3
#
#
#
# Elastic Constant Matrix: (Units=GPa)
#
#
# Indices 1 2 3 4 5 6 
#
# 1 113.9342 58.3009 36.8126 6.4822 2.5620 4.7201
# 2 58.3009 104.1472 52.4431 0.5684 2.7179 -13.9875
# 3 36.8126 52.4431 120.6638 26.4899 6.2072 -6.7077
# 4 6.4822 0.5684 26.4899 30.1096 -6.2337 1.2265
# 5 2.5620 2.7179 6.2072 -6.2337 48.3495 1.9493
# 6 4.7201 -13.9875 -6.7077 1.2265 1.9493 53.3831
#
#
#
# Elastic Compliance Matrix: (Units=1/GPa)
#
#
# Indices 1 2 3 4 5 6 
#
# 1 0.012989 -0.007483 -0.000358 -0.002296 -0.000393 -0.003087
# 2 -0.007483 0.017750 -0.006867 0.007364 0.001059 0.004242
# 3 -0.000358 -0.006867 0.014468 -0.013198 -0.003173 0.000469
# 4 -0.002296 0.007364 -0.013198 0.046760 0.007466 -0.000873
# 5 -0.000393 0.001059 -0.003173 0.007466 0.022057 -0.001063
# 6 -0.003087 0.004242 0.000469 -0.000873 -0.001063 0.020235
#
#
# Mechanical properties :
#
#
# Convention : Reuss Voigt Hill
#
# Bulk Modulus (GPa) = 63.32367 70.42871 66.87619
# Shear Modulus (GPa) = 29.59656 39.11432 34.35544
#
# Velocity S-wave (km/s) = 3.79515 4.36291 4.08890
# Velocity P-wave (km/s) = 7.07253 7.72361 7.40523
#
# Compressibility (1/GPa) = 0.01579188
#
# Stress axis : x y z
#
# Youngs Moduli (GPa) = 76.98853 56.33682 69.11787
#
# Poissons Ratio (x) = 0.42155 0.02474
# Poissons Ratio (y) = 0.57608 0.47464
# Poissons Ratio (z) = 0.02756 0.38687
#
# Static dielectric constant tensor:
#      x y z
#    x 3.910490 -0.065880 -0.010990 
#    y -0.065880 3.977800 0.033960 
#    z -0.010990 0.033960 4.073550 
# 
# 
# High freq. dielectric constant tensor:
#      x y z
#    x 1.807100 -0.001930 0.000620 
#    y -0.001930 1.820240 0.006680 
#    z 0.000620 0.006680 1.826410 
# 
# From -- ./inp_files/118298.got.cif
#   From: 2010.06.25/outbox.cif.g09.slc.cpg/sg2_60_cif.got.tgz:118298.got - 2010.06.27 13:26:56.
