data_PCOD8010576
_publ_section_title
;
Structure prediction by ZEFSAII (Michael W. Deem and Ramdas Pophale) SiO2 
 PCOD8010576
Probable space group: P -1
;
_chemical_formula_sum "Si O2"
_cell_formula_units_Z 14
_cell_length_a 9.701827
_cell_length_b 11.864055
_cell_length_c 5.042155
_cell_angle_alpha 81.873868
_cell_angle_beta 81.496349
_cell_angle_gamma 105.226289
_cell_volume 543.875135
_symmetry_space_group_name_H-M "P -1"
_symmetry_group_IT_number 2
_symmetry_cell_setting 'triclinic'
loop_
_space_group_symop_operation_xyz
x,y,z
-x,-y,-z
loop_
_atom_site_type_symbol
_atom_site_label
_atom_site_fract_x
_atom_site_fract_y
_atom_site_fract_z
Si Si1 0.209979 0.493503 0.714089
Si Si2 0.918438 0.027319 0.758920
Si Si3 0.236559 0.761593 0.692799
Si Si4 0.422958 0.862173 0.121566
Si Si5 0.697271 0.800940 0.974289
Si Si6 0.021715 0.257094 0.887398
Si Si7 0.349273 0.431556 0.193673
O O1 0.211563 0.627958 0.640827
O O2 0.331878 0.471716 0.485537
O O3 0.053624 0.393877 0.728273
O O4 0.231771 0.463050 0.024460
O O5 0.754954 0.939180 0.818839
O O6 0.000000 0.000000 0.500000
O O7 0.924827 0.166884 0.723615
O O8 0.000000 0.000000 0.000000
O O9 0.334449 0.794378 0.916931
O O10 0.074759 0.770651 0.806045
O O11 0.316841 0.850795 0.409078
O O12 0.546671 0.794738 0.171900
O O13 0.500000 0.000000 0.000000
O O14 0.820747 0.767749 0.126176
O O15 0.666389 0.709950 0.763295
O O16 0.500000 0.500000 0.000000
#
# Coordination Sequence:
#
# PCOD8010576 Si02
#       7
#     2   2   2   2   2   2   2
#     4  11  23  41  66  99 137 180 227 280 341 408
#     4  10  21  38  61  93 128 166 216 277 330 385
#     4  12  26  47  70 101 141 184 227 283 348 413
#     4  12  28  48  71 101 140 182 228 285 351 413
#     4  10  23  43  69  99 133 178 231 283 338 406
#     4  10  24  44  71 104 138 182 233 285 340 410
#     4  11  22  39  64  99 137 180 228 283 340 405
#
# _framework density 25.741199000000002
#
# number of rings (size 3 to 8) (size 9 to 14) (size 15 to 20)
#    0.000    1.143    0.000    5.571    0.000   12.571 
#    0.000    5.000    0.000    0.000    0.000    0.000 
#    0.000    0.000    0.000    0.000    0.000    0.000 
#
# Total GULP energy -173448.480004 kJ/mol
# GULP energy per Si atom -12389.177143 kJ/mol
# Density = 2.568261 g / cm^3
# Si number density = 25.741199 Si / 1000 Ang^3
#
#
#
# Elastic Constant Matrix: (Units=GPa)
#
#
# Indices 1 2 3 4 5 6 
#
# 1 85.6585 18.5490 36.9713 -0.0176 -23.0615 2.8742
# 2 18.5490 208.9898 43.3681 1.7844 -10.4123 27.9949
# 3 36.9713 43.3681 170.3413 2.1360 -25.1645 8.5945
# 4 -0.0176 1.7844 2.1360 44.8647 3.1996 -5.8177
# 5 -23.0615 -10.4123 -25.1645 3.1996 37.7160 0.0821
# 6 2.8742 27.9949 8.5945 -5.8177 0.0821 31.7509
#
#
#
# Elastic Compliance Matrix: (Units=1/GPa)
#
#
# Indices 1 2 3 4 5 6 
#
# 1 0.014663 -0.000452 -0.001911 -0.000496 0.007609 -0.000522
# 2 -0.000452 0.005732 -0.000996 -0.000869 0.000726 -0.004905
# 3 -0.001911 -0.000996 0.007092 -0.000667 0.003347 -0.001000
# 4 -0.000496 -0.000869 -0.000667 0.023249 -0.002972 0.005259
# 5 0.007609 0.000726 0.003347 -0.002972 0.033859 -0.002867
# 6 -0.000522 -0.004905 -0.001000 0.005259 -0.002867 0.037109
#
#
# Mechanical properties :
#
#
# Convention : Reuss Voigt Hill
#
# Bulk Modulus (GPa) = 48.14404 73.64070 60.89237
# Shear Modulus (GPa) = 36.94294 47.27308 42.10801
#
# Velocity S-wave (km/s) = 3.79247 4.29006 4.04892
# Velocity P-wave (km/s) = 6.15799 7.29450 6.75020
#
# Compressibility (1/GPa) = 0.02077100
#
# Stress axis : x y z
#
# Youngs Moduli (GPa) = 68.19977 174.45176 141.00147
#
# Poissons Ratio (x) = 0.07878 0.26943
# Poissons Ratio (y) = 0.03080 0.14040
# Poissons Ratio (z) = 0.13032 0.17371
#
# Static dielectric constant tensor:
#      x y z
#    x 4.899340 0.714490 -0.095930 
#    y 0.714490 6.066440 0.197230 
#    z -0.095930 0.197230 4.666640 
# 
# 
# High freq. dielectric constant tensor:
#      x y z
#    x 2.016910 0.018790 -0.021100 
#    y 0.018790 2.061260 0.006380 
#    z -0.021100 0.006380 2.022090 
# 
# From -- ./inp_files/67028.got.cif
#   From: 2010.06.25/outbox.cif.g09.slc.cpg/sg2_34_cif.got.tgz:67028.got - 2010.06.27 13:26:56.
