data_PCOD8010446
_publ_section_title
;
Structure prediction by ZEFSAII (Michael W. Deem and Ramdas Pophale) SiO2 
 PCOD8010446
Probable space group: P -1
;
_chemical_formula_sum "Si O2"
_cell_formula_units_Z 16
_cell_length_a 16.048602
_cell_length_b 33.075585
_cell_length_c 9.598525
_cell_angle_alpha 145.801223
_cell_angle_beta 143.269375
_cell_angle_gamma 16.162775
_cell_volume 796.365461
_symmetry_space_group_name_H-M "P -1"
_symmetry_group_IT_number 2
_symmetry_cell_setting 'triclinic'
loop_
_space_group_symop_operation_xyz
x,y,z
-x,-y,-z
loop_
_atom_site_type_symbol
_atom_site_label
_atom_site_fract_x
_atom_site_fract_y
_atom_site_fract_z
Si Si1 0.255072 0.932284 0.985153
Si Si2 0.159002 0.135944 0.396828
Si Si3 0.170944 0.745885 0.977057
Si Si4 0.661065 0.001129 0.203637
Si Si5 0.597808 0.658547 0.191568
Si Si6 0.652156 0.129170 0.757442
Si Si7 0.818768 0.417516 0.889811
Si Si8 0.660737 0.755192 0.754471
O O1 0.422444 0.837276 0.083813
O O2 0.107416 0.078800 0.219155
O O3 0.498757 0.815623 0.857372
O O4 0.991466 0.995561 0.792855
O O5 0.065825 0.183704 0.245541
O O6 0.938634 0.290594 0.620618
O O7 0.500000 0.000000 0.500000
O O8 0.473481 0.560340 0.879430
O O9 0.267656 0.780011 0.141837
O O10 0.011683 0.826820 0.143914
O O11 0.611224 0.067527 0.467892
O O12 0.549113 0.097591 0.196729
O O13 0.500000 0.000000 0.000000
O O14 0.577947 0.710501 0.168184
O O15 0.722092 0.652671 0.464815
O O16 0.815763 0.489094 0.985390
O O17 0.026046 0.345954 0.093359
#
# Coordination Sequence:
#
# PCOD8010446 Si02
#       8
#     2   2   2   2   2   2   2   2
#     4  11  21  36  64  91 123 154 217 240 312 345
#     4  12  21  37  64  92 119 161 212 253 297 368
#     4  10  21  38  60  90 120 164 200 251 310 360
#     4  11  23  38  62  91 126 159 209 254 305 357
#     4   9  20  39  63  86 128 155 210 239 317 356
#     4  10  22  37  58  94 122 162 194 269 291 366
#     4  10  22  36  64  92 122 159 207 250 305 370
#     4  11  20  40  65  92 116 166 205 253 294 380
#
# _framework density 20.091279
#
# number of rings (size 3 to 8) (size 9 to 14) (size 15 to 20)
#    0.750    0.750    3.750    1.500    3.500    2.000 
#    0.000    1.250    0.000    3.000    0.000    0.000 
#    0.000    0.000    0.000    0.000    0.000    0.000 
#
# Total GULP energy -198291.054358 kJ/mol
# GULP energy per Si atom -12393.190897 kJ/mol
# Density = 2.004555 g / cm^3
# Si number density = 20.091279 Si / 1000 Ang^3
#
#
#
# Elastic Constant Matrix: (Units=GPa)
#
#
# Indices 1 2 3 4 5 6 
#
# 1 67.8065 9.6043 17.1344 2.0919 -4.0755 6.2970
# 2 9.6043 83.9321 23.8924 1.1290 -6.9466 -1.6956
# 3 17.1344 23.8924 85.6094 -7.0566 10.8086 14.5732
# 4 2.0919 1.1290 -7.0566 40.4811 6.3592 7.7465
# 5 -4.0755 -6.9466 10.8086 6.3592 30.2930 -6.3695
# 6 6.2970 -1.6956 14.5732 7.7465 -6.3695 18.2632
#
#
#
# Elastic Compliance Matrix: (Units=1/GPa)
#
#
# Indices 1 2 3 4 5 6 
#
# 1 0.016055 -0.000529 -0.003535 -0.001841 0.003528 -0.000753
# 2 -0.000529 0.015924 -0.009059 -0.006844 0.011578 0.015830
# 3 -0.003535 -0.009059 0.024206 0.014108 -0.020926 -0.032220
# 4 -0.001841 -0.006844 0.014108 0.037597 -0.022083 -0.034907
# 5 0.003528 0.011578 -0.020926 -0.022083 0.057942 0.046131
# 6 -0.000753 0.015830 -0.032220 -0.034907 0.046131 0.113089
#
#
# Mechanical properties :
#
#
# Convention : Reuss Voigt Hill
#
# Bulk Modulus (GPa) = 33.40097 37.62335 35.51216
# Shear Modulus (GPa) = 16.60920 30.25524 23.43222
#
# Velocity S-wave (km/s) = 2.87834 3.88479 3.41880
# Velocity P-wave (km/s) = 5.26376 6.23610 5.77045
#
# Compressibility (1/GPa) = 0.02993925
#
# Stress axis : x y z
#
# Youngs Moduli (GPa) = 62.28680 62.79930 41.31180
#
# Poissons Ratio (x) = 0.03325 0.14602
# Poissons Ratio (y) = 0.03298 0.37423
# Poissons Ratio (z) = 0.22015 0.56888
#
# Static dielectric constant tensor:
#      x y z
#    x 3.333230 0.150890 0.116120 
#    y 0.150890 3.664650 -0.129350 
#    z 0.116120 -0.129350 3.894920 
# 
# 
# High freq. dielectric constant tensor:
#      x y z
#    x 1.752080 0.009140 0.008490 
#    y 0.009140 1.783130 -0.011150 
#    z 0.008490 -0.011150 1.797930 
# 
# From -- ./inp_files/321101.got.cif
#   From: 2010.06.25/outbox.cif.g09.slc.cpg/sg2_161_cif.got.tgz:321101.got - 2010.06.27 13:26:56.
