data_PCOD8010718
_publ_section_title
;
Structure prediction by ZEFSAII (Michael W. Deem and Ramdas Pophale) SiO2 
 PCOD8010718
Probable space group: P -1
;
_chemical_formula_sum "Si O2"
_cell_formula_units_Z 16
_cell_length_a 14.038470
_cell_length_b 10.629418
_cell_length_c 16.829571
_cell_angle_alpha 52.270605
_cell_angle_beta 156.294205
_cell_angle_gamma 123.476971
_cell_volume 798.245300
_symmetry_space_group_name_H-M "P -1"
_symmetry_group_IT_number 2
_symmetry_cell_setting 'triclinic'
loop_
_space_group_symop_operation_xyz
x,y,z
-x,-y,-z
loop_
_atom_site_type_symbol
_atom_site_label
_atom_site_fract_x
_atom_site_fract_y
_atom_site_fract_z
Si Si1 0.248193 0.917214 0.206759
Si Si2 0.803212 0.830543 0.307391
Si Si3 0.127355 0.310423 0.423628
Si Si4 0.869992 0.340351 0.485220
Si Si5 0.400172 0.887865 0.168898
Si Si6 0.883403 0.333797 0.681369
Si Si7 0.589793 0.805493 0.856689
Si Si8 0.719135 0.179786 0.070563
O O1 0.253829 0.831230 0.156966
O O2 0.288490 0.788520 0.356921
O O3 0.430592 0.065361 0.283018
O O4 0.000000 0.000000 0.000000
O O5 0.946961 0.753982 0.521193
O O6 0.950700 0.800832 0.351159
O O7 0.765614 0.018217 0.218418
O O8 0.544267 0.750978 0.137173
O O9 0.347104 0.204162 0.600814
O O10 0.186226 0.495087 0.402071
O O11 0.911187 0.302338 0.199427
O O12 0.813775 0.328936 0.538659
O O13 0.618984 0.320589 0.256328
O O14 0.000000 0.500000 0.500000
O O15 0.430922 0.081406 0.123713
O O16 0.256580 0.849026 0.994397
O O17 0.162412 0.293213 0.919313
#
# Coordination Sequence:
#
# PCOD8010718 Si02
#       8
#     2   2   2   2   2   2   2   2
#     4   8  19  43  64  88 118 156 205 256 289 359
#     4  10  22  38  55  88 123 160 205 243 288 367
#     4  11  22  36  59  93 123 156 199 249 302 356
#     4  12  24  38  60  93 124 157 201 249 299 369
#     4   9  20  41  62  90 115 153 211 249 288 363
#     4  11  23  40  62  90 127 158 199 253 311 346
#     4   9  22  41  63  85 121 161 201 249 298 352
#     4  10  21  38  63  81 124 166 197 240 302 359
#
# _framework density 20.043963000000002
#
# number of rings (size 3 to 8) (size 9 to 14) (size 15 to 20)
#    0.750    1.250    1.250    1.875    1.750    4.500 
#    0.000    1.875    0.000    0.000    0.000    0.000 
#    0.000    0.000    0.000    0.000    0.000    0.000 
#
# Total GULP energy -198221.910952 kJ/mol
# GULP energy per Si atom -12388.869435 kJ/mol
# Density = 1.999834 g / cm^3
# Si number density = 20.043963 Si / 1000 Ang^3
#
#
#
# Elastic Constant Matrix: (Units=GPa)
#
#
# Indices 1 2 3 4 5 6 
#
# 1 84.4826 14.9717 23.1617 5.9204 -4.3032 -6.1204
# 2 14.9717 60.1307 16.2243 3.1463 -5.9510 -2.7384
# 3 23.1617 16.2243 69.6724 7.4385 -4.2170 -11.1477
# 4 5.9204 3.1463 7.4385 26.7308 -4.6361 -2.5236
# 5 -4.3032 -5.9510 -4.2170 -4.6361 33.4197 -6.1374
# 6 -6.1204 -2.7384 -11.1477 -2.5236 -6.1374 27.4461
#
#
#
# Elastic Compliance Matrix: (Units=1/GPa)
#
#
# Indices 1 2 3 4 5 6 
#
# 1 0.013439 -0.002159 -0.003523 -0.001439 0.000965 0.001434
# 2 -0.002159 0.018354 -0.003274 -0.000256 0.002650 0.000589
# 3 -0.003523 -0.003274 0.017708 -0.002832 0.001954 0.006257
# 4 -0.001439 -0.000256 -0.002832 0.039834 0.005564 0.003410
# 5 0.000965 0.002650 0.001954 0.005564 0.033229 0.009215
# 6 0.001434 0.000589 0.006257 0.003410 0.009215 0.041729
#
#
# Mechanical properties :
#
#
# Convention : Reuss Voigt Hill
#
# Bulk Modulus (GPa) = 31.65800 35.88900 33.77350
# Shear Modulus (GPa) = 25.94204 28.18118 27.06161
#
# Velocity S-wave (km/s) = 3.60148 3.75369 3.67837
# Velocity P-wave (km/s) = 5.75524 6.06061 5.90990
#
# Compressibility (1/GPa) = 0.03158759
#
# Stress axis : x y z
#
# Youngs Moduli (GPa) = 74.40863 54.48415 56.47037
#
# Poissons Ratio (x) = 0.11765 0.19897
# Poissons Ratio (y) = 0.16068 0.18490
# Poissons Ratio (z) = 0.26217 0.17839
#
# Static dielectric constant tensor:
#      x y z
#    x 3.405910 -0.191310 0.211630 
#    y -0.191310 3.532800 -0.030090 
#    z 0.211630 -0.030090 3.403720 
# 
# 
# High freq. dielectric constant tensor:
#      x y z
#    x 1.787460 -0.009610 0.007150 
#    y -0.009610 1.767850 -0.011980 
#    z 0.007150 -0.011980 1.766280 
# 
# From -- ./inp_files/573601.got.cif
#   From: 2010.06.25/outbox.cif.g09.slc.cpg/sg2_287_cif.got.tgz:573601.got - 2010.06.27 13:26:56.
