data_PCOD8010059
_publ_section_title
;
Structure prediction by ZEFSAII (Michael W. Deem and Ramdas Pophale) SiO2 
 PCOD8010059
Probable space group: P -1
;
_chemical_formula_sum "Si O2"
_cell_formula_units_Z 16
_cell_length_a 21.357757
_cell_length_b 8.590936
_cell_length_c 15.616356
_cell_angle_alpha 47.308739
_cell_angle_beta 19.952213
_cell_angle_gamma 50.326724
_cell_volume 718.662761
_symmetry_space_group_name_H-M "P -1"
_symmetry_group_IT_number 2
_symmetry_cell_setting 'triclinic'
loop_
_space_group_symop_operation_xyz
x,y,z
-x,-y,-z
loop_
_atom_site_type_symbol
_atom_site_label
_atom_site_fract_x
_atom_site_fract_y
_atom_site_fract_z
Si Si1 0.220195 0.417900 0.083214
Si Si2 0.368092 0.983319 0.333880
Si Si3 0.667029 0.852710 0.309346
Si Si4 0.389623 0.557194 0.363890
Si Si5 0.072122 0.821846 0.366910
Si Si6 0.621467 0.346326 0.845881
Si Si7 0.660713 0.813529 0.138334
Si Si8 0.022743 0.817125 0.238196
O O1 0.077439 0.611909 0.188979
O O2 0.125331 0.201416 0.322757
O O3 0.389956 0.471022 0.907635
O O4 0.307264 0.390889 0.886506
O O5 0.324056 0.772659 0.414881
O O6 0.473349 0.931990 0.306600
O O7 0.183848 0.112433 0.543244
O O8 0.510499 0.132381 0.044222
O O9 0.700965 0.649408 0.400556
O O10 0.631715 0.759294 0.294594
O O11 0.500000 0.000000 0.500000
O O12 0.850810 0.987602 0.023134
O O13 0.318264 0.555987 0.358706
O O14 0.204216 0.681444 0.307534
O O15 0.048949 0.737058 0.331827
O O16 0.150993 0.056908 0.169031
O O17 0.500000 0.500000 0.000000
#
# Coordination Sequence:
#
# PCOD8010059 Si02
#       8
#     2   2   2   2   2   2   2   2
#     4  11  20  38  64  98 119 165 209 262 311 374
#     4  10  23  41  64  98 129 160 207 265 319 370
#     4  11  24  46  67  87 124 175 218 256 311 384
#     4  11  24  42  66  88 129 174 210 256 320 372
#     4  10  21  37  64  96 130 164 206 259 317 379
#     4  11  22  38  64  98 130 165 204 266 320 375
#     4   9  23  41  66  90 129 163 212 257 318 372
#     4  11  22  41  66  93 129 167 210 262 312 373
#
# _framework density 22.263573000000001
#
# number of rings (size 3 to 8) (size 9 to 14) (size 15 to 20)
#    0.000    1.500    1.250    3.375    3.500    6.500 
#    0.000    1.875    0.000    0.000    0.000    0.000 
#    0.000    0.000    0.000    0.000    0.000    0.000 
#
# Total GULP energy -198339.651019 kJ/mol
# GULP energy per Si atom -12396.228189 kJ/mol
# Density = 2.221290 g / cm^3
# Si number density = 22.263573 Si / 1000 Ang^3
#
#
#
# Elastic Constant Matrix: (Units=GPa)
#
#
# Indices 1 2 3 4 5 6 
#
# 1 112.8134 43.7734 45.8345 -5.2772 20.4183 -10.9037
# 2 43.7734 102.7973 29.8348 11.7763 9.8938 -10.9211
# 3 45.8345 29.8348 106.0690 2.9708 -1.8266 -15.1027
# 4 -5.2772 11.7763 2.9708 40.4330 -4.3495 6.4702
# 5 20.4183 9.8938 -1.8266 -4.3495 38.4690 -0.5320
# 6 -10.9037 -10.9211 -15.1027 6.4702 -0.5320 26.8613
#
#
#
# Elastic Compliance Matrix: (Units=1/GPa)
#
#
# Indices 1 2 3 4 5 6 
#
# 1 0.013715 -0.004081 -0.004901 0.002612 -0.006162 0.000401
# 2 -0.004081 0.013004 -0.001191 -0.005085 -0.001752 0.004151
# 3 -0.004901 -0.001191 0.012720 -0.001687 0.003392 0.005152
# 4 0.002612 -0.005085 -0.001687 0.028392 0.002931 -0.008737
# 5 -0.006162 -0.001752 0.003392 0.002931 0.030189 -0.001415
# 6 0.000401 0.004151 0.005152 -0.008737 -0.001415 0.044052
#
#
# Mechanical properties :
#
#
# Convention : Reuss Voigt Hill
#
# Bulk Modulus (GPa) = 52.37572 62.28500 57.33036
# Shear Modulus (GPa) = 29.62427 34.63513 32.12970
#
# Velocity S-wave (km/s) = 3.65172 3.94850 3.80300
# Velocity P-wave (km/s) = 6.43090 6.98745 6.71494
#
# Compressibility (1/GPa) = 0.01909282
#
# Stress axis : x y z
#
# Youngs Moduli (GPa) = 72.91219 76.90180 78.61886
#
# Poissons Ratio (x) = 0.31387 0.38529
# Poissons Ratio (y) = 0.29758 0.09361
# Poissons Ratio (z) = 0.35732 0.09156
#
# Static dielectric constant tensor:
#      x y z
#    x 3.596810 -0.246060 0.420810 
#    y -0.246060 3.775020 0.173740 
#    z 0.420810 0.173740 3.570620 
# 
# 
# High freq. dielectric constant tensor:
#      x y z
#    x 1.873010 0.007980 -0.004700 
#    y 0.007980 1.873830 -0.003520 
#    z -0.004700 -0.003520 1.877510 
# 
# From -- ./inp_files/328595.got.cif
#   From: 2010.06.25/outbox.cif.g09.slc.cpg/sg2_165_cif.got.tgz:328595.got - 2010.06.27 13:26:56.
