data_PCOD8010436
_publ_section_title
;
Structure prediction by ZEFSAII (Michael W. Deem and Ramdas Pophale) SiO2 
 PCOD8010436
Probable space group: P -1
;
_chemical_formula_sum "Si O2"
_cell_formula_units_Z 16
_cell_length_a 7.908029
_cell_length_b 16.934854
_cell_length_c 18.096425
_cell_angle_alpha 39.699601
_cell_angle_beta 73.240410
_cell_angle_gamma 43.313240
_cell_volume 833.578609
_symmetry_space_group_name_H-M "P -1"
_symmetry_group_IT_number 2
_symmetry_cell_setting 'triclinic'
loop_
_space_group_symop_operation_xyz
x,y,z
-x,-y,-z
loop_
_atom_site_type_symbol
_atom_site_label
_atom_site_fract_x
_atom_site_fract_y
_atom_site_fract_z
Si Si1 0.782045 0.456133 0.058783
Si Si2 0.275669 0.309479 0.348249
Si Si3 0.700331 0.461208 0.902227
Si Si4 0.721966 0.056977 0.220496
Si Si5 0.359801 0.118400 0.330710
Si Si6 0.762393 0.794448 0.322923
Si Si7 0.147394 0.422519 0.656952
Si Si8 0.780976 0.029214 0.800449
O O1 0.629108 0.413357 0.129195
O O2 0.122939 0.263062 0.189105
O O3 0.822152 0.452247 0.968978
O O4 0.567876 0.689310 0.948997
O O5 0.378729 0.387551 0.256373
O O6 0.201652 0.268716 0.315194
O O7 0.968060 0.507661 0.294717
O O8 0.546197 0.079169 0.524455
O O9 0.969388 0.210074 0.021469
O O10 0.661605 0.020772 0.332493
O O11 0.745676 0.950944 0.223702
O O12 0.035028 0.958298 0.263765
O O13 0.920807 0.667609 0.314643
O O14 0.416731 0.926704 0.271902
O O15 0.974592 0.628359 0.484170
O O16 0.526797 0.223115 0.753945
#
# Coordination Sequence:
#
# PCOD8010436 Si02
#       8
#     2   2   2   2   2   2   2   2
#     4  10  22  38  61  89 117 158 210 239 299 361
#     4  11  23  39  57  88 130 153 197 242 316 359
#     4  10  21  38  60  89 120 158 200 252 295 363
#     4  11  19  37  64  93 113 148 210 253 288 351
#     4  11  23  37  60  92 120 160 193 249 307 365
#     4   9  19  37  61  89 113 163 202 243 294 353
#     4   9  20  40  56  88 120 160 202 240 300 364
#     4   9  21  36  61  91 114 152 207 250 286 346
#
# _framework density 19.194351000000001
#
# number of rings (size 3 to 8) (size 9 to 14) (size 15 to 20)
#    0.750    1.250    2.500    1.125    1.750    1.500 
#    0.000    3.750    0.000    3.000    0.000    0.000 
#    0.000    0.000    0.000    0.000    0.000    0.000 
#
# Total GULP energy -198220.727197 kJ/mol
# GULP energy per Si atom -12388.795450 kJ/mol
# Density = 1.915066 g / cm^3
# Si number density = 19.194351 Si / 1000 Ang^3
#
#
#
# Elastic Constant Matrix: (Units=GPa)
#
#
# Indices 1 2 3 4 5 6 
#
# 1 90.0270 38.1462 38.8109 -9.8526 -16.1275 0.2459
# 2 38.1462 124.6272 33.4308 -2.5638 -15.5650 6.0380
# 3 38.8109 33.4308 81.2554 -2.6677 -24.5944 -7.9669
# 4 -9.8526 -2.5638 -2.6677 18.8127 -2.0932 -1.6358
# 5 -16.1275 -15.5650 -24.5944 -2.0932 25.3824 -1.0116
# 6 0.2459 6.0380 -7.9669 -1.6358 -1.0116 27.5571
#
#
#
# Elastic Compliance Matrix: (Units=1/GPa)
#
#
# Indices 1 2 3 4 5 6 
#
# 1 0.016093 -0.002879 -0.004995 0.007771 0.004247 -0.000340
# 2 -0.002879 0.009908 -0.002493 -0.000572 0.001671 -0.002839
# 3 -0.004995 -0.002493 0.021630 0.002641 0.016777 0.007617
# 4 0.007771 -0.000572 0.002641 0.059298 0.012226 0.004788
# 5 0.004247 0.001671 0.016777 0.012226 0.060681 0.007400
# 6 -0.000340 -0.002839 0.007617 0.004788 0.007400 0.039671
#
#
# Mechanical properties :
#
#
# Convention : Reuss Voigt Hill
#
# Bulk Modulus (GPa) = 37.17734 57.40948 47.29341
# Shear Modulus (GPa) = 21.09875 26.71857 23.90866
#
# Velocity S-wave (km/s) = 3.31904 3.73500 3.53315
# Velocity P-wave (km/s) = 5.83943 6.96956 6.42938
#
# Compressibility (1/GPa) = 0.02689811
#
# Stress axis : x y z
#
# Youngs Moduli (GPa) = 62.13772 100.92539 46.23252
#
# Poissons Ratio (x) = 0.29059 0.23092
# Poissons Ratio (y) = 0.17891 0.11524
# Poissons Ratio (z) = 0.31036 0.25157
#
# Static dielectric constant tensor:
#      x y z
#    x 3.390840 0.042560 -0.199080 
#    y 0.042560 3.570810 -0.254270 
#    z -0.199080 -0.254270 3.480880 
# 
# 
# High freq. dielectric constant tensor:
#      x y z
#    x 1.727430 0.007960 -0.016500 
#    y 0.007960 1.742100 -0.024970 
#    z -0.016500 -0.024970 1.740900 
# 
# From -- ./inp_files/561914.got.cif
#   From: 2010.06.25/outbox.cif.g09.slc.cpg/sg2_281_cif.got.tgz:561914.got - 2010.06.27 13:26:56.
