data_PCOD8010548
_publ_section_title
;
Structure prediction by ZEFSAII (Michael W. Deem and Ramdas Pophale) SiO2 
 PCOD8010548
Probable space group: P -1
;
_chemical_formula_sum "Si O2"
_cell_formula_units_Z 16
_cell_length_a 26.173067
_cell_length_b 8.729130
_cell_length_c 26.577887
_cell_angle_alpha 138.245071
_cell_angle_beta 10.676019
_cell_angle_gamma 137.621050
_cell_volume 748.350802
_symmetry_space_group_name_H-M "P -1"
_symmetry_group_IT_number 2
_symmetry_cell_setting 'triclinic'
loop_
_space_group_symop_operation_xyz
x,y,z
-x,-y,-z
loop_
_atom_site_type_symbol
_atom_site_label
_atom_site_fract_x
_atom_site_fract_y
_atom_site_fract_z
Si Si1 0.156607 0.016737 0.661551
Si Si2 0.117907 0.355015 0.692671
Si Si3 0.539816 0.118408 0.168299
Si Si4 0.401180 0.207191 0.879326
Si Si5 0.641814 0.217741 0.386949
Si Si6 0.209640 0.715949 0.201793
Si Si7 0.901815 0.722894 0.120941
Si Si8 0.309719 0.054137 0.268412
O O1 0.341645 0.806033 0.411878
O O2 0.206324 0.231421 0.628372
O O3 0.211426 0.091352 0.684263
O O4 0.836184 0.947903 0.954637
O O5 0.320454 0.303134 0.439040
O O6 0.160038 0.627515 0.729538
O O7 0.825198 0.266046 0.932453
O O8 0.458979 0.015446 0.167268
O O9 0.518138 0.896096 0.170458
O O10 0.287872 0.453792 0.060368
O O11 0.374273 0.355786 0.662203
O O12 0.500000 0.000000 0.500000
O O13 0.849965 0.161832 0.125501
O O14 0.927484 0.758182 0.454700
O O15 0.181467 0.810783 0.310000
O O16 0.454679 0.859589 0.975159
O O17 0.000000 0.500000 0.000000
#
# Coordination Sequence:
#
# PCOD8010548 Si02
#       8
#     2   2   2   2   2   2   2   2
#     4  10  21  38  63  93 121 159 216 260 308 372
#     4  10  21  39  63  87 127 164 203 260 321 370
#     4  10  21  38  63  90 119 164 210 250 307 381
#     4  10  21  38  61  90 127 156 203 268 307 351
#     4  12  26  44  64  95 133 164 209 274 328 372
#     4  10  21  39  62  89 127 163 198 259 304 360
#     4  12  24  42  72  92 120 174 220 259 315 394
#     4  10  21  39  62  90 124 166 206 239 310 384
#
# _framework density 21.380345999999999
#
# number of rings (size 3 to 8) (size 9 to 14) (size 15 to 20)
#    0.000    1.500    1.250    3.750    3.500    0.500 
#    9.000    0.000    0.000    9.000    0.000    0.000 
#    0.000    0.000    0.000    0.000    0.000    0.000 
#
# Total GULP energy -198258.578048 kJ/mol
# GULP energy per Si atom -12391.161128 kJ/mol
# Density = 2.133168 g / cm^3
# Si number density = 21.380346 Si / 1000 Ang^3
#
#
#
# Elastic Constant Matrix: (Units=GPa)
#
#
# Indices 1 2 3 4 5 6 
#
# 1 102.7149 33.9918 45.4095 6.8933 5.3110 11.3509
# 2 33.9918 90.1660 26.1571 17.0047 9.0192 2.5762
# 3 45.4095 26.1571 146.2114 5.0908 2.6771 -0.3936
# 4 6.8933 17.0047 5.0908 37.4560 -1.3382 3.6351
# 5 5.3110 9.0192 2.6771 -1.3382 38.0905 -0.2937
# 6 11.3509 2.5762 -0.3936 3.6351 -0.2937 18.4276
#
#
#
# Elastic Compliance Matrix: (Units=1/GPa)
#
#
# Indices 1 2 3 4 5 6 
#
# 1 0.013441 -0.003838 -0.003512 0.000488 -0.000763 -0.007926
# 2 -0.003838 0.014208 -0.001089 -0.005843 -0.002947 0.001460
# 3 -0.003512 -0.001089 0.008135 -0.000204 0.000188 0.002533
# 4 0.000488 -0.005843 -0.000204 0.029891 0.002339 -0.005347
# 5 -0.000763 -0.002947 0.000188 0.002339 0.027133 0.000857
# 6 -0.007926 0.001460 0.002533 -0.005347 0.000857 0.060067
#
#
# Mechanical properties :
#
#
# Convention : Reuss Voigt Hill
#
# Bulk Modulus (GPa) = 52.88827 61.13435 57.01131
# Shear Modulus (GPa) = 28.40012 34.36374 31.38193
#
# Velocity S-wave (km/s) = 3.64858 4.01341 3.83534
# Velocity P-wave (km/s) = 6.52227 7.08043 6.80707
#
# Compressibility (1/GPa) = 0.01890778
#
# Stress axis : x y z
#
# Youngs Moduli (GPa) = 74.39920 70.38186 122.91841
#
# Poissons Ratio (x) = 0.27009 0.43172
# Poissons Ratio (y) = 0.28551 0.13382
# Poissons Ratio (z) = 0.26131 0.07662
#
# Static dielectric constant tensor:
#      x y z
#    x 3.884130 0.212000 0.076350 
#    y 0.212000 3.663770 -0.032770 
#    z 0.076350 -0.032770 4.169940 
# 
# 
# High freq. dielectric constant tensor:
#      x y z
#    x 1.832820 0.016270 0.000360 
#    y 0.016270 1.817510 -0.002790 
#    z 0.000360 -0.002790 1.865080 
# 
# From -- ./inp_files/621164.got.cif
#   From: 2010.06.25/outbox.cif.g09.slc.cpg/sg2_311_cif.got.tgz:621164.got - 2010.06.27 13:26:56.
