data_PCOD8010247
_publ_section_title
;
Structure prediction by ZEFSAII (Michael W. Deem and Ramdas Pophale) SiO2 
 PCOD8010247
Probable space group: P -1
;
_chemical_formula_sum "Si O2"
_cell_formula_units_Z 14
_cell_length_a 7.926600
_cell_length_b 8.698153
_cell_length_c 12.753163
_cell_angle_alpha 113.116429
_cell_angle_beta 126.491663
_cell_angle_gamma 58.621493
_cell_volume 599.089397
_symmetry_space_group_name_H-M "P -1"
_symmetry_group_IT_number 2
_symmetry_cell_setting 'triclinic'
loop_
_space_group_symop_operation_xyz
x,y,z
-x,-y,-z
loop_
_atom_site_type_symbol
_atom_site_label
_atom_site_fract_x
_atom_site_fract_y
_atom_site_fract_z
Si Si1 0.983305 0.399339 0.861552
Si Si2 0.151584 0.999543 0.839252
Si Si3 0.969434 0.315661 0.327254
Si Si4 0.619255 0.605810 0.138133
Si Si5 0.177245 0.848131 0.595595
Si Si6 0.333930 0.308436 0.317979
Si Si7 0.739056 0.019300 0.906485
O O1 0.760937 0.515608 0.743880
O O2 0.968995 0.207038 0.829948
O O3 0.205834 0.356098 0.862658
O O4 0.000000 0.500000 0.000000
O O5 0.263482 0.941408 0.748792
O O6 0.014357 0.868636 0.776343
O O7 0.332886 0.970250 0.992737
O O8 0.201307 0.343791 0.390768
O O9 0.747925 0.486634 0.253577
O O10 0.939906 0.284326 0.433272
O O11 0.430486 0.795023 0.161074
O O12 0.500000 0.500000 0.000000
O O13 0.398420 0.737468 0.577443
O O14 0.000000 0.000000 0.500000
O O15 0.286697 0.150816 0.200283
O O16 0.000000 0.000000 0.000000
#
# Coordination Sequence:
#
# PCOD8010247 Si02
#       7
#     2   2   2   2   2   2   2
#     4  11  23  33  57  92 125 161 195 238 314 375
#     4  10  21  38  56  89 127 151 204 248 295 368
#     4   9  22  40  56  91 121 154 206 250 299 372
#     4  11  21  33  54  83 128 162 190 245 295 372
#     4  10  23  43  65  84 117 165 216 261 299 343
#     4  11  22  38  62  91 124 164 196 251 313 368
#     4  12  20  34  59  92 131 159 193 241 316 380
#
# _framework density 23.368798000000002
#
# number of rings (size 3 to 8) (size 9 to 14) (size 15 to 20)
#    0.857    0.571    4.286    1.714    4.000    1.714 
#    0.000    0.714    0.000    7.714    0.000    0.000 
#    0.000    0.000    0.000    0.000    0.000    0.000 
#
# Total GULP energy -173463.516699 kJ/mol
# GULP energy per Si atom -12390.251193 kJ/mol
# Density = 2.331561 g / cm^3
# Si number density = 23.368798 Si / 1000 Ang^3
#
#
#
# Elastic Constant Matrix: (Units=GPa)
#
#
# Indices 1 2 3 4 5 6 
#
# 1 123.0543 24.2866 44.8729 -44.1094 -3.4544 -12.1942
# 2 24.2866 134.4293 16.2664 -44.2904 -0.3125 -1.3434
# 3 44.8729 16.2664 62.1255 -39.3251 -9.3330 -2.0193
# 4 -44.1094 -44.2904 -39.3251 52.8352 -1.7627 1.4948
# 5 -3.4544 -0.3125 -9.3330 -1.7627 25.3678 -13.8622
# 6 -12.1942 -1.3434 -2.0193 1.4948 -13.8622 25.7145
#
#
#
# Elastic Compliance Matrix: (Units=1/GPa)
#
#
# Indices 1 2 3 4 5 6 
#
# 1 0.013737 0.001692 -0.001444 0.011785 0.007585 0.009893
# 2 0.001692 0.011999 0.007950 0.017490 0.007208 0.004923
# 3 -0.001444 0.007950 0.044377 0.038961 0.027579 0.015818
# 4 0.011785 0.017490 0.038961 0.072894 0.034205 0.023764
# 5 0.007585 0.007208 0.027579 0.034205 0.078440 0.046436
# 6 0.009893 0.004923 0.015818 0.023764 0.046436 0.068731
#
#
# Mechanical properties :
#
#
# Convention : Reuss Voigt Hill
#
# Bulk Modulus (GPa) = 11.55951 54.49565 33.02758
# Shear Modulus (GPa) = 16.52241 36.39571 26.45906
#
# Velocity S-wave (km/s) = 2.66189 3.95073 3.36853
# Velocity P-wave (km/s) = 3.79537 6.64692 5.41232
#
# Compressibility (1/GPa) = 0.08650889
#
# Stress axis : x y z
#
# Youngs Moduli (GPa) = 72.79703 83.33684 22.53407
#
# Poissons Ratio (x) = -0.14103 0.03255
# Poissons Ratio (y) = -0.12319 -0.17914
# Poissons Ratio (z) = 0.10514 -0.66250
#
# Static dielectric constant tensor:
#      x y z
#    x 4.379470 0.035750 -0.235750 
#    y 0.035750 4.416840 -0.293840 
#    z -0.235750 -0.293840 3.907230 
# 
# 
# High freq. dielectric constant tensor:
#      x y z
#    x 1.926760 0.003910 -0.015120 
#    y 0.003910 1.936970 -0.015770 
#    z -0.015120 -0.015770 1.889070 
# 
# From -- ./inp_files/206194.got.cif
#   From: 2010.06.25/outbox.cif.g09.slc.cpg/sg2_104_cif.got.tgz:206194.got - 2010.06.27 13:26:56.
