data_PCOD8010315
_publ_section_title
;
Structure prediction by ZEFSAII (Michael W. Deem and Ramdas Pophale) SiO2 
 PCOD8010315
Probable space group: P -1
;
_chemical_formula_sum "Si O2"
_cell_formula_units_Z 16
_cell_length_a 9.879106
_cell_length_b 22.383898
_cell_length_c 16.218765
_cell_angle_alpha 160.577083
_cell_angle_beta 42.159111
_cell_angle_gamma 135.765141
_cell_volume 798.063479
_symmetry_space_group_name_H-M "P -1"
_symmetry_group_IT_number 2
_symmetry_cell_setting 'triclinic'
loop_
_space_group_symop_operation_xyz
x,y,z
-x,-y,-z
loop_
_atom_site_type_symbol
_atom_site_label
_atom_site_fract_x
_atom_site_fract_y
_atom_site_fract_z
Si Si1 0.669878 0.153903 0.644925
Si Si2 0.881760 0.537981 0.307534
Si Si3 0.188735 0.895785 0.875542
Si Si4 0.188735 0.252464 0.232221
Si Si5 0.620349 0.850976 0.569151
Si Si6 0.669877 0.498016 0.989037
Si Si7 0.620349 0.205725 0.923900
Si Si8 0.881760 0.882886 0.652439
O O1 0.694953 0.185100 0.770958
O O2 0.877961 0.094034 0.436435
O O3 0.500000 0.000000 0.500000
O O4 0.609218 0.337462 0.870316
O O5 0.819503 0.580137 0.484042
O O6 0.813703 0.689233 0.471615
O O7 0.774135 0.346489 0.083890
O O8 0.122039 0.531272 0.188872
O O9 0.395775 0.803561 0.644888
O O10 1.000000 0.753510 0.753510
O O11 0.176647 0.071604 0.054884
O O12 0.180496 0.952822 0.048917
O O13 0.395776 0.274869 0.116196
O O14 0.694953 0.681569 0.267428
O O15 0.774134 0.902448 0.639849
O O16 0.623296 0.014943 0.718239
O O17 0.500000 0.500000 0.000000
#
# Coordination Sequence:
#
# PCOD8010315 Si02
#       8
#     2   2   2   2   2   2   2   2
#     4  11  23  39  60  84 112 148 188 231 280 333
#     4  10  21  38  59  82 112 151 191 230 276 331
#     4   9  18  35  58  82 110 147 190 232 276 329
#     4   9  18  35  58  82 110 147 190 232 276 329
#     4  11  22  36  58  86 115 148 186 231 281 331
#     4  11  23  39  60  84 112 148 188 231 280 333
#     4  11  22  36  58  86 115 148 186 231 281 331
#     4  10  21  38  59  82 112 151 191 230 276 331
#
# _framework density 20.048531000000001
#
# number of rings (size 3 to 8) (size 9 to 14) (size 15 to 20)
#    0.000    1.750    0.000    4.500    0.000    9.000 
#    0.000    1.250    0.000    5.250    0.000    0.000 
#    0.000    0.000    0.000    0.000    0.000    0.000 
#
# Total GULP energy -198479.686216 kJ/mol
# GULP energy per Si atom -12404.980388 kJ/mol
# Density = 2.000290 g / cm^3
# Si number density = 20.048531 Si / 1000 Ang^3
#
#
#
# Elastic Constant Matrix: (Units=GPa)
#
#
# Indices 1 2 3 4 5 6 
#
# 1 94.2002 14.4366 13.4755 9.3129 2.6744 -2.2140
# 2 14.4366 74.0259 23.3733 3.9801 -4.2542 0.2832
# 3 13.4755 23.3733 82.4154 -0.6522 6.9500 -7.8718
# 4 9.3129 3.9801 -0.6522 30.2875 3.3451 9.1679
# 5 2.6744 -4.2542 6.9500 3.3451 35.7308 -2.2432
# 6 -2.2140 0.2832 -7.8718 9.1679 -2.2432 30.4458
#
#
#
# Elastic Compliance Matrix: (Units=1/GPa)
#
#
# Indices 1 2 3 4 5 6 
#
# 1 0.011473 -0.001667 -0.001246 -0.003794 -0.000356 0.001644
# 2 -0.001667 0.015506 -0.004453 -0.001744 0.002958 -0.000674
# 3 -0.001246 -0.004453 0.014168 0.000643 -0.003052 0.003195
# 4 -0.003794 -0.001744 0.000643 0.038555 -0.004413 -0.012028
# 5 -0.000356 0.002958 -0.003052 -0.004413 0.029540 0.002663
# 6 0.001644 -0.000674 0.003195 -0.012028 0.002663 0.037615
#
#
# Mechanical properties :
#
#
# Convention : Reuss Voigt Hill
#
# Bulk Modulus (GPa) = 37.85601 39.24580 38.55091
# Shear Modulus (GPa) = 29.34377 32.58323 30.96350
#
# Velocity S-wave (km/s) = 3.82990 4.03577 3.93418
# Velocity P-wave (km/s) = 6.20328 6.42919 6.31725
#
# Compressibility (1/GPa) = 0.02641588
#
# Stress axis : x y z
#
# Youngs Moduli (GPa) = 87.15945 64.49087 70.58221
#
# Poissons Ratio (x) = 0.10750 0.08796
# Poissons Ratio (y) = 0.14528 0.31428
# Poissons Ratio (z) = 0.10862 0.28715
#
# Static dielectric constant tensor:
#      x y z
#    x 3.538070 0.148400 -0.137990 
#    y 0.148400 3.668970 -0.080800 
#    z -0.137990 -0.080800 3.479760 
# 
# 
# High freq. dielectric constant tensor:
#      x y z
#    x 1.788610 0.010400 0.010400 
#    y 0.010400 1.781660 -0.016140 
#    z 0.010400 -0.016140 1.787370 
# 
# From -- ./inp_files/184823.got.cif
#   From: 2010.06.25/outbox.cif.g09.slc.cpg/sg2_93_cif.got.tgz:184823.got - 2010.06.27 13:26:56.
