data_PCOD8010735
_publ_section_title
;
Structure prediction by ZEFSAII (Michael W. Deem and Ramdas Pophale) SiO2 
 PCOD8010735
Probable space group: P -1
;
_chemical_formula_sum "Si O2"
_cell_formula_units_Z 16
_cell_length_a 5.351829
_cell_length_b 14.045042
_cell_length_c 17.411063
_cell_angle_alpha 33.514310
_cell_angle_beta 120.490519
_cell_angle_gamma 123.027417
_cell_volume 601.864066
_symmetry_space_group_name_H-M "P -1"
_symmetry_group_IT_number 2
_symmetry_cell_setting 'triclinic'
loop_
_space_group_symop_operation_xyz
x,y,z
-x,-y,-z
loop_
_atom_site_type_symbol
_atom_site_label
_atom_site_fract_x
_atom_site_fract_y
_atom_site_fract_z
Si Si1 0.906999 0.555402 0.095351
Si Si2 0.222955 0.599765 0.531389
Si Si3 0.218157 0.177503 0.630018
Si Si4 0.778988 0.722384 0.680790
Si Si5 0.804949 0.697400 0.150888
Si Si6 0.647652 0.752792 0.813373
Si Si7 0.306039 0.006225 0.618033
Si Si8 0.415614 0.971417 0.093164
O O1 0.845053 0.605449 0.138353
O O2 0.658310 0.400538 0.118209
O O3 0.209880 0.483383 0.191372
O O4 0.927501 0.718601 0.929442
O O5 0.512152 0.697238 0.461106
O O6 0.313066 0.464861 0.698365
O O7 0.000000 0.500000 0.500000
O O8 0.049942 0.732118 0.457063
O O9 0.123077 0.009305 0.667756
O O10 0.333663 0.104368 0.774578
O O11 0.673776 0.755101 0.725372
O O12 0.581570 0.791980 0.538313
O O13 0.104196 0.863674 0.623062
O O14 0.103771 0.822187 0.151675
O O15 0.589236 0.829724 0.011956
O O16 0.607466 0.937903 0.720214
O O17 0.500000 0.000000 0.000000
#
# Coordination Sequence:
#
# PCOD8010735 Si02
#       8
#     2   2   2   2   2   2   2   2
#     4  10  22  39  60  93 123 168 218 262 332 397
#     4  12  26  47  72 101 142 179 231 287 339 405
#     4  12  27  45  74 104 137 185 229 280 347 404
#     4  10  21  39  61  91 129 167 212 272 326 388
#     4  11  25  43  68  96 137 178 230 282 345 407
#     4  10  21  38  63  88 131 166 212 270 325 391
#     4  10  23  39  62  95 127 167 221 265 329 396
#     4  11  26  45  68  98 135 180 226 287 342 409
#
# _framework density 26.584074999999999
#
# number of rings (size 3 to 8) (size 9 to 14) (size 15 to 20)
#    0.000    1.250    1.250    3.375    7.000    2.000 
#    0.000    0.000    0.000    0.000    0.000    0.000 
#    0.000    0.000    0.000    0.000    0.000    0.000 
#
# Total GULP energy -198267.988090 kJ/mol
# GULP energy per Si atom -12391.749256 kJ/mol
# Density = 2.652357 g / cm^3
# Si number density = 26.584075 Si / 1000 Ang^3
#
#
#
# Elastic Constant Matrix: (Units=GPa)
#
#
# Indices 1 2 3 4 5 6 
#
# 1 64.2564 10.4075 45.1363 -12.4978 20.7205 -20.4019
# 2 10.4075 95.2177 42.2694 -4.9926 15.2503 -24.4022
# 3 45.1363 42.2694 203.7856 11.8806 28.5963 -7.5993
# 4 -12.4978 -4.9926 11.8806 56.5515 -9.2342 0.8240
# 5 20.7205 15.2503 28.5963 -9.2342 50.7922 0.0553
# 6 -20.4019 -24.4022 -7.5993 0.8240 0.0553 42.3187
#
#
#
# Elastic Compliance Matrix: (Units=1/GPa)
#
#
# Indices 1 2 3 4 5 6 
#
# 1 0.027442 0.005063 -0.005750 0.006133 -0.008379 0.015008
# 2 0.005063 0.014905 -0.003365 0.002298 -0.004240 0.010392
# 3 -0.005750 -0.003365 0.007113 -0.003214 -0.001229 -0.003371
# 4 0.006133 0.002298 -0.003214 0.020243 0.002294 0.003307
# 5 -0.008379 -0.004240 -0.001229 0.002294 0.025496 -0.006783
# 6 0.015008 0.010392 -0.003371 0.003307 -0.006783 0.036197
#
#
# Mechanical properties :
#
#
# Convention : Reuss Voigt Hill
#
# Bulk Modulus (GPa) = 24.18012 62.09845 43.13929
# Shear Modulus (GPa) = 32.61903 47.62892 40.12397
#
# Velocity S-wave (km/s) = 3.50668 4.23736 3.88922
# Velocity P-wave (km/s) = 5.05086 6.88115 6.03579
#
# Compressibility (1/GPa) = 0.04135629
#
# Stress axis : x y z
#
# Youngs Moduli (GPa) = 36.44079 67.08988 140.59236
#
# Poissons Ratio (x) = -0.33968 0.80846
# Poissons Ratio (y) = -0.18450 0.47303
# Poissons Ratio (z) = 0.20955 0.22573
#
# Static dielectric constant tensor:
#      x y z
#    x 5.365360 1.851710 0.252910 
#    y 1.851710 11.011210 -1.127690 
#    z 0.252910 -1.127690 6.473360 
# 
# 
# High freq. dielectric constant tensor:
#      x y z
#    x 2.062770 0.010790 0.004590 
#    y 0.010790 2.091610 -0.009190 
#    z 0.004590 -0.009190 2.095900 
# 
# From -- ./inp_files/47801.got.cif
#   From: 2010.06.25/outbox.cif.g09.slc.cpg/sg2_24_cif.got.tgz:47801.got - 2010.06.27 13:26:56.
