data_PCOD8010123
_publ_section_title
;
Structure prediction by ZEFSAII (Michael W. Deem and Ramdas Pophale) SiO2 
 PCOD8010123
Probable space group: P -1
;
_chemical_formula_sum "Si O2"
_cell_formula_units_Z 16
_cell_length_a 20.645295
_cell_length_b 5.433941
_cell_length_c 10.733512
_cell_angle_alpha 86.270665
_cell_angle_beta 47.247824
_cell_angle_gamma 55.435247
_cell_volume 617.748547
_symmetry_space_group_name_H-M "P -1"
_symmetry_group_IT_number 2
_symmetry_cell_setting 'triclinic'
loop_
_space_group_symop_operation_xyz
x,y,z
-x,-y,-z
loop_
_atom_site_type_symbol
_atom_site_label
_atom_site_fract_x
_atom_site_fract_y
_atom_site_fract_z
Si Si1 0.701616 0.643358 0.313599
Si Si2 0.333469 0.896726 0.038147
Si Si3 0.051727 0.912356 0.133267
Si Si4 0.896347 0.911999 0.710064
Si Si5 0.645663 0.668954 0.840390
Si Si6 0.896266 0.829647 0.447267
Si Si7 0.510461 0.294691 0.381002
Si Si8 0.786293 0.661725 0.448995
O O1 0.622690 0.571405 0.472236
O O2 0.713359 0.817926 0.406387
O O3 0.626409 0.884810 0.282214
O O4 0.843393 0.280206 0.104694
O O5 0.453183 0.649740 0.797946
O O6 0.345472 0.637959 0.123600
O O7 0.205138 0.098618 0.121631
O O8 0.315879 0.199568 0.113432
O O9 0.989898 0.764457 0.227684
O O10 0.118961 0.836327 0.180197
O O11 0.936180 0.326112 0.238983
O O12 0.866460 0.069616 0.599633
O O13 0.037765 0.527372 0.552512
O O14 0.728680 0.548412 0.609079
O O15 0.500000 0.000000 0.000000
O O16 0.777062 0.941795 0.526624
O O17 0.500000 0.500000 0.500000
#
# Coordination Sequence:
#
# PCOD8010123 Si02
#       8
#     2   2   2   2   2   2   2   2
#     4  11  26  47  72 105 150 192 257 312 374 460
#     4  12  26  46  80 107 149 193 254 314 384 448
#     4  11  23  41  70 103 147 196 251 306 380 446
#     4  10  21  37  66 102 142 188 242 308 360 447
#     4  12  28  48  76 113 151 198 249 317 385 457
#     4  10  21  39  64 103 143 191 242 299 375 442
#     4  11  27  47  74 106 140 201 255 316 376 443
#     4  11  25  45  70 107 153 198 244 307 387 458
#
# _framework density 25.900504000000002
#
# number of rings (size 3 to 8) (size 9 to 14) (size 15 to 20)
#    0.000    1.000    1.250    4.125    8.750    2.500 
#    0.000    0.000    0.000    0.000    0.000    0.000 
#    0.000    0.000    0.000    0.000    0.000    0.000 
#
# Total GULP energy -198235.993782 kJ/mol
# GULP energy per Si atom -12389.749611 kJ/mol
# Density = 2.584155 g / cm^3
# Si number density = 25.900504 Si / 1000 Ang^3
#
#
#
# Elastic Constant Matrix: (Units=GPa)
#
#
# Indices 1 2 3 4 5 6 
#
# 1 177.8110 15.8656 44.2473 -16.0229 -0.7594 15.9719
# 2 15.8656 44.6020 7.9680 -11.1468 1.0140 11.5110
# 3 44.2473 7.9680 175.5351 -12.4871 -13.9494 6.9025
# 4 -16.0229 -11.1468 -12.4871 35.1029 5.0201 -1.8851
# 5 -0.7594 1.0140 -13.9494 5.0201 45.0316 -0.3652
# 6 15.9719 11.5110 6.9025 -1.8851 -0.3652 36.3211
#
#
#
# Elastic Compliance Matrix: (Units=1/GPa)
#
#
# Indices 1 2 3 4 5 6 
#
# 1 0.006435 -0.000944 -0.001388 0.002107 -0.000553 -0.002163
# 2 -0.000944 0.026756 -0.000251 0.007799 -0.001628 -0.007628
# 3 -0.001388 -0.000251 0.006306 0.001251 0.001793 -0.000425
# 4 0.002107 0.007799 0.001251 0.032754 -0.003420 -0.001970
# 5 -0.000553 -0.001628 0.001793 -0.003420 0.023174 0.000474
# 6 -0.002163 -0.007628 -0.000425 -0.001970 0.000474 0.030884
#
#
# Mechanical properties :
#
#
# Convention : Reuss Voigt Hill
#
# Bulk Modulus (GPa) = 29.12797 59.34555 44.23676
# Shear Modulus (GPa) = 34.98430 45.28226 40.13328
#
# Velocity S-wave (km/s) = 3.67920 4.18582 3.94066
# Velocity P-wave (km/s) = 5.41472 6.80618 6.14993
#
# Compressibility (1/GPa) = 0.03433127
#
# Stress axis : x y z
#
# Youngs Moduli (GPa) = 155.38961 37.37478 158.56910
#
# Poissons Ratio (x) = 0.03527 0.22015
# Poissons Ratio (y) = 0.14665 0.03983
# Poissons Ratio (z) = 0.21573 0.00939
#
# Static dielectric constant tensor:
#      x y z
#    x 5.396620 0.280750 -0.254980 
#    y 0.280750 5.457270 0.260570 
#    z -0.254980 0.260570 5.128380 
# 
# 
# High freq. dielectric constant tensor:
#      x y z
#    x 2.054380 0.004280 -0.013500 
#    y 0.004280 2.012590 0.006380 
#    z -0.013500 0.006380 2.045020 
# 
# From -- ./inp_files/468367.got.cif
#   From: 2010.06.25/outbox.cif.g09.slc.cpg/sg2_235_cif.got.tgz:468367.got - 2010.06.27 13:26:56.
