data_PCOD8010366
_publ_section_title
;
Structure prediction by ZEFSAII (Michael W. Deem and Ramdas Pophale) SiO2 
 PCOD8010366
Probable space group: P -1
;
_chemical_formula_sum "Si O2"
_cell_formula_units_Z 14
_cell_length_a 11.631590
_cell_length_b 7.836580
_cell_length_c 9.039762
_cell_angle_alpha 52.286725
_cell_angle_beta 82.714853
_cell_angle_gamma 94.722757
_cell_volume 633.015295
_symmetry_space_group_name_H-M "P -1"
_symmetry_group_IT_number 2
_symmetry_cell_setting 'triclinic'
loop_
_space_group_symop_operation_xyz
x,y,z
-x,-y,-z
loop_
_atom_site_type_symbol
_atom_site_label
_atom_site_fract_x
_atom_site_fract_y
_atom_site_fract_z
Si Si1 0.900958 0.670424 0.185404
Si Si2 0.014763 0.999803 0.747704
Si Si3 0.648236 0.667265 0.291401
Si Si4 0.400623 0.066990 0.381589
Si Si5 0.394911 0.496781 0.304635
Si Si6 0.143513 0.838694 0.545735
Si Si7 0.568523 0.095397 0.079517
O O1 0.764968 0.681664 0.167480
O O2 0.917101 0.419115 0.315668
O O3 0.935647 0.780273 0.281950
O O4 0.978684 0.796480 0.973755
O O5 0.114149 0.941857 0.652306
O O6 0.903716 0.036735 0.649094
O O7 0.537938 0.556250 0.266608
O O8 0.658076 0.515407 0.514575
O O9 0.640386 0.913682 0.222307
O O10 0.351840 0.268945 0.349554
O O11 0.466329 0.141412 0.179091
O O12 0.500000 0.000000 0.500000
O O13 0.285957 0.869363 0.489146
O O14 0.348507 0.675474 0.112495
O O15 0.500000 0.000000 0.000000
#
# Coordination Sequence:
#
# PCOD8010366 Si02
#       7
#     2   2   2   2   2   2   2
#     4  11  23  43  74  93 126 172 217 271 330 371
#     4  10  25  46  67  99 124 168 228 267 319 385
#     4  10  21  38  63  96 129 165 209 264 318 386
#     4  12  23  41  64  98 132 171 210 260 325 388
#     4  10  21  38  59  90 137 170 207 254 319 387
#     4  11  25  45  68  95 135 167 215 274 321 378
#     4  10  23  38  59  90 133 167 211 255 308 393
#
# _framework density 22.11637
#
# number of rings (size 3 to 8) (size 9 to 14) (size 15 to 20)
#    0.000    1.429    1.429    3.000    8.000    0.000 
#    2.571    5.714    0.000    0.000    0.000    0.000 
#    0.000    0.000    0.000    0.000    0.000    0.000 
#
# Total GULP energy -173564.234792 kJ/mol
# GULP energy per Si atom -12397.445342 kJ/mol
# Density = 2.206603 g / cm^3
# Si number density = 22.116370 Si / 1000 Ang^3
#
#
#
# Elastic Constant Matrix: (Units=GPa)
#
#
# Indices 1 2 3 4 5 6 
#
# 1 64.5957 2.3301 20.1371 0.4866 2.1633 1.2070
# 2 2.3301 108.5807 42.9429 -3.4356 3.9351 0.5453
# 3 20.1371 42.9429 129.3162 -4.8442 -0.4979 -0.4878
# 4 0.4866 -3.4356 -4.8442 40.3451 0.5510 -1.7743
# 5 2.1633 3.9351 -0.4979 0.5510 15.1093 0.5480
# 6 1.2070 0.5453 -0.4878 -1.7743 0.5480 27.3020
#
#
#
# Elastic Compliance Matrix: (Units=1/GPa)
#
#
# Indices 1 2 3 4 5 6 
#
# 1 0.016454 0.000871 -0.002882 -0.000468 -0.002633 -0.000774
# 2 0.000871 0.010787 -0.003712 0.000494 -0.003066 -0.000227
# 3 -0.002882 -0.003712 0.009454 0.000849 0.001646 0.000393
# 4 -0.000468 0.000494 0.000849 0.025023 -0.001007 0.001672
# 5 -0.002633 -0.003066 0.001646 -0.001007 0.067495 -0.001213
# 6 -0.000774 -0.000227 0.000393 0.001672 -0.001213 0.036806
#
#
# Mechanical properties :
#
#
# Convention : Reuss Voigt Hill
#
# Bulk Modulus (GPa) = 39.60476 48.14587 43.87532
# Shear Modulus (GPa) = 26.89889 32.35677 29.62783
#
# Velocity S-wave (km/s) = 3.49125 3.82910 3.66407
# Velocity P-wave (km/s) = 5.84791 6.43163 6.14671
#
# Compressibility (1/GPa) = 0.02524949
#
# Stress axis : x y z
#
# Youngs Moduli (GPa) = 60.77503 92.70433 105.77479
#
# Poissons Ratio (x) = -0.08077 0.30486
# Poissons Ratio (y) = -0.05295 0.39263
# Poissons Ratio (z) = 0.17516 0.34411
#
# Static dielectric constant tensor:
#      x y z
#    x 2.971850 1.251290 -1.017890 
#    y 1.251290 1.698010 1.833450 
#    z -1.017890 1.833450 2.435330 
# 
# 
# High freq. dielectric constant tensor:
#      x y z
#    x 1.842450 -0.003780 -0.005060 
#    y -0.003780 1.878470 -0.002490 
#    z -0.005060 -0.002490 1.884760 
# 
# From -- ./inp_files/236704.got.cif
#   From: 2010.06.25/outbox.cif.g09.slc.cpg/sg2_119_cif.got.tgz:236704.got - 2010.06.27 13:26:56.
