data_PCOD8010228
_publ_section_title
;
Structure prediction by ZEFSAII (Michael W. Deem and Ramdas Pophale) SiO2 
 PCOD8010228
Probable space group: P -1
;
_chemical_formula_sum "Si O2"
_cell_formula_units_Z 16
_cell_length_a 5.059640
_cell_length_b 20.262645
_cell_length_c 11.995218
_cell_angle_alpha 49.412804
_cell_angle_beta 101.605049
_cell_angle_gamma 116.853861
_cell_volume 825.356907
_symmetry_space_group_name_H-M "P -1"
_symmetry_group_IT_number 2
_symmetry_cell_setting 'triclinic'
loop_
_space_group_symop_operation_xyz
x,y,z
-x,-y,-z
loop_
_atom_site_type_symbol
_atom_site_label
_atom_site_fract_x
_atom_site_fract_y
_atom_site_fract_z
Si Si1 0.796059 0.587929 0.392469
Si Si2 0.116371 0.776031 0.942834
Si Si3 0.306682 0.984071 0.665103
Si Si4 0.460401 0.314651 0.867598
Si Si5 0.115469 0.295473 0.233778
Si Si6 0.930526 0.090370 0.517632
Si Si7 0.994387 0.502801 0.683201
Si Si8 0.198102 0.585033 0.841165
O O1 0.500000 0.500000 0.500000
O O2 0.729980 0.682220 0.263669
O O3 0.013619 0.593513 0.508294
O O4 0.907775 0.565609 0.308193
O O5 0.097142 0.738840 0.855454
O O6 0.257394 0.891526 0.837102
O O7 0.335817 0.742820 0.068046
O O8 0.776171 0.734166 0.001449
O O9 0.652333 0.059455 0.611259
O O10 0.134630 0.042288 0.638134
O O11 0.184452 0.949101 0.570717
O O12 0.667995 0.428514 0.785260
O O13 0.453557 0.365948 0.148183
O O14 0.118633 0.205411 0.400548
O O15 0.957026 0.342356 0.250273
O O16 0.203231 0.547363 0.757951
O O17 0.000000 0.500000 0.000000
#
# Coordination Sequence:
#
# PCOD8010228 Si02
#       8
#     2   2   2   2   2   2   2   2
#     4   9  20  36  60  75  99 144 182 238 278 301
#     4  11  20  32  51  78 115 138 179 211 281 324
#     4   9  17  29  50  73  95 141 170 226 259 320
#     4  11  20  33  53  77 107 140 171 226 274 320
#     4  11  23  36  49  76 107 156 181 222 251 317
#     4   9  17  32  49  67 101 134 190 212 260 304
#     4  10  21  38  55  78 105 148 187 226 266 313
#     4  12  25  36  54  77 115 151 190 212 258 317
#
# _framework density 19.385551
#
# number of rings (size 3 to 8) (size 9 to 14) (size 15 to 20)
#    0.000    1.750    1.250    4.125    3.500    4.000 
#    0.000    0.000    0.000    0.000    0.000    0.000 
#    0.000   20.000    0.000    0.000    0.000    0.000 
#
# Total GULP energy -198249.234094 kJ/mol
# GULP energy per Si atom -12390.577131 kJ/mol
# Density = 1.934143 g / cm^3
# Si number density = 19.385551 Si / 1000 Ang^3
#
#
#
# Elastic Constant Matrix: (Units=GPa)
#
#
# Indices 1 2 3 4 5 6 
#
# 1 118.2607 14.4544 42.2852 -9.7555 7.4419 -1.7395
# 2 14.4544 35.6763 30.0696 -2.2430 -0.2498 -1.3452
# 3 42.2852 30.0696 115.1149 -15.0266 14.9028 -0.2600
# 4 -9.7555 -2.2430 -15.0266 25.1153 -1.9750 -1.0288
# 5 7.4419 -0.2498 14.9028 -1.9750 44.9494 -5.4347
# 6 -1.7395 -1.3452 -0.2600 -1.0288 -5.4347 18.0059
#
#
#
# Elastic Compliance Matrix: (Units=1/GPa)
#
#
# Indices 1 2 3 4 5 6 
#
# 1 0.009881 -0.001365 -0.002955 0.001942 -0.000485 0.000775
# 2 -0.001365 0.037048 -0.010058 -0.002773 0.004075 0.003562
# 3 -0.002955 -0.010058 0.013671 0.005743 -0.004057 -0.001736
# 4 0.001942 -0.002773 0.005743 0.043864 -0.000003 0.002569
# 5 -0.000485 0.004075 -0.004057 -0.000003 0.024617 0.007629
# 6 0.000775 0.003562 -0.001736 0.002569 0.007629 0.058303
#
#
# Mechanical properties :
#
#
# Convention : Reuss Voigt Hill
#
# Bulk Modulus (GPa) = 31.40211 49.18558 40.29384
# Shear Modulus (GPa) = 22.05021 29.76363 25.90692
#
# Velocity S-wave (km/s) = 3.37628 3.92261 3.65965
# Velocity P-wave (km/s) = 5.60650 6.77814 6.21997
#
# Compressibility (1/GPa) = 0.03184500
#
# Stress axis : x y z
#
# Youngs Moduli (GPa) = 101.19947 26.99176 73.14940
#
# Poissons Ratio (x) = 0.03684 0.21618
# Poissons Ratio (y) = 0.13811 0.73571
# Poissons Ratio (z) = 0.29907 0.27147
#
# Static dielectric constant tensor:
#      x y z
#    x 3.376330 -0.087420 0.405880 
#    y -0.087420 3.072610 0.067560 
#    z 0.405880 0.067560 4.057450 
# 
# 
# High freq. dielectric constant tensor:
#      x y z
#    x 1.778350 -0.001370 0.002690 
#    y -0.001370 1.675090 -0.017380 
#    z 0.002690 -0.017380 1.765920 
# 
# From -- ./inp_files/369373.got.cif
#   From: 2010.06.25/outbox.cif.g09.slc.cpg/sg2_185_cif.got.tgz:369373.got - 2010.06.27 13:26:56.
