data_PCOD8010889
_publ_section_title
;
Structure prediction by ZEFSAII (Michael W. Deem and Ramdas Pophale) SiO2 
 PCOD8010889
Probable space group: P -1
;
_chemical_formula_sum "Si O2"
_cell_formula_units_Z 14
_cell_length_a 21.769043
_cell_length_b 9.552603
_cell_length_c 10.602234
_cell_angle_alpha 119.357814
_cell_angle_beta 150.101311
_cell_angle_gamma 39.622951
_cell_volume 581.460292
_symmetry_space_group_name_H-M "P -1"
_symmetry_group_IT_number 2
_symmetry_cell_setting 'triclinic'
loop_
_space_group_symop_operation_xyz
x,y,z
-x,-y,-z
loop_
_atom_site_type_symbol
_atom_site_label
_atom_site_fract_x
_atom_site_fract_y
_atom_site_fract_z
Si Si1 0.333336 0.116077 0.472810
Si Si2 0.663818 0.524054 0.723474
Si Si3 0.669947 0.340157 0.404244
Si Si4 0.439026 0.323191 0.857357
Si Si5 0.989534 0.784433 0.364794
Si Si6 0.925330 0.502965 0.046532
Si Si7 0.074437 0.893150 0.794622
O O1 0.475215 0.095647 0.793522
O O2 0.154959 0.226001 0.289987
O O3 0.463794 0.837178 0.526089
O O4 0.226401 0.333834 0.270322
O O5 0.622972 0.430533 0.505254
O O6 0.722568 0.377976 0.894712
O O7 0.853863 0.437416 0.982774
O O8 0.540602 0.596290 0.199951
O O9 0.599721 0.228839 0.202267
O O10 0.909638 0.114563 0.704259
O O11 0.219110 0.570587 0.635461
O O12 0.912191 0.683617 0.177999
O O13 0.968968 0.865511 0.507451
O O14 0.857969 0.028488 0.140300
#
# Coordination Sequence:
#
# PCOD8010889 Si02
#       7
#     2   2   2   2   2   2   2
#     4  10  22  41  67  98 135 173 217 267 332 395
#     4  12  24  41  68 103 132 169 221 279 329 381
#     4  10  21  38  64  94 132 171 218 267 322 388
#     4   9  19  40  64  92 124 176 222 259 318 401
#     4   9  21  44  67  91 127 181 219 266 328 404
#     4  10  22  42  70  95 133 172 222 269 326 393
#     4  10  23  42  64  94 135 173 220 268 335 387
#
# _framework density 24.077311999999999
#
# number of rings (size 3 to 8) (size 9 to 14) (size 15 to 20)
#    0.000    2.000    1.429    0.857    4.000    4.000 
#    2.571    2.857    0.000    0.000    0.000    0.000 
#    0.000    0.000    0.000    0.000    0.000    0.000 
#
# Total GULP energy -173646.261925 kJ/mol
# GULP energy per Si atom -12403.304423 kJ/mol
# Density = 2.402251 g / cm^3
# Si number density = 24.077312 Si / 1000 Ang^3
#
#
#
# Elastic Constant Matrix: (Units=GPa)
#
#
# Indices 1 2 3 4 5 6 
#
# 1 79.7888 39.0461 33.8430 -1.4705 -13.4992 -13.0204
# 2 39.0461 96.1808 46.8960 15.2449 -9.1076 -35.8186
# 3 33.8430 46.8960 90.4600 17.2950 -10.8401 -4.5208
# 4 -1.4705 15.2449 17.2950 32.9768 1.0973 -3.4404
# 5 -13.4992 -9.1076 -10.8401 1.0973 27.4510 1.5265
# 6 -13.0204 -35.8186 -4.5208 -3.4404 1.5265 26.7083
#
#
#
# Elastic Compliance Matrix: (Units=1/GPa)
#
#
# Indices 1 2 3 4 5 6 
#
# 1 0.018128 -0.004570 -0.004721 0.005466 0.005187 0.002318
# 2 -0.004570 0.035651 -0.013376 -0.005306 0.002147 0.042513
# 3 -0.004721 -0.013376 0.020455 -0.006696 0.002575 -0.017787
# 4 0.005466 -0.005306 -0.006696 0.036565 -0.003140 -0.000695
# 5 0.005187 0.002147 0.002575 -0.003140 0.040661 0.003115
# 6 0.002318 0.042513 -0.017787 -0.000695 0.003115 0.092308
#
#
# Mechanical properties :
#
#
# Convention : Reuss Voigt Hill
#
# Bulk Modulus (GPa) = 34.60103 56.22219 45.41161
# Shear Modulus (GPa) = 16.73730 27.20353 21.97041
#
# Velocity S-wave (km/s) = 2.63943 3.36496 3.02403
# Velocity P-wave (km/s) = 4.86732 6.20473 5.57626
#
# Compressibility (1/GPa) = 0.02890087
#
# Stress axis : x y z
#
# Youngs Moduli (GPa) = 55.16257 28.04986 48.88805
#
# Poissons Ratio (x) = 0.12818 0.23079
# Poissons Ratio (y) = 0.25208 0.65393
# Poissons Ratio (z) = 0.26041 0.37519
#
# Static dielectric constant tensor:
#      x y z
#    x 4.144160 -0.153130 0.041580 
#    y -0.153130 4.347030 0.280900 
#    z 0.041580 0.280900 4.133850 
# 
# 
# High freq. dielectric constant tensor:
#      x y z
#    x 1.941900 -0.017370 0.011030 
#    y -0.017370 1.955460 0.021240 
#    z 0.011030 0.021240 1.944060 
# 
# From -- ./inp_files/474282.got.cif
#   From: 2010.06.25/outbox.cif.g09.slc.cpg/sg2_238_cif.got.tgz:474282.got - 2010.06.27 13:26:56.
