data_PCOD8010604
_publ_section_title
;
Structure prediction by ZEFSAII (Michael W. Deem and Ramdas Pophale) SiO2 
 PCOD8010604
Probable space group: P -1
;
_chemical_formula_sum "Si O2"
_cell_formula_units_Z 16
_cell_length_a 18.878077
_cell_length_b 6.730536
_cell_length_c 8.407469
_cell_angle_alpha 89.075436
_cell_angle_beta 131.119981
_cell_angle_gamma 88.619709
_cell_volume 803.789686
_symmetry_space_group_name_H-M "P -1"
_symmetry_group_IT_number 2
_symmetry_cell_setting 'triclinic'
loop_
_space_group_symop_operation_xyz
x,y,z
-x,-y,-z
loop_
_atom_site_type_symbol
_atom_site_label
_atom_site_fract_x
_atom_site_fract_y
_atom_site_fract_z
Si Si1 0.840005 0.068654 0.373412
Si Si2 0.654649 0.993325 0.282913
Si Si3 0.077148 0.603836 0.722435
Si Si4 0.649411 0.959757 0.635392
Si Si5 0.985645 0.040575 0.161839
Si Si6 0.520184 0.710286 0.951452
Si Si7 0.171396 0.198970 0.922811
Si Si8 0.493300 0.719462 0.545068
O O1 0.855751 0.257926 0.282187
O O2 0.740577 0.084540 0.314363
O O3 0.845041 0.864890 0.282583
O O4 0.924376 0.063321 0.621498
O O5 0.688582 0.952537 0.514158
O O6 0.569070 0.151279 0.133383
O O7 0.618828 0.785596 0.164569
O O8 0.029417 0.731847 0.797034
O O9 0.147102 0.433484 0.903225
O O10 0.000000 0.500000 0.500000
O O11 0.554838 0.839540 0.509901
O O12 0.614814 0.188154 0.623008
O O13 0.722815 0.862082 0.868751
O O14 0.893899 0.922900 0.059839
O O15 0.000000 0.000000 0.000000
O O16 0.533294 0.715921 0.782120
O O17 0.500000 0.500000 0.000000
O O18 0.500000 0.500000 0.500000
#
# Coordination Sequence:
#
# PCOD8010604 Si02
#       8
#     2   2   2   2   2   2   2   2
#     4  11  22  39  63  88 120 162 205 254 314 373
#     4  10  22  39  59  87 123 155 201 256 303 364
#     4  11  21  43  64  88 123 165 209 256 311 378
#     4  10  22  39  59  89 121 159 202 254 307 360
#     4  11  23  40  64  91 123 160 202 262 317 364
#     4  10  21  39  60  87 120 160 200 250 307 362
#     4  11  22  40  63  88 123 162 207 253 311 377
#     4  10  21  38  62  85 121 162 202 249 305 368
#
# _framework density 19.905704
#
# number of rings (size 3 to 8) (size 9 to 14) (size 15 to 20)
#    0.000    1.500    2.500    3.000    0.000    7.500 
#    0.000    1.250    0.000    0.000    0.000    0.000 
#    0.000    0.000    0.000    0.000    0.000    0.000 
#
# Total GULP energy -198336.654825 kJ/mol
# GULP energy per Si atom -12396.040927 kJ/mol
# Density = 1.986040 g / cm^3
# Si number density = 19.905704 Si / 1000 Ang^3
#
#
#
# Elastic Constant Matrix: (Units=GPa)
#
#
# Indices 1 2 3 4 5 6 
#
# 1 116.0176 34.2869 23.1620 10.8640 -12.1530 -6.5269
# 2 34.2869 131.7991 36.4039 -1.0229 -5.2694 -15.8459
# 3 23.1620 36.4039 81.3994 -8.2022 -2.0113 -17.8060
# 4 10.8640 -1.0229 -8.2022 29.0866 -0.4577 -0.6153
# 5 -12.1530 -5.2694 -2.0113 -0.4577 34.0194 3.9026
# 6 -6.5269 -15.8459 -17.8060 -0.6153 3.9026 27.4015
#
#
#
# Elastic Compliance Matrix: (Units=1/GPa)
#
#
# Indices 1 2 3 4 5 6 
#
# 1 0.010485 -0.002006 -0.002697 -0.004716 0.003326 -0.000995
# 2 -0.002006 0.009277 -0.002886 0.000328 0.000211 0.002989
# 3 -0.002697 -0.002886 0.016859 0.005828 -0.001364 0.008969
# 4 -0.004716 0.000328 0.005828 0.037859 -0.001225 0.003878
# 5 0.003326 0.000211 -0.001364 -0.001225 0.031026 -0.004418
# 6 -0.000995 0.002989 0.008969 0.003878 -0.004418 0.044530
#
#
# Mechanical properties :
#
#
# Convention : Reuss Voigt Hill
#
# Bulk Modulus (GPa) = 46.63619 57.43577 52.03598
# Shear Modulus (GPa) = 29.00905 33.79237 31.40071
#
# Velocity S-wave (km/s) = 3.82163 4.12469 3.97605
# Velocity P-wave (km/s) = 6.55382 7.18336 6.87580
#
# Compressibility (1/GPa) = 0.02144257
#
# Stress axis : x y z
#
# Youngs Moduli (GPa) = 95.37773 107.79886 59.31664
#
# Poissons Ratio (x) = 0.21623 0.15997
# Poissons Ratio (y) = 0.19131 0.17118
# Poissons Ratio (z) = 0.25722 0.31110
#
# Static dielectric constant tensor:
#      x y z
#    x 3.753060 -0.072870 0.025260 
#    y -0.072870 3.749490 0.028200 
#    z 0.025260 0.028200 3.545490 
# 
# 
# High freq. dielectric constant tensor:
#      x y z
#    x 1.783730 -0.001050 -0.002240 
#    y -0.001050 1.778180 -0.001300 
#    z -0.002240 -0.001300 1.775640 
# 
# From -- ./inp_files/315110.got.cif
#   From: 2010.06.25/outbox.cif.g09.slc.cpg/sg2_158_cif.got.tgz:315110.got - 2010.06.27 13:26:56.
