data_PCOD8010565
_publ_section_title
;
Structure prediction by ZEFSAII (Michael W. Deem and Ramdas Pophale) SiO2 
 PCOD8010565
Probable space group: P -1
;
_chemical_formula_sum "Si O2"
_cell_formula_units_Z 16
_cell_length_a 8.481089
_cell_length_b 13.221641
_cell_length_c 18.685604
_cell_angle_alpha 22.670999
_cell_angle_beta 62.415358
_cell_angle_gamma 64.369222
_cell_volume 715.718220
_symmetry_space_group_name_H-M "P -1"
_symmetry_group_IT_number 2
_symmetry_cell_setting 'triclinic'
loop_
_space_group_symop_operation_xyz
x,y,z
-x,-y,-z
loop_
_atom_site_type_symbol
_atom_site_label
_atom_site_fract_x
_atom_site_fract_y
_atom_site_fract_z
Si Si1 0.348732 0.796039 0.051165
Si Si2 0.997616 0.310010 0.304812
Si Si3 0.394998 0.560281 0.694387
Si Si4 0.477704 0.724387 0.920585
Si Si5 0.346514 0.415248 0.639581
Si Si6 0.821688 0.510133 0.987876
Si Si7 0.955015 0.559046 0.625891
Si Si8 0.317395 0.043385 0.632848
O O1 0.518080 0.709632 0.119672
O O2 0.164865 0.699585 0.187918
O O3 0.369240 0.661356 0.056261
O O4 0.345548 0.105395 0.849285
O O5 0.803899 0.410278 0.253369
O O6 0.042574 0.370673 0.337041
O O7 0.000000 0.000000 0.500000
O O8 0.137666 0.456684 0.127557
O O9 0.386250 0.556277 0.613423
O O10 0.519134 0.800554 0.539584
O O11 0.383685 0.987920 0.736895
O O12 0.500000 0.500000 0.000000
O O13 0.688114 0.752888 0.880038
O O14 0.500000 0.500000 0.500000
O O15 0.153805 0.507257 0.589203
O O16 0.720938 0.241820 0.205475
O O17 0.000000 0.500000 0.000000
O O18 0.864715 0.786466 0.447172
#
# Coordination Sequence:
#
# PCOD8010565 Si02
#       8
#     2   2   2   2   2   2   2   2
#     4  11  22  42  65  88 122 163 202 254 307 363
#     4  11  22  38  60  89 125 163 201 251 302 361
#     4  10  23  41  62  90 122 162 207 249 307 369
#     4  10  21  38  61  92 125 160 201 245 299 360
#     4  11  24  42  65  91 120 157 204 260 312 363
#     4  11  22  37  60  93 125 162 206 250 301 362
#     4  10  23  41  62  89 120 159 207 250 306 368
#     4  10  21  39  60  86 122 158 199 251 298 358
#
# _framework density 22.355166000000001
#
# number of rings (size 3 to 8) (size 9 to 14) (size 15 to 20)
#    0.000    1.500    0.000    5.250    0.000    6.000 
#    0.000   14.375    0.000    0.000    0.000    0.000 
#    0.000    0.000    0.000    0.000    0.000    0.000 
#
# Total GULP energy -198227.229241 kJ/mol
# GULP energy per Si atom -12389.201828 kJ/mol
# Density = 2.230428 g / cm^3
# Si number density = 22.355166 Si / 1000 Ang^3
#
#
#
# Elastic Constant Matrix: (Units=GPa)
#
#
# Indices 1 2 3 4 5 6 
#
# 1 145.3705 34.2922 51.4841 -11.3393 27.2034 -41.3233
# 2 34.2922 74.6048 28.3184 8.6850 0.3239 -30.0858
# 3 51.4841 28.3184 119.9900 -11.4091 8.3416 -24.8140
# 4 -11.3393 8.6850 -11.4091 29.0790 -0.4109 0.0447
# 5 27.2034 0.3239 8.3416 -0.4109 43.1098 -11.4081
# 6 -41.3233 -30.0858 -24.8140 0.0447 -11.4081 39.9310
#
#
#
# Elastic Compliance Matrix: (Units=1/GPa)
#
#
# Indices 1 2 3 4 5 6 
#
# 1 0.011499 -0.001725 -0.002180 0.004065 -0.004692 0.007900
# 2 -0.001725 0.022046 -0.002559 -0.008210 0.005241 0.014742
# 3 -0.002180 -0.002559 0.010787 0.004143 0.000014 0.002518
# 4 0.004065 -0.008210 0.004143 0.040010 -0.003005 -0.000307
# 5 -0.004692 0.005241 0.000014 -0.003005 0.027964 0.007094
# 6 0.007900 0.014742 0.002518 -0.000307 0.007094 0.047918
#
#
# Mechanical properties :
#
#
# Convention : Reuss Voigt Hill
#
# Bulk Modulus (GPa) = 31.84360 63.12827 47.48594
# Shear Modulus (GPa) = 27.23012 37.48202 32.35607
#
# Velocity S-wave (km/s) = 3.49387 4.09915 3.80855
# Velocity P-wave (km/s) = 5.52734 7.12068 6.37399
#
# Compressibility (1/GPa) = 0.03140348
#
# Stress axis : x y z
#
# Youngs Moduli (GPa) = 86.96519 45.35966 92.70208
#
# Poissons Ratio (x) = 0.07823 0.20211
# Poissons Ratio (y) = 0.14999 0.23726
# Poissons Ratio (z) = 0.18960 0.11609
#
# Static dielectric constant tensor:
#      x y z
#    x 4.940600 -0.509920 0.214930 
#    y -0.509920 4.044140 0.059630 
#    z 0.214930 0.059630 4.124720 
# 
# 
# High freq. dielectric constant tensor:
#      x y z
#    x 1.910340 -0.020380 0.010590 
#    y -0.020380 1.852970 0.003870 
#    z 0.010590 0.003870 1.883540 
# 
# From -- ./inp_files/208131.got.cif
#   From: 2010.06.25/outbox.cif.g09.slc.cpg/sg2_105_cif.got.tgz:208131.got - 2010.06.27 13:26:56.
