data_PCOD8010636
_publ_section_title
;
Structure prediction by ZEFSAII (Michael W. Deem and Ramdas Pophale) SiO2 
 PCOD8010636
Probable space group: P -1
;
_chemical_formula_sum "Si O2"
_cell_formula_units_Z 16
_cell_length_a 13.185239
_cell_length_b 9.726976
_cell_length_c 14.469839
_cell_angle_alpha 115.951846
_cell_angle_beta 131.925652
_cell_angle_gamma 35.360815
_cell_volume 773.859049
_symmetry_space_group_name_H-M "P -1"
_symmetry_group_IT_number 2
_symmetry_cell_setting 'triclinic'
loop_
_space_group_symop_operation_xyz
x,y,z
-x,-y,-z
loop_
_atom_site_type_symbol
_atom_site_label
_atom_site_fract_x
_atom_site_fract_y
_atom_site_fract_z
Si Si1 0.512317 0.088929 0.392178
Si Si2 0.611926 0.144853 0.094880
Si Si3 0.882730 0.664304 0.885561
Si Si4 0.673672 0.347465 0.851537
Si Si5 0.226221 0.286377 0.839881
Si Si6 0.409552 0.308570 0.586559
Si Si7 0.144594 0.983790 0.967810
Si Si8 0.064140 0.326223 0.564564
O O1 0.312414 0.273309 0.251348
O O2 0.470754 0.240270 0.495773
O O3 0.537421 0.894459 0.387614
O O4 0.730849 0.953000 0.430615
O O5 0.481578 0.369146 0.151079
O O6 0.759840 0.902663 0.175253
O O7 0.763865 0.111775 0.108937
O O8 0.456578 0.171511 0.946930
O O9 0.062507 0.525157 0.874536
O O10 0.781535 0.918220 0.917968
O O11 0.000000 0.500000 0.000000
O O12 0.547499 0.321326 0.719025
O O13 0.881479 0.203315 0.871333
O O14 0.750911 0.239418 0.970788
O O15 0.134610 0.369042 0.705865
O O16 0.152586 0.581544 0.516524
O O17 0.000000 0.500000 0.500000
#
# Coordination Sequence:
#
# PCOD8010636 Si02
#       8
#     2   2   2   2   2   2   2   2
#     4  10  21  38  62  90 124 159 206 262 314 361
#     4  11  24  41  62  93 130 167 205 266 318 374
#     4  12  21  39  69  95 129 162 210 270 317 371
#     4  11  24  40  62  91 132 169 212 255 317 379
#     4  11  23  40  66  98 126 161 217 262 318 377
#     4  10  21  39  60  90 122 163 209 258 305 376
#     4  11  23  40  59  96 129 168 208 260 319 380
#     4  10  22  38  63  93 124 161 207 261 314 368
#
# _framework density 20.675599999999999
#
# number of rings (size 3 to 8) (size 9 to 14) (size 15 to 20)
#    0.000    1.250    5.000    1.125    3.500    1.000 
#    0.000    0.625    0.000    3.750    0.000    0.000 
#    0.000    0.000    0.000    0.000    0.000    0.000 
#
# Total GULP energy -198417.079703 kJ/mol
# GULP energy per Si atom -12401.067481 kJ/mol
# Density = 2.062854 g / cm^3
# Si number density = 20.675600 Si / 1000 Ang^3
#
#
#
# Elastic Constant Matrix: (Units=GPa)
#
#
# Indices 1 2 3 4 5 6 
#
# 1 92.3477 26.4499 39.2100 -1.1412 2.0858 -34.5459
# 2 26.4499 76.0031 24.7020 -0.9064 3.9481 -21.3095
# 3 39.2100 24.7020 116.4279 -1.1184 -4.4290 -16.7914
# 4 -1.1412 -0.9064 -1.1184 27.7454 0.6482 3.5831
# 5 2.0858 3.9481 -4.4290 0.6482 34.5654 -4.3048
# 6 -34.5459 -21.3095 -16.7914 3.5831 -4.3048 41.7310
#
#
#
# Elastic Compliance Matrix: (Units=1/GPa)
#
#
# Indices 1 2 3 4 5 6 
#
# 1 0.017425 -0.001405 -0.003802 -0.001073 0.000172 0.012287
# 2 -0.001405 0.016109 -0.002114 -0.000377 -0.001257 0.006115
# 3 -0.003802 -0.002114 0.010408 0.000134 0.001819 0.000137
# 4 -0.001073 -0.000377 0.000134 0.036569 -0.001094 -0.004280
# 5 0.000172 -0.001257 0.001819 -0.001094 0.029740 0.003394
# 6 0.012287 0.006115 0.000137 -0.004280 0.003394 0.038030
#
#
# Mechanical properties :
#
#
# Convention : Reuss Voigt Hill
#
# Bulk Modulus (GPa) = 34.13017 51.72251 42.92634
# Shear Modulus (GPa) = 28.95379 33.76949 31.36164
#
# Velocity S-wave (km/s) = 3.74623 4.04580 3.89889
# Velocity P-wave (km/s) = 5.93764 6.84800 6.40901
#
# Compressibility (1/GPa) = 0.02929959
#
# Stress axis : x y z
#
# Youngs Moduli (GPa) = 57.39029 62.07847 96.07824
#
# Poissons Ratio (x) = 0.08722 0.36526
# Poissons Ratio (y) = 0.08063 0.20312
# Poissons Ratio (z) = 0.21818 0.13124
#
# Static dielectric constant tensor:
#      x y z
#    x 3.876110 -0.363010 0.101440 
#    y -0.363010 3.815690 -0.239250 
#    z 0.101440 -0.239250 3.756560 
# 
# 
# High freq. dielectric constant tensor:
#      x y z
#    x 1.802330 -0.029980 -0.004530 
#    y -0.029980 1.802940 -0.012450 
#    z -0.004530 -0.012450 1.805600 
# 
# From -- ./inp_files/308115.got.cif
#   From: 2010.06.25/outbox.cif.g09.slc.cpg/sg2_155_cif.got.tgz:308115.got - 2010.06.27 13:26:56.
