data_PCOD8010780
_publ_section_title
;
Structure prediction by ZEFSAII (Michael W. Deem and Ramdas Pophale) SiO2 
 PCOD8010780
Probable space group: P -1
;
_chemical_formula_sum "Si O2"
_cell_formula_units_Z 12
_cell_length_a 12.049714
_cell_length_b 12.480540
_cell_length_c 8.898160
_cell_angle_alpha 82.643452
_cell_angle_beta 47.697431
_cell_angle_gamma 121.248272
_cell_volume 555.145873
_symmetry_space_group_name_H-M "P -1"
_symmetry_group_IT_number 2
_symmetry_cell_setting 'triclinic'
loop_
_space_group_symop_operation_xyz
x,y,z
-x,-y,-z
loop_
_atom_site_type_symbol
_atom_site_label
_atom_site_fract_x
_atom_site_fract_y
_atom_site_fract_z
Si Si1 0.583225 0.560511 0.744214
Si Si2 0.507215 0.858274 0.673861
Si Si3 0.211456 0.487573 0.923401
Si Si4 0.524712 0.321894 0.669476
Si Si5 0.951058 0.973008 0.371560
Si Si6 0.597977 0.140410 0.555039
O O1 0.322023 0.449155 0.916267
O O2 0.668333 0.492748 0.617996
O O3 0.830134 0.787454 0.459897
O O4 0.500000 0.500000 0.000000
O O5 0.260539 0.627934 0.949691
O O6 0.562653 0.917135 0.436563
O O7 0.756397 0.954629 0.512490
O O8 0.460466 0.948674 0.778567
O O9 0.383435 0.597381 0.596142
O O10 0.902032 0.292586 0.206927
O O11 0.592936 0.236413 0.662108
O O12 0.211449 0.149838 0.005935
O O13 0.000000 0.000000 0.500000
#
# Coordination Sequence:
#
# PCOD8010780 Si02
#       6
#     2   2   2   2   2   2
#     4  11  23  40  64  88 124 165 203 246 307 357
#     4   9  20  37  61  88 121 159 198 238 314 347
#     4  10  22  39  65  91 125 155 202 256 297 361
#     4  11  22  38  63  96 117 157 209 246 308 353
#     4  11  23  40  63  84 126 163 202 254 295 358
#     4  10  21  38  63  93 126 151 197 258 302 362
#
# _framework density 21.615938
#
# number of rings (size 3 to 8) (size 9 to 14) (size 15 to 20)
#    0.000    1.667    1.667    3.500    0.000   11.333 
#    0.000    1.667    3.667    0.000    0.000    0.000 
#    0.000    0.000    0.000    0.000    0.000    0.000 
#
# Total GULP energy -148703.793878 kJ/mol
# GULP energy per Si atom -12391.982823 kJ/mol
# Density = 2.156674 g / cm^3
# Si number density = 21.615938 Si / 1000 Ang^3
#
#
#
# Elastic Constant Matrix: (Units=GPa)
#
#
# Indices 1 2 3 4 5 6 
#
# 1 93.9838 54.2699 35.3364 11.3586 -6.2711 4.1522
# 2 54.2699 181.3244 24.2903 15.0753 -9.6701 -30.2172
# 3 35.3364 24.2903 41.7593 -3.5844 1.6638 11.5853
# 4 11.3586 15.0753 -3.5844 29.5659 0.4791 -7.8345
# 5 -6.2711 -9.6701 1.6638 0.4791 19.0990 -5.4511
# 6 4.1522 -30.2172 11.5853 -7.8345 -5.4511 36.6316
#
#
#
# Elastic Compliance Matrix: (Units=1/GPa)
#
#
# Indices 1 2 3 4 5 6 
#
# 1 0.019678 -0.002754 -0.015954 -0.008261 0.006595 -0.000242
# 2 -0.002754 0.009732 -0.006944 -0.001877 0.007903 0.011311
# 3 -0.015954 -0.006944 0.048660 0.010614 -0.018927 -0.019856
# 4 -0.008261 -0.001877 0.010614 0.040373 -0.004458 0.004003
# 5 0.006595 0.007903 -0.018927 -0.004458 0.066181 0.020653
# 6 -0.000242 0.011311 -0.019856 0.004003 0.020653 0.046866
#
#
# Mechanical properties :
#
#
# Convention : Reuss Voigt Hill
#
# Bulk Modulus (GPa) = 37.36215 60.54008 48.95112
# Shear Modulus (GPa) = 17.13993 30.60402 23.87197
#
# Velocity S-wave (km/s) = 2.81896 3.76680 3.32681
# Velocity P-wave (km/s) = 5.28369 6.85466 6.11980
#
# Compressibility (1/GPa) = 0.02676505
#
# Stress axis : x y z
#
# Youngs Moduli (GPa) = 50.81787 102.75295 20.55080
#
# Poissons Ratio (x) = 0.28301 0.32787
# Poissons Ratio (y) = 0.13997 0.14271
# Poissons Ratio (z) = 0.81075 0.71354
#
# Static dielectric constant tensor:
#      x y z
#    x 3.913390 -0.470700 -0.103770 
#    y -0.470700 5.375650 -0.209250 
#    z -0.103770 -0.209250 3.557050 
# 
# 
# High freq. dielectric constant tensor:
#      x y z
#    x 1.841630 -0.021940 -0.010980 
#    y -0.021940 1.879800 -0.019010 
#    z -0.010980 -0.019010 1.810250 
# 
# From -- ./inp_files/149296.got.cif
#   From: 2010.06.25/outbox.cif.g09.slc.cpg/sg2_75_cif.got.tgz:149296.got - 2010.06.27 13:26:56.
