data_PCOD8010342
_publ_section_title
;
Structure prediction by ZEFSAII (Michael W. Deem and Ramdas Pophale) SiO2 
 PCOD8010342
Probable space group: P -1
;
_chemical_formula_sum "Si O2"
_cell_formula_units_Z 16
_cell_length_a 14.888198
_cell_length_b 8.743825
_cell_length_c 9.273352
_cell_angle_alpha 95.129538
_cell_angle_beta 56.639193
_cell_angle_gamma 60.806643
_cell_volume 767.058589
_symmetry_space_group_name_H-M "P -1"
_symmetry_group_IT_number 2
_symmetry_cell_setting 'triclinic'
loop_
_space_group_symop_operation_xyz
x,y,z
-x,-y,-z
loop_
_atom_site_type_symbol
_atom_site_label
_atom_site_fract_x
_atom_site_fract_y
_atom_site_fract_z
Si Si1 0.627445 0.214604 0.155698
Si Si2 0.413207 0.929398 0.098792
Si Si3 0.461442 0.861126 0.497579
Si Si4 0.610832 0.564033 0.091136
Si Si5 0.909736 0.451293 0.152670
Si Si6 0.917579 0.286454 0.842776
Si Si7 0.061694 0.033641 0.080874
Si Si8 0.213676 0.171240 0.553191
O O1 0.524438 0.245851 0.374237
O O2 0.573529 0.423047 0.152733
O O3 0.647275 0.073078 0.999107
O O4 0.773479 0.097254 0.099301
O O5 0.511893 0.705877 0.059139
O O6 0.284340 0.095535 0.328896
O O7 0.500000 0.000000 0.000000
O O8 0.579030 0.693624 0.270695
O O9 0.500000 0.000000 0.500000
O O10 0.304839 0.990531 0.574079
O O11 0.774978 0.438956 0.886718
O O12 0.790325 0.648519 0.368517
O O13 0.993557 0.265559 0.177558
O O14 0.860054 0.384797 0.062592
O O15 0.000000 0.500000 0.000000
O O16 0.053538 0.259915 0.678238
O O17 0.960901 0.065054 0.774403
O O18 0.000000 0.000000 0.000000
#
# Coordination Sequence:
#
# PCOD8010342 Si02
#       8
#     2   2   2   2   2   2   2   2
#     4  11  21  39  63  86 119 162 200 245 298 351
#     4  11  25  43  59  83 122 163 201 243 294 357
#     4  11  21  36  61  92 120 155 200 248 296 351
#     4  10  22  39  61  88 117 154 200 247 296 354
#     4   9  16  29  53  85 115 146 185 238 291 339
#     4   9  18  35  59  84 113 147 192 246 296 346
#     4   9  18  33  56  88 119 147 187 243 300 349
#     4  10  21  38  59  86 118 154 195 242 294 353
#
# _framework density 20.858903000000002
#
# number of rings (size 3 to 8) (size 9 to 14) (size 15 to 20)
#    0.000    2.000    0.000    5.250    0.000    3.000 
#    0.000   12.500    0.000    1.500    0.000    0.000 
#    0.000    0.000    0.000    0.000    0.000    0.000 
#
# Total GULP energy -198215.073323 kJ/mol
# GULP energy per Si atom -12388.442083 kJ/mol
# Density = 2.081143 g / cm^3
# Si number density = 20.858903 Si / 1000 Ang^3
#
#
#
# Elastic Constant Matrix: (Units=GPa)
#
#
# Indices 1 2 3 4 5 6 
#
# 1 84.8837 26.6810 38.1885 -4.3663 -7.7777 5.2528
# 2 26.6810 115.0773 34.1185 9.7863 -8.4521 8.8485
# 3 38.1885 34.1185 90.0234 1.2532 -4.8564 -4.8565
# 4 -4.3663 9.7863 1.2532 30.5541 -0.2723 -0.3509
# 5 -7.7777 -8.4521 -4.8564 -0.2723 31.8965 3.1778
# 6 5.2528 8.8485 -4.8565 -0.3509 3.1778 32.9862
#
#
#
# Elastic Compliance Matrix: (Units=1/GPa)
#
#
# Indices 1 2 3 4 5 6 
#
# 1 0.015634 -0.001627 -0.006078 0.002993 0.002799 -0.003186
# 2 -0.001627 0.010812 -0.003420 -0.003574 0.002256 -0.003400
# 3 -0.006078 -0.003420 0.015186 -0.000353 -0.000494 0.004165
# 4 0.002993 -0.003574 -0.000353 0.034324 -0.000058 0.000801
# 5 0.002799 0.002256 -0.000494 -0.000058 0.032984 -0.004302
# 6 -0.003186 -0.003400 0.004165 0.000801 -0.004302 0.032771
#
#
# Mechanical properties :
#
#
# Convention : Reuss Voigt Hill
#
# Bulk Modulus (GPa) = 51.59232 54.21783 52.90508
# Shear Modulus (GPa) = 29.33899 31.82045 30.57972
#
# Velocity S-wave (km/s) = 3.75446 3.91001 3.83303
# Velocity P-wave (km/s) = 6.60169 6.81420 6.70879
#
# Compressibility (1/GPa) = 0.01938273
#
# Stress axis : x y z
#
# Youngs Moduli (GPa) = 63.96226 92.49077 65.85209
#
# Poissons Ratio (x) = 0.15046 0.40026
# Poissons Ratio (y) = 0.10405 0.22519
# Poissons Ratio (z) = 0.38877 0.31628
#
# Static dielectric constant tensor:
#      x y z
#    x 3.788060 0.044930 0.084720 
#    y 0.044930 4.291650 0.109430 
#    z 0.084720 0.109430 3.590350 
# 
# 
# High freq. dielectric constant tensor:
#      x y z
#    x 1.817940 0.008180 -0.007120 
#    y 0.008180 1.826780 0.014790 
#    z -0.007120 0.014790 1.788510 
# 
# From -- ./inp_files/244035.got.cif
#   From: 2010.06.25/outbox.cif.g09.slc.cpg/sg2_123_cif.got.tgz:244035.got - 2010.06.27 13:26:56.
