data_PCOD8010308
_publ_section_title
;
Structure prediction by ZEFSAII (Michael W. Deem and Ramdas Pophale) SiO2 
 PCOD8010308
Probable space group: P -1
;
_chemical_formula_sum "Si O2"
_cell_formula_units_Z 16
_cell_length_a 12.044004
_cell_length_b 12.162588
_cell_length_c 11.041321
_cell_angle_alpha 67.521363
_cell_angle_beta 93.728457
_cell_angle_gamma 144.197094
_cell_volume 779.280456
_symmetry_space_group_name_H-M "P -1"
_symmetry_group_IT_number 2
_symmetry_cell_setting 'triclinic'
loop_
_space_group_symop_operation_xyz
x,y,z
-x,-y,-z
loop_
_atom_site_type_symbol
_atom_site_label
_atom_site_fract_x
_atom_site_fract_y
_atom_site_fract_z
Si Si1 0.224777 0.042994 0.537991
Si Si2 0.390797 0.417466 0.156128
Si Si3 0.694230 0.306783 0.085259
Si Si4 0.035172 0.076908 0.631074
Si Si5 0.600623 0.845066 0.049938
Si Si6 0.015683 0.134857 0.864171
Si Si7 0.157784 0.820415 0.849845
Si Si8 0.413750 0.639645 0.727067
O O1 0.057112 0.903304 0.471941
O O2 0.459030 0.200612 0.451510
O O3 0.137558 0.869098 0.701390
O O4 0.229050 0.180823 0.538836
O O5 0.135270 0.181604 0.231073
O O6 0.464621 0.600495 0.158191
O O7 0.447275 0.352410 0.259983
O O8 0.500000 0.500000 0.000000
O O9 0.720020 0.191484 0.158566
O O10 0.559809 0.241412 0.213639
O O11 0.555876 0.197834 0.998720
O O12 0.919954 0.579432 0.980681
O O13 0.111237 0.202078 0.709414
O O14 0.705883 0.979289 0.127545
O O15 0.784010 0.982901 0.906756
O O16 0.168775 0.377524 0.822811
O O17 0.000000 0.000000 0.000000
#
# Coordination Sequence:
#
# PCOD8010308 Si02
#       8
#     2   2   2   2   2   2   2   2
#     4  10  23  41  58  87 132 168 200 254 320 376
#     4  11  18  33  61  95 118 159 199 248 316 366
#     4  11  24  43  69  89 122 161 225 266 304 367
#     4  10  21  38  58  92 133 165 201 247 319 389
#     4  12  21  37  67  95 126 158 208 268 310 367
#     4  12  21  35  64  97 131 162 208 259 309 376
#     4  11  25  44  64  93 122 169 212 267 311 363
#     4  11  22  38  59  93 124 165 204 251 315 376
#
# _framework density 20.531760999999999
#
# number of rings (size 3 to 8) (size 9 to 14) (size 15 to 20)
#    0.000    1.000    5.000    2.625    0.000    1.000 
#    6.750    0.000    0.000    1.500    0.000    0.000 
#    0.000    0.000    0.000    0.000    0.000    0.000 
#
# Total GULP energy -198213.464915 kJ/mol
# GULP energy per Si atom -12388.341557 kJ/mol
# Density = 2.048503 g / cm^3
# Si number density = 20.531761 Si / 1000 Ang^3
#
#
#
# Elastic Constant Matrix: (Units=GPa)
#
#
# Indices 1 2 3 4 5 6 
#
# 1 100.4144 21.1552 42.7005 3.8679 3.5860 2.7255
# 2 21.1552 81.0615 25.6879 9.5749 1.3994 -5.6505
# 3 42.7005 25.6879 86.0217 21.3946 -2.1772 -10.3404
# 4 3.8679 9.5749 21.3946 32.1087 4.4771 -1.7748
# 5 3.5860 1.3994 -2.1772 4.4771 27.4886 -2.7425
# 6 2.7255 -5.6505 -10.3404 -1.7748 -2.7425 25.5823
#
#
#
# Elastic Compliance Matrix: (Units=1/GPa)
#
#
# Indices 1 2 3 4 5 6 
#
# 1 0.013955 -0.001880 -0.008236 0.004583 -0.003653 -0.005304
# 2 -0.001880 0.014013 -0.002452 -0.002187 -0.000092 0.002143
# 3 -0.008236 -0.002452 0.020686 -0.012388 0.005698 0.008449
# 4 0.004583 -0.002187 -0.012388 0.040453 -0.008463 -0.004079
# 5 -0.003653 -0.000092 0.005698 -0.008463 0.039318 0.006300
# 6 -0.005304 0.002143 0.008449 -0.004079 0.006300 0.043935
#
#
# Mechanical properties :
#
#
# Convention : Reuss Voigt Hill
#
# Bulk Modulus (GPa) = 42.51997 49.62055 46.07026
# Shear Modulus (GPa) = 24.35028 28.89952 26.62490
#
# Velocity S-wave (km/s) = 3.44754 3.75581 3.60497
# Velocity P-wave (km/s) = 6.04994 6.55959 6.30991
#
# Compressibility (1/GPa) = 0.02351836
#
# Stress axis : x y z
#
# Youngs Moduli (GPa) = 71.65960 71.36044 48.34150
#
# Poissons Ratio (x) = 0.13417 0.39812
# Poissons Ratio (y) = 0.13473 0.11854
# Poissons Ratio (z) = 0.59016 0.17499
#
# Static dielectric constant tensor:
#      x y z
#    x 4.689130 0.884250 0.322540 
#    y 0.884250 4.461350 0.171520 
#    z 0.322540 0.171520 4.463430 
# 
# 
# High freq. dielectric constant tensor:
#      x y z
#    x 1.797450 0.006810 -0.018380 
#    y 0.006810 1.791380 0.005410 
#    z -0.018380 0.005410 1.803460 
# 
# From -- ./inp_files/425653.got.cif
#   From: 2010.06.25/outbox.cif.g09.slc.cpg/sg2_213_cif.got.tgz:425653.got - 2010.06.27 13:26:56.
