data_PCOD8010791
_publ_section_title
;
Structure prediction by ZEFSAII (Michael W. Deem and Ramdas Pophale) SiO2 
 PCOD8010791
Probable space group: P -1
;
_chemical_formula_sum "Si O2"
_cell_formula_units_Z 16
_cell_length_a 9.334980
_cell_length_b 8.787314
_cell_length_c 10.740813
_cell_angle_alpha 103.212894
_cell_angle_beta 112.003730
_cell_angle_gamma 71.187075
_cell_volume 767.394921
_symmetry_space_group_name_H-M "P -1"
_symmetry_group_IT_number 2
_symmetry_cell_setting 'triclinic'
loop_
_space_group_symop_operation_xyz
x,y,z
-x,-y,-z
loop_
_atom_site_type_symbol
_atom_site_label
_atom_site_fract_x
_atom_site_fract_y
_atom_site_fract_z
Si Si1 0.126341 0.038224 0.703236
Si Si2 0.672944 0.416012 0.983320
Si Si3 0.949780 0.133668 0.114520
Si Si4 0.732767 0.550732 0.417690
Si Si5 0.627626 0.430321 0.689230
Si Si6 0.847772 0.624719 0.711460
Si Si7 0.833776 0.634950 0.204357
Si Si8 0.180239 0.771837 0.499565
O O1 0.209620 0.173866 0.807786
O O2 0.994609 0.140489 0.587019
O O3 0.050537 0.957988 0.773952
O O4 0.243755 0.899022 0.631177
O O5 0.772609 0.253971 0.057544
O O6 0.773443 0.549746 0.051899
O O7 0.500000 0.500000 0.000000
O O8 0.662389 0.364166 0.828165
O O9 0.085594 0.233400 0.181845
O O10 0.000000 0.000000 0.000000
O O11 0.559532 0.527199 0.391902
O O12 0.792172 0.666706 0.557495
O O13 0.735127 0.611741 0.290581
O O14 0.844486 0.369785 0.442314
O O15 0.694316 0.590532 0.726088
O O16 0.705643 0.288032 0.591704
O O17 0.978753 0.449520 0.728791
#
# Coordination Sequence:
#
# PCOD8010791 Si02
#       8
#     2   2   2   2   2   2   2   2
#     4  11  23  38  63  98 132 163 213 273 332 374
#     4  11  24  45  67  92 133 181 221 267 328 397
#     4  11  26  43  67  97 135 174 223 276 327 387
#     4  11  21  40  66  97 129 163 219 266 328 385
#     4  11  22  41  69  94 130 167 221 269 321 386
#     4  10  22  38  68  96 125 169 223 269 314 396
#     4  11  22  39  68  96 124 175 224 265 318 398
#     4  10  21  38  63  94 131 163 205 272 329 375
#
# _framework density 20.849761999999998
#
# number of rings (size 3 to 8) (size 9 to 14) (size 15 to 20)
#    0.000    1.250    3.750    4.125    5.250    1.000 
#    0.000    3.750    0.000    0.000    0.000    0.000 
#    0.000    0.000    0.000    0.000    0.000    0.000 
#
# Total GULP energy -198283.907109 kJ/mol
# GULP energy per Si atom -12392.744194 kJ/mol
# Density = 2.080231 g / cm^3
# Si number density = 20.849762 Si / 1000 Ang^3
#
#
#
# Elastic Constant Matrix: (Units=GPa)
#
#
# Indices 1 2 3 4 5 6 
#
# 1 92.8131 33.1451 25.9417 10.6104 3.9050 2.9085
# 2 33.1451 109.1137 42.9617 24.5998 1.8903 13.9129
# 3 25.9417 42.9617 101.9645 23.9853 1.3669 2.1462
# 4 10.6104 24.5998 23.9853 34.8982 -1.9481 0.6148
# 5 3.9050 1.8903 1.3669 -1.9481 34.5606 -1.3159
# 6 2.9085 13.9129 2.1462 0.6148 -1.3159 23.2498
#
#
#
# Elastic Compliance Matrix: (Units=1/GPa)
#
#
# Indices 1 2 3 4 5 6 
#
# 1 0.012435 -0.002982 -0.001773 -0.000532 -0.001189 0.000339
# 2 -0.002982 0.013820 -0.003382 -0.006432 -0.000932 -0.007468
# 3 -0.001773 -0.003382 0.013106 -0.006130 -0.000434 0.001173
# 4 -0.000532 -0.006432 -0.006130 0.037662 0.002916 0.003650
# 5 -0.001189 -0.000932 -0.000434 0.002916 0.029390 0.002333
# 6 0.000339 -0.007468 0.001173 0.003650 0.002333 0.047365
#
#
# Mechanical properties :
#
#
# Convention : Reuss Voigt Hill
#
# Bulk Modulus (GPa) = 43.31253 56.44316 49.87785
# Shear Modulus (GPa) = 28.12957 31.99790 30.06373
#
# Velocity S-wave (km/s) = 3.67707 3.92176 3.80138
# Velocity P-wave (km/s) = 6.23270 6.90196 6.57585
#
# Compressibility (1/GPa) = 0.02308801
#
# Stress axis : x y z
#
# Youngs Moduli (GPa) = 80.41753 72.35667 76.29815
#
# Poissons Ratio (x) = 0.21575 0.13530
# Poissons Ratio (y) = 0.23979 0.25803
# Poissons Ratio (z) = 0.14261 0.24470
#
# Static dielectric constant tensor:
#      x y z
#    x 3.607370 -0.013780 0.089970 
#    y -0.013780 4.018010 0.257380 
#    z 0.089970 0.257380 4.120330 
# 
# 
# High freq. dielectric constant tensor:
#      x y z
#    x 1.800040 0.003170 -0.000380 
#    y 0.003170 1.804170 0.005410 
#    z -0.000380 0.005410 1.836380 
# 
# From -- ./inp_files/380070.got.cif
#   From: 2010.06.25/outbox.cif.g09.slc.cpg/sg2_191_cif.got.tgz:380070.got - 2010.06.27 13:26:56.
