data_PCOD8010429
_publ_section_title
;
Structure prediction by ZEFSAII (Michael W. Deem and Ramdas Pophale) SiO2 
 PCOD8010429
Probable space group: P -1
;
_chemical_formula_sum "Si O2"
_cell_formula_units_Z 16
_cell_length_a 9.345470
_cell_length_b 8.987239
_cell_length_c 14.156587
_cell_angle_alpha 88.385473
_cell_angle_beta 130.654939
_cell_angle_gamma 117.638818
_cell_volume 729.652228
_symmetry_space_group_name_H-M "P -1"
_symmetry_group_IT_number 2
_symmetry_cell_setting 'triclinic'
loop_
_space_group_symop_operation_xyz
x,y,z
-x,-y,-z
loop_
_atom_site_type_symbol
_atom_site_label
_atom_site_fract_x
_atom_site_fract_y
_atom_site_fract_z
Si Si1 0.765244 0.805673 0.879957
Si Si2 0.574493 0.227644 0.598811
Si Si3 0.526747 0.135648 0.377319
Si Si4 0.561695 0.868483 0.144136
Si Si5 0.081735 0.665212 0.599253
Si Si6 0.068158 0.103581 0.429921
Si Si7 0.231940 0.542042 0.143482
Si Si8 0.552834 0.206385 0.110583
O O1 0.652044 0.825233 0.738384
O O2 0.792553 0.644650 0.874860
O O3 0.603418 0.748108 0.902336
O O4 0.000000 0.000000 0.000000
O O5 0.652509 0.270814 0.520994
O O6 0.298612 0.140447 0.483763
O O7 0.733519 0.406071 0.730680
O O8 0.614757 0.076445 0.650348
O O9 0.703280 0.162984 0.370847
O O10 0.453955 0.719922 0.184465
O O11 0.475640 0.000360 0.105592
O O12 0.467786 0.758217 0.007663
O O13 0.843600 0.987328 0.265936
O O14 0.180106 0.648758 0.741510
O O15 0.000000 0.500000 0.500000
O O16 0.885918 0.699016 0.533223
O O17 0.000000 0.000000 0.500000
O O18 0.000000 0.500000 0.000000
#
# Coordination Sequence:
#
# PCOD8010429 Si02
#       8
#     2   2   2   2   2   2   2   2
#     4  11  24  42  63  89 125 168 210 259 320 372
#     4  11  23  42  65  95 127 164 216 259 327 376
#     4  10  23  42  63  91 127 167 206 266 315 380
#     4  10  21  41  65  93 124 162 215 255 320 372
#     4  10  21  38  60  88 130 164 204 254 314 370
#     4  11  20  37  65  92 123 165 202 263 312 381
#     4  12  25  42  64  90 129 169 212 263 311 384
#     4   9  21  40  63  91 122 164 206 261 308 374
#
# _framework density 21.928256000000001
#
# number of rings (size 3 to 8) (size 9 to 14) (size 15 to 20)
#    0.000    1.500    2.500    3.000    5.250    2.000 
#    2.250    0.000    0.000    0.000    0.000    0.000 
#    0.000    0.000    0.000    0.000    0.000    0.000 
#
# Total GULP energy -198325.521934 kJ/mol
# GULP energy per Si atom -12395.345121 kJ/mol
# Density = 2.187835 g / cm^3
# Si number density = 21.928256 Si / 1000 Ang^3
#
#
#
# Elastic Constant Matrix: (Units=GPa)
#
#
# Indices 1 2 3 4 5 6 
#
# 1 54.2886 6.1524 26.9895 -8.5625 -4.7050 -25.7392
# 2 6.1524 95.2045 32.5749 4.2873 1.4858 -33.9372
# 3 26.9895 32.5749 130.6269 3.8173 -18.6993 -20.8264
# 4 -8.5625 4.2873 3.8173 36.0985 -5.1672 -1.3424
# 5 -4.7050 1.4858 -18.6993 -5.1672 44.0982 0.1657
# 6 -25.7392 -33.9372 -20.8264 -1.3424 0.1657 33.4557
#
#
#
# Elastic Compliance Matrix: (Units=1/GPa)
#
#
# Indices 1 2 3 4 5 6 
#
# 1 0.042328 0.014258 -0.005140 0.010962 0.002974 0.044254
# 2 0.014258 0.021719 -0.003592 0.002246 -0.000586 0.030859
# 3 -0.005140 -0.003592 0.009936 -0.001379 0.003630 -0.001486
# 4 0.010962 0.002246 -0.001379 0.031183 0.004121 0.011084
# 5 0.002974 -0.000586 0.003630 0.004121 0.025021 0.003995
# 6 0.044254 0.030859 -0.001486 0.011084 0.003995 0.094740
#
#
# Mechanical properties :
#
#
# Convention : Reuss Voigt Hill
#
# Bulk Modulus (GPa) = 11.75972 45.72818 28.74395
# Shear Modulus (GPa) = 20.64238 37.02401 28.83320
#
# Velocity S-wave (km/s) = 3.07149 4.11349 3.63007
# Velocity P-wave (km/s) = 4.23712 6.59241 5.54135
#
# Compressibility (1/GPa) = 0.08503606
#
# Stress axis : x y z
#
# Youngs Moduli (GPa) = 23.62508 46.04177 100.64298
#
# Poissons Ratio (x) = -0.65648 0.51733
# Poissons Ratio (y) = -0.33686 0.36150
# Poissons Ratio (z) = 0.12144 0.16538
#
# Static dielectric constant tensor:
#      x y z
#    x 3.315640 -0.331900 -0.321890 
#    y -0.331900 3.594970 -0.176470 
#    z -0.321890 -0.176470 4.252830 
# 
# 
# High freq. dielectric constant tensor:
#      x y z
#    x 1.851670 -0.018480 -0.012820 
#    y -0.018480 1.851230 -0.004780 
#    z -0.012820 -0.004780 1.882490 
# 
# From -- ./inp_files/495299.got.cif
#   From: 2010.06.25/outbox.cif.g09.slc.cpg/sg2_248_cif.got.tgz:495299.got - 2010.06.27 13:26:56.
