data_PCOD8010350
_publ_section_title
;
Structure prediction by ZEFSAII (Michael W. Deem and Ramdas Pophale) SiO2 
 PCOD8010350
Probable space group: P -1
;
_chemical_formula_sum "Si O2"
_cell_formula_units_Z 16
_cell_length_a 6.163011
_cell_length_b 8.600401
_cell_length_c 17.810413
_cell_angle_alpha 126.790667
_cell_angle_beta 82.474031
_cell_angle_gamma 91.363206
_cell_volume 747.715964
_symmetry_space_group_name_H-M "P -1"
_symmetry_group_IT_number 2
_symmetry_cell_setting 'triclinic'
loop_
_space_group_symop_operation_xyz
x,y,z
-x,-y,-z
loop_
_atom_site_type_symbol
_atom_site_label
_atom_site_fract_x
_atom_site_fract_y
_atom_site_fract_z
Si Si1 0.210408 0.475119 0.562749
Si Si2 0.780580 0.600162 0.077787
Si Si3 0.127471 0.793311 0.545714
Si Si4 0.816337 0.781206 0.289872
Si Si5 0.443683 0.669406 0.374152
Si Si6 0.174133 0.086000 0.072220
Si Si7 0.490448 0.761502 0.010885
Si Si8 0.086686 0.449693 0.271741
O O1 0.271587 0.635357 0.544879
O O2 0.411141 0.421961 0.591992
O O3 0.117414 0.281358 0.473872
O O4 0.010951 0.576060 0.649050
O O5 0.831551 0.717085 0.184015
O O6 0.652519 0.754507 0.072827
O O7 0.610257 0.442007 0.060101
O O8 0.000000 0.500000 0.000000
O O9 0.249524 0.807039 0.462762
O O10 0.100722 0.003320 0.646403
O O11 0.574296 0.787291 0.340391
O O12 0.972407 0.631842 0.285927
O O13 0.341531 0.492271 0.282659
O O14 0.044579 0.251450 0.173975
O O15 0.285636 0.921907 0.075335
O O16 0.367408 0.188808 0.052371
O O17 0.000000 0.000000 0.000000
#
# Coordination Sequence:
#
# PCOD8010350 Si02
#       8
#     2   2   2   2   2   2   2   2
#     4   9  21  39  59  85 119 152 191 242 295 356
#     4  11  23  42  61  88 127 160 198 255 304 350
#     4  10  21  38  59  87 117 150 193 243 297 352
#     4  11  23  37  60  87 116 155 199 241 296 358
#     4  10  21  39  60  83 116 154 193 245 294 348
#     4  11  22  40  63  88 121 161 203 252 301 353
#     4  10  23  39  62  89 118 160 208 246 299 365
#     4  10  22  38  58  85 117 155 197 240 294 355
#
# _framework density 21.398498
#
# number of rings (size 3 to 8) (size 9 to 14) (size 15 to 20)
#    0.000    1.750    0.000    3.750    0.000   12.500 
#    0.000    0.000    0.000    0.000    0.000    0.000 
#    0.000    0.000    0.000    0.000    0.000    0.000 
#
# Total GULP energy -198364.938938 kJ/mol
# GULP energy per Si atom -12397.808684 kJ/mol
# Density = 2.134979 g / cm^3
# Si number density = 21.398498 Si / 1000 Ang^3
#
#
#
# Elastic Constant Matrix: (Units=GPa)
#
#
# Indices 1 2 3 4 5 6 
#
# 1 88.2853 30.5528 42.5334 3.1754 12.8277 -8.5036
# 2 30.5528 93.7583 52.4901 4.3349 1.0011 -9.0232
# 3 42.5334 52.4901 159.6631 11.3250 15.5884 4.3382
# 4 3.1754 4.3349 11.3250 33.4362 0.9558 2.4803
# 5 12.8277 1.0011 15.5884 0.9558 30.4893 -3.3260
# 6 -8.5036 -9.0232 4.3382 2.4803 -3.3260 32.6756
#
#
#
# Elastic Compliance Matrix: (Units=1/GPa)
#
#
# Indices 1 2 3 4 5 6 
#
# 1 0.014491 -0.002985 -0.002511 -0.000224 -0.004397 0.002850
# 2 -0.002985 0.014484 -0.004385 -0.000521 0.003497 0.004201
# 3 -0.002511 -0.004385 0.008955 -0.001877 -0.003678 -0.003285
# 4 -0.000224 -0.000521 -0.001877 0.030808 -0.000146 -0.002306
# 5 -0.004397 0.003497 -0.003678 -0.000146 0.036863 0.004073
# 6 0.002850 0.004201 -0.003285 -0.002306 0.004073 0.033531
#
#
# Mechanical properties :
#
#
# Convention : Reuss Voigt Hill
#
# Bulk Modulus (GPa) = 55.04108 65.87325 60.45716
# Shear Modulus (GPa) = 30.31196 33.72893 32.02044
#
# Velocity S-wave (km/s) = 3.76779 3.97448 3.87251
# Velocity P-wave (km/s) = 6.68626 7.20506 6.95050
#
# Compressibility (1/GPa) = 0.01816825
#
# Stress axis : x y z
#
# Youngs Moduli (GPa) = 69.00765 69.03964 111.66439
#
# Poissons Ratio (x) = 0.20606 0.28043
# Poissons Ratio (y) = 0.20596 0.48969
# Poissons Ratio (z) = 0.17331 0.30276
#
# Static dielectric constant tensor:
#      x y z
#    x 4.043690 0.097430 0.046150 
#    y 0.097430 3.963030 -0.102460 
#    z 0.046150 -0.102460 3.820540 
# 
# 
# High freq. dielectric constant tensor:
#      x y z
#    x 1.846900 0.004890 0.011370 
#    y 0.004890 1.839500 -0.007640 
#    z 0.011370 -0.007640 1.835210 
# 
# From -- ./inp_files/37282.got.cif
#   From: 2010.06.25/outbox.cif.g09.slc.cpg/sg2_19_cif.got.tgz:37282.got - 2010.06.27 13:26:56.
