data_PCOD8010712
_publ_section_title
;
Structure prediction by ZEFSAII (Michael W. Deem and Ramdas Pophale) SiO2 
 PCOD8010712
Probable space group: P -1
;
_chemical_formula_sum "Si O2"
_cell_formula_units_Z 14
_cell_length_a 8.992244
_cell_length_b 14.531980
_cell_length_c 13.937356
_cell_angle_alpha 151.320756
_cell_angle_beta 52.193894
_cell_angle_gamma 108.772864
_cell_volume 567.594686
_symmetry_space_group_name_H-M "P -1"
_symmetry_group_IT_number 2
_symmetry_cell_setting 'triclinic'
loop_
_space_group_symop_operation_xyz
x,y,z
-x,-y,-z
loop_
_atom_site_type_symbol
_atom_site_label
_atom_site_fract_x
_atom_site_fract_y
_atom_site_fract_z
Si Si1 0.311300 0.161421 0.357114
Si Si2 0.569673 0.795119 0.076141
Si Si3 0.673361 0.065297 0.515290
Si Si4 0.150988 0.002216 0.808970
Si Si5 0.343109 0.811833 0.878901
Si Si6 0.912767 0.431372 0.059516
Si Si7 0.566767 0.460397 0.635050
O O1 0.518906 0.173803 0.249408
O O2 0.099612 0.424095 0.708140
O O3 0.379199 0.030892 0.312644
O O4 0.247344 0.035371 0.191137
O O5 0.443229 0.766324 0.191842
O O6 0.778781 0.815677 0.038681
O O7 0.661769 0.580192 0.771142
O O8 0.500000 0.000000 0.500000
O O9 0.718789 0.160867 0.487580
O O10 0.925195 0.840779 0.233998
O O11 0.232395 0.817380 0.695349
O O12 0.877422 0.166088 0.056589
O O13 0.511177 0.566201 0.645097
O O14 0.664291 0.492820 0.186625
O O15 0.000000 0.500000 0.000000
#
# Coordination Sequence:
#
# PCOD8010712 Si02
#       7
#     2   2   2   2   2   2   2
#     4  10  22  44  68 100 135 174 226 280 326 398
#     4  10  22  42  66  95 140 172 222 280 326 397
#     4  10  21  38  62  98 133 168 222 273 329 392
#     4  11  22  44  65  98 135 174 227 274 329 397
#     4  10  24  44  69  98 136 178 225 273 332 395
#     4  12  21  40  70  98 130 176 219 271 336 393
#     4  11  24  43  67 101 133 178 224 266 340 396
#
# _framework density 24.665489000000001
#
# number of rings (size 3 to 8) (size 9 to 14) (size 15 to 20)
#    0.000    1.429    4.286    0.857    0.000    5.714 
#    0.000    7.857    0.000    0.000    0.000    0.000 
#    0.000    0.000    0.000    0.000    0.000    0.000 
#
# Total GULP energy -173529.711045 kJ/mol
# GULP energy per Si atom -12394.979360 kJ/mol
# Density = 2.460935 g / cm^3
# Si number density = 24.665489 Si / 1000 Ang^3
#
#
#
# Elastic Constant Matrix: (Units=GPa)
#
#
# Indices 1 2 3 4 5 6 
#
# 1 97.9850 32.5619 37.5472 -3.0112 -13.3249 -2.8013
# 2 32.5619 100.6126 12.7073 -7.0960 6.8801 -8.6427
# 3 37.5472 12.7073 70.8428 3.2427 -12.6725 -1.7367
# 4 -3.0112 -7.0960 3.2427 34.5026 -5.5808 4.7607
# 5 -13.3249 6.8801 -12.6725 -5.5808 30.7239 -5.3332
# 6 -2.8013 -8.6427 -1.7367 4.7607 -5.3332 35.4808
#
#
#
# Elastic Compliance Matrix: (Units=1/GPa)
#
#
# Indices 1 2 3 4 5 6 
#
# 1 0.014744 -0.004181 -0.006214 0.001793 0.005158 0.000376
# 2 -0.004181 0.011905 -0.000692 0.001223 -0.004241 0.001734
# 3 -0.006214 -0.000692 0.018540 -0.001790 0.004997 0.001240
# 4 0.001793 0.001223 -0.001790 0.030761 0.004824 -0.003050
# 5 0.005158 -0.004241 0.004997 0.004824 0.039525 0.004913
# 6 0.000376 0.001734 0.001240 -0.003050 0.004913 0.029845
#
#
# Mechanical properties :
#
#
# Convention : Reuss Voigt Hill
#
# Bulk Modulus (GPa) = 43.45115 48.34145 45.89630
# Shear Modulus (GPa) = 28.54478 32.58307 30.56392
#
# Velocity S-wave (km/s) = 3.40557 3.63850 3.52396
# Velocity P-wave (km/s) = 5.75485 6.10679 5.93343
#
# Compressibility (1/GPa) = 0.02301435
#
# Stress axis : x y z
#
# Youngs Moduli (GPa) = 67.82600 84.00011 53.93831
#
# Poissons Ratio (x) = 0.35117 0.33520
# Poissons Ratio (y) = 0.28355 0.03731
# Poissons Ratio (z) = 0.42150 0.05811
#
# Static dielectric constant tensor:
#      x y z
#    x 4.852420 -0.462220 0.243770 
#    y -0.462220 5.068370 -0.029910 
#    z 0.243770 -0.029910 4.437150 
# 
# 
# High freq. dielectric constant tensor:
#      x y z
#    x 1.982230 -0.012910 0.007280 
#    y -0.012910 1.993960 -0.010490 
#    z 0.007280 -0.010490 1.966820 
# 
# From -- ./inp_files/341186.got.cif
#   From: 2010.06.25/outbox.cif.g09.slc.cpg/sg2_171_cif.got.tgz:341186.got - 2010.06.27 13:26:56.
