data_PCOD8010430
_publ_section_title
;
Structure prediction by ZEFSAII (Michael W. Deem and Ramdas Pophale) SiO2 
 PCOD8010430
Probable space group: P -1
;
_chemical_formula_sum "Si O2"
_cell_formula_units_Z 14
_cell_length_a 14.663165
_cell_length_b 15.246325
_cell_length_c 8.714203
_cell_angle_alpha 59.060012
_cell_angle_beta 100.568507
_cell_angle_gamma 150.487254
_cell_volume 642.646869
_symmetry_space_group_name_H-M "P -1"
_symmetry_group_IT_number 2
_symmetry_cell_setting 'triclinic'
loop_
_space_group_symop_operation_xyz
x,y,z
-x,-y,-z
loop_
_atom_site_type_symbol
_atom_site_label
_atom_site_fract_x
_atom_site_fract_y
_atom_site_fract_z
Si Si1 0.297258 0.239475 0.265391
Si Si2 0.745180 0.487225 0.541099
Si Si3 0.045692 0.452167 0.218369
Si Si4 0.285297 0.711857 0.747839
Si Si5 0.419561 0.491589 0.343829
Si Si6 0.095124 0.998465 0.115656
Si Si7 0.432089 0.150092 0.473438
O O1 0.239475 0.247794 0.392869
O O2 0.397393 0.232952 0.356065
O O3 0.078395 0.003042 0.291772
O O4 0.500000 0.500000 0.000000
O O5 0.689068 0.513272 0.629723
O O6 0.516510 0.222319 0.610841
O O7 0.855560 0.498682 0.641770
O O8 0.938756 0.739250 0.263499
O O9 0.959485 0.480352 0.209189
O O10 0.815930 0.159832 0.344344
O O11 0.256302 0.667903 0.962468
O O12 0.348902 0.667756 0.730010
O O13 0.500000 0.000000 0.500000
O O14 0.500000 0.500000 0.500000
O O15 0.640353 0.754397 0.076045
O O16 0.000000 0.000000 0.000000
#
# Coordination Sequence:
#
# PCOD8010430 Si02
#       7
#     2   2   2   2   2   2   2
#     4  10  21  38  60  88 132 172 212 257 310 365
#     4  12  24  39  63  94 129 168 213 260 309 380
#     4  10  23  44  67  96 121 164 214 259 327 380
#     4   9  22  45  71  91 127 159 205 273 323 380
#     4  11  22  39  56  87 130 171 216 261 300 368
#     4  11  22  40  58  88 130 173 217 260 307 367
#     4  11  22  42  63  95 129 165 211 261 316 375
#
# _framework density 21.784903
#
# number of rings (size 3 to 8) (size 9 to 14) (size 15 to 20)
#    0.000    1.429    4.286    0.857    4.000    2.286 
#    2.571    6.429    0.000    0.000    0.000    0.000 
#    0.000    0.000    0.000    0.000    0.000    0.000 
#
# Total GULP energy -173479.007972 kJ/mol
# GULP energy per Si atom -12391.357712 kJ/mol
# Density = 2.173532 g / cm^3
# Si number density = 21.784903 Si / 1000 Ang^3
#
#
#
# Elastic Constant Matrix: (Units=GPa)
#
#
# Indices 1 2 3 4 5 6 
#
# 1 92.5431 10.7000 7.2407 21.1796 -9.1793 4.8928
# 2 10.7000 123.9823 12.1744 19.5924 3.3266 14.0511
# 3 7.2407 12.1744 93.1821 7.9812 -3.7770 4.9449
# 4 21.1796 19.5924 7.9812 31.0376 4.9767 8.1495
# 5 -9.1793 3.3266 -3.7770 4.9767 37.9315 17.2169
# 6 4.8928 14.0511 4.9449 8.1495 17.2169 31.0712
#
#
#
# Elastic Compliance Matrix: (Units=1/GPa)
#
#
# Indices 1 2 3 4 5 6 
#
# 1 0.013768 0.000566 0.000120 -0.009914 0.006044 -0.003192
# 2 0.000566 0.009300 -0.000531 -0.005413 0.001664 -0.003713
# 3 0.000120 -0.000531 0.011230 -0.002429 0.002584 -0.002361
# 4 -0.009914 -0.005413 -0.002429 0.045069 -0.006292 -0.003939
# 5 0.006044 0.001664 0.002584 -0.006292 0.038710 -0.021914
# 6 -0.003192 -0.003713 -0.002361 -0.003939 -0.021914 0.047918
#
#
# Mechanical properties :
#
#
# Convention : Reuss Voigt Hill
#
# Bulk Modulus (GPa) = 28.89482 41.10421 34.99951
# Shear Modulus (GPa) = 28.21343 38.64754 33.43048
#
# Velocity S-wave (km/s) = 3.60264 4.21652 3.92161
# Velocity P-wave (km/s) = 5.53153 6.52798 6.05031
#
# Compressibility (1/GPa) = 0.03460828
#
# Stress axis : x y z
#
# Youngs Moduli (GPa) = 72.63130 107.52197 89.04895
#
# Poissons Ratio (x) = -0.06089 -0.01066
# Poissons Ratio (y) = -0.04113 0.04729
# Poissons Ratio (z) = -0.00869 0.05710
#
# Static dielectric constant tensor:
#      x y z
#    x 6.387850 -0.164860 -0.034750 
#    y -0.164860 4.135270 -0.104870 
#    z -0.034750 -0.104870 4.308140 
# 
# 
# High freq. dielectric constant tensor:
#      x y z
#    x 1.860580 0.007630 -0.000570 
#    y 0.007630 1.845590 0.002630 
#    z -0.000570 0.002630 1.864700 
# 
# From -- ./inp_files/241513.got.cif
#   From: 2010.06.25/outbox.cif.g09.slc.cpg/sg2_121_cif.got.tgz:241513.got - 2010.06.27 13:26:56.
