data_PCOD8010303
_publ_section_title
;
Structure prediction by ZEFSAII (Michael W. Deem and Ramdas Pophale) SiO2 
 PCOD8010303
Probable space group: P -1
;
_chemical_formula_sum "Si O2"
_cell_formula_units_Z 16
_cell_length_a 14.417463
_cell_length_b 9.098188
_cell_length_c 12.092168
_cell_angle_alpha 107.979191
_cell_angle_beta 82.589213
_cell_angle_gamma 148.201084
_cell_volume 766.341071
_symmetry_space_group_name_H-M "P -1"
_symmetry_group_IT_number 2
_symmetry_cell_setting 'triclinic'
loop_
_space_group_symop_operation_xyz
x,y,z
-x,-y,-z
loop_
_atom_site_type_symbol
_atom_site_label
_atom_site_fract_x
_atom_site_fract_y
_atom_site_fract_z
Si Si1 0.414202 0.584561 0.115408
Si Si2 0.100121 0.185796 0.707463
Si Si3 0.722631 0.865238 0.402468
Si Si4 0.053690 0.179490 0.139606
Si Si5 0.101634 0.830819 0.335641
Si Si6 0.369798 0.254981 0.205317
Si Si7 0.572021 0.268968 0.084216
Si Si8 0.161996 0.829309 0.762463
O O1 0.277005 0.518481 0.176867
O O2 0.350730 0.326004 0.110954
O O3 0.630979 0.917776 0.173870
O O4 0.373355 0.539841 0.980905
O O5 0.193224 0.185087 0.621978
O O6 0.250802 0.507404 0.817811
O O7 0.001341 0.153338 0.625068
O O8 0.969972 0.937163 0.766175
O O9 0.510379 0.550911 0.329999
O O10 0.748315 0.978139 0.545817
O O11 0.832055 0.123646 0.357279
O O12 0.934188 0.167589 0.153608
O O13 0.000000 0.000000 0.000000
O O14 0.960743 0.492669 0.275887
O O15 0.183899 0.967923 0.232799
O O16 0.425745 0.158469 0.150498
O O17 0.500000 0.000000 0.000000
#
# Coordination Sequence:
#
# PCOD8010303 Si02
#       8
#     2   2   2   2   2   2   2   2
#     4  11  22  42  63  84 127 163 195 239 299 368
#     4  10  21  38  58  90 115 159 205 238 296 371
#     4   9  21  42  62  81 119 164 200 245 307 357
#     4  11  22  39  64  87 121 164 202 240 294 367
#     4  12  21  39  62  90 120 150 203 266 297 340
#     4  10  23  37  63  90 114 158 210 240 296 366
#     4  11  23  38  59  89 127 157 190 250 306 356
#     4  10  25  39  62  93 121 158 203 246 310 357
#
# _framework density 20.878432
#
# number of rings (size 3 to 8) (size 9 to 14) (size 15 to 20)
#    0.000    1.500    2.500    3.000    3.500    0.000 
#    0.000    1.875    0.000    3.000    0.000    0.000 
#    0.000    0.000    0.000    0.000    0.000    0.000 
#
# Total GULP energy -198258.600870 kJ/mol
# GULP energy per Si atom -12391.162554 kJ/mol
# Density = 2.083091 g / cm^3
# Si number density = 20.878432 Si / 1000 Ang^3
#
#
#
# Elastic Constant Matrix: (Units=GPa)
#
#
# Indices 1 2 3 4 5 6 
#
# 1 87.6827 41.0993 14.2933 3.7482 5.3398 9.1349
# 2 41.0993 112.3330 17.4655 7.6136 -10.2225 -1.9578
# 3 14.2933 17.4655 58.2934 1.5524 3.3339 -4.0073
# 4 3.7482 7.6136 1.5524 20.1108 -1.0764 3.2555
# 5 5.3398 -10.2225 3.3339 -1.0764 23.0676 -3.3606
# 6 9.1349 -1.9578 -4.0073 3.2555 -3.3606 36.4625
#
#
#
# Elastic Compliance Matrix: (Units=1/GPa)
#
#
# Indices 1 2 3 4 5 6 
#
# 1 0.015502 -0.006071 -0.001944 0.000016 -0.006732 -0.005045
# 2 -0.006071 0.012467 -0.002384 -0.003475 0.007540 0.002934
# 3 -0.001944 -0.002384 0.018688 -0.000695 -0.003019 0.002197
# 4 0.000016 -0.003475 -0.000695 0.051894 0.000268 -0.004875
# 5 -0.006732 0.007540 -0.003019 0.000268 0.049619 0.006309
# 6 -0.005045 0.002934 0.002197 -0.004875 0.006309 0.030105
#
#
# Mechanical properties :
#
#
# Convention : Reuss Voigt Hill
#
# Bulk Modulus (GPa) = 38.67174 44.89170 41.78172
# Shear Modulus (GPa) = 24.07401 28.29160 26.18281
#
# Velocity S-wave (km/s) = 3.39935 3.68511 3.54511
# Velocity P-wave (km/s) = 5.82838 6.29721 6.06733
#
# Compressibility (1/GPa) = 0.02585867
#
# Stress axis : x y z
#
# Youngs Moduli (GPa) = 64.50609 80.21301 53.51117
#
# Poissons Ratio (x) = 0.48699 0.10404
# Poissons Ratio (y) = 0.39163 0.12755
# Poissons Ratio (z) = 0.12542 0.19119
#
# Static dielectric constant tensor:
#      x y z
#    x 4.029820 0.220950 0.178200 
#    y 0.220950 3.772260 -0.129620 
#    z 0.178200 -0.129620 3.597590 
# 
# 
# High freq. dielectric constant tensor:
#      x y z
#    x 1.825350 0.010570 0.014040 
#    y 0.010570 1.817850 -0.011980 
#    z 0.014040 -0.011980 1.801940 
# 
# From -- ./inp_files/176727.got.cif
#   From: 2010.06.25/outbox.cif.g09.slc.cpg/sg2_89_cif.got.tgz:176727.got - 2010.06.27 13:26:56.
