data_PCOD8010863
_publ_section_title
;
Structure prediction by ZEFSAII (Michael W. Deem and Ramdas Pophale) SiO2 
 PCOD8010863
Probable space group: P -1
;
_chemical_formula_sum "Si O2"
_cell_formula_units_Z 16
_cell_length_a 16.968218
_cell_length_b 6.886332
_cell_length_c 14.986082
_cell_angle_alpha 82.535492
_cell_angle_beta 28.520697
_cell_angle_gamma 68.086639
_cell_volume 693.899566
_symmetry_space_group_name_H-M "P -1"
_symmetry_group_IT_number 2
_symmetry_cell_setting 'triclinic'
loop_
_space_group_symop_operation_xyz
x,y,z
-x,-y,-z
loop_
_atom_site_type_symbol
_atom_site_label
_atom_site_fract_x
_atom_site_fract_y
_atom_site_fract_z
Si Si1 0.225520 0.345208 0.758203
Si Si2 0.753836 0.005521 0.117568
Si Si3 0.649947 0.818913 0.079947
Si Si4 0.597100 0.527322 0.280579
Si Si5 0.188173 0.647222 0.633928
Si Si6 0.987129 0.807311 0.647022
Si Si7 0.805676 0.289643 0.726032
Si Si8 0.506886 0.201399 0.932235
O O1 0.356709 0.431864 0.667958
O O2 0.243693 0.390763 0.632106
O O3 0.301401 0.084358 0.732528
O O4 0.000000 0.500000 0.000000
O O5 0.700267 0.256620 0.178907
O O6 0.619168 0.022691 0.165795
O O7 0.983974 0.846066 0.871544
O O8 0.819397 0.762862 0.843935
O O9 0.711018 0.600842 0.096050
O O10 0.468628 0.869283 0.193552
O O11 0.363488 0.681619 0.483784
O O12 0.166315 0.662789 0.547828
O O13 0.048564 0.706243 0.491557
O O14 0.913749 0.083381 0.704750
O O15 0.685251 0.214527 0.788790
O O16 0.687330 0.537922 0.876807
O O17 0.500000 0.000000 0.000000
#
# Coordination Sequence:
#
# PCOD8010863 Si02
#       8
#     2   2   2   2   2   2   2   2
#     4   9  20  41  62  95 130 161 209 262 303 375
#     4   9  22  41  64  89 130 165 205 260 313 369
#     4  10  22  38  60  92 125 158 209 258 307 369
#     4  11  22  40  67  91 126 172 204 256 317 369
#     4  10  21  38  64  92 126 162 213 256 307 376
#     4  10  21  43  59  89 129 164 208 266 311 379
#     4  10  23  40  64  87 126 166 208 262 320 375
#     4  11  22  39  63  92 120 164 212 258 317 379
#
# _framework density 23.058094000000001
#
# number of rings (size 3 to 8) (size 9 to 14) (size 15 to 20)
#    0.000    2.000    1.250    1.875    3.500    4.000 
#    0.000   11.250    0.000    0.000    0.000    0.000 
#    0.000    0.000    0.000    0.000    0.000    0.000 
#
# Total GULP energy -198223.000326 kJ/mol
# GULP energy per Si atom -12388.937520 kJ/mol
# Density = 2.300561 g / cm^3
# Si number density = 23.058094 Si / 1000 Ang^3
#
#
#
# Elastic Constant Matrix: (Units=GPa)
#
#
# Indices 1 2 3 4 5 6 
#
# 1 104.8997 30.8101 4.8894 -11.0099 0.2812 -21.0914
# 2 30.8101 116.9114 13.6004 -10.3994 19.6728 -7.6336
# 3 4.8894 13.6004 54.5881 -16.4496 8.3044 -5.4801
# 4 -11.0099 -10.3994 -16.4496 29.1307 -3.5626 4.6601
# 5 0.2812 19.6728 8.3044 -3.5626 26.7450 -14.1215
# 6 -21.0914 -7.6336 -5.4801 4.6601 -14.1215 34.0134
#
#
#
# Elastic Compliance Matrix: (Units=1/GPa)
#
#
# Indices 1 2 3 4 5 6 
#
# 1 0.013087 -0.003985 0.000530 0.003202 0.008558 0.010420
# 2 -0.003985 0.011252 -0.000912 0.001477 -0.010132 -0.004502
# 3 0.000530 -0.000912 0.022915 0.012207 -0.004729 0.000180
# 4 0.003202 0.001477 0.012207 0.043219 -0.000023 -0.001647
# 5 0.008558 -0.010132 -0.004729 -0.000023 0.060732 0.027488
# 6 0.010420 -0.004502 0.000180 -0.001647 0.027488 0.046519
#
#
# Mechanical properties :
#
#
# Convention : Reuss Voigt Hill
#
# Bulk Modulus (GPa) = 25.96121 41.66656 33.81389
# Shear Modulus (GPa) = 22.79996 33.11778 27.95887
#
# Velocity S-wave (km/s) = 3.14794 3.79393 3.48593
# Velocity P-wave (km/s) = 4.94936 6.10749 5.55867
#
# Compressibility (1/GPa) = 0.03851900
#
# Stress axis : x y z
#
# Youngs Moduli (GPa) = 76.41124 88.87158 43.64009
#
# Poissons Ratio (x) = 0.35418 -0.02313
# Poissons Ratio (y) = 0.30453 0.03980
# Poissons Ratio (z) = -0.04049 0.08106
#
# Static dielectric constant tensor:
#      x y z
#    x 4.687850 -0.274170 -0.112890 
#    y -0.274170 4.192690 -0.452380 
#    z -0.112890 -0.452380 4.218350 
# 
# 
# High freq. dielectric constant tensor:
#      x y z
#    x 1.919570 -0.019330 -0.005470 
#    y -0.019330 1.906630 -0.033080 
#    z -0.005470 -0.033080 1.902130 
# 
# From -- ./inp_files/536299.got.cif
#   From: 2010.06.25/outbox.cif.g09.slc.cpg/sg2_269_cif.got.tgz:536299.got - 2010.06.27 13:26:56.
