data_PCOD8010488
_publ_section_title
;
Structure prediction by ZEFSAII (Michael W. Deem and Ramdas Pophale) SiO2 
 PCOD8010488
Probable space group: P -1
;
_chemical_formula_sum "Si O2"
_cell_formula_units_Z 12
_cell_length_a 8.593904
_cell_length_b 9.257267
_cell_length_c 12.035795
_cell_angle_alpha 135.545016
_cell_angle_beta 61.009757
_cell_angle_gamma 113.856435
_cell_volume 583.893492
_symmetry_space_group_name_H-M "P -1"
_symmetry_group_IT_number 2
_symmetry_cell_setting 'triclinic'
loop_
_space_group_symop_operation_xyz
x,y,z
-x,-y,-z
loop_
_atom_site_type_symbol
_atom_site_label
_atom_site_fract_x
_atom_site_fract_y
_atom_site_fract_z
Si Si1 0.251735 0.178567 0.667254
Si Si2 0.438628 0.954581 0.653625
Si Si3 0.102106 0.659988 0.637892
Si Si4 0.783298 0.394546 0.192113
Si Si5 0.461350 0.114836 0.186882
Si Si6 0.915115 0.005220 0.804632
O O1 0.368541 0.153618 0.725691
O O2 0.209534 0.411085 0.785054
O O3 0.059763 0.051278 0.681847
O O4 0.364480 0.088388 0.479998
O O5 0.300015 0.746861 0.572555
O O6 0.464554 0.012174 0.805517
O O7 0.108753 0.562132 0.705688
O O8 0.000000 0.500000 0.500000
O O9 0.989265 0.860087 0.793891
O O10 0.574219 0.339044 0.266324
O O11 0.863068 0.212102 0.995712
O O12 0.249444 0.126847 0.273985
O O13 0.500000 0.000000 0.000000
#
# Coordination Sequence:
#
# PCOD8010488 Si02
#       6
#     2   2   2   2   2   2
#     4  10  21  38  61  83 120 157 189 235 300 342
#     4   9  21  40  58  85 124 152 187 245 294 340
#     4  10  22  37  61  88 113 153 201 242 283 343
#     4  10  21  39  62  84 117 155 195 242 285 344
#     4   9  20  38  61  86 115 155 192 238 287 341
#     4  10  21  39  58  88 119 151 194 235 296 343
#
# _framework density 20.551693
#
# number of rings (size 3 to 8) (size 9 to 14) (size 15 to 20)
#    0.000    2.333    0.000    1.000    4.667    3.333 
#    6.000    3.333    0.000    0.000    0.000    0.000 
#    0.000    0.000    0.000    0.000    0.000    0.000 
#
# Total GULP energy -148678.373902 kJ/mol
# GULP energy per Si atom -12389.864492 kJ/mol
# Density = 2.050492 g / cm^3
# Si number density = 20.551693 Si / 1000 Ang^3
#
#
#
# Elastic Constant Matrix: (Units=GPa)
#
#
# Indices 1 2 3 4 5 6 
#
# 1 131.9219 71.1259 50.5104 -9.2164 4.2758 10.2268
# 2 71.1259 114.5398 41.1454 -8.0786 -1.1872 -10.4557
# 3 50.5104 41.1454 73.1635 -4.7616 1.5818 -2.8244
# 4 -9.2164 -8.0786 -4.7616 25.4869 -7.2845 -5.9647
# 5 4.2758 -1.1872 1.5818 -7.2845 38.9547 -4.5837
# 6 10.2268 -10.4557 -2.8244 -5.9647 -4.5837 43.5536
#
#
#
# Elastic Compliance Matrix: (Units=1/GPa)
#
#
# Indices 1 2 3 4 5 6 
#
# 1 0.014308 -0.007315 -0.005955 -0.000261 -0.002280 -0.005778
# 2 -0.007315 0.015230 -0.003096 0.003809 0.002810 0.005990
# 3 -0.005955 -0.003096 0.019668 0.001092 0.000212 0.002102
# 4 -0.000261 0.003809 0.001092 0.045203 0.009523 0.008239
# 5 -0.002280 0.002810 0.000212 0.009523 0.028428 0.005520
# 6 -0.005778 0.005990 0.002102 0.008239 0.005520 0.027601
#
#
# Mechanical properties :
#
#
# Convention : Reuss Voigt Hill
#
# Bulk Modulus (GPa) = 60.70401 71.68763 66.19582
# Shear Modulus (GPa) = 26.50268 32.05528 29.27898
#
# Velocity S-wave (km/s) = 3.59494 3.95364 3.77855
# Velocity P-wave (km/s) = 6.84345 7.46987 7.16351
#
# Compressibility (1/GPa) = 0.01647338
#
# Stress axis : x y z
#
# Youngs Moduli (GPa) = 69.89294 65.66027 50.84425
#
# Poissons Ratio (x) = 0.48031 0.30276
# Poissons Ratio (y) = 0.51127 0.15744
# Poissons Ratio (z) = 0.41618 0.20331
#
# Static dielectric constant tensor:
#      x y z
#    x 4.512490 0.246840 -0.158100 
#    y 0.246840 4.029100 -0.192940 
#    z -0.158100 -0.192940 3.313490 
# 
# 
# High freq. dielectric constant tensor:
#      x y z
#    x 1.823310 -0.003150 -0.009630 
#    y -0.003150 1.809630 -0.015640 
#    z -0.009630 -0.015640 1.770440 
# 
# From -- ./inp_files/144816.got.cif
#   From: 2010.06.25/outbox.cif.g09.slc.cpg/sg2_73_cif.got.tgz:144816.got - 2010.06.27 13:26:56.
