data_PCOD8010274
_publ_section_title
;
Structure prediction by ZEFSAII (Michael W. Deem and Ramdas Pophale) SiO2 
 PCOD8010274
Probable space group: P -1
;
_chemical_formula_sum "Si O2"
_cell_formula_units_Z 16
_cell_length_a 12.481113
_cell_length_b 12.541343
_cell_length_c 17.784090
_cell_angle_alpha 157.739762
_cell_angle_beta 126.750462
_cell_angle_gamma 50.025480
_cell_volume 808.042989
_symmetry_space_group_name_H-M "P -1"
_symmetry_group_IT_number 2
_symmetry_cell_setting 'triclinic'
loop_
_space_group_symop_operation_xyz
x,y,z
-x,-y,-z
loop_
_atom_site_type_symbol
_atom_site_label
_atom_site_fract_x
_atom_site_fract_y
_atom_site_fract_z
Si Si1 0.173129 0.621855 0.238682
Si Si2 0.704151 0.428941 0.584390
Si Si3 0.366395 0.778853 0.129157
Si Si4 0.687867 0.444579 0.894026
Si Si5 0.503013 0.936421 0.743174
Si Si6 0.990596 0.193751 0.477123
Si Si7 0.075601 0.746411 0.923513
Si Si8 0.985719 0.240193 0.925716
O O1 0.234093 0.515995 0.275424
O O2 0.293577 0.641332 0.242363
O O3 0.057204 0.938687 0.399582
O O4 0.101490 0.370163 0.021437
O O5 0.601768 0.739717 0.718617
O O6 0.623914 0.190020 0.410701
O O7 0.824752 0.317997 0.501012
O O8 0.237133 0.730028 0.995069
O O9 0.500000 0.500000 0.000000
O O10 0.332125 0.816441 0.229154
O O11 0.408292 0.053289 0.289164
O O12 0.835427 0.486195 0.011086
O O13 0.558793 0.736392 0.036786
O O14 0.067418 0.443875 0.684758
O O15 0.014094 0.058573 0.314167
O O16 0.990001 0.816106 0.011707
O O17 0.000000 0.000000 0.000000
#
# Coordination Sequence:
#
# PCOD8010274 Si02
#       8
#     2   2   2   2   2   2   2   2
#     4  11  21  35  62  93 123 153 205 259 311 360
#     4  11  22  34  60  92 117 162 200 253 311 370
#     4   9  20  37  62  79 116 169 201 244 301 366
#     4   9  19  37  58  83 113 158 200 246 297 360
#     4  10  21  38  58  81 123 163 206 244 309 363
#     4  11  22  38  64  94 123 153 205 262 309 365
#     4  11  23  39  64  93 125 165 208 252 313 373
#     4  10  21  38  62  94 124 156 197 262 315 359
#
# _framework density 19.800924999999999
#
# number of rings (size 3 to 8) (size 9 to 14) (size 15 to 20)
#    0.000    1.750    1.250    4.125    5.250    1.000 
#    0.000    1.875    8.250    0.000    0.000    0.000 
#    0.000    0.000    0.000    0.000    0.000    0.000 
#
# Total GULP energy -198254.027363 kJ/mol
# GULP energy per Si atom -12390.876710 kJ/mol
# Density = 1.975586 g / cm^3
# Si number density = 19.800925 Si / 1000 Ang^3
#
#
#
# Elastic Constant Matrix: (Units=GPa)
#
#
# Indices 1 2 3 4 5 6 
#
# 1 101.1349 31.5095 26.8365 5.2839 4.8356 -3.0047
# 2 31.5095 96.0549 33.6892 5.0787 -6.8892 2.4937
# 3 26.8365 33.6892 80.8149 4.0557 -0.2064 0.1547
# 4 5.2839 5.0787 4.0557 18.0094 4.8781 2.2122
# 5 4.8356 -6.8892 -0.2064 4.8781 30.9143 -2.5805
# 6 -3.0047 2.4937 0.1547 2.2122 -2.5805 33.2153
#
#
#
# Elastic Compliance Matrix: (Units=1/GPa)
#
#
# Indices 1 2 3 4 5 6 
#
# 1 0.011742 -0.003063 -0.002552 -0.001567 -0.002186 0.001239
# 2 -0.003063 0.013409 -0.004420 -0.002826 0.003819 -0.000778
# 3 -0.002552 -0.004420 0.015131 -0.001354 -0.000263 0.000100
# 4 -0.001567 -0.002826 -0.001354 0.060471 -0.010332 -0.004753
# 5 -0.002186 0.003819 -0.000263 -0.010332 0.035416 0.002956
# 6 0.001239 -0.000778 0.000100 -0.004753 0.002956 0.030823
#
#
# Mechanical properties :
#
#
# Convention : Reuss Voigt Hill
#
# Bulk Modulus (GPa) = 49.47197 51.34168 50.40682
# Shear Modulus (GPa) = 25.80002 28.82578 27.31290
#
# Velocity S-wave (km/s) = 3.61358 3.81961 3.71802
# Velocity P-wave (km/s) = 6.51533 6.74075 6.62900
#
# Compressibility (1/GPa) = 0.02021347
#
# Stress axis : x y z
#
# Youngs Moduli (GPa) = 85.16156 74.57619 66.09041
#
# Poissons Ratio (x) = 0.22843 0.16865
# Poissons Ratio (y) = 0.26085 0.29209
# Poissons Ratio (z) = 0.21731 0.32960
#
# Static dielectric constant tensor:
#      x y z
#    x 4.152040 0.142240 0.264910 
#    y 0.142240 3.697810 0.115700 
#    z 0.264910 0.115700 3.415350 
# 
# 
# High freq. dielectric constant tensor:
#      x y z
#    x 1.786580 0.003990 0.011120 
#    y 0.003990 1.780460 0.007980 
#    z 0.011120 0.007980 1.739910 
# 
# From -- ./inp_files/426615.got.cif
#   From: 2010.06.25/outbox.cif.g09.slc.cpg/sg2_214_cif.got.tgz:426615.got - 2010.06.27 13:26:56.
