data_PCOD8010032
_publ_section_title
;
Structure prediction by ZEFSAII (Michael W. Deem and Ramdas Pophale) SiO2 
 PCOD8010032
Probable space group: P -1
;
_chemical_formula_sum "Si O2"
_cell_formula_units_Z 16
_cell_length_a 9.449317
_cell_length_b 14.527085
_cell_length_c 20.979789
_cell_angle_alpha 159.251824
_cell_angle_beta 103.224744
_cell_angle_gamma 65.450919
_cell_volume 805.940910
_symmetry_space_group_name_H-M "P -1"
_symmetry_group_IT_number 2
_symmetry_cell_setting 'triclinic'
loop_
_space_group_symop_operation_xyz
x,y,z
-x,-y,-z
loop_
_atom_site_type_symbol
_atom_site_label
_atom_site_fract_x
_atom_site_fract_y
_atom_site_fract_z
Si Si1 0.891912 0.276799 0.797909
Si Si2 0.982565 0.410738 0.628520
Si Si3 0.913270 0.432490 0.389819
Si Si4 0.196581 0.345801 0.841826
Si Si5 0.337971 0.084628 0.874910
Si Si6 0.424463 0.263999 0.215935
Si Si7 0.503075 0.756081 0.551755
Si Si8 0.990645 0.766868 0.982299
O O1 0.730375 0.556700 0.918796
O O2 0.077083 0.212743 0.752697
O O3 0.893438 0.966464 0.586796
O O4 0.858716 0.376394 0.933038
O O5 0.051583 0.476096 0.615079
O O6 0.983841 0.607784 0.814499
O O7 0.787406 0.499128 0.653222
O O8 0.699854 0.654671 0.521201
O O9 0.000000 0.500000 0.500000
O O10 0.002575 0.055639 0.152798
O O11 0.165184 0.499925 0.868372
O O12 0.404332 0.043547 0.675562
O O13 0.185611 0.088389 0.899486
O O14 0.515480 0.916758 0.827005
O O15 0.382028 0.878657 0.682400
O O16 0.511835 0.452042 0.331773
O O17 0.500000 0.000000 0.000000
#
# Coordination Sequence:
#
# PCOD8010032 Si02
#       8
#     2   2   2   2   2   2   2   2
#     4   9  19  36  61  94 118 160 199 257 302 356
#     4  12  24  40  62  92 131 162 199 247 316 370
#     4  12  26  42  63  89 123 169 205 247 309 370
#     4   9  19  37  64  90 123 154 211 253 300 351
#     4  10  21  37  64  92 124 151 209 256 302 349
#     4  12  22  37  60  96 123 157 202 256 301 357
#     4  11  22  41  64  92 121 160 207 257 299 356
#     4  11  23  40  61  93 125 162 201 256 310 362
#
# _framework density 19.852571999999999
#
# number of rings (size 3 to 8) (size 9 to 14) (size 15 to 20)
#    0.000    1.250    3.750    3.000    1.750    3.000 
#    0.000    7.500    0.000    0.000    0.000    0.000 
#    0.000    0.000    0.000    0.000    0.000    0.000 
#
# Total GULP energy -198437.132050 kJ/mol
# GULP energy per Si atom -12402.320753 kJ/mol
# Density = 1.980739 g / cm^3
# Si number density = 19.852572 Si / 1000 Ang^3
#
#
#
# Elastic Constant Matrix: (Units=GPa)
#
#
# Indices 1 2 3 4 5 6 
#
# 1 74.7440 28.3905 51.8227 3.8908 6.9494 -1.3309
# 2 28.3905 105.7461 45.5214 22.3182 5.0662 -16.1078
# 3 51.8227 45.5214 121.4198 10.8811 20.3760 -5.6686
# 4 3.8908 22.3182 10.8811 36.0662 2.1178 -1.1048
# 5 6.9494 5.0662 20.3760 2.1178 29.6033 1.1849
# 6 -1.3309 -16.1078 -5.6686 -1.1048 1.1849 32.0065
#
#
#
# Elastic Compliance Matrix: (Units=1/GPa)
#
#
# Indices 1 2 3 4 5 6 
#
# 1 0.019545 -0.002588 -0.007811 0.001723 0.001182 -0.001858
# 2 -0.002588 0.014007 -0.003347 -0.007239 0.000789 0.006070
# 3 -0.007811 -0.003347 0.014167 -0.000909 -0.007309 0.000739
# 4 0.001723 -0.007239 -0.000909 0.032259 -0.000744 -0.002591
# 5 0.001182 0.000789 -0.007309 -0.000744 0.038544 -0.002301
# 6 -0.001858 0.006070 0.000739 -0.002591 -0.002301 0.034348
#
#
# Mechanical properties :
#
#
# Convention : Reuss Voigt Hill
#
# Bulk Modulus (GPa) = 49.44039 61.48657 55.46348
# Shear Modulus (GPa) = 26.72303 31.28023 29.00163
#
# Velocity S-wave (km/s) = 3.67287 3.97372 3.82625
# Velocity P-wave (km/s) = 6.55320 7.21753 6.89337
#
# Compressibility (1/GPa) = 0.02022638
#
# Stress axis : x y z
#
# Youngs Moduli (GPa) = 51.16349 71.39349 70.58595
#
# Poissons Ratio (x) = 0.18478 0.55136
# Poissons Ratio (y) = 0.13242 0.23625
# Poissons Ratio (z) = 0.39965 0.23895
#
# Static dielectric constant tensor:
#      x y z
#    x 3.224450 0.052320 0.007510 
#    y 0.052320 3.868000 0.166420 
#    z 0.007510 0.166420 3.662280 
# 
# 
# High freq. dielectric constant tensor:
#      x y z
#    x 1.740970 -0.004130 0.001530 
#    y -0.004130 1.791960 0.012630 
#    z 0.001530 0.012630 1.784650 
# 
# From -- ./inp_files/204239.got.cif
#   From: 2010.06.25/outbox.cif.g09.slc.cpg/sg2_103_cif.got.tgz:204239.got - 2010.06.27 13:26:56.
