data_PCOD8010054
_publ_section_title
;
Structure prediction by ZEFSAII (Michael W. Deem and Ramdas Pophale) SiO2 
 PCOD8010054
Probable space group: P -1
;
_chemical_formula_sum "Si O2"
_cell_formula_units_Z 16
_cell_length_a 16.221686
_cell_length_b 10.771444
_cell_length_c 12.155570
_cell_angle_alpha 114.107436
_cell_angle_beta 118.585975
_cell_angle_gamma 23.391620
_cell_volume 737.571021
_symmetry_space_group_name_H-M "P -1"
_symmetry_group_IT_number 2
_symmetry_cell_setting 'triclinic'
loop_
_space_group_symop_operation_xyz
x,y,z
-x,-y,-z
loop_
_atom_site_type_symbol
_atom_site_label
_atom_site_fract_x
_atom_site_fract_y
_atom_site_fract_z
Si Si1 0.541300 0.417609 0.870377
Si Si2 0.103632 0.229058 0.816618
Si Si3 0.805865 0.849126 0.910037
Si Si4 0.510143 0.181395 0.229134
Si Si5 0.371178 0.266435 0.790058
Si Si6 0.806623 0.360768 0.622261
Si Si7 0.774301 0.370895 0.972865
Si Si8 0.795417 0.338969 0.358253
O O1 0.597905 0.484818 0.874459
O O2 0.334295 0.622949 0.754603
O O3 0.745561 0.047196 0.857779
O O4 0.500000 0.500000 0.000000
O O5 0.015338 0.499581 0.869927
O O6 0.927933 0.346795 0.710964
O O7 0.302776 0.971133 0.763766
O O8 0.177005 0.099656 0.941263
O O9 0.622193 0.974866 0.841056
O O10 0.409547 0.374548 0.346360
O O11 0.293101 0.442902 0.105891
O O12 0.637795 0.878243 0.235006
O O13 0.251133 0.463276 0.670343
O O14 0.251235 0.514630 0.891518
O O15 0.725183 0.463758 0.482325
O O16 0.955235 0.034758 0.624237
O O17 0.000000 0.000000 0.000000
#
# Coordination Sequence:
#
# PCOD8010054 Si02
#       8
#     2   2   2   2   2   2   2   2
#     4  11  20  40  65  92 123 164 217 266 323 380
#     4  11  23  40  65  96 132 172 215 266 325 385
#     4  10  21  37  64  95 127 171 213 271 325 378
#     4  12  25  41  64  99 135 170 216 266 327 386
#     4  11  22  42  62  98 130 169 217 268 324 386
#     4  11  24  45  69  92 130 178 217 265 323 389
#     4  12  25  36  62 102 135 166 208 273 334 383
#     4  10  23  44  70  94 126 172 222 265 321 391
#
# _framework density 21.692827000000001
#
# number of rings (size 3 to 8) (size 9 to 14) (size 15 to 20)
#    0.000    1.000    5.000    2.625    3.500    0.500 
#    0.000    7.500    0.000    0.000    0.000    0.000 
#    0.000    0.000    0.000    0.000    0.000    0.000 
#
# Total GULP energy -198223.738838 kJ/mol
# GULP energy per Si atom -12388.983677 kJ/mol
# Density = 2.164345 g / cm^3
# Si number density = 21.692827 Si / 1000 Ang^3
#
#
#
# Elastic Constant Matrix: (Units=GPa)
#
#
# Indices 1 2 3 4 5 6 
#
# 1 44.5387 27.0032 40.7512 6.6380 -10.4295 -3.0686
# 2 27.0032 114.4055 43.6688 13.0228 -25.2817 6.5282
# 3 40.7512 43.6688 99.6545 -3.7060 -15.6750 -7.4225
# 4 6.6380 13.0228 -3.7060 33.8155 -0.3237 -15.8354
# 5 -10.4295 -25.2817 -15.6750 -0.3237 26.1202 -1.1463
# 6 -3.0686 6.5282 -7.4225 -15.8354 -1.1463 32.0231
#
#
#
# Elastic Compliance Matrix: (Units=1/GPa)
#
#
# Indices 1 2 3 4 5 6 
#
# 1 0.040348 -0.000340 -0.016351 -0.012189 0.005569 -0.005682
# 2 -0.000340 0.015166 -0.005973 -0.010756 0.010410 -0.009455
# 3 -0.016351 -0.005973 0.020748 0.012874 0.000776 0.010854
# 4 -0.012189 -0.010756 0.012874 0.051074 -0.005644 0.029063
# 5 0.005569 0.010410 0.000776 -0.005644 0.050876 -0.002378
# 6 -0.005682 -0.009455 0.010854 0.029063 -0.002378 0.049413
#
#
# Mechanical properties :
#
#
# Convention : Reuss Voigt Hill
#
# Bulk Modulus (GPa) = 32.32795 53.49392 42.91093
# Shear Modulus (GPa) = 17.65139 28.20344 22.92741
#
# Velocity S-wave (km/s) = 2.85563 3.60964 3.25455
# Velocity P-wave (km/s) = 5.08014 6.48737 5.82639
#
# Compressibility (1/GPa) = 0.03093298
#
# Stress axis : x y z
#
# Youngs Moduli (GPa) = 24.78429 65.93913 48.19757
#
# Poissons Ratio (x) = 0.02241 0.78808
# Poissons Ratio (y) = 0.00842 0.28790
# Poissons Ratio (z) = 0.40525 0.39388
#
# Static dielectric constant tensor:
#      x y z
#    x 3.980920 0.281840 -0.192800 
#    y 0.281840 4.182480 0.028960 
#    z -0.192800 0.028960 3.741840 
# 
# 
# High freq. dielectric constant tensor:
#      x y z
#    x 1.842070 0.023050 -0.009440 
#    y 0.023050 1.878670 0.003270 
#    z -0.009440 0.003270 1.829260 
# 
# From -- ./inp_files/465119.got.cif
#   From: 2010.06.25/outbox.cif.g09.slc.cpg/sg2_233_cif.got.tgz:465119.got - 2010.06.27 13:26:56.
