data_PCOD8010524
_publ_section_title
;
Structure prediction by ZEFSAII (Michael W. Deem and Ramdas Pophale) SiO2 
 PCOD8010524
Probable space group: P -1
;
_chemical_formula_sum "Si O2"
_cell_formula_units_Z 16
_cell_length_a 10.732819
_cell_length_b 27.118894
_cell_length_c 7.637257
_cell_angle_alpha 52.313664
_cell_angle_beta 47.393132
_cell_angle_gamma 29.059011
_cell_volume 793.477324
_symmetry_space_group_name_H-M "P -1"
_symmetry_group_IT_number 2
_symmetry_cell_setting 'triclinic'
loop_
_space_group_symop_operation_xyz
x,y,z
-x,-y,-z
loop_
_atom_site_type_symbol
_atom_site_label
_atom_site_fract_x
_atom_site_fract_y
_atom_site_fract_z
Si Si1 0.897901 0.183364 0.796824
Si Si2 0.201521 0.218902 0.376243
Si Si3 0.686707 0.769396 0.110098
Si Si4 0.030148 0.523173 0.607467
Si Si5 0.578941 0.329782 0.093119
Si Si6 0.945856 0.338554 0.695413
Si Si7 0.255393 0.964208 0.902855
Si Si8 0.510053 0.303860 0.592391
O O1 0.712081 0.215553 0.738395
O O2 0.994748 0.222175 0.560629
O O3 0.747954 0.232252 0.021510
O O4 0.155398 0.062075 0.837114
O O5 0.139522 0.279936 0.467922
O O6 0.518516 0.101394 0.327407
O O7 0.140899 0.277182 0.134066
O O8 0.869511 0.744711 0.144602
O O9 0.640166 0.710649 0.326524
O O10 0.399089 0.891738 0.096107
O O11 0.741093 0.590165 0.831973
O O12 0.119377 0.569789 0.412117
O O13 0.000000 0.500000 0.500000
O O14 0.299807 0.409228 0.675182
O O15 0.642564 0.299818 0.304997
O O16 0.671354 0.374743 0.864909
O O17 0.000000 0.000000 0.000000
#
# Coordination Sequence:
#
# PCOD8010524 Si02
#       8
#     2   2   2   2   2   2   2   2
#     4  11  21  43  60  87 127 155 204 251 296 358
#     4   9  23  39  61  90 121 160 198 251 299 356
#     4  10  21  38  62  89 119 159 199 244 305 351
#     4  10  22  40  62  93 120 160 203 247 305 355
#     4  10  24  40  64  91 121 164 199 250 303 355
#     4  11  21  44  62  89 128 155 202 253 295 361
#     4  10  21  38  61  89 117 161 198 247 303 354
#     4  11  22  40  61  91 120 161 201 248 304 357
#
# _framework density 20.164407000000001
#
# number of rings (size 3 to 8) (size 9 to 14) (size 15 to 20)
#    0.750    1.000    3.750    1.125    3.500    2.500 
#    4.500    3.750    0.000    0.000    0.000    0.000 
#    0.000    0.000    0.000    0.000    0.000    0.000 
#
# Total GULP energy -198219.961598 kJ/mol
# GULP energy per Si atom -12388.747600 kJ/mol
# Density = 2.011851 g / cm^3
# Si number density = 20.164407 Si / 1000 Ang^3
#
#
#
# Elastic Constant Matrix: (Units=GPa)
#
#
# Indices 1 2 3 4 5 6 
#
# 1 50.6783 1.3430 20.1071 0.6176 5.7399 6.8618
# 2 1.3430 78.9652 16.8264 -2.6047 3.0068 11.3948
# 3 20.1071 16.8264 70.1762 11.5530 -7.6271 9.1176
# 4 0.6176 -2.6047 11.5530 30.7330 5.1715 -0.5945
# 5 5.7399 3.0068 -7.6271 5.1715 34.5174 -1.8051
# 6 6.8618 11.3948 9.1176 -0.5945 -1.8051 33.8348
#
#
#
# Elastic Compliance Matrix: (Units=1/GPa)
#
#
# Indices 1 2 3 4 5 6 
#
# 1 0.024246 0.002311 -0.008417 0.003958 -0.006881 -0.003725
# 2 0.002311 0.014431 -0.004487 0.003346 -0.003356 -0.004240
# 3 -0.008417 -0.004487 0.020328 -0.009162 0.007550 -0.002018
# 4 0.003958 0.003346 -0.009162 0.037644 -0.008575 0.000743
# 5 -0.006881 -0.003356 0.007550 -0.008575 0.033472 0.002126
# 6 -0.003725 -0.004240 -0.002018 0.000743 0.002126 0.032409
#
#
# Mechanical properties :
#
#
# Convention : Reuss Voigt Hill
#
# Bulk Modulus (GPa) = 26.44116 30.70808 28.57462
# Shear Modulus (GPa) = 25.46846 30.58658 28.02752
#
# Velocity S-wave (km/s) = 3.55778 3.89891 3.73225
# Velocity P-wave (km/s) = 5.47890 5.96076 5.72490
#
# Compressibility (1/GPa) = 0.03781983
#
# Stress axis : x y z
#
# Youngs Moduli (GPa) = 41.24403 69.29726 49.19217
#
# Poissons Ratio (x) = -0.16016 0.41404
# Poissons Ratio (y) = -0.09533 0.22073
# Poissons Ratio (z) = 0.34714 0.31094
#
# Static dielectric constant tensor:
#      x y z
#    x 3.577450 -0.522480 -0.247540 
#    y -0.522480 9.954680 1.984150 
#    z -0.247540 1.984150 4.181730 
# 
# 
# High freq. dielectric constant tensor:
#      x y z
#    x 1.783550 0.005390 -0.011460 
#    y 0.005390 1.781330 0.000900 
#    z -0.011460 0.000900 1.787360 
# 
# From -- ./inp_files/285507.got.cif
#   From: 2010.06.25/outbox.cif.g09.slc.cpg/sg2_143_cif.got.tgz:285507.got - 2010.06.27 13:26:56.
