data_PCOD8010539
_publ_section_title
;
Structure prediction by ZEFSAII (Michael W. Deem and Ramdas Pophale) SiO2 
 PCOD8010539
Probable space group: P -1
;
_chemical_formula_sum "Si O2"
_cell_formula_units_Z 16
_cell_length_a 14.927465
_cell_length_b 18.335283
_cell_length_c 12.587637
_cell_angle_alpha 45.052314
_cell_angle_beta 47.517519
_cell_angle_gamma 19.478891
_cell_volume 812.459949
_symmetry_space_group_name_H-M "P -1"
_symmetry_group_IT_number 2
_symmetry_cell_setting 'triclinic'
loop_
_space_group_symop_operation_xyz
x,y,z
-x,-y,-z
loop_
_atom_site_type_symbol
_atom_site_label
_atom_site_fract_x
_atom_site_fract_y
_atom_site_fract_z
Si Si1 0.243769 0.464713 0.372123
Si Si2 0.195578 0.632925 0.845481
Si Si3 0.478737 0.106018 0.654538
Si Si4 0.381094 0.685133 0.338029
Si Si5 0.038290 0.588937 0.186005
Si Si6 0.284354 0.913615 0.353418
Si Si7 0.216485 0.837494 0.680100
Si Si8 0.774080 0.785346 0.567430
O O1 0.299894 0.299823 0.508217
O O2 0.146095 0.564174 0.230190
O O3 0.527127 0.309078 0.316315
O O4 0.012134 0.667658 0.436118
O O5 0.471033 0.406352 0.796568
O O6 0.223742 0.709297 0.822913
O O7 0.125927 0.584660 0.017121
O O8 0.971605 0.823673 0.739732
O O9 0.532554 0.149168 0.658856
O O10 0.288301 0.163001 0.800069
O O11 0.734960 0.865751 0.634049
O O12 0.500000 0.500000 0.500000
O O13 0.413086 0.768221 0.293221
O O14 0.073681 0.896947 0.326532
O O15 0.150227 0.389361 0.290933
O O16 0.221792 0.858710 0.528369
O O17 0.500000 0.000000 0.500000
#
# Coordination Sequence:
#
# PCOD8010539 Si02
#       8
#     2   2   2   2   2   2   2   2
#     4  10  21  38  62  92 119 152 206 247 295 356
#     4  11  23  38  59  87 126 162 194 248 304 355
#     4  10  21  39  63  89 118 155 203 247 293 359
#     4  11  19  39  64  86 121 157 206 241 292 359
#     4  11  23  39  57  90 128 156 196 250 305 351
#     4  10  21  38  62  90 115 156 200 251 298 348
#     4  10  21  38  61  90 117 157 200 249 298 349
#     4  11  19  39  67  87 114 163 203 241 296 357
#
# _framework density 19.693277999999999
#
# number of rings (size 3 to 8) (size 9 to 14) (size 15 to 20)
#    0.000    1.500    5.000    1.500    0.000    8.000 
#    0.000    1.875    0.000    0.000    0.000    0.000 
#    0.000    0.000    0.000    0.000    0.000    0.000 
#
# Total GULP energy -198274.607968 kJ/mol
# GULP energy per Si atom -12392.162998 kJ/mol
# Density = 1.964846 g / cm^3
# Si number density = 19.693278 Si / 1000 Ang^3
#
#
#
# Elastic Constant Matrix: (Units=GPa)
#
#
# Indices 1 2 3 4 5 6 
#
# 1 82.9135 42.8965 21.3327 4.6956 -1.9543 -4.0157
# 2 42.8965 119.3994 20.0568 19.4220 0.1706 2.2005
# 3 21.3327 20.0568 71.6186 12.9219 -6.7178 -1.5000
# 4 4.6956 19.4220 12.9219 27.4917 1.9458 0.5593
# 5 -1.9543 0.1706 -6.7178 1.9458 15.7540 1.5792
# 6 -4.0157 2.2005 -1.5000 0.5593 1.5792 29.8022
#
#
#
# Elastic Compliance Matrix: (Units=1/GPa)
#
#
# Indices 1 2 3 4 5 6 
#
# 1 0.015836 -0.005596 -0.003640 0.002920 -0.000120 0.002315
# 2 -0.005596 0.011620 -0.000338 -0.007068 0.000059 -0.001499
# 3 -0.003640 -0.000338 0.017296 -0.007830 0.007881 0.000134
# 4 0.002920 -0.007068 -0.007830 0.045148 -0.008489 0.000124
# 5 -0.000120 0.000059 0.007881 -0.008489 0.068178 -0.003077
# 6 0.002315 -0.001499 0.000134 0.000124 -0.003077 0.034145
#
#
# Mechanical properties :
#
#
# Convention : Reuss Voigt Hill
#
# Bulk Modulus (GPa) = 39.05365 49.16705 44.11035
# Shear Modulus (GPa) = 22.73718 27.25262 24.99490
#
# Velocity S-wave (km/s) = 3.40158 3.72405 3.56646
# Velocity P-wave (km/s) = 5.94152 6.59637 6.27749
#
# Compressibility (1/GPa) = 0.02560580
#
# Stress axis : x y z
#
# Youngs Moduli (GPa) = 63.14692 86.06145 57.81548
#
# Poissons Ratio (x) = 0.48156 0.21043
# Poissons Ratio (y) = 0.35334 0.01954
# Poissons Ratio (z) = 0.22983 0.02908
#
# Static dielectric constant tensor:
#      x y z
#    x 3.423660 -0.005500 -0.012590 
#    y -0.005500 3.830110 0.113860 
#    z -0.012590 0.113860 3.383050 
# 
# 
# High freq. dielectric constant tensor:
#      x y z
#    x 1.762540 -0.003030 -0.000950 
#    y -0.003030 1.779160 0.007720 
#    z -0.000950 0.007720 1.741120 
# 
# From -- ./inp_files/68572.got.cif
#   From: 2010.06.25/outbox.cif.g09.slc.cpg/sg2_35_cif.got.tgz:68572.got - 2010.06.27 13:26:56.
