data_PCOD8010937
_publ_section_title
;
Structure prediction by ZEFSAII (Michael W. Deem and Ramdas Pophale) SiO2 
 PCOD8010937
Probable space group: P -1
;
_chemical_formula_sum "Si O2"
_cell_formula_units_Z 16
_cell_length_a 5.263173
_cell_length_b 20.311955
_cell_length_c 8.890458
_cell_angle_alpha 48.149265
_cell_angle_beta 91.172418
_cell_angle_gamma 75.174668
_cell_volume 659.838057
_symmetry_space_group_name_H-M "P -1"
_symmetry_group_IT_number 2
_symmetry_cell_setting 'triclinic'
loop_
_space_group_symop_operation_xyz
x,y,z
-x,-y,-z
loop_
_atom_site_type_symbol
_atom_site_label
_atom_site_fract_x
_atom_site_fract_y
_atom_site_fract_z
Si Si1 0.711794 0.175448 0.661675
Si Si2 0.340918 0.106864 0.289708
Si Si3 0.206731 0.176093 0.513322
Si Si4 0.005174 0.395948 0.241379
Si Si5 0.460388 0.637103 0.797908
Si Si6 0.079838 0.467817 0.714298
Si Si7 0.699172 0.352144 0.911741
Si Si8 0.218873 0.830247 0.974736
O O1 0.504726 0.126691 0.669458
O O2 0.567193 0.288496 0.451222
O O3 0.762048 0.156113 0.868243
O O4 0.999671 0.127559 0.648960
O O5 0.233325 0.170155 0.341672
O O6 0.500000 0.000000 0.500000
O O7 0.543000 0.144705 0.141799
O O8 0.082597 0.108925 0.182902
O O9 0.076620 0.283189 0.410606
O O10 0.209424 0.420230 0.085931
O O11 0.685890 0.438101 0.127108
O O12 0.056121 0.435836 0.339505
O O13 0.316777 0.697550 0.851863
O O14 0.406305 0.435747 0.772678
O O15 0.000000 0.500000 0.500000
O O16 0.950650 0.388464 0.871945
O O17 0.738876 0.279433 0.887371
#
# Coordination Sequence:
#
# PCOD8010937 Si02
#       8
#     2   2   2   2   2   2   2   2
#     4  10  22  39  71 101 136 178 238 287 332 422
#     4  12  26  49  76 109 146 179 228 293 356 431
#     4  10  21  42  70  96 136 193 225 277 356 424
#     4  10  21  38  65  86 135 174 232 272 343 398
#     4  10  21  39  63  91 123 180 230 284 336 401
#     4  12  28  41  62 100 143 180 233 301 344 382
#     4  12  26  43  69  98 139 185 240 282 341 422
#     4  12  25  45  75 109 139 190 238 281 360 425
#
# _framework density 24.248373999999998
#
# number of rings (size 3 to 8) (size 9 to 14) (size 15 to 20)
#    0.000    1.000    0.000    7.500    7.000    3.000 
#    0.000    3.750    0.000    0.000    0.000    0.000 
#    0.000    0.000    0.000    0.000    0.000    0.000 
#
# Total GULP energy -198283.299739 kJ/mol
# GULP energy per Si atom -12392.706234 kJ/mol
# Density = 2.419318 g / cm^3
# Si number density = 24.248374 Si / 1000 Ang^3
#
#
#
# Elastic Constant Matrix: (Units=GPa)
#
#
# Indices 1 2 3 4 5 6 
#
# 1 225.5923 20.3981 42.6483 19.4288 -7.3886 2.4047
# 2 20.3981 46.7659 31.9271 12.2818 -4.3327 -3.0543
# 3 42.6483 31.9271 91.2189 28.9664 0.7243 -5.0266
# 4 19.4288 12.2818 28.9664 43.0093 -1.1752 3.1657
# 5 -7.3886 -4.3327 0.7243 -1.1752 32.2138 8.7021
# 6 2.4047 -3.0543 -5.0266 3.1657 8.7021 31.0847
#
#
#
# Elastic Compliance Matrix: (Units=1/GPa)
#
#
# Indices 1 2 3 4 5 6 
#
# 1 0.004973 -0.000589 -0.001993 -0.000618 0.001377 -0.001088
# 2 -0.000589 0.028787 -0.009284 -0.001635 0.003754 0.000489
# 3 -0.001993 -0.009284 0.018318 -0.009188 -0.003571 0.004140
# 4 -0.000618 -0.001635 -0.009188 0.030648 0.002421 -0.005398
# 5 0.001377 0.003754 -0.003571 0.002421 0.034817 -0.010309
# 6 -0.001088 0.000489 0.004140 -0.005398 -0.010309 0.036407
#
#
# Mechanical properties :
#
#
# Convention : Reuss Voigt Hill
#
# Bulk Modulus (GPa) = 35.27936 61.50264 48.39100
# Shear Modulus (GPa) = 26.71915 39.16847 32.94381
#
# Velocity S-wave (km/s) = 3.32308 4.02344 3.68992
# Velocity P-wave (km/s) = 5.41337 6.85586 6.17687
#
# Compressibility (1/GPa) = 0.02834519
#
# Stress axis : x y z
#
# Youngs Moduli (GPa) = 201.09267 34.73748 54.59106
#
# Poissons Ratio (x) = 0.02047 0.10882
# Poissons Ratio (y) = 0.11850 0.50681
# Poissons Ratio (z) = 0.40086 0.32250
#
# Static dielectric constant tensor:
#      x y z
#    x 5.243180 -0.193380 -0.295210 
#    y -0.193380 4.116850 0.187270 
#    z -0.295210 0.187270 3.837080 
# 
# 
# High freq. dielectric constant tensor:
#      x y z
#    x 2.014720 0.002480 0.002040 
#    y 0.002480 1.950040 0.018160 
#    z 0.002040 0.018160 1.942030 
# 
# From -- ./inp_files/141137.got.cif
#   From: 2010.06.25/outbox.cif.g09.slc.cpg/sg2_71_cif.got.tgz:141137.got - 2010.06.27 13:26:56.
