data_PCOD8010789
_publ_section_title
;
Structure prediction by ZEFSAII (Michael W. Deem and Ramdas Pophale) SiO2 
 PCOD8010789
Probable space group: P -1
;
_chemical_formula_sum "Si O2"
_cell_formula_units_Z 14
_cell_length_a 14.705088
_cell_length_b 14.446118
_cell_length_c 22.819241
_cell_angle_alpha 18.476954
_cell_angle_beta 24.946937
_cell_angle_gamma 33.289050
_cell_volume 637.404017
_symmetry_space_group_name_H-M "P -1"
_symmetry_group_IT_number 2
_symmetry_cell_setting 'triclinic'
loop_
_space_group_symop_operation_xyz
x,y,z
-x,-y,-z
loop_
_atom_site_type_symbol
_atom_site_label
_atom_site_fract_x
_atom_site_fract_y
_atom_site_fract_z
Si Si1 0.874238 0.450638 0.664115
Si Si2 0.673071 0.594179 0.134457
Si Si3 0.606773 0.803672 0.918238
Si Si4 0.103982 0.902401 0.744853
Si Si5 0.726894 0.467859 0.415346
Si Si6 0.759551 0.724214 0.366691
Si Si7 0.834163 0.300518 0.041734
O O1 0.000000 0.500000 0.500000
O O2 0.015024 0.330796 0.703660
O O3 0.814404 0.767933 0.525363
O O4 0.651289 0.213553 0.931017
O O5 0.770052 0.294564 0.251191
O O6 0.439637 0.523574 0.344769
O O7 0.653860 0.748725 0.991162
O O8 0.840423 0.815440 0.944585
O O9 0.730978 0.130985 0.633900
O O10 0.694816 0.562799 0.970492
O O11 0.171057 0.883396 0.784549
O O12 0.500000 0.500000 0.500000
O O13 0.774736 0.692050 0.307573
O O14 0.916614 0.556430 0.203880
O O15 0.728409 0.059533 0.199402
#
# Coordination Sequence:
#
# PCOD8010789 Si02
#       7
#     2   2   2   2   2   2   2
#     4  12  22  37  65  98 127 155 202 264 319 365
#     4  10  21  38  64  95 124 164 201 265 315 377
#     4  11  24  43  65  92 127 168 210 256 316 371
#     4  10  21  38  63  94 129 160 208 252 323 370
#     4  12  27  44  65  91 126 170 214 259 305 367
#     4  12  24  40  67  94 128 159 212 259 319 362
#     4  11  23  44  64  90 129 172 210 251 305 380
#
# _framework density 21.964092000000001
#
# number of rings (size 3 to 8) (size 9 to 14) (size 15 to 20)
#    0.000    0.857    2.857    4.286    2.000    3.429 
#    0.000    5.714    0.000    0.000    0.000    0.000 
#    0.000    0.000    0.000    0.000    0.000    0.000 
#
# Total GULP energy -173691.942502 kJ/mol
# GULP energy per Si atom -12406.567322 kJ/mol
# Density = 2.191410 g / cm^3
# Si number density = 21.964092 Si / 1000 Ang^3
#
#
#
# Elastic Constant Matrix: (Units=GPa)
#
#
# Indices 1 2 3 4 5 6 
#
# 1 82.7044 28.2615 -8.7146 3.6599 -19.9474 2.8273
# 2 28.2615 76.8651 7.4797 -2.1385 -3.8529 1.8940
# 3 -8.7146 7.4797 62.1322 5.1829 -7.8719 1.9663
# 4 3.6599 -2.1385 5.1829 41.4057 0.0966 -5.0511
# 5 -19.9474 -3.8529 -7.8719 0.0966 34.8994 1.2358
# 6 2.8273 1.8940 1.9663 -5.0511 1.2358 30.1603
#
#
#
# Elastic Compliance Matrix: (Units=1/GPa)
#
#
# Indices 1 2 3 4 5 6 
#
# 1 0.017542 -0.006415 0.004878 -0.002817 0.010513 -0.002462
# 2 -0.006415 0.015597 -0.003279 0.001820 -0.002698 0.000251
# 3 0.004878 -0.003279 0.018354 -0.003188 0.006654 -0.002255
# 4 -0.002817 0.001820 -0.003188 0.025475 -0.002366 0.004721
# 5 0.010513 -0.002698 0.006654 -0.002366 0.035983 -0.003121
# 6 -0.002462 0.000251 -0.002255 0.004721 -0.003121 0.034437
#
#
# Mechanical properties :
#
#
# Convention : Reuss Voigt Hill
#
# Bulk Modulus (GPa) = 23.88936 30.63945 27.26440
# Shear Modulus (GPa) = 29.24429 34.27142 31.75785
#
# Velocity S-wave (km/s) = 3.65287 3.95440 3.80662
# Velocity P-wave (km/s) = 5.35644 5.90167 5.63566
#
# Compressibility (1/GPa) = 0.04185965
#
# Stress axis : x y z
#
# Youngs Moduli (GPa) = 57.00629 64.11582 54.48406
#
# Poissons Ratio (x) = 0.41131 -0.26575
# Poissons Ratio (y) = 0.36570 0.17865
# Poissons Ratio (z) = -0.27806 0.21024
#
# Static dielectric constant tensor:
#      x y z
#    x 3.870250 0.002500 -0.161050 
#    y 0.002500 4.232040 -0.139090 
#    z -0.161050 -0.139090 4.127600 
# 
# 
# High freq. dielectric constant tensor:
#      x y z
#    x 1.852990 0.000150 -0.012490 
#    y 0.000150 1.875810 -0.005630 
#    z -0.012490 -0.005630 1.873630 
# 
# From -- ./inp_files/158606.got.cif
#   From: 2010.06.25/outbox.cif.g09.slc.cpg/sg2_80_cif.got.tgz:158606.got - 2010.06.27 13:26:56.
