data_PCOD8010399
_publ_section_title
;
Structure prediction by ZEFSAII (Michael W. Deem and Ramdas Pophale) SiO2 
 PCOD8010399
Probable space group: P -1
;
_chemical_formula_sum "Si O2"
_cell_formula_units_Z 16
_cell_length_a 19.863931
_cell_length_b 11.204708
_cell_length_c 8.936653
_cell_angle_alpha 40.178716
_cell_angle_beta 100.427431
_cell_angle_gamma 128.563819
_cell_volume 813.531666
_symmetry_space_group_name_H-M "P -1"
_symmetry_group_IT_number 2
_symmetry_cell_setting 'triclinic'
loop_
_space_group_symop_operation_xyz
x,y,z
-x,-y,-z
loop_
_atom_site_type_symbol
_atom_site_label
_atom_site_fract_x
_atom_site_fract_y
_atom_site_fract_z
Si Si1 0.722557 0.223680 0.586531
Si Si2 0.799899 0.674879 0.394214
Si Si3 0.543125 0.133004 0.553127
Si Si4 0.781370 0.894785 0.608921
Si Si5 0.965365 0.103850 0.295192
Si Si6 0.801032 0.340243 0.181090
Si Si7 0.724310 0.793856 0.011231
Si Si8 0.673213 0.356379 0.929018
O O1 0.805440 0.497692 0.468616
O O2 0.610550 0.098939 0.674268
O O3 0.764019 0.344261 0.320753
O O4 0.709454 0.981832 0.856490
O O5 0.696501 0.445573 0.679721
O O6 0.907223 0.922035 0.293794
O O7 0.787040 0.830748 0.137854
O O8 0.500000 0.000000 0.500000
O O9 0.609818 0.460688 0.264696
O O10 0.444803 0.964393 0.787926
O O11 0.794335 0.905601 0.783100
O O12 0.685314 0.568484 0.827052
O O13 0.891019 0.074371 0.398248
O O14 0.746569 0.030886 0.423944
O O15 0.000000 0.000000 0.500000
O O16 0.072429 0.433453 0.980205
O O17 0.764572 0.403693 0.976053
#
# Coordination Sequence:
#
# PCOD8010399 Si02
#       8
#     2   2   2   2   2   2   2   2
#     4  10  23  40  60  89 123 159 194 242 297 353
#     4  10  23  40  59  83 125 157 191 247 295 356
#     4  11  20  37  67  89 119 153 201 247 290 346
#     4  10  21  38  60  85 122 151 196 246 290 349
#     4  11  22  40  63  89 115 155 201 248 295 346
#     4  11  21  39  61  88 119 154 199 245 294 349
#     4  10  22  41  59  89 124 157 195 240 297 355
#     4  11  21  39  60  93 116 157 197 244 298 340
#
# _framework density 19.667335000000001
#
# number of rings (size 3 to 8) (size 9 to 14) (size 15 to 20)
#    0.000    1.500    5.000    1.125    0.000    6.000 
#    2.250    2.500    0.000    0.000    0.000    0.000 
#    0.000    0.000    0.000    0.000    0.000    0.000 
#
# Total GULP energy -198396.411886 kJ/mol
# GULP energy per Si atom -12399.775743 kJ/mol
# Density = 1.962257 g / cm^3
# Si number density = 19.667335 Si / 1000 Ang^3
#
#
#
# Elastic Constant Matrix: (Units=GPa)
#
#
# Indices 1 2 3 4 5 6 
#
# 1 90.4019 51.3386 40.1790 -8.3619 10.7167 -15.0370
# 2 51.3386 96.5403 34.0491 4.7455 19.2529 5.4470
# 3 40.1790 34.0491 85.4423 -6.2089 10.4691 -2.7744
# 4 -8.3619 4.7455 -6.2089 30.0118 1.7259 -8.0805
# 5 10.7167 19.2529 10.4691 1.7259 46.5547 -7.0340
# 6 -15.0370 5.4470 -2.7744 -8.0805 -7.0340 22.7850
#
#
#
# Elastic Compliance Matrix: (Units=1/GPa)
#
#
# Indices 1 2 3 4 5 6 
#
# 1 0.029693 -0.017745 -0.005261 0.018113 0.005759 0.031399
# 2 -0.017745 0.024704 -0.002412 -0.015922 -0.008977 -0.026328
# 3 -0.005261 -0.002412 0.015437 0.001988 -0.001451 -0.000759
# 4 0.018113 -0.015922 0.001988 0.050574 0.005476 0.035628
# 5 0.005759 -0.008977 -0.001451 0.005476 0.026386 0.015858
# 6 0.031399 -0.026328 -0.000759 0.035628 0.015858 0.088343
#
#
# Mechanical properties :
#
#
# Convention : Reuss Voigt Hill
#
# Bulk Modulus (GPa) = 52.64069 58.16863 55.40466
# Shear Modulus (GPa) = 17.10539 29.65815 23.38177
#
# Velocity S-wave (km/s) = 2.95233 3.88750 3.45173
# Velocity P-wave (km/s) = 6.20043 7.05625 6.64214
#
# Compressibility (1/GPa) = 0.01899671
#
# Stress axis : x y z
#
# Youngs Moduli (GPa) = 33.67807 40.47921 64.78025
#
# Poissons Ratio (x) = 0.71831 0.34083
# Poissons Ratio (y) = 0.59762 0.15625
# Poissons Ratio (z) = 0.17719 0.09764
#
# Static dielectric constant tensor:
#      x y z
#    x 3.356300 0.034460 -0.105210 
#    y 0.034460 3.609520 -0.113120 
#    z -0.105210 -0.113120 3.937650 
# 
# 
# High freq. dielectric constant tensor:
#      x y z
#    x 1.759330 -0.009490 0.003900 
#    y -0.009490 1.762140 0.003910 
#    z 0.003900 0.003910 1.779280 
# 
# From -- ./inp_files/337765.got.cif
#   From: 2010.06.25/outbox.cif.g09.slc.cpg/sg2_169_cif.got.tgz:337765.got - 2010.06.27 13:26:56.
