data_PCOD8010060
_publ_section_title
;
Structure prediction by ZEFSAII (Michael W. Deem and Ramdas Pophale) SiO2 
 PCOD8010060
Probable space group: P -1
;
_chemical_formula_sum "Si O2"
_cell_formula_units_Z 10
_cell_length_a 14.313783
_cell_length_b 8.600348
_cell_length_c 12.187696
_cell_angle_alpha 123.289970
_cell_angle_beta 159.088206
_cell_angle_gamma 55.268123
_cell_volume 439.393628
_symmetry_space_group_name_H-M "P -1"
_symmetry_group_IT_number 2
_symmetry_cell_setting 'triclinic'
loop_
_space_group_symop_operation_xyz
x,y,z
-x,-y,-z
loop_
_atom_site_type_symbol
_atom_site_label
_atom_site_fract_x
_atom_site_fract_y
_atom_site_fract_z
Si Si1 0.445802 0.326789 0.804652
Si Si2 0.198852 0.039868 0.882138
Si Si3 0.768867 0.861382 0.274888
Si Si4 0.841185 0.449958 0.139579
Si Si5 0.763661 0.570598 0.851404
O O1 0.140731 0.342191 0.445251
O O2 0.500000 0.500000 0.000000
O O3 0.633420 0.316173 0.897195
O O4 0.533224 0.129416 0.895116
O O5 0.085564 0.147825 0.687858
O O6 0.267378 0.200054 0.100574
O O7 0.947523 0.937945 0.595975
O O8 0.763117 0.640058 0.205003
O O9 0.500000 0.000000 0.000000
O O10 0.818613 0.491802 0.002876
O O11 0.500000 0.500000 0.500000
O O12 0.000000 0.500000 0.000000
#
# Coordination Sequence:
#
# PCOD8010060 Si02
#       5
#     2   2   2   2   2
#     4  12  23  41  64 106 140 165 199 266 352 402
#     4  10  24  38  65  96 129 171 217 269 324 390
#     4  10  21  37  64  96 131 169 214 267 330 391
#     4  11  25  41  67  97 137 168 215 268 329 397
#     4  11  26  48  68  90 126 181 236 271 306 369
#
# _framework density 22.758638000000001
#
# number of rings (size 3 to 8) (size 9 to 14) (size 15 to 20)
#    0.000    1.200    2.000    3.000   14.000    0.000 
#    0.000    6.000    0.000    0.000    0.000    0.000 
#    0.000    0.000    0.000    0.000    0.000    0.000 
#
# Total GULP energy -123880.998122 kJ/mol
# GULP energy per Si atom -12388.099812 kJ/mol
# Density = 2.270684 g / cm^3
# Si number density = 22.758638 Si / 1000 Ang^3
#
#
#
# Elastic Constant Matrix: (Units=GPa)
#
#
# Indices 1 2 3 4 5 6 
#
# 1 92.0363 33.6736 36.6248 3.3598 11.7929 19.7944
# 2 33.6736 144.7777 73.5557 -1.4756 -0.4193 0.9564
# 3 36.6248 73.5557 175.5486 -4.4589 20.3622 -4.5554
# 4 3.3598 -1.4756 -4.4589 44.7214 -6.0194 -3.5113
# 5 11.7929 -0.4193 20.3622 -6.0194 38.7419 -2.9149
# 6 19.7944 0.9564 -4.5554 -3.5113 -2.9149 37.7255
#
#
#
# Elastic Compliance Matrix: (Units=1/GPa)
#
#
# Indices 1 2 3 4 5 6 
#
# 1 0.015111 -0.002575 -0.001818 -0.002724 -0.004750 -0.008703
# 2 -0.002575 0.009399 -0.003709 0.000613 0.003002 0.000954
# 3 -0.001818 -0.003709 0.008098 0.000487 -0.003532 0.001798
# 4 -0.002724 0.000613 0.000487 0.023561 0.004543 0.004017
# 5 -0.004750 0.003002 -0.003532 0.004543 0.030210 0.004747
# 6 -0.008703 0.000954 0.001798 0.004017 0.004747 0.032007
#
#
# Mechanical properties :
#
#
# Convention : Reuss Voigt Hill
#
# Bulk Modulus (GPa) = 60.95727 77.78564 69.37145
# Shear Modulus (GPa) = 35.69957 42.13834 38.91895
#
# Velocity S-wave (km/s) = 3.96487 4.30761 4.13979
# Velocity P-wave (km/s) = 6.91395 7.68072 7.30740
#
# Compressibility (1/GPa) = 0.01640493
#
# Stress axis : x y z
#
# Youngs Moduli (GPa) = 66.17835 106.39376 123.48087
#
# Poissons Ratio (x) = 0.27398 0.22444
# Poissons Ratio (y) = 0.17042 0.45797
# Poissons Ratio (z) = 0.12029 0.39460
#
# Static dielectric constant tensor:
#      x y z
#    x 4.986420 0.275980 0.669140 
#    y 0.275980 3.692350 0.782070 
#    z 0.669140 0.782070 4.028060 
# 
# 
# High freq. dielectric constant tensor:
#      x y z
#    x 1.912350 0.028010 0.027720 
#    y 0.028010 1.896470 -0.010100 
#    z 0.027720 -0.010100 1.898660 
# 
# From -- ./inp_files/15689.got.cif
#   From: 2010.06.25/outbox.cif.g09.slc.cpg/sg2_8_cif.got.tgz:15689.got - 2010.06.27 13:26:56.
