data_PCOD8010427
_publ_section_title
;
Structure prediction by ZEFSAII (Michael W. Deem and Ramdas Pophale) SiO2 
 PCOD8010427
Probable space group: P -1
;
_chemical_formula_sum "Si O2"
_cell_formula_units_Z 14
_cell_length_a 25.798468
_cell_length_b 10.889146
_cell_length_c 11.544382
_cell_angle_alpha 154.922109
_cell_angle_beta 148.242787
_cell_angle_gamma 33.004135
_cell_volume 688.519995
_symmetry_space_group_name_H-M "P -1"
_symmetry_group_IT_number 2
_symmetry_cell_setting 'triclinic'
loop_
_space_group_symop_operation_xyz
x,y,z
-x,-y,-z
loop_
_atom_site_type_symbol
_atom_site_label
_atom_site_fract_x
_atom_site_fract_y
_atom_site_fract_z
Si Si1 0.925609 0.816595 0.161837
Si Si2 0.110272 0.192957 0.567695
Si Si3 0.610371 0.211676 0.838846
Si Si4 0.808015 0.507364 0.840359
Si Si5 0.618957 0.558366 0.370151
Si Si6 0.793454 0.086934 0.922627
Si Si7 0.117622 0.409829 0.517540
O O1 0.858246 0.003771 0.091185
O O2 0.849303 0.743743 0.047909
O O3 0.000000 0.000000 0.500000
O O4 0.000000 0.500000 0.000000
O O5 0.117314 0.199747 0.448130
O O6 0.999782 0.410965 0.590788
O O7 0.120886 0.845995 0.327545
O O8 0.196193 0.337306 0.907865
O O9 0.493543 0.438024 0.792782
O O10 0.609777 0.868884 0.553047
O O11 0.658415 0.300822 0.125537
O O12 0.674408 0.225030 0.855260
O O13 0.696619 0.503383 0.579356
O O14 0.825218 0.343430 0.131078
O O15 0.817385 0.791498 0.634841
#
# Coordination Sequence:
#
# PCOD8010427 Si02
#       7
#     2   2   2   2   2   2   2
#     4  12  24  34  53  88 125 151 180 235 308 356
#     4  11  24  41  61  83 117 163 211 244 280 347
#     4  10  21  38  60  88 122 155 193 240 294 370
#     4  12  22  38  63  87 120 156 196 250 296 353
#     4  10  21  38  60  89 120 155 196 236 299 363
#     4  12  22  38  61  85 121 155 194 247 299 352
#     4  11  24  41  59  84 116 164 210 241 281 349
#
# _framework density 20.333468
#
# number of rings (size 3 to 8) (size 9 to 14) (size 15 to 20)
#    0.000    0.857    1.429    7.714    2.000    2.286 
#    0.000    0.000    0.000    5.143    0.000    0.000 
#    0.000    0.000    0.000    0.000    0.000    0.000 
#
# Total GULP energy -173553.536301 kJ/mol
# GULP energy per Si atom -12396.681164 kJ/mol
# Density = 2.028719 g / cm^3
# Si number density = 20.333468 Si / 1000 Ang^3
#
#
#
# Elastic Constant Matrix: (Units=GPa)
#
#
# Indices 1 2 3 4 5 6 
#
# 1 91.4469 43.1909 30.6213 -0.4491 -2.3799 -13.9642
# 2 43.1909 67.0991 34.7460 -4.3905 -0.7407 -9.8145
# 3 30.6213 34.7460 125.5590 0.2382 -4.0092 -3.7810
# 4 -0.4491 -4.3905 0.2382 34.9593 0.6646 0.2335
# 5 -2.3799 -0.7407 -4.0092 0.6646 32.2176 5.0551
# 6 -13.9642 -9.8145 -3.7810 0.2335 5.0551 26.3768
#
#
#
# Elastic Compliance Matrix: (Units=1/GPa)
#
#
# Indices 1 2 3 4 5 6 
#
# 1 0.016534 -0.009283 -0.001306 -0.000980 0.000064 0.005108
# 2 -0.009283 0.023776 -0.004255 0.002896 -0.001284 0.003543
# 3 -0.001306 -0.004255 0.009465 -0.000630 0.001175 -0.001137
# 4 -0.000980 0.002896 -0.000630 0.028972 -0.000737 0.000353
# 5 0.000064 -0.001284 0.001175 -0.000737 0.032186 -0.006437
# 6 0.005108 0.003543 -0.001137 0.000353 -0.006437 0.043002
#
#
# Mechanical properties :
#
#
# Convention : Reuss Voigt Hill
#
# Bulk Modulus (GPa) = 49.78423 55.69127 52.73775
# Shear Modulus (GPa) = 26.27196 30.41385 28.34291
#
# Velocity S-wave (km/s) = 3.59842 3.87169 3.73755
# Velocity P-wave (km/s) = 6.46543 6.88731 6.67971
#
# Compressibility (1/GPa) = 0.02008668
#
# Stress axis : x y z
#
# Youngs Moduli (GPa) = 60.48255 42.06000 105.65375
#
# Poissons Ratio (x) = 0.39043 0.13795
# Poissons Ratio (y) = 0.56144 0.44960
# Poissons Ratio (z) = 0.07897 0.17898
#
# Static dielectric constant tensor:
#      x y z
#    x 3.740210 -0.165430 0.000950 
#    y -0.165430 3.731850 -0.034480 
#    z 0.000950 -0.034480 3.862400 
# 
# 
# High freq. dielectric constant tensor:
#      x y z
#    x 1.777110 -0.005130 -0.000600 
#    y -0.005130 1.781450 0.012020 
#    z -0.000600 0.012020 1.817630 
# 
# From -- ./inp_files/439527.got.cif
#   From: 2010.06.25/outbox.cif.g09.slc.cpg/sg2_220_cif.got.tgz:439527.got - 2010.06.27 13:26:56.
