data_PCOD8010874
_publ_section_title
;
Structure prediction by ZEFSAII (Michael W. Deem and Ramdas Pophale) SiO2 
 PCOD8010874
Probable space group: P -1
;
_chemical_formula_sum "Si O2"
_cell_formula_units_Z 16
_cell_length_a 12.358747
_cell_length_b 19.666473
_cell_length_c 8.543932
_cell_angle_alpha 29.266335
_cell_angle_beta 131.048680
_cell_angle_gamma 130.726327
_cell_volume 747.572188
_symmetry_space_group_name_H-M "P -1"
_symmetry_group_IT_number 2
_symmetry_cell_setting 'triclinic'
loop_
_space_group_symop_operation_xyz
x,y,z
-x,-y,-z
loop_
_atom_site_type_symbol
_atom_site_label
_atom_site_fract_x
_atom_site_fract_y
_atom_site_fract_z
Si Si1 0.578525 0.202424 0.325418
Si Si2 0.922563 0.018846 0.726964
Si Si3 0.598560 0.570608 0.307993
Si Si4 0.926700 0.716394 0.327777
Si Si5 0.274448 0.640492 0.332989
Si Si6 0.385324 0.911836 0.740259
Si Si7 0.004990 0.324243 0.180102
Si Si8 0.164602 0.602165 0.651877
O O1 0.576777 0.187703 0.164797
O O2 0.738022 0.271148 0.407726
O O3 0.518749 0.041473 0.655238
O O4 0.475517 0.306473 0.078639
O O5 0.752087 0.023995 0.575888
O O6 0.006563 0.166571 0.424788
O O7 0.932314 0.872547 0.942951
O O8 0.000000 0.000000 0.000000
O O9 0.500000 0.500000 0.500000
O O10 0.762823 0.642316 0.370618
O O11 0.610473 0.454399 0.419693
O O12 0.016640 0.705521 0.595378
O O13 0.001149 0.636256 0.425848
O O14 0.223188 0.595388 0.548137
O O15 0.353433 0.808252 0.068343
O O16 0.137398 0.620011 0.124276
O O17 0.149962 0.443751 0.031940
#
# Coordination Sequence:
#
# PCOD8010874 Si02
#       8
#     2   2   2   2   2   2   2   2
#     4  11  23  40  66  92 128 166 217 260 315 377
#     4   9  18  35  61  92 121 157 206 266 305 364
#     4  12  23  39  65  96 123 162 212 269 313 371
#     4  11  22  39  66  94 124 161 222 259 314 374
#     4  11  24  41  64  92 133 168 212 259 322 375
#     4  10  21  42  63  92 127 168 211 265 313 374
#     4  10  21  38  64  93 125 163 213 263 307 372
#     4  12  24  41  64  94 129 175 206 259 323 382
#
# _framework density 21.402615000000001
#
# number of rings (size 3 to 8) (size 9 to 14) (size 15 to 20)
#    0.000    1.250    3.750    3.750    0.000    1.000 
#    0.000    3.750    0.000    0.000    0.000    0.000 
#    0.000    0.000    0.000    0.000    0.000    0.000 
#
# Total GULP energy -198238.291036 kJ/mol
# GULP energy per Si atom -12389.893190 kJ/mol
# Density = 2.135390 g / cm^3
# Si number density = 21.402615 Si / 1000 Ang^3
#
#
#
# Elastic Constant Matrix: (Units=GPa)
#
#
# Indices 1 2 3 4 5 6 
#
# 1 128.9486 34.2128 62.4396 -23.3050 0.9458 -4.0740
# 2 34.2128 87.3567 39.2528 -34.2540 -4.5331 18.3079
# 3 62.4396 39.2528 113.9633 -38.3832 5.9423 -0.9102
# 4 -23.3050 -34.2540 -38.3832 38.5251 7.9276 -2.9669
# 5 0.9458 -4.5331 5.9423 7.9276 30.3265 -5.0193
# 6 -4.0740 18.3079 -0.9102 -2.9669 -5.0193 28.0198
#
#
#
# Elastic Compliance Matrix: (Units=1/GPa)
#
#
# Indices 1 2 3 4 5 6 
#
# 1 0.011106 -0.003167 -0.005594 -0.001665 0.001301 0.003559
# 2 -0.003167 0.022263 0.000064 0.017595 -0.003463 -0.013762
# 3 -0.005594 0.000064 0.017434 0.015546 -0.007287 0.000052
# 4 -0.001665 0.017595 0.015546 0.058986 -0.017117 -0.008054
# 5 0.001301 -0.003463 -0.007287 -0.017117 0.039558 0.007489
# 6 0.003559 -0.013762 0.000052 -0.008054 0.007489 0.045689
#
#
# Mechanical properties :
#
#
# Convention : Reuss Voigt Hill
#
# Bulk Modulus (GPa) = 29.93236 66.89765 48.41500
# Shear Modulus (GPa) = 22.36466 32.33185 27.34825
#
# Velocity S-wave (km/s) = 3.23608 3.89092 3.57851
# Velocity P-wave (km/s) = 5.28948 7.17707 6.30432
#
# Compressibility (1/GPa) = 0.03340866
#
# Stress axis : x y z
#
# Youngs Moduli (GPa) = 90.03974 44.91773 57.35866
#
# Poissons Ratio (x) = 0.14226 0.32087
# Poissons Ratio (y) = 0.28517 -0.00367
# Poissons Ratio (z) = 0.50370 -0.00288
#
# Static dielectric constant tensor:
#      x y z
#    x 3.727670 0.232350 0.163340 
#    y 0.232350 3.989650 -0.623420 
#    z 0.163340 -0.623420 4.292570 
# 
# 
# High freq. dielectric constant tensor:
#      x y z
#    x 1.818350 0.022500 0.011840 
#    y 0.022500 1.834630 -0.037900 
#    z 0.011840 -0.037900 1.843150 
# 
# From -- ./inp_files/281425.got.cif
#   From: 2010.06.25/outbox.cif.g09.slc.cpg/sg2_141_cif.got.tgz:281425.got - 2010.06.27 13:26:56.
