data_PCOD8010233
_publ_section_title
;
Structure prediction by ZEFSAII (Michael W. Deem and Ramdas Pophale) SiO2 
 PCOD8010233
Probable space group: P -1
;
_chemical_formula_sum "Si O2"
_cell_formula_units_Z 14
_cell_length_a 11.912320
_cell_length_b 15.293581
_cell_length_c 15.434397
_cell_angle_alpha 19.024179
_cell_angle_beta 70.725701
_cell_angle_gamma 60.767971
_cell_volume 709.128803
_symmetry_space_group_name_H-M "P -1"
_symmetry_group_IT_number 2
_symmetry_cell_setting 'triclinic'
loop_
_space_group_symop_operation_xyz
x,y,z
-x,-y,-z
loop_
_atom_site_type_symbol
_atom_site_label
_atom_site_fract_x
_atom_site_fract_y
_atom_site_fract_z
Si Si1 0.159505 0.483854 0.403116
Si Si2 0.088180 0.915536 0.365596
Si Si3 0.471799 0.159345 0.557633
Si Si4 0.548493 0.506368 0.077528
Si Si5 0.998006 0.168147 0.716748
Si Si6 0.133521 0.722220 0.781401
Si Si7 0.767963 0.736235 0.955548
O O1 0.323630 0.353891 0.466289
O O2 0.127633 0.218603 0.631452
O O3 0.127253 0.561058 0.441064
O O4 0.055125 0.808250 0.070277
O O5 0.073715 0.780890 0.405652
O O6 0.165624 0.101615 0.161801
O O7 0.189895 0.598206 0.696590
O O8 0.927879 0.196711 0.180862
O O9 0.479660 0.401915 0.264587
O O10 0.595575 0.001045 0.748322
O O11 0.483340 0.883666 0.753957
O O12 0.723454 0.275428 0.259164
O O13 0.500000 0.500000 0.000000
O O14 0.175491 0.374040 0.056255
O O15 0.000000 0.000000 0.500000
#
# Coordination Sequence:
#
# PCOD8010233 Si02
#       7
#     2   2   2   2   2   2   2
#     4  10  22  40  63  83 120 154 193 240 315 341
#     4  11  21  36  61  84 117 148 205 240 288 332
#     4  11  22  40  61  79 123 159 188 232 316 345
#     4  11  24  38  55  91 121 152 204 246 282 362
#     4  10  22  40  60  92 113 149 201 254 282 355
#     4   9  20  36  57  81 118 159 193 233 293 346
#     4  10  21  38  55  87 116 159 189 240 285 362
#
# _framework density 19.742533999999999
#
# number of rings (size 3 to 8) (size 9 to 14) (size 15 to 20)
#    0.000    1.714    0.000    5.143    4.000    3.429 
#    0.000    1.429    0.000    0.000    0.000    0.000 
#    0.000    0.000    0.000    0.000    0.000    0.000 
#
# Total GULP energy -173556.372515 kJ/mol
# GULP energy per Si atom -12396.883751 kJ/mol
# Density = 1.969760 g / cm^3
# Si number density = 19.742534 Si / 1000 Ang^3
#
#
#
# Elastic Constant Matrix: (Units=GPa)
#
#
# Indices 1 2 3 4 5 6 
#
# 1 131.0932 73.8955 27.9004 -8.1947 1.2663 -2.9359
# 2 73.8955 91.7687 10.0777 -2.1044 13.5738 4.1415
# 3 27.9004 10.0777 49.0231 1.0670 -3.0788 2.6744
# 4 -8.1947 -2.1044 1.0670 22.4294 -1.8507 -0.4269
# 5 1.2663 13.5738 -3.0788 -1.8507 34.5384 -6.0061
# 6 -2.9359 4.1415 2.6744 -0.4269 -6.0061 38.3490
#
#
#
# Elastic Compliance Matrix: (Units=1/GPa)
#
#
# Indices 1 2 3 4 5 6 
#
# 1 0.017573 -0.014222 -0.007103 0.005949 0.005376 0.004285
# 2 -0.014222 0.023594 0.003021 -0.004024 -0.009637 -0.005402
# 3 -0.007103 0.003021 0.024069 -0.003455 0.000600 -0.002493
# 4 0.005949 -0.004024 -0.003455 0.046915 0.003965 0.002274
# 5 0.005376 -0.009637 0.000600 0.003965 0.033988 0.006778
# 6 0.004285 -0.005402 -0.002493 0.002274 0.006778 0.028248
#
#
# Mechanical properties :
#
#
# Convention : Reuss Voigt Hill
#
# Bulk Modulus (GPa) = 34.93152 55.07024 45.00088
# Shear Modulus (GPa) = 22.67177 29.73079 26.20128
#
# Velocity S-wave (km/s) = 3.39244 3.88484 3.64696
# Velocity P-wave (km/s) = 5.75124 6.93378 6.37001
#
# Compressibility (1/GPa) = 0.02862744
#
# Stress axis : x y z
#
# Youngs Moduli (GPa) = 56.90652 42.38290 41.54734
#
# Poissons Ratio (x) = 0.60278 0.29511
# Poissons Ratio (y) = 0.80934 -0.12551
# Poissons Ratio (z) = 0.40421 -0.12804
#
# Static dielectric constant tensor:
#      x y z
#    x 3.657140 -0.087160 -0.046510 
#    y -0.087160 3.858220 -0.091750 
#    z -0.046510 -0.091750 3.667840 
# 
# 
# High freq. dielectric constant tensor:
#      x y z
#    x 1.775960 0.000740 -0.008440 
#    y 0.000740 1.758200 -0.006760 
#    z -0.008440 -0.006760 1.772290 
# 
# From -- ./inp_files/54970.got.cif
#   From: 2010.06.25/outbox.cif.g09.slc.cpg/sg2_28_cif.got.tgz:54970.got - 2010.06.27 13:26:56.
