data_PCOD8010101
_publ_section_title
;
Structure prediction by ZEFSAII (Michael W. Deem and Ramdas Pophale) SiO2 
 PCOD8010101
Probable space group: P -1
;
_chemical_formula_sum "Si O2"
_cell_formula_units_Z 16
_cell_length_a 15.627144
_cell_length_b 12.042867
_cell_length_c 5.445299
_cell_angle_alpha 119.779439
_cell_angle_beta 93.090543
_cell_angle_gamma 117.729954
_cell_volume 731.116722
_symmetry_space_group_name_H-M "P -1"
_symmetry_group_IT_number 2
_symmetry_cell_setting 'triclinic'
loop_
_space_group_symop_operation_xyz
x,y,z
-x,-y,-z
loop_
_atom_site_type_symbol
_atom_site_label
_atom_site_fract_x
_atom_site_fract_y
_atom_site_fract_z
Si Si1 0.072658 0.131052 0.345685
Si Si2 0.414364 0.227710 0.412378
Si Si3 0.280119 0.909228 0.330878
Si Si4 0.545450 0.942438 0.141633
Si Si5 0.652436 0.435400 0.710172
Si Si6 0.668803 0.304094 0.046602
Si Si7 0.254434 0.263342 0.210844
Si Si8 0.123682 0.964447 0.561141
O O1 0.170836 0.275205 0.373666
O O2 0.120366 0.068836 0.468845
O O3 0.995207 0.166106 0.508772
O O4 0.000000 0.000000 0.000000
O O5 0.530793 0.355731 0.664630
O O6 0.352504 0.307999 0.446468
O O7 0.350158 0.083752 0.429495
O O8 0.421706 0.165076 0.083748
O O9 0.350333 0.909717 0.562846
O O10 0.169601 0.870400 0.361420
O O11 0.262791 0.770271 0.001425
O O12 0.450286 0.836801 0.198315
O O13 0.500000 0.000000 0.000000
O O14 0.671563 0.374098 0.390386
O O15 0.707827 0.619290 0.882601
O O16 0.706459 0.420514 0.945873
O O17 0.198793 0.084547 0.917353
#
# Coordination Sequence:
#
# PCOD8010101 Si02
#       8
#     2   2   2   2   2   2   2   2
#     4   9  20  39  61  92 118 146 200 259 337 369
#     4  11  21  35  56  92 121 164 208 256 302 357
#     4  12  20  35  62  88 123 154 213 264 308 348
#     4  11  20  35  55  85 126 164 203 254 305 353
#     4  11  26  40  58  87 134 177 211 236 298 381
#     4  11  24  39  57  87 125 174 210 247 296 362
#     4  11  22  39  61  87 126 163 202 255 311 380
#     4  10  21  37  65  95 113 152 200 271 324 362
#
# _framework density 21.884332000000001
#
# number of rings (size 3 to 8) (size 9 to 14) (size 15 to 20)
#    0.000    1.250    5.000    2.250    1.750    0.000 
#    0.000    2.500    0.000    1.500    0.000    0.000 
#    0.000    0.000    0.000    0.000    0.000    0.000 
#
# Total GULP energy -198247.979492 kJ/mol
# GULP energy per Si atom -12390.498718 kJ/mol
# Density = 2.183452 g / cm^3
# Si number density = 21.884332 Si / 1000 Ang^3
#
#
#
# Elastic Constant Matrix: (Units=GPa)
#
#
# Indices 1 2 3 4 5 6 
#
# 1 150.1812 43.3102 24.6818 -8.4694 -20.3847 17.1272
# 2 43.3102 113.4969 1.8531 -14.9821 -4.4458 6.7196
# 3 24.6818 1.8531 37.2579 -11.7421 -2.9854 2.2772
# 4 -8.4694 -14.9821 -11.7421 27.5784 -3.2735 -1.6668
# 5 -20.3847 -4.4458 -2.9854 -3.2735 21.8847 -7.9171
# 6 17.1272 6.7196 2.2772 -1.6668 -7.9171 25.4198
#
#
#
# Elastic Compliance Matrix: (Units=1/GPa)
#
#
# Indices 1 2 3 4 5 6 
#
# 1 0.009751 -0.003278 -0.005812 -0.000705 0.006342 -0.003254
# 2 -0.003278 0.010911 0.003761 0.006556 0.000503 -0.000426
# 3 -0.005812 0.003761 0.035679 0.015943 0.003247 0.001782
# 4 -0.000705 0.006556 0.015943 0.048002 0.011492 0.004040
# 5 0.006342 0.000503 0.003247 0.011492 0.059097 0.014463
# 6 -0.003254 -0.000426 0.001782 0.004040 0.014463 0.046254
#
#
# Mechanical properties :
#
#
# Convention : Reuss Voigt Hill
#
# Bulk Modulus (GPa) = 21.88971 48.95848 35.42409
# Shear Modulus (GPa) = 21.22433 30.38265 25.80349
#
# Velocity S-wave (km/s) = 3.11761 3.73007 3.43751
# Velocity P-wave (km/s) = 4.79411 6.40088 5.65485
#
# Compressibility (1/GPa) = 0.04568357
#
# Stress axis : x y z
#
# Youngs Moduli (GPa) = 102.55076 91.65355 28.02797
#
# Poissons Ratio (x) = 0.30045 0.16289
# Poissons Ratio (y) = 0.33617 -0.10543
# Poissons Ratio (z) = 0.59600 -0.34475
#
# Static dielectric constant tensor:
#      x y z
#    x 4.401650 0.366340 -0.184360 
#    y 0.366340 4.068370 -0.165010 
#    z -0.184360 -0.165010 3.561200 
# 
# 
# High freq. dielectric constant tensor:
#      x y z
#    x 1.862080 0.006710 -0.009280 
#    y 0.006710 1.844730 -0.032650 
#    z -0.009280 -0.032650 1.837320 
# 
# From -- ./inp_files/69898.got.cif
#   From: 2010.06.25/outbox.cif.g09.slc.cpg/sg2_35_cif.got.tgz:69898.got - 2010.06.27 13:26:56.
