data_PCOD8010596
_publ_section_title
;
Structure prediction by ZEFSAII (Michael W. Deem and Ramdas Pophale) SiO2 
 PCOD8010596
Probable space group: P -1
;
_chemical_formula_sum "Si O2"
_cell_formula_units_Z 16
_cell_length_a 16.156647
_cell_length_b 14.666467
_cell_length_c 15.636875
_cell_angle_alpha 41.275713
_cell_angle_beta 17.851207
_cell_angle_gamma 42.692349
_cell_volume 745.760220
_symmetry_space_group_name_H-M "P -1"
_symmetry_group_IT_number 2
_symmetry_cell_setting 'triclinic'
loop_
_space_group_symop_operation_xyz
x,y,z
-x,-y,-z
loop_
_atom_site_type_symbol
_atom_site_label
_atom_site_fract_x
_atom_site_fract_y
_atom_site_fract_z
Si Si1 0.215719 0.503836 0.169674
Si Si2 0.128853 0.791951 0.455146
Si Si3 0.059027 0.487508 0.156295
Si Si4 0.745351 0.343421 0.813101
Si Si5 0.481749 0.866937 0.336949
Si Si6 0.510628 0.555566 0.547639
Si Si7 0.930023 0.048552 0.769463
Si Si8 0.616685 0.851845 0.020529
O O1 0.154016 0.569740 0.088558
O O2 0.299452 0.628108 0.061137
O O3 0.941118 0.451227 0.510209
O O4 0.459413 0.377327 0.020030
O O5 0.137020 0.911877 0.291538
O O6 0.430933 0.749137 0.224381
O O7 0.010562 0.656244 0.628534
O O8 0.934120 0.834621 0.697643
O O9 0.807014 0.546758 0.304785
O O10 0.307231 0.465963 0.861542
O O11 0.873084 0.185378 0.786801
O O12 0.409973 0.718677 0.546819
O O13 0.564909 0.830342 0.184666
O O14 0.239578 0.984746 0.511480
O O15 0.745059 0.932689 0.069271
O O16 0.500000 0.500000 0.500000
O O17 0.500000 0.000000 0.000000
#
# Coordination Sequence:
#
# PCOD8010596 Si02
#       8
#     2   2   2   2   2   2   2   2
#     4  10  21  38  65  97 130 167 196 255 317 396
#     4  12  22  35  58  92 119 154 198 253 322 364
#     4  12  24  41  68  88 125 166 218 260 305 374
#     4  10  21  38  62 100 137 154 196 254 337 384
#     4  12  25  40  61  84 122 169 213 252 317 368
#     4  12  27  47  62  87 123 177 225 265 295 354
#     4  12  22  37  63  92 127 155 195 259 323 387
#     4  12  22  37  52  86 123 155 197 253 309 379
#
# _framework density 21.454616999999999
#
# number of rings (size 3 to 8) (size 9 to 14) (size 15 to 20)
#    0.000    0.500    3.750    6.000    1.750    0.000 
#    0.000    0.000    0.000    4.500    0.000    0.000 
#    0.000    0.000    0.000    0.000    0.000    0.000 
#
# Total GULP energy -198268.975096 kJ/mol
# GULP energy per Si atom -12391.810943 kJ/mol
# Density = 2.140579 g / cm^3
# Si number density = 21.454617 Si / 1000 Ang^3
#
#
#
# Elastic Constant Matrix: (Units=GPa)
#
#
# Indices 1 2 3 4 5 6 
#
# 1 130.3292 28.7598 27.7203 15.6828 -10.4949 5.4720
# 2 28.7598 92.8508 17.3832 11.5905 0.2442 9.5528
# 3 27.7203 17.3832 96.8044 5.9173 -8.7934 1.1025
# 4 15.6828 11.5905 5.9173 38.1163 -0.4481 -1.8673
# 5 -10.4949 0.2442 -8.7934 -0.4481 21.3283 3.8779
# 6 5.4720 9.5528 1.1025 -1.8673 3.8779 26.6204
#
#
#
# Elastic Compliance Matrix: (Units=1/GPa)
#
#
# Indices 1 2 3 4 5 6 
#
# 1 0.009249 -0.001984 -0.001710 -0.002983 0.004158 -0.001933
# 2 -0.001984 0.012460 -0.001541 -0.002944 -0.001080 -0.004049
# 3 -0.001710 -0.001541 0.011491 -0.000574 0.003935 -0.000185
# 4 -0.002983 -0.002944 -0.000574 0.028620 -0.001790 0.003962
# 5 0.004158 -0.001080 0.003935 -0.001790 0.052045 -0.008337
# 6 -0.001933 -0.004049 -0.000185 0.003962 -0.008337 0.040916
#
#
# Mechanical properties :
#
#
# Convention : Reuss Voigt Hill
#
# Bulk Modulus (GPa) = 43.99694 51.96789 47.98242
# Shear Modulus (GPa) = 28.93018 33.62106 31.27562
#
# Velocity S-wave (km/s) = 3.67609 3.96293 3.82220
# Velocity P-wave (km/s) = 6.21045 6.72418 6.47241
#
# Compressibility (1/GPa) = 0.02272885
#
# Stress axis : x y z
#
# Youngs Moduli (GPa) = 108.11485 80.25613 87.02230
#
# Poissons Ratio (x) = 0.15927 0.14883
# Poissons Ratio (y) = 0.21455 0.13412
# Poissons Ratio (z) = 0.18490 0.12369
#
# Static dielectric constant tensor:
#      x y z
#    x 4.803150 -0.241170 -1.546100 
#    y -0.241170 4.120340 0.567830 
#    z -1.546100 0.567830 5.712580 
# 
# 
# High freq. dielectric constant tensor:
#      x y z
#    x 1.822660 0.012460 -0.014150 
#    y 0.012460 1.833240 0.008040 
#    z -0.014150 0.008040 1.863050 
# 
# From -- ./inp_files/474824.got.cif
#   From: 2010.06.25/outbox.cif.g09.slc.cpg/sg2_238_cif.got.tgz:474824.got - 2010.06.27 13:26:56.
