data_PCOD8010550
_publ_section_title
;
Structure prediction by ZEFSAII (Michael W. Deem and Ramdas Pophale) SiO2 
 PCOD8010550
Probable space group: P -1
;
_chemical_formula_sum "Si O2"
_cell_formula_units_Z 12
_cell_length_a 11.560029
_cell_length_b 11.925048
_cell_length_c 14.818516
_cell_angle_alpha 150.607783
_cell_angle_beta 38.388523
_cell_angle_gamma 122.039375
_cell_volume 539.133551
_symmetry_space_group_name_H-M "P -1"
_symmetry_group_IT_number 2
_symmetry_cell_setting 'triclinic'
loop_
_space_group_symop_operation_xyz
x,y,z
-x,-y,-z
loop_
_atom_site_type_symbol
_atom_site_label
_atom_site_fract_x
_atom_site_fract_y
_atom_site_fract_z
Si Si1 0.579723 0.599362 0.210001
Si Si2 0.343580 0.570063 0.762863
Si Si3 0.228040 0.476119 0.585878
Si Si4 0.685748 0.649263 0.860920
Si Si5 0.851860 0.827492 0.720938
Si Si6 0.749090 0.834298 0.132813
O O1 0.710125 0.489712 0.146976
O O2 0.513854 0.396362 0.066390
O O3 0.737899 0.628012 0.064148
O O4 0.364201 0.877320 0.553274
O O5 0.288827 0.413232 0.610411
O O6 0.597006 0.473972 0.536912
O O7 0.193903 0.876994 0.045590
O O8 0.221899 0.231480 0.371662
O O9 0.998450 0.740970 0.897642
O O10 0.710269 0.798988 0.865555
O O11 0.897740 0.368073 0.551727
O O12 0.633286 0.836118 0.111273
#
# Coordination Sequence:
#
# PCOD8010550 Si02
#       6
#     2   2   2   2   2   2
#     4  11  23  40  60  87 116 157 192 241 284 344
#     4  11  23  36  62  88 119 149 194 241 290 337
#     4  10  22  39  57  89 118 151 191 237 291 341
#     4  10  21  38  64  86 115 154 192 239 289 342
#     4  10  21  38  61  91 117 146 193 246 287 339
#     4  10  24  41  59  83 121 155 197 231 288 348
#
# _framework density 22.257936999999998
#
# number of rings (size 3 to 8) (size 9 to 14) (size 15 to 20)
#    0.000    1.667    1.667    2.000    4.667    1.333 
#    0.000    3.333    0.000    0.000    0.000    0.000 
#    0.000    0.000    0.000    0.000    0.000    0.000 
#
# Total GULP energy -148853.194815 kJ/mol
# GULP energy per Si atom -12404.432901 kJ/mol
# Density = 2.220728 g / cm^3
# Si number density = 22.257937 Si / 1000 Ang^3
#
#
#
# Elastic Constant Matrix: (Units=GPa)
#
#
# Indices 1 2 3 4 5 6 
#
# 1 119.9110 22.5256 -2.3986 -1.5677 23.0782 -20.4173
# 2 22.5256 60.5302 1.5460 9.7783 2.5872 -20.0090
# 3 -2.3986 1.5460 49.4488 -8.0274 3.5225 -4.8543
# 4 -1.5677 9.7783 -8.0274 16.6446 -5.1209 -0.4272
# 5 23.0782 2.5872 3.5225 -5.1209 28.9690 0.5786
# 6 -20.4173 -20.0090 -4.8543 -0.4272 0.5786 24.4967
#
#
#
# Elastic Compliance Matrix: (Units=1/GPa)
#
#
# Indices 1 2 3 4 5 6 
#
# 1 0.012240 -0.000753 0.002328 -0.000156 -0.010200 0.010286
# 2 -0.000753 0.026739 -0.001301 -0.017452 -0.005130 0.020772
# 3 0.002328 -0.001301 0.022973 0.011400 -0.002631 0.005691
# 4 -0.000156 -0.017452 0.011400 0.080044 0.014667 -0.011076
# 5 -0.010200 -0.005130 -0.002631 0.014667 0.046297 -0.014051
# 6 0.010286 0.020772 0.005691 -0.011076 -0.014051 0.067628
#
#
# Mechanical properties :
#
#
# Convention : Reuss Voigt Hill
#
# Bulk Modulus (GPa) = 15.99981 30.35958 23.17969
# Shear Modulus (GPa) = 18.10239 27.90318 23.00279
#
# Velocity S-wave (km/s) = 2.85494 3.54450 3.21824
# Velocity P-wave (km/s) = 4.25106 5.51551 4.92404
#
# Compressibility (1/GPa) = 0.06250075
#
# Stress axis : x y z
#
# Youngs Moduli (GPa) = 81.69903 37.39840 43.52876
#
# Poissons Ratio (x) = 0.02816 -0.10135
# Poissons Ratio (y) = 0.06153 0.05664
# Poissons Ratio (z) = -0.19022 0.04866
#
# Static dielectric constant tensor:
#      x y z
#    x 4.197970 -0.123390 0.224830 
#    y -0.123390 3.748400 -0.111200 
#    z 0.224830 -0.111200 3.830600 
# 
# 
# High freq. dielectric constant tensor:
#      x y z
#    x 1.894340 -0.008010 0.014840 
#    y -0.008010 1.851350 -0.002200 
#    z 0.014840 -0.002200 1.867750 
# 
# From -- ./inp_files/160597.got.cif
#   From: 2010.06.25/outbox.cif.g09.slc.cpg/sg2_81_cif.got.tgz:160597.got - 2010.06.27 13:26:56.
