data_PCOD8010138
_publ_section_title
;
Structure prediction by ZEFSAII (Michael W. Deem and Ramdas Pophale) SiO2 
 PCOD8010138
Probable space group: P -1
;
_chemical_formula_sum "Si O2"
_cell_formula_units_Z 16
_cell_length_a 14.908551
_cell_length_b 8.862173
_cell_length_c 14.885752
_cell_angle_alpha 141.664429
_cell_angle_beta 39.955515
_cell_angle_gamma 142.707562
_cell_volume 683.907403
_symmetry_space_group_name_H-M "P -1"
_symmetry_group_IT_number 2
_symmetry_cell_setting 'triclinic'
loop_
_space_group_symop_operation_xyz
x,y,z
-x,-y,-z
loop_
_atom_site_type_symbol
_atom_site_label
_atom_site_fract_x
_atom_site_fract_y
_atom_site_fract_z
Si Si1 0.724000 0.003241 0.354817
Si Si2 0.826811 0.632063 0.202844
Si Si3 0.858024 0.012192 0.793047
Si Si4 0.657917 0.591065 0.478760
Si Si5 0.018265 0.412345 0.544519
Si Si6 0.738778 0.117366 0.758574
Si Si7 0.459077 0.003319 0.668726
Si Si8 0.411514 0.030567 0.920028
O O1 0.866256 0.304981 0.359153
O O2 0.603918 0.866565 0.298705
O O3 0.789001 0.789745 0.226360
O O4 0.634930 0.049969 0.530989
O O5 0.804238 0.747407 0.370590
O O6 0.707032 0.303377 0.133916
O O7 0.018835 0.754858 0.121168
O O8 0.909173 0.796778 0.613067
O O9 0.831355 0.188041 0.815462
O O10 0.689558 0.836213 0.894871
O O11 0.500000 0.500000 0.500000
O O12 0.661078 0.327496 0.395872
O O13 0.670051 0.788762 0.642557
O O14 0.000000 0.500000 0.500000
O O15 0.853540 0.287071 0.667746
O O16 0.580357 0.151428 0.899295
O O17 0.454792 0.122475 0.825881
#
# Coordination Sequence:
#
# PCOD8010138 Si02
#       8
#     2   2   2   2   2   2   2   2
#     4  11  21  39  64  99 122 168 215 261 317 375
#     4  11  21  40  66  91 126 161 214 271 306 368
#     4  12  26  41  64  99 129 167 214 260 327 376
#     4  11  17  36  67  93 119 161 216 269 306 351
#     4  12  24  40  65  92 136 164 206 264 319 379
#     4  12  23  41  67  94 128 169 216 262 314 380
#     4  10  21  37  66  93 126 163 219 264 310 376
#     4  11  24  45  66  92 128 171 212 266 317 376
#
# _framework density 23.394981000000001
#
# number of rings (size 3 to 8) (size 9 to 14) (size 15 to 20)
#    0.000    0.750    6.250    2.625    3.500    1.000 
#    0.000    4.375    0.000    0.000    0.000    0.000 
#    0.000    0.000    0.000    0.000    0.000    0.000 
#
# Total GULP energy -198300.318051 kJ/mol
# GULP energy per Si atom -12393.769878 kJ/mol
# Density = 2.334173 g / cm^3
# Si number density = 23.394981 Si / 1000 Ang^3
#
#
#
# Elastic Constant Matrix: (Units=GPa)
#
#
# Indices 1 2 3 4 5 6 
#
# 1 153.6253 36.1424 20.1462 -20.2143 -13.8243 -3.7639
# 2 36.1424 75.1630 21.3926 -21.9060 -11.2502 2.0363
# 3 20.1462 21.3926 61.3331 -31.2746 -11.8764 3.4707
# 4 -20.2143 -21.9060 -31.2746 38.2524 6.8367 3.0715
# 5 -13.8243 -11.2502 -11.8764 6.8367 25.3086 -11.0102
# 6 -3.7639 2.0363 3.4707 3.0715 -11.0102 27.0944
#
#
#
# Elastic Compliance Matrix: (Units=1/GPa)
#
#
# Indices 1 2 3 4 5 6 
#
# 1 0.007780 -0.002768 -0.000321 0.001399 0.003644 0.002652
# 2 -0.002768 0.017566 -0.000638 0.007533 0.003504 -0.001053
# 3 -0.000321 -0.000638 0.029712 0.023133 0.005393 -0.004234
# 4 0.001399 0.007533 0.023133 0.051609 -0.003606 -0.010651
# 5 0.003644 0.003504 0.005393 -0.003606 0.056544 0.022939
# 6 0.002652 -0.001053 -0.004234 -0.010651 0.022939 0.048427
#
#
# Mechanical properties :
#
#
# Convention : Reuss Voigt Hill
#
# Bulk Modulus (GPa) = 21.00699 49.49818 35.25258
# Shear Modulus (GPa) = 21.28025 32.29376 26.78700
#
# Velocity S-wave (km/s) = 3.01924 3.71937 3.38744
# Velocity P-wave (km/s) = 4.59926 6.29670 5.51369
#
# Compressibility (1/GPa) = 0.04760320
#
# Stress axis : x y z
#
# Youngs Moduli (GPa) = 128.53973 56.92957 33.65611
#
# Poissons Ratio (x) = 0.15759 0.01079
# Poissons Ratio (y) = 0.35582 0.02148
# Poissons Ratio (z) = 0.04123 0.03634
#
# Static dielectric constant tensor:
#      x y z
#    x 4.340750 0.126650 0.117400 
#    y 0.126650 4.369540 -0.498250 
#    z 0.117400 -0.498250 7.115140 
# 
# 
# High freq. dielectric constant tensor:
#      x y z
#    x 1.934690 0.007630 -0.007150 
#    y 0.007630 1.922640 -0.019530 
#    z -0.007150 -0.019530 1.904650 
# 
# From -- ./inp_files/530229.got.cif
#   From: 2010.06.25/outbox.cif.g09.slc.cpg/sg2_266_cif.got.tgz:530229.got - 2010.06.27 13:26:56.
