data_PCOD8010172
_publ_section_title
;
Structure prediction by ZEFSAII (Michael W. Deem and Ramdas Pophale) SiO2 
 PCOD8010172
Probable space group: P -1
;
_chemical_formula_sum "Si O2"
_cell_formula_units_Z 16
_cell_length_a 8.680223
_cell_length_b 12.994285
_cell_length_c 19.031589
_cell_angle_alpha 28.016085
_cell_angle_beta 124.093598
_cell_angle_gamma 130.363192
_cell_volume 767.915510
_symmetry_space_group_name_H-M "P -1"
_symmetry_group_IT_number 2
_symmetry_cell_setting 'triclinic'
loop_
_space_group_symop_operation_xyz
x,y,z
-x,-y,-z
loop_
_atom_site_type_symbol
_atom_site_label
_atom_site_fract_x
_atom_site_fract_y
_atom_site_fract_z
Si Si1 0.870875 0.876064 0.337529
Si Si2 0.169791 0.159850 0.809068
Si Si3 0.077873 0.694624 0.142627
Si Si4 0.610320 0.482954 0.735352
Si Si5 0.318440 0.776528 0.675857
Si Si6 0.856443 0.353028 0.654103
Si Si7 0.573579 0.856449 0.394651
Si Si8 0.284370 0.154688 0.335228
O O1 0.801232 0.905395 0.224072
O O2 0.889361 0.625858 0.503694
O O3 0.708483 0.905516 0.330394
O O4 0.086221 0.089359 0.276806
O O5 0.390798 0.299084 0.814598
O O6 0.044405 0.329201 0.675722
O O7 0.052006 0.925524 0.965870
O O8 0.248071 0.652395 0.166428
O O9 0.152225 0.748757 0.208700
O O10 0.862719 0.477598 0.211042
O O11 0.585449 0.630713 0.573332
O O12 0.713030 0.648918 0.727036
O O13 0.523507 0.744162 0.728157
O O14 0.345150 0.912564 0.674450
O O15 0.268725 0.918093 0.514701
O O16 0.655145 0.199487 0.652409
#
# Coordination Sequence:
#
# PCOD8010172 Si02
#       8
#     2   2   2   2   2   2   2   2
#     4  12  22  41  64  96 123 162 213 258 307 359
#     4  12  27  40  62  94 131 166 204 254 313 374
#     4  12  24  44  62  92 131 168 201 251 318 377
#     4  11  22  40  65  95 126 162 208 258 310 364
#     4  10  21  39  64  94 126 160 206 259 312 361
#     4  12  23  41  65  91 125 165 212 255 304 364
#     4  11  22  39  68  97 120 159 214 265 302 357
#     4  10  21  37  67  96 120 158 214 262 301 361
#
# _framework density 20.835625
#
# number of rings (size 3 to 8) (size 9 to 14) (size 15 to 20)
#    0.000    0.750    3.750    4.500    3.500    2.000 
#    0.000    6.250    0.000    0.000    0.000    0.000 
#    0.000    0.000    0.000    0.000    0.000    0.000 
#
# Total GULP energy -198515.349372 kJ/mol
# GULP energy per Si atom -12407.209336 kJ/mol
# Density = 2.078820 g / cm^3
# Si number density = 20.835625 Si / 1000 Ang^3
#
#
#
# Elastic Constant Matrix: (Units=GPa)
#
#
# Indices 1 2 3 4 5 6 
#
# 1 96.3754 1.3382 -1.6983 -1.7327 -2.3614 11.1435
# 2 1.3382 73.7046 16.6574 1.4629 -6.7721 11.7811
# 3 -1.6983 16.6574 52.4027 3.6583 -12.1151 1.2816
# 4 -1.7327 1.4629 3.6583 20.9720 2.3783 -13.1148
# 5 -2.3614 -6.7721 -12.1151 2.3783 20.2803 -0.0195
# 6 11.1435 11.7811 1.2816 -13.1148 -0.0195 43.1538
#
#
#
# Elastic Compliance Matrix: (Units=1/GPa)
#
#
# Indices 1 2 3 4 5 6 
#
# 1 0.010806 0.000372 0.000925 -0.001680 0.002129 -0.003429
# 2 0.000372 0.015707 -0.003719 -0.004312 0.003567 -0.005582
# 3 0.000925 -0.003719 0.024049 -0.006674 0.014013 -0.001960
# 4 -0.001680 -0.004312 -0.006674 0.063731 -0.013076 0.021172
# 5 0.002129 0.003567 0.014013 -0.013076 0.060647 -0.005886
# 6 -0.003429 -0.005582 -0.001960 0.021172 -0.005886 0.032072
#
#
# Mechanical properties :
#
#
# Convention : Reuss Voigt Hill
#
# Bulk Modulus (GPa) = 21.87310 28.34191 25.10750
# Shear Modulus (GPa) = 22.01736 30.62693 26.32214
#
# Velocity S-wave (km/s) = 3.25424 3.83813 3.55818
# Velocity P-wave (km/s) = 4.96396 5.76834 5.38120
#
# Compressibility (1/GPa) = 0.04571826
#
# Stress axis : x y z
#
# Youngs Moduli (GPa) = 92.54402 63.66610 41.58261
#
# Poissons Ratio (x) = -0.02367 -0.03848
# Poissons Ratio (y) = -0.03440 0.15463
# Poissons Ratio (z) = -0.08564 0.23675
#
# Static dielectric constant tensor:
#      x y z
#    x 3.864950 -0.045300 -0.058460 
#    y -0.045300 3.916860 -0.006180 
#    z -0.058460 -0.006180 3.510200 
# 
# 
# High freq. dielectric constant tensor:
#      x y z
#    x 1.833030 -0.002990 -0.005390 
#    y -0.002990 1.832930 -0.005130 
#    z -0.005390 -0.005130 1.785570 
# 
# From -- ./inp_files/184400.got.cif
#   From: 2010.06.25/outbox.cif.g09.slc.cpg/sg2_93_cif.got.tgz:184400.got - 2010.06.27 13:26:56.
