data_PCOD8010579
_publ_section_title
;
Structure prediction by ZEFSAII (Michael W. Deem and Ramdas Pophale) SiO2 
 PCOD8010579
Probable space group: P -1
;
_chemical_formula_sum "Si O2"
_cell_formula_units_Z 14
_cell_length_a 11.398023
_cell_length_b 9.091001
_cell_length_c 20.635055
_cell_angle_alpha 38.573977
_cell_angle_beta 29.053087
_cell_angle_gamma 38.459031
_cell_volume 611.390348
_symmetry_space_group_name_H-M "P -1"
_symmetry_group_IT_number 2
_symmetry_cell_setting 'triclinic'
loop_
_space_group_symop_operation_xyz
x,y,z
-x,-y,-z
loop_
_atom_site_type_symbol
_atom_site_label
_atom_site_fract_x
_atom_site_fract_y
_atom_site_fract_z
Si Si1 0.094597 0.250639 0.756065
Si Si2 0.520883 0.261791 0.245261
Si Si3 0.996671 0.683447 0.074451
Si Si4 0.709623 0.019125 0.984670
Si Si5 0.201766 0.635605 0.365555
Si Si6 0.986178 0.265797 0.442905
Si Si7 0.833911 0.851386 0.842995
O O1 0.060701 0.208370 0.863143
O O2 0.846110 0.231050 0.844435
O O3 0.121647 0.517365 0.633814
O O4 0.340906 0.016236 0.696281
O O5 0.460589 0.465027 0.263555
O O6 0.265723 0.259971 0.332695
O O7 0.714343 0.338096 0.078106
O O8 0.957031 0.412304 0.185316
O O9 0.787892 0.856340 0.067481
O O10 0.782667 0.843493 0.946822
O O11 0.406698 0.144730 0.087218
O O12 0.000000 0.500000 0.500000
O O13 0.225329 0.667698 0.420305
O O14 0.084737 0.909589 0.295737
O O15 0.000000 0.000000 0.500000
#
# Coordination Sequence:
#
# PCOD8010579 Si02
#       7
#     2   2   2   2   2   2   2
#     4  11  24  41  64  92 127 168 203 250 316 372
#     4  10  22  42  62  88 126 162 205 256 309 368
#     4  11  23  39  64  97 128 158 201 257 318 378
#     4  10  21  38  61  94 124 156 204 254 316 375
#     4  10  22  41  62  86 121 166 209 247 296 364
#     4  11  24  42  63  90 124 165 214 254 295 364
#     4  11  21  38  64  90 123 160 201 262 314 353
#
# _framework density 22.898627000000001
#
# number of rings (size 3 to 8) (size 9 to 14) (size 15 to 20)
#    0.000    1.429    0.000    7.286    0.000    8.000 
#    0.000    4.286    0.000    0.000    0.000    0.000 
#    0.000    0.000    0.000    0.000    0.000    0.000 
#
# Total GULP energy -173551.078359 kJ/mol
# GULP energy per Si atom -12396.505597 kJ/mol
# Density = 2.284651 g / cm^3
# Si number density = 22.898627 Si / 1000 Ang^3
#
#
#
# Elastic Constant Matrix: (Units=GPa)
#
#
# Indices 1 2 3 4 5 6 
#
# 1 116.8780 37.8126 34.2727 -2.6094 17.8941 10.8802
# 2 37.8126 146.1354 54.1954 -29.3825 13.4748 16.8776
# 3 34.2727 54.1954 74.9722 -15.7043 20.1590 2.2983
# 4 -2.6094 -29.3825 -15.7043 40.1660 9.6920 12.1293
# 5 17.8941 13.4748 20.1590 9.6920 29.1628 -1.2093
# 6 10.8802 16.8776 2.2983 12.1293 -1.2093 28.8648
#
#
#
# Elastic Compliance Matrix: (Units=1/GPa)
#
#
# Indices 1 2 3 4 5 6 
#
# 1 0.010779 -0.000265 -0.002541 0.002392 -0.005735 -0.004951
# 2 -0.000265 0.013970 -0.003761 0.015429 -0.009427 -0.014647
# 3 -0.002541 -0.003761 0.025032 0.012842 -0.018482 -0.005007
# 4 0.002392 0.015429 0.012842 0.062778 -0.039955 -0.039000
# 5 -0.005735 -0.009427 -0.018482 -0.039955 0.069415 0.028843
# 6 -0.004951 -0.014647 -0.005007 -0.039000 0.028843 0.063070
#
#
# Mechanical properties :
#
#
# Convention : Reuss Voigt Hill
#
# Bulk Modulus (GPa) = 27.28835 65.61633 46.45234
# Shear Modulus (GPa) = 18.49152 33.75239 26.12195
#
# Velocity S-wave (km/s) = 2.84480 3.84343 3.38119
# Velocity P-wave (km/s) = 4.76796 6.95796 5.96434
#
# Compressibility (1/GPa) = 0.03664567
#
# Stress axis : x y z
#
# Youngs Moduli (GPa) = 92.77141 71.58374 39.94908
#
# Poissons Ratio (x) = 0.01899 0.10151
# Poissons Ratio (y) = 0.02461 0.15026
# Poissons Ratio (z) = 0.23573 0.26924
#
# Static dielectric constant tensor:
#      x y z
#    x 4.986760 0.629920 0.947300 
#    y 0.629920 4.824080 0.466300 
#    z 0.947300 0.466300 4.996760 
# 
# 
# High freq. dielectric constant tensor:
#      x y z
#    x 1.898310 0.011820 0.008920 
#    y 0.011820 1.919660 -0.019330 
#    z 0.008920 -0.019330 1.892480 
# 
# From -- ./inp_files/593376.got.cif
#   From: 2010.06.25/outbox.cif.g09.slc.cpg/sg2_297_cif.got.tgz:593376.got - 2010.06.27 13:26:56.
