data_PCOD8010354
_publ_section_title
;
Structure prediction by ZEFSAII (Michael W. Deem and Ramdas Pophale) SiO2 
 PCOD8010354
Probable space group: P -1
;
_chemical_formula_sum "Si O2"
_cell_formula_units_Z 12
_cell_length_a 6.259009
_cell_length_b 17.974392
_cell_length_c 8.993499
_cell_angle_alpha 137.506463
_cell_angle_beta 109.070696
_cell_angle_gamma 93.940495
_cell_volume 564.898735
_symmetry_space_group_name_H-M "P -1"
_symmetry_group_IT_number 2
_symmetry_cell_setting 'triclinic'
loop_
_space_group_symop_operation_xyz
x,y,z
-x,-y,-z
loop_
_atom_site_type_symbol
_atom_site_label
_atom_site_fract_x
_atom_site_fract_y
_atom_site_fract_z
Si Si1 0.252874 0.998691 0.370399
Si Si2 0.058147 0.675228 0.214885
Si Si3 0.531442 0.580562 0.769933
Si Si4 0.567562 0.035281 0.235612
Si Si5 0.741635 0.494410 0.112375
Si Si6 0.733104 0.849232 0.147054
O O1 0.314397 0.025526 0.248615
O O2 0.204597 0.104357 0.597608
O O3 0.500000 0.000000 0.500000
O O4 0.992834 0.866697 0.148064
O O5 0.193916 0.825254 0.481693
O O6 0.992752 0.615367 0.279082
O O7 0.252484 0.632953 0.121530
O O8 0.802447 0.623634 0.979120
O O9 0.500000 0.500000 0.500000
O O10 0.287047 0.504976 0.713897
O O11 0.523419 0.703212 0.886665
O O12 0.626281 0.929189 0.155313
O O13 0.500000 0.000000 0.000000
O O14 0.500000 0.500000 0.000000
#
# Coordination Sequence:
#
# PCOD8010354 Si02
#       6
#     2   2   2   2   2   2
#     4   9  18  36  60  84 114 153 190 236 293 346
#     4  10  21  41  62  86 120 157 197 240 292 350
#     4  11  23  38  62  91 118 154 199 245 292 347
#     4  11  24  38  61  91 119 155 197 244 295 350
#     4   9  21  40  63  86 119 161 196 238 292 350
#     4  10  21  38  59  87 121 155 195 242 296 349
#
# _framework density 21.242744999999999
#
# number of rings (size 3 to 8) (size 9 to 14) (size 15 to 20)
#    0.000    2.000    0.000    4.000    0.000    9.333 
#    0.000    0.000    0.000    0.000    0.000    0.000 
#    0.000    0.000    0.000    0.000    0.000    0.000 
#
# Total GULP energy -148684.698447 kJ/mol
# GULP energy per Si atom -12390.391537 kJ/mol
# Density = 2.119440 g / cm^3
# Si number density = 21.242745 Si / 1000 Ang^3
#
#
#
# Elastic Constant Matrix: (Units=GPa)
#
#
# Indices 1 2 3 4 5 6 
#
# 1 129.6980 62.3800 45.0726 -9.1109 -20.8401 32.4513
# 2 62.3800 143.5420 78.1971 9.7089 -24.0133 26.2201
# 3 45.0726 78.1971 111.5798 -5.1838 -24.1950 23.0681
# 4 -9.1109 9.7089 -5.1838 35.1465 4.0656 -11.9722
# 5 -20.8401 -24.0133 -24.1950 4.0656 27.1241 -7.5759
# 6 32.4513 26.2201 23.0681 -11.9722 -7.5759 55.1481
#
#
#
# Elastic Compliance Matrix: (Units=1/GPa)
#
#
# Indices 1 2 3 4 5 6 
#
# 1 0.011231 -0.003470 -0.000387 0.002068 0.003834 -0.003821
# 2 -0.003470 0.014127 -0.007543 -0.007203 0.003463 -0.002607
# 3 -0.000387 -0.007543 0.016292 0.003135 0.006696 -0.001400
# 4 0.002068 -0.007203 0.003135 0.034655 -0.005028 0.007729
# 5 0.003834 0.003463 0.006696 -0.005028 0.049321 -0.001020
# 6 -0.003821 -0.002607 -0.001400 0.007729 -0.001020 0.023745
#
#
# Mechanical properties :
#
#
# Convention : Reuss Voigt Hill
#
# Bulk Modulus (GPa) = 53.05378 84.01323 68.53350
# Shear Modulus (GPa) = 28.01808 36.76175 32.38992
#
# Velocity S-wave (km/s) = 3.63567 4.16451 3.90904
# Velocity P-wave (km/s) = 6.53096 7.92207 7.25991
#
# Compressibility (1/GPa) = 0.01884880
#
# Stress axis : x y z
#
# Youngs Moduli (GPa) = 89.03611 70.78741 61.37924
#
# Poissons Ratio (x) = 0.24565 0.02378
# Poissons Ratio (y) = 0.30898 0.46299
# Poissons Ratio (z) = 0.03449 0.53396
#
# Static dielectric constant tensor:
#      x y z
#    x 3.290160 0.134160 0.022750 
#    y 0.134160 4.131220 0.126480 
#    z 0.022750 0.126480 3.532180 
# 
# 
# High freq. dielectric constant tensor:
#      x y z
#    x 1.850160 0.016890 -0.016010 
#    y 0.016890 1.842450 0.011470 
#    z -0.016010 0.011470 1.797000 
# 
# From -- ./inp_files/18603.got.cif
#   From: 2010.06.25/outbox.cif.g09.slc.cpg/sg2_10_cif.got.tgz:18603.got - 2010.06.27 13:26:56.
