data_PCOD8010632
_publ_section_title
;
Structure prediction by ZEFSAII (Michael W. Deem and Ramdas Pophale) SiO2 
 PCOD8010632
Probable space group: P -1
;
_chemical_formula_sum "Si O2"
_cell_formula_units_Z 14
_cell_length_a 9.338001
_cell_length_b 10.728457
_cell_length_c 14.726637
_cell_angle_alpha 47.722675
_cell_angle_beta 111.340539
_cell_angle_gamma 73.370128
_cell_volume 648.131205
_symmetry_space_group_name_H-M "P -1"
_symmetry_group_IT_number 2
_symmetry_cell_setting 'triclinic'
loop_
_space_group_symop_operation_xyz
x,y,z
-x,-y,-z
loop_
_atom_site_type_symbol
_atom_site_label
_atom_site_fract_x
_atom_site_fract_y
_atom_site_fract_z
Si Si1 0.357011 0.799405 0.662321
Si Si2 0.794898 0.208753 0.021668
Si Si3 0.130163 0.159985 0.014087
Si Si4 0.384489 0.225719 0.126045
Si Si5 0.079106 0.267855 0.752896
Si Si6 0.349936 0.248573 0.692292
Si Si7 0.106112 0.787991 0.754243
O O1 0.214172 0.851385 0.691549
O O2 0.166435 0.023934 0.433571
O O3 0.527872 0.511819 0.799812
O O4 0.525589 0.811235 0.732131
O O5 0.907152 0.150006 0.174618
O O6 0.781445 0.023605 0.089541
O O7 0.969522 0.143072 0.018890
O O8 0.169563 0.266026 0.051892
O O9 0.016924 0.343601 0.808067
O O10 0.394707 0.869350 0.183637
O O11 0.283567 0.480389 0.931425
O O12 0.610401 0.962087 0.249916
O O13 0.830782 0.476792 0.537139
O O14 0.244291 0.285281 0.748452
#
# Coordination Sequence:
#
# PCOD8010632 Si02
#       7
#     2   2   2   2   2   2   2
#     4  10  21  38  62  90 113 158 197 243 300 344
#     4  11  23  40  59  91 123 154 197 244 290 359
#     4  10  24  38  59  90 123 158 192 240 304 342
#     4   9  20  38  58  86 120 148 196 243 285 353
#     4  11  21  40  63  85 120 160 200 241 288 350
#     4   9  22  38  60  90 114 154 205 240 288 346
#     4  10  21  38  63  86 118 155 196 247 296 344
#
# _framework density 21.600567000000002
#
# number of rings (size 3 to 8) (size 9 to 14) (size 15 to 20)
#    0.857    1.143    0.000    4.286    2.000    5.143 
#    2.571    1.429    0.000    0.000    0.000    0.000 
#    0.000    0.000    0.000    0.000    0.000    0.000 
#
# Total GULP energy -173509.966710 kJ/mol
# GULP energy per Si atom -12393.569051 kJ/mol
# Density = 2.155140 g / cm^3
# Si number density = 21.600567 Si / 1000 Ang^3
#
#
#
# Elastic Constant Matrix: (Units=GPa)
#
#
# Indices 1 2 3 4 5 6 
#
# 1 59.9918 9.1024 16.3786 2.1502 10.7302 -24.6258
# 2 9.1024 65.0384 33.4090 -1.4581 -5.1013 0.1392
# 3 16.3786 33.4090 111.2894 1.2814 6.4023 -10.3852
# 4 2.1502 -1.4581 1.2814 25.9399 2.3596 -3.3030
# 5 10.7302 -5.1013 6.4023 2.3596 16.2051 -2.3728
# 6 -24.6258 0.1392 -10.3852 -3.3030 -2.3728 34.2223
#
#
#
# Elastic Compliance Matrix: (Units=1/GPa)
#
#
# Indices 1 2 3 4 5 6 
#
# 1 0.028716 -0.005630 0.000332 0.001451 -0.018250 0.019662
# 2 -0.005630 0.020448 -0.006489 0.000182 0.011932 -0.005259
# 3 0.000332 -0.006489 0.011561 0.000039 -0.006347 0.003337
# 4 0.001451 0.000182 0.000039 0.039554 -0.006026 0.004455
# 5 -0.018250 0.011932 -0.006347 -0.006026 0.079444 -0.010181
# 6 0.019662 -0.005259 0.003337 0.004455 -0.010181 0.044127
#
#
# Mechanical properties :
#
#
# Convention : Reuss Voigt Hill
#
# Bulk Modulus (GPa) = 26.91819 39.34440 33.13129
# Shear Modulus (GPa) = 19.24497 27.10210 23.17354
#
# Velocity S-wave (km/s) = 2.98811 3.54601 3.27895
# Velocity P-wave (km/s) = 4.93902 5.91774 5.45039
#
# Compressibility (1/GPa) = 0.03714960
#
# Stress axis : x y z
#
# Youngs Moduli (GPa) = 34.82419 48.90418 86.49862
#
# Poissons Ratio (x) = 0.27535 -0.02873
# Poissons Ratio (y) = 0.19608 0.56131
# Poissons Ratio (z) = -0.01157 0.31735
#
# Static dielectric constant tensor:
#      x y z
#    x 3.514870 0.019070 0.092080 
#    y 0.019070 3.729010 0.060410 
#    z 0.092080 0.060410 4.044900 
# 
# 
# High freq. dielectric constant tensor:
#      x y z
#    x 1.822930 0.000270 0.005960 
#    y 0.000270 1.836500 0.003870 
#    z 0.005960 0.003870 1.856080 
# 
# From -- ./inp_files/498874.got.cif
#   From: 2010.06.25/outbox.cif.g09.slc.cpg/sg2_250_cif.got.tgz:498874.got - 2010.06.27 13:26:56.
