data_PCOD8010226
_publ_section_title
;
Structure prediction by ZEFSAII (Michael W. Deem and Ramdas Pophale) SiO2 
 PCOD8010226
Probable space group: P -1
;
_chemical_formula_sum "Si O2"
_cell_formula_units_Z 14
_cell_length_a 12.465490
_cell_length_b 16.307062
_cell_length_c 5.077415
_cell_angle_alpha 120.422680
_cell_angle_beta 100.824479
_cell_angle_gamma 49.393448
_cell_volume 659.653991
_symmetry_space_group_name_H-M "P -1"
_symmetry_group_IT_number 2
_symmetry_cell_setting 'triclinic'
loop_
_space_group_symop_operation_xyz
x,y,z
-x,-y,-z
loop_
_atom_site_type_symbol
_atom_site_label
_atom_site_fract_x
_atom_site_fract_y
_atom_site_fract_z
Si Si1 0.905763 0.960615 0.849328
Si Si2 0.268037 0.987757 0.626471
Si Si3 0.631354 0.547704 0.108334
Si Si4 0.185584 0.708758 0.433755
Si Si5 0.355059 0.133207 0.742054
Si Si6 0.397960 0.225897 0.438271
Si Si7 0.652133 0.349700 0.073816
O O1 0.791685 0.041573 0.691088
O O2 0.015169 0.812576 0.579447
O O3 0.822838 0.979387 0.102529
O O4 0.000000 0.000000 0.000000
O O5 0.245371 0.112105 0.740007
O O6 0.434242 0.866943 0.554154
O O7 0.666572 0.630938 0.375819
O O8 0.601208 0.489809 0.238857
O O9 0.767384 0.428982 0.806499
O O10 0.488941 0.635758 0.000057
O O11 0.277056 0.706947 0.703876
O O12 0.227890 0.744084 0.247567
O O13 0.303381 0.224099 0.613478
O O14 0.500000 0.000000 0.500000
O O15 0.382279 0.186644 0.085868
#
# Coordination Sequence:
#
# PCOD8010226 Si02
#       7
#     2   2   2   2   2   2   2
#     4  12  26  38  62  87 121 167 200 227 278 371
#     4  11  23  42  59  86 123 156 192 247 302 342
#     4   9  22  33  61  87 116 151 196 246 308 329
#     4  10  21  38  54  80 124 153 197 232 285 354
#     4  10  21  41  60  90 119 152 194 255 309 345
#     4  11  22  35  69  92 116 146 205 253 301 357
#     4   9  20  35  56  82 121 155 188 239 304 346
#
# _framework density 21.223248999999999
#
# number of rings (size 3 to 8) (size 9 to 14) (size 15 to 20)
#    0.857    0.857    0.000    6.000    6.000    0.000 
#    0.000    0.000    0.000    5.143    0.000    0.000 
#    0.000    0.000    0.000    0.000    0.000    0.000 
#
# Total GULP energy -173519.970090 kJ/mol
# GULP energy per Si atom -12394.283578 kJ/mol
# Density = 2.117494 g / cm^3
# Si number density = 21.223249 Si / 1000 Ang^3
#
#
#
# Elastic Constant Matrix: (Units=GPa)
#
#
# Indices 1 2 3 4 5 6 
#
# 1 63.8975 12.3982 38.4359 4.0143 -14.8855 7.0437
# 2 12.3982 20.3254 28.9854 -1.1119 -3.8267 2.0089
# 3 38.4359 28.9854 148.1337 -15.0263 -1.8674 8.4602
# 4 4.0143 -1.1119 -15.0263 32.8024 1.0050 2.2745
# 5 -14.8855 -3.8267 -1.8674 1.0050 37.8003 -3.1800
# 6 7.0437 2.0089 8.4602 2.2745 -3.1800 26.1648
#
#
#
# Elastic Compliance Matrix: (Units=1/GPa)
#
#
# Indices 1 2 3 4 5 6 
#
# 1 0.022081 -0.004769 -0.005087 -0.005261 0.007889 -0.002517
# 2 -0.004769 0.071353 -0.013036 -0.003180 0.004861 0.000888
# 3 -0.005087 -0.013036 0.011271 0.005587 -0.003094 -0.002136
# 4 -0.005261 -0.003180 0.005587 0.033925 -0.003314 -0.003498
# 5 0.007889 0.004861 -0.003094 -0.003314 0.030196 0.002461
# 6 -0.002517 0.000888 -0.002136 -0.003498 0.002461 0.040123
#
#
# Mechanical properties :
#
#
# Convention : Reuss Voigt Hill
#
# Bulk Modulus (GPa) = 16.97186 43.55505 30.26346
# Shear Modulus (GPa) = 18.22345 29.52263 23.87304
#
# Velocity S-wave (km/s) = 2.93346 3.73373 3.35752
# Velocity P-wave (km/s) = 4.41450 6.25736 5.41490
#
# Compressibility (1/GPa) = 0.05892105
#
# Stress axis : x y z
#
# Youngs Moduli (GPa) = 45.28772 14.01492 88.72374
#
# Poissons Ratio (x) = 0.06684 0.45131
# Poissons Ratio (y) = 0.21597 1.15662
# Poissons Ratio (z) = 0.23036 0.18270
#
# Static dielectric constant tensor:
#      x y z
#    x 5.310690 -0.224470 0.101280 
#    y -0.224470 3.969760 -0.061940 
#    z 0.101280 -0.061940 4.032030 
# 
# 
# High freq. dielectric constant tensor:
#      x y z
#    x 1.806980 0.013430 -0.001630 
#    y 0.013430 1.813950 -0.008110 
#    z -0.001630 -0.008110 1.847700 
# 
# From -- ./inp_files/80941.got.cif
#   From: 2010.06.25/outbox.cif.g09.slc.cpg/sg2_41_cif.got.tgz:80941.got - 2010.06.27 13:26:56.
