data_PCOD8010239
_publ_section_title
;
Structure prediction by ZEFSAII (Michael W. Deem and Ramdas Pophale) SiO2 
 PCOD8010239
Probable space group: P -1
;
_chemical_formula_sum "Si O2"
_cell_formula_units_Z 10
_cell_length_a 12.182862
_cell_length_b 15.393880
_cell_length_c 5.017779
_cell_angle_alpha 77.246628
_cell_angle_beta 93.637233
_cell_angle_gamma 152.816608
_cell_volume 400.203991
_symmetry_space_group_name_H-M "P -1"
_symmetry_group_IT_number 2
_symmetry_cell_setting 'triclinic'
loop_
_space_group_symop_operation_xyz
x,y,z
-x,-y,-z
loop_
_atom_site_type_symbol
_atom_site_label
_atom_site_fract_x
_atom_site_fract_y
_atom_site_fract_z
Si Si1 0.729800 0.257556 0.095634
Si Si2 0.607920 0.480707 0.507164
Si Si3 0.981874 0.130979 0.963925
Si Si4 0.405274 0.038908 0.681744
Si Si5 0.660491 0.758023 0.879129
O O1 0.530886 0.157684 0.338497
O O2 0.744424 0.163382 0.230457
O O3 0.630502 0.198169 0.822291
O O4 0.000000 0.500000 0.000000
O O5 0.500000 0.500000 0.500000
O O6 0.440954 0.302382 0.392819
O O7 0.576379 0.409923 0.836001
O O8 0.895071 0.696670 0.300330
O O9 0.199157 0.235359 0.083037
O O10 0.790988 0.028069 0.223615
O O11 0.856288 0.977849 0.825020
#
# Coordination Sequence:
#
# PCOD8010239 Si02
#       5
#     2   2   2   2   2
#     4  10  22  43  61  84 116 146 187 245 295 343
#     4  10  21  38  56  81 118 159 193 231 278 329
#     4  10  22  38  59  86 119 152 193 238 276 338
#     4  10  23  38  62  89 111 148 195 235 289 345
#     4  10  23  37  56  85 121 158 191 228 281 335
#
# _framework density 24.987259000000002
#
# number of rings (size 3 to 8) (size 9 to 14) (size 15 to 20)
#    0.000    2.000    0.000    3.000    0.000   18.400 
#    0.000    0.000    0.000    0.000    0.000    0.000 
#    0.000    0.000    0.000    0.000    0.000    0.000 
#
# Total GULP energy -124021.810103 kJ/mol
# GULP energy per Si atom -12402.181010 kJ/mol
# Density = 2.493039 g / cm^3
# Si number density = 24.987259 Si / 1000 Ang^3
#
#
#
# Elastic Constant Matrix: (Units=GPa)
#
#
# Indices 1 2 3 4 5 6 
#
# 1 43.5253 18.9235 21.3144 -9.4297 -24.3934 -0.4634
# 2 18.9235 138.2555 38.7049 -16.6245 -6.9511 -19.0598
# 3 21.3144 38.7049 109.4670 3.6629 -19.8300 -2.7296
# 4 -9.4297 -16.6245 3.6629 43.7477 0.7790 -7.3706
# 5 -24.3934 -6.9511 -19.8300 0.7790 31.1079 -2.8655
# 6 -0.4634 -19.0598 -2.7296 -7.3706 -2.8655 13.6245
#
#
#
# Elastic Compliance Matrix: (Units=1/GPa)
#
#
# Indices 1 2 3 4 5 6 
#
# 1 0.047899 -0.000497 -0.002503 0.012179 0.036910 0.014784
# 2 -0.000497 0.012448 -0.003725 0.008551 0.001798 0.021655
# 3 -0.002503 -0.003725 0.011766 -0.003694 0.004428 -0.004006
# 4 0.012179 0.008551 -0.003694 0.034330 0.011247 0.032575
# 5 0.036910 0.001798 0.004428 0.011247 0.066307 0.024688
# 6 0.014784 0.021655 -0.004006 0.032575 0.024688 0.126206
#
#
# Mechanical properties :
#
#
# Convention : Reuss Voigt Hill
#
# Bulk Modulus (GPa) = 17.04683 49.90373 33.47528
# Shear Modulus (GPa) = 15.06204 31.84968 23.45586
#
# Velocity S-wave (km/s) = 2.45784 3.57408 3.06717
# Velocity P-wave (km/s) = 3.85897 6.08663 5.09601
#
# Compressibility (1/GPa) = 0.05866193
#
# Stress axis : x y z
#
# Youngs Moduli (GPa) = 20.87716 80.33531 84.99404
#
# Poissons Ratio (x) = 0.03993 0.21277
# Poissons Ratio (y) = 0.01038 0.31660
# Poissons Ratio (z) = 0.05226 0.29925
#
# Static dielectric constant tensor:
#      x y z
#    x 4.121840 -0.264930 -0.170480 
#    y -0.264930 4.686690 -0.288020 
#    z -0.170480 -0.288020 5.014730 
# 
# 
# High freq. dielectric constant tensor:
#      x y z
#    x 1.955970 -0.020600 -0.012760 
#    y -0.020600 2.004670 -0.002690 
#    z -0.012760 -0.002690 2.012090 
# 
# From -- ./inp_files/77868.got.cif
#   From: 2010.06.25/outbox.cif.g09.slc.cpg/sg2_39_cif.got.tgz:77868.got - 2010.06.27 13:26:56.
