data_PCOD8010868
_publ_section_title
;
Structure prediction by ZEFSAII (Michael W. Deem and Ramdas Pophale) SiO2 
 PCOD8010868
Probable space group: P -1
;
_chemical_formula_sum "Si O2"
_cell_formula_units_Z 16
_cell_length_a 28.987582
_cell_length_b 5.283101
_cell_length_c 19.861203
_cell_angle_alpha 105.894915
_cell_angle_beta 162.902504
_cell_angle_gamma 84.503375
_cell_volume 696.271141
_symmetry_space_group_name_H-M "P -1"
_symmetry_group_IT_number 2
_symmetry_cell_setting 'triclinic'
loop_
_space_group_symop_operation_xyz
x,y,z
-x,-y,-z
loop_
_atom_site_type_symbol
_atom_site_label
_atom_site_fract_x
_atom_site_fract_y
_atom_site_fract_z
Si Si1 0.555523 0.600561 0.256011
Si Si2 0.404458 0.186492 0.890574
Si Si3 0.097691 0.816378 0.613425
Si Si4 0.121810 0.655007 0.837426
Si Si5 0.582314 0.047033 0.847170
Si Si6 0.966830 0.825337 0.215932
Si Si7 0.806399 0.558146 0.708550
Si Si8 0.057074 0.802298 0.194675
O O1 0.397658 0.651060 0.066465
O O2 0.680490 0.631538 0.495629
O O3 0.722927 0.887400 0.461957
O O4 0.433738 0.276678 0.017699
O O5 0.180698 0.951543 0.544328
O O6 0.500000 0.500000 0.000000
O O7 0.500000 0.000000 0.000000
O O8 0.000000 0.500000 0.500000
O O9 0.065208 0.670812 0.482348
O O10 0.320015 0.058261 0.968706
O O11 0.000000 0.000000 0.500000
O O12 0.171505 0.513368 0.959986
O O13 0.309116 0.844981 0.064636
O O14 0.073402 0.906837 0.807844
O O15 0.355414 0.766877 0.498587
O O16 0.932206 0.731406 0.082106
O O17 0.935246 0.499120 0.835473
O O18 0.948325 0.838833 0.981718
#
# Coordination Sequence:
#
# PCOD8010868 Si02
#       8
#     2   2   2   2   2   2   2   2
#     4  11  23  40  72  97 135 176 222 289 340 399
#     4  12  25  42  66 103 141 171 219 273 341 418
#     4  10  21  38  64  92 132 174 216 271 319 391
#     4  11  25  42  65  96 139 180 220 265 334 412
#     4  10  24  41  64 102 130 178 232 276 331 398
#     4  12  25  43  68  96 140 182 214 272 342 412
#     4  10  23  42  73  94 132 171 236 296 330 393
#     4  10  23  45  65 102 127 178 233 283 349 392
#
# _framework density 22.979548999999999
#
# number of rings (size 3 to 8) (size 9 to 14) (size 15 to 20)
#    0.000    1.250    1.250    4.125   10.500    0.000 
#    0.000    1.250    0.000    0.000    0.000    0.000 
#    0.000    0.000    0.000    0.000    0.000    0.000 
#
# Total GULP energy -198315.920301 kJ/mol
# GULP energy per Si atom -12394.745019 kJ/mol
# Density = 2.292725 g / cm^3
# Si number density = 22.979549 Si / 1000 Ang^3
#
#
#
# Elastic Constant Matrix: (Units=GPa)
#
#
# Indices 1 2 3 4 5 6 
#
# 1 151.6916 52.0074 20.3355 -17.7199 -0.8432 -21.2513
# 2 52.0074 146.7255 18.2504 -32.6352 1.5281 -20.5285
# 3 20.3355 18.2504 70.8230 -11.7292 -6.6652 -22.4961
# 4 -17.7199 -32.6352 -11.7292 36.0849 0.7408 0.2354
# 5 -0.8432 1.5281 -6.6652 0.7408 34.3423 -3.0387
# 6 -21.2513 -20.5285 -22.4961 0.2354 -3.0387 40.4206
#
#
#
# Elastic Compliance Matrix: (Units=1/GPa)
#
#
# Indices 1 2 3 4 5 6 
#
# 1 0.007962 -0.001906 -0.000482 0.002002 0.000406 0.002969
# 2 -0.001906 0.009823 0.000732 0.008161 -0.000134 0.004337
# 3 -0.000482 0.000732 0.019065 0.006458 0.004492 0.011029
# 4 0.002002 0.008161 0.006458 0.038101 0.000882 0.008636
# 5 0.000406 -0.000134 0.004492 0.000882 0.030423 0.004928
# 6 0.002969 0.004337 0.011029 0.008636 0.004928 0.034962
#
#
# Mechanical properties :
#
#
# Convention : Reuss Voigt Hill
#
# Bulk Modulus (GPa) = 29.81618 61.15853 45.48735
# Shear Modulus (GPa) = 32.29386 40.74601 36.51994
#
# Velocity S-wave (km/s) = 3.75284 4.21544 3.99085
# Velocity P-wave (km/s) = 5.63752 7.09685 6.40886
#
# Compressibility (1/GPa) = 0.03353884
#
# Stress axis : x y z
#
# Youngs Moduli (GPa) = 125.58951 101.79954 52.45182
#
# Poissons Ratio (x) = 0.19402 0.02530
# Poissons Ratio (y) = 0.23937 -0.03841
# Poissons Ratio (z) = 0.06058 -0.07455
#
# Static dielectric constant tensor:
#      x y z
#    x 4.405960 0.189590 -0.071400 
#    y 0.189590 4.215600 0.147720 
#    z -0.071400 0.147720 4.653720 
# 
# 
# High freq. dielectric constant tensor:
#      x y z
#    x 1.913040 0.010030 0.007130 
#    y 0.010030 1.916450 -0.000540 
#    z 0.007130 -0.000540 1.900650 
# 
# From -- ./inp_files/578770.got.cif
#   From: 2010.06.25/outbox.cif.g09.slc.cpg/sg2_290_cif.got.tgz:578770.got - 2010.06.27 13:26:56.
