data_PCOD8010099
_publ_section_title
;
Structure prediction by ZEFSAII (Michael W. Deem and Ramdas Pophale) SiO2 
 PCOD8010099
Probable space group: P -1
;
_chemical_formula_sum "Si O2"
_cell_formula_units_Z 16
_cell_length_a 8.714748
_cell_length_b 14.507536
_cell_length_c 9.192779
_cell_angle_alpha 50.785082
_cell_angle_beta 61.157415
_cell_angle_gamma 83.706030
_cell_volume 755.386271
_symmetry_space_group_name_H-M "P -1"
_symmetry_group_IT_number 2
_symmetry_cell_setting 'triclinic'
loop_
_space_group_symop_operation_xyz
x,y,z
-x,-y,-z
loop_
_atom_site_type_symbol
_atom_site_label
_atom_site_fract_x
_atom_site_fract_y
_atom_site_fract_z
Si Si1 0.171061 0.655897 0.858491
Si Si2 0.285909 0.454840 0.179220
Si Si3 0.190884 0.051151 0.283763
Si Si4 0.794177 0.686959 0.905257
Si Si5 0.738669 0.628761 0.400581
Si Si6 0.331515 0.544617 0.647886
Si Si7 0.966462 0.912359 0.961450
Si Si8 0.315035 0.921522 0.595875
O O1 0.203139 0.612746 0.723441
O O2 0.322561 0.781243 0.711899
O O3 0.978332 0.687498 0.909177
O O4 0.182958 0.554954 0.074181
O O5 0.192669 0.326679 0.260989
O O6 0.242408 0.420870 0.398986
O O7 0.500000 0.500000 0.000000
O O8 0.272306 0.195702 0.141660
O O9 0.312942 0.973664 0.379410
O O10 0.170653 0.038987 0.130092
O O11 0.000000 0.000000 0.500000
O O12 0.638328 0.565184 0.152782
O O13 0.535151 0.638130 0.442971
O O14 0.770643 0.521253 0.386064
O O15 0.880192 0.765789 0.182109
O O16 0.153210 0.930198 0.769174
O O17 0.000000 0.000000 0.000000
O O18 0.500000 0.000000 0.500000
#
# Coordination Sequence:
#
# PCOD8010099 Si02
#       8
#     2   2   2   2   2   2   2   2
#     4  11  22  42  64  96 134 167 231 270 323 399
#     4  11  23  36  65  99 125 175 224 263 333 397
#     4  10  21  43  68  91 126 180 224 260 334 401
#     4  11  20  41  65  92 129 172 226 264 325 404
#     4  11  22  40  62  99 135 170 218 272 337 392
#     4  10  21  37  65  94 131 172 208 282 333 378
#     4  11  25  43  69  99 137 177 222 274 334 401
#     4  11  26  44  72  99 130 174 230 282 324 399
#
# _framework density 21.181218000000001
#
# number of rings (size 3 to 8) (size 9 to 14) (size 15 to 20)
#    0.000    1.250    6.250    1.500    7.000    0.000 
#    0.000    7.500    0.000    0.000    0.000    0.000 
#    0.000    0.000    0.000    0.000    0.000    0.000 
#
# Total GULP energy -198218.074429 kJ/mol
# GULP energy per Si atom -12388.629652 kJ/mol
# Density = 2.113301 g / cm^3
# Si number density = 21.181218 Si / 1000 Ang^3
#
#
#
# Elastic Constant Matrix: (Units=GPa)
#
#
# Indices 1 2 3 4 5 6 
#
# 1 82.4456 30.3602 48.2238 1.5048 12.7122 26.2152
# 2 30.3602 137.8791 60.9189 4.5767 21.2960 37.0679
# 3 48.2238 60.9189 104.2592 9.3899 10.5656 19.4827
# 4 1.5048 4.5767 9.3899 35.8311 14.7658 2.4390
# 5 12.7122 21.2960 10.5656 14.7658 36.4135 6.6058
# 6 26.2152 37.0679 19.4827 2.4390 6.6058 39.7522
#
#
#
# Elastic Compliance Matrix: (Units=1/GPa)
#
#
# Indices 1 2 3 4 5 6 
#
# 1 0.020883 0.003467 -0.009265 0.004517 -0.006341 -0.011687
# 2 0.003467 0.013275 -0.007082 0.003358 -0.006406 -0.010335
# 3 -0.009265 -0.007082 0.017368 -0.005036 0.003672 0.003901
# 4 0.004517 0.003358 -0.005036 0.035353 -0.015839 -0.003179
# 5 -0.006341 -0.006406 0.003672 -0.015839 0.038240 0.002973
# 6 -0.011687 -0.010335 0.003901 -0.003179 0.002973 0.040290
#
#
# Mechanical properties :
#
#
# Convention : Reuss Voigt Hill
#
# Bulk Modulus (GPa) = 38.81257 67.06551 52.93904
# Shear Modulus (GPa) = 25.03020 34.73810 29.88415
#
# Velocity S-wave (km/s) = 3.44134 4.05414 3.76024
# Velocity P-wave (km/s) = 5.84416 7.32435 6.62572
#
# Compressibility (1/GPa) = 0.02576485
#
# Stress axis : x y z
#
# Youngs Moduli (GPa) = 47.88490 75.32997 57.57854
#
# Poissons Ratio (x) = -0.26114 0.53348
# Poissons Ratio (y) = -0.16600 0.40777
# Poissons Ratio (z) = 0.44366 0.53349
#
# Static dielectric constant tensor:
#      x y z
#    x 3.839860 0.466700 0.158950 
#    y 0.466700 3.920810 0.107720 
#    z 0.158950 0.107720 4.118940 
# 
# 
# High freq. dielectric constant tensor:
#      x y z
#    x 1.815610 0.029730 0.002330 
#    y 0.029730 1.835120 -0.002720 
#    z 0.002330 -0.002720 1.832050 
# 
# From -- ./inp_files/199443.got.cif
#   From: 2010.06.25/outbox.cif.g09.slc.cpg/sg2_100_cif.got.tgz:199443.got - 2010.06.27 13:26:56.
