data_PCOD8010038
_publ_section_title
;
Structure prediction by ZEFSAII (Michael W. Deem and Ramdas Pophale) SiO2 
 PCOD8010038
Probable space group: P -1
;
_chemical_formula_sum "Si O2"
_cell_formula_units_Z 14
_cell_length_a 7.505524
_cell_length_b 9.474493
_cell_length_c 14.816531
_cell_angle_alpha 101.757330
_cell_angle_beta 46.679569
_cell_angle_gamma 79.649283
_cell_volume 670.731827
_symmetry_space_group_name_H-M "P -1"
_symmetry_group_IT_number 2
_symmetry_cell_setting 'triclinic'
loop_
_space_group_symop_operation_xyz
x,y,z
-x,-y,-z
loop_
_atom_site_type_symbol
_atom_site_label
_atom_site_fract_x
_atom_site_fract_y
_atom_site_fract_z
Si Si1 0.774154 0.945571 0.843233
Si Si2 0.555908 0.388879 0.601803
Si Si3 0.488399 0.068274 0.244938
Si Si4 0.008295 0.835686 0.110240
Si Si5 0.931267 0.414680 0.329020
Si Si6 0.471432 0.380838 0.208067
Si Si7 0.491481 0.089100 0.606757
O O1 0.693580 0.969690 0.768972
O O2 0.922269 0.050569 0.833599
O O3 0.972942 0.759753 0.772647
O O4 0.500000 0.000000 0.000000
O O5 0.500280 0.479146 0.728564
O O6 0.653148 0.197796 0.557111
O O7 0.793759 0.415403 0.473350
O O8 0.281793 0.453071 0.645649
O O9 0.376475 0.051963 0.381051
O O10 0.812383 0.939960 0.108839
O O11 0.469795 0.244245 0.257755
O O12 0.820151 0.786527 0.235543
O O13 0.276987 0.687784 0.959253
O O14 0.188112 0.453845 0.259924
O O15 0.500000 0.000000 0.500000
#
# Coordination Sequence:
#
# PCOD8010038 Si02
#       7
#     2   2   2   2   2   2   2
#     4  11  19  37  66 100 120 156 217 259 306 360
#     4  11  24  42  61  88 131 171 201 257 319 375
#     4   9  22  37  66  95 123 164 206 261 308 366
#     4  10  21  37  64  93 127 160 206 264 303 370
#     4  10  23  38  64  92 123 165 214 261 303 371
#     4  11  21  39  65  97 118 159 217 260 310 364
#     4  10  24  44  62  90 129 173 207 249 322 377
#
# _framework density 20.872724999999999
#
# number of rings (size 3 to 8) (size 9 to 14) (size 15 to 20)
#    0.857    0.857    2.857    2.571    6.000    0.571 
#    2.571    4.286    0.000    0.000    0.000    0.000 
#    0.000    0.000    0.000    0.000    0.000    0.000 
#
# Total GULP energy -173511.264327 kJ/mol
# GULP energy per Si atom -12393.661738 kJ/mol
# Density = 2.082522 g / cm^3
# Si number density = 20.872725 Si / 1000 Ang^3
#
#
#
# Elastic Constant Matrix: (Units=GPa)
#
#
# Indices 1 2 3 4 5 6 
#
# 1 60.2080 22.8470 9.6808 3.3343 2.2187 9.0770
# 2 22.8470 47.6290 18.2506 2.9501 17.6060 11.3831
# 3 9.6808 18.2506 81.1813 9.0905 6.0491 -1.9680
# 4 3.3343 2.9501 9.0905 23.7171 5.2078 7.5250
# 5 2.2187 17.6060 6.0491 5.2078 42.0177 4.6376
# 6 9.0770 11.3831 -1.9680 7.5250 4.6376 30.2223
#
#
#
# Elastic Compliance Matrix: (Units=1/GPa)
#
#
# Indices 1 2 3 4 5 6 
#
# 1 0.021048 -0.010740 -0.000269 -0.001584 0.003899 -0.002498
# 2 -0.010740 0.035509 -0.006611 0.005644 -0.012956 -0.009996
# 3 -0.000269 -0.006611 0.014620 -0.006538 0.000937 0.005007
# 4 -0.001584 0.005644 -0.006538 0.049812 -0.006018 -0.013555
# 5 0.003899 -0.012956 0.000937 -0.006018 0.029552 0.000733
# 6 -0.002498 -0.009996 0.005007 -0.013555 0.000733 0.041192
#
#
# Mechanical properties :
#
#
# Convention : Reuss Voigt Hill
#
# Bulk Modulus (GPa) = 27.82608 32.28612 30.05610
# Shear Modulus (GPa) = 20.92451 28.40743 24.66597
#
# Velocity S-wave (km/s) = 3.16963 3.69315 3.44136
# Velocity P-wave (km/s) = 5.17259 5.80409 5.49742
#
# Compressibility (1/GPa) = 0.03593751
#
# Stress axis : x y z
#
# Youngs Moduli (GPa) = 47.50952 28.16156 68.39878
#
# Poissons Ratio (x) = 0.30245 0.01842
# Poissons Ratio (y) = 0.51024 0.45219
# Poissons Ratio (z) = 0.01280 0.18618
#
# Static dielectric constant tensor:
#      x y z
#    x 3.780030 -0.123340 -0.105070 
#    y -0.123340 3.342200 0.016970 
#    z -0.105070 0.016970 3.831370 
# 
# 
# High freq. dielectric constant tensor:
#      x y z
#    x 1.824260 0.009600 -0.003050 
#    y 0.009600 1.787810 -0.001690 
#    z -0.003050 -0.001690 1.821430 
# 
# From -- ./inp_files/555403.got.cif
#   From: 2010.06.25/outbox.cif.g09.slc.cpg/sg2_278_cif.got.tgz:555403.got - 2010.06.27 13:26:56.
