data_PCOD8010749
_publ_section_title
;
Structure prediction by ZEFSAII (Michael W. Deem and Ramdas Pophale) SiO2 
 PCOD8010749
Probable space group: P -1
;
_chemical_formula_sum "Si O2"
_cell_formula_units_Z 16
_cell_length_a 8.916170
_cell_length_b 12.701508
_cell_length_c 9.589223
_cell_angle_alpha 130.637633
_cell_angle_beta 121.693609
_cell_angle_gamma 73.658709
_cell_volume 698.068564
_symmetry_space_group_name_H-M "P -1"
_symmetry_group_IT_number 2
_symmetry_cell_setting 'triclinic'
loop_
_space_group_symop_operation_xyz
x,y,z
-x,-y,-z
loop_
_atom_site_type_symbol
_atom_site_label
_atom_site_fract_x
_atom_site_fract_y
_atom_site_fract_z
Si Si1 0.032092 0.649106 0.976365
Si Si2 0.262676 0.883437 0.116453
Si Si3 0.641948 0.685299 0.713809
Si Si4 0.041941 0.331108 0.733288
Si Si5 0.915949 0.258041 0.328739
Si Si6 0.610649 0.425482 0.282927
Si Si7 0.427479 0.277680 0.832460
Si Si8 0.293378 0.193670 0.415064
O O1 0.079663 0.491435 0.836228
O O2 0.828758 0.661528 0.851104
O O3 0.160348 0.760855 0.052636
O O4 0.059948 0.680331 0.180818
O O5 0.468375 0.853746 0.181842
O O6 0.246459 0.034472 0.306719
O O7 0.178091 0.877573 0.913992
O O8 0.585755 0.570696 0.467115
O O9 0.498898 0.690681 0.770788
O O10 0.640604 0.818376 0.724177
O O11 0.225146 0.259414 0.770010
O O12 0.913393 0.245003 0.484417
O O13 0.814255 0.390853 0.346089
O O14 0.120633 0.280503 0.400694
O O15 0.527686 0.414743 0.075975
O O16 0.428336 0.277520 0.662718
#
# Coordination Sequence:
#
# PCOD8010749 Si02
#       8
#     2   2   2   2   2   2   2   2
#     4  11  22  39  65  90 128 158 194 253 302 365
#     4  11  24  42  63  88 123 166 204 242 300 360
#     4  11  22  39  65  90 128 158 194 253 302 365
#     4  10  22  40  62  92 122 155 200 250 314 345
#     4  10  21  38  63  91 119 157 206 249 290 366
#     4  10  22  40  62  92 122 155 200 250 314 345
#     4  10  23  42  61  91 125 153 204 261 292 356
#     4  11  24  42  63  88 123 166 204 242 300 360
#
# _framework density 22.920383999999999
#
# number of rings (size 3 to 8) (size 9 to 14) (size 15 to 20)
#    0.000    1.500    3.750    0.750    0.000    8.000 
#    0.000    7.500    0.000    0.000    0.000    0.000 
#    0.000    0.000    0.000    0.000    0.000    0.000 
#
# Total GULP energy -198228.300668 kJ/mol
# GULP energy per Si atom -12389.268792 kJ/mol
# Density = 2.286822 g / cm^3
# Si number density = 22.920384 Si / 1000 Ang^3
#
#
#
# Elastic Constant Matrix: (Units=GPa)
#
#
# Indices 1 2 3 4 5 6 
#
# 1 70.7148 41.7494 31.0828 -3.4966 0.0545 -5.7405
# 2 41.7494 81.2661 47.6664 -1.6395 -0.0493 3.4623
# 3 31.0828 47.6664 149.2406 -29.6019 -4.0117 -0.8992
# 4 -3.4966 -1.6395 -29.6019 37.6478 -6.9094 3.3134
# 5 0.0545 -0.0493 -4.0117 -6.9094 31.0407 -10.7527
# 6 -5.7405 3.4623 -0.8992 3.3134 -10.7527 29.4031
#
#
#
# Elastic Compliance Matrix: (Units=1/GPa)
#
#
# Indices 1 2 3 4 5 6 
#
# 1 0.021371 -0.010775 -0.000762 0.000770 0.002135 0.006112
# 2 -0.010775 0.021270 -0.005605 -0.004659 -0.003644 -0.005587
# 3 -0.000762 -0.005605 0.010430 0.008448 0.003640 0.001209
# 4 0.000770 -0.004659 0.008448 0.034681 0.008909 0.000307
# 5 0.002135 -0.003644 0.003640 0.008909 0.039669 0.014460
# 6 0.006112 -0.005587 0.001209 0.000307 0.014460 0.041152
#
#
# Mechanical properties :
#
#
# Convention : Reuss Voigt Hill
#
# Bulk Modulus (GPa) = 53.23149 60.24655 56.73902
# Shear Modulus (GPa) = 23.90962 31.66650 27.78806
#
# Velocity S-wave (km/s) = 3.23330 3.72100 3.48569
# Velocity P-wave (km/s) = 6.10032 6.69353 6.40380
#
# Compressibility (1/GPa) = 0.01878587
#
# Stress axis : x y z
#
# Youngs Moduli (GPa) = 46.79316 47.01365 95.87367
#
# Poissons Ratio (x) = 0.50658 0.07309
# Poissons Ratio (y) = 0.50421 0.53738
# Poissons Ratio (z) = 0.03568 0.26352
#
# Static dielectric constant tensor:
#      x y z
#    x 4.119780 -0.048560 -0.132700 
#    y -0.048560 3.892100 -0.370640 
#    z -0.132700 -0.370640 4.499790 
# 
# 
# High freq. dielectric constant tensor:
#      x y z
#    x 1.896690 -0.019300 -0.011210 
#    y -0.019300 1.871810 -0.030030 
#    z -0.011210 -0.030030 1.925860 
# 
# From -- ./inp_files/190398.got.cif
#   From: 2010.06.25/outbox.cif.g09.slc.cpg/sg2_96_cif.got.tgz:190398.got - 2010.06.27 13:26:56.
