data_PCOD8010314
_publ_section_title
;
Structure prediction by ZEFSAII (Michael W. Deem and Ramdas Pophale) SiO2 
 PCOD8010314
Probable space group: P -1
;
_chemical_formula_sum "Si O2"
_cell_formula_units_Z 16
_cell_length_a 8.463729
_cell_length_b 19.776047
_cell_length_c 20.229184
_cell_angle_alpha 20.376925
_cell_angle_beta 44.701657
_cell_angle_gamma 44.150602
_cell_volume 810.972796
_symmetry_space_group_name_H-M "P -1"
_symmetry_group_IT_number 2
_symmetry_cell_setting 'triclinic'
loop_
_space_group_symop_operation_xyz
x,y,z
-x,-y,-z
loop_
_atom_site_type_symbol
_atom_site_label
_atom_site_fract_x
_atom_site_fract_y
_atom_site_fract_z
Si Si1 0.081333 0.222993 0.675100
Si Si2 0.772215 0.956700 0.957492
Si Si3 0.547030 0.153616 0.081394
Si Si4 0.957657 0.341662 0.749504
Si Si5 0.813888 0.564684 0.811263
Si Si6 0.878367 0.828979 0.897568
Si Si7 0.267459 0.026100 0.586641
Si Si8 0.485744 0.293607 0.109835
O O1 0.079726 0.265581 0.714540
O O2 0.856497 0.140966 0.796977
O O3 0.083865 0.420364 0.451320
O O4 0.311134 0.059954 0.741240
O O5 0.856283 0.938923 0.873511
O O6 0.500000 0.000000 0.000000
O O7 0.879370 0.754007 0.150844
O O8 0.359651 0.117459 0.118441
O O9 0.418405 0.280712 0.065135
O O10 0.713278 0.278957 0.882785
O O11 0.851521 0.740805 0.589382
O O12 0.734844 0.659902 0.819415
O O13 0.624805 0.466357 0.922134
O O14 0.051470 0.408599 0.894627
O O15 0.077296 0.906049 0.725828
O O16 0.500000 0.000000 0.500000
O O17 0.348501 0.922099 0.727668
#
# Coordination Sequence:
#
# PCOD8010314 Si02
#       8
#     2   2   2   2   2   2   2   2
#     4  10  21  38  59  82 111 146 189 226 275 336
#     4  11  22  38  59  85 116 147 182 230 277 326
#     4  11  22  37  54  81 117 147 183 230 278 328
#     4  10  21  38  60  82 108 149 185 228 280 327
#     4   9  18  36  56  79 106 139 187 230 270 328
#     4  11  23  35  55  84 113 149 187 225 278 333
#     4   9  18  36  58  79 106 143 185 232 276 321
#     4   9  19  34  57  79 104 144 183 226 279 327
#
# _framework density 19.729392000000001
#
# number of rings (size 3 to 8) (size 9 to 14) (size 15 to 20)
#    0.000    2.000    0.000    6.750    0.000    6.000 
#    0.000    2.500    0.000    0.000    0.000    0.000 
#    0.000    0.000    0.000    0.000    0.000    0.000 
#
# Total GULP energy -198329.076777 kJ/mol
# GULP energy per Si atom -12395.567299 kJ/mol
# Density = 1.968449 g / cm^3
# Si number density = 19.729392 Si / 1000 Ang^3
#
#
#
# Elastic Constant Matrix: (Units=GPa)
#
#
# Indices 1 2 3 4 5 6 
#
# 1 110.9832 33.3376 39.8568 2.5206 -2.6159 -10.6440
# 2 33.3376 74.3861 25.9259 -4.5598 -5.0120 -0.1827
# 3 39.8568 25.9259 143.3783 -19.9949 0.0858 -13.1486
# 4 2.5206 -4.5598 -19.9949 28.1256 -0.5650 -0.8363
# 5 -2.6159 -5.0120 0.0858 -0.5650 13.5737 6.8464
# 6 -10.6440 -0.1827 -13.1486 -0.8363 6.8464 40.2964
#
#
#
# Elastic Compliance Matrix: (Units=1/GPa)
#
#
# Indices 1 2 3 4 5 6 
#
# 1 0.011625 -0.004526 -0.002721 -0.003658 -0.000676 0.002201
# 2 -0.004526 0.016648 -0.001746 0.001916 0.006779 -0.002802
# 3 -0.002721 -0.001746 0.009221 0.006552 -0.002378 0.002822
# 4 -0.003658 0.001916 0.006552 0.040922 0.000701 0.001911
# 5 -0.000676 0.006779 -0.002378 0.000701 0.083722 -0.015134
# 6 0.002201 -0.002802 0.002822 0.001911 -0.015134 0.028917
#
#
# Mechanical properties :
#
#
# Convention : Reuss Voigt Hill
#
# Bulk Modulus (GPa) = 51.26238 58.55424 54.90831
# Shear Modulus (GPa) = 23.19719 31.70763 27.45241
#
# Velocity S-wave (km/s) = 3.43267 4.01325 3.73426
# Velocity P-wave (km/s) = 6.46143 7.15667 6.81792
#
# Compressibility (1/GPa) = 0.01950748
#
# Stress axis : x y z
#
# Youngs Moduli (GPa) = 86.01810 60.06854 108.45285
#
# Poissons Ratio (x) = 0.27188 0.29512
# Poissons Ratio (y) = 0.38933 0.18934
# Poissons Ratio (z) = 0.23407 0.10487
#
# Static dielectric constant tensor:
#      x y z
#    x 3.414940 0.053870 0.101450 
#    y 0.053870 3.655070 -0.084930 
#    z 0.101450 -0.084930 3.931920 
# 
# 
# High freq. dielectric constant tensor:
#      x y z
#    x 1.750600 0.003830 0.006260 
#    y 0.003830 1.769280 -0.004060 
#    z 0.006260 -0.004060 1.775720 
# 
# From -- ./inp_files/591764.got.cif
#   From: 2010.06.25/outbox.cif.g09.slc.cpg/sg2_296_cif.got.tgz:591764.got - 2010.06.27 13:26:56.
