data_PCOD8010020
_publ_section_title
;
Structure prediction by ZEFSAII (Michael W. Deem and Ramdas Pophale) SiO2 
 PCOD8010020
Probable space group: P -1
;
_chemical_formula_sum "Si O2"
_cell_formula_units_Z 14
_cell_length_a 31.271169
_cell_length_b 15.059624
_cell_length_c 12.732350
_cell_angle_alpha 151.728120
_cell_angle_beta 160.684961
_cell_angle_gamma 19.791002
_cell_volume 670.103275
_symmetry_space_group_name_H-M "P -1"
_symmetry_group_IT_number 2
_symmetry_cell_setting 'triclinic'
loop_
_space_group_symop_operation_xyz
x,y,z
-x,-y,-z
loop_
_atom_site_type_symbol
_atom_site_label
_atom_site_fract_x
_atom_site_fract_y
_atom_site_fract_z
Si Si1 0.896380 0.854861 0.843474
Si Si2 0.502075 0.941905 0.322980
Si Si3 0.968326 0.188523 0.365666
Si Si4 0.718138 0.569143 0.800374
Si Si5 0.145253 0.432924 0.686584
Si Si6 0.866100 0.628444 0.728607
Si Si7 0.609821 0.338363 0.191147
O O1 0.774687 0.825370 0.465206
O O2 0.916997 0.750928 0.899375
O O3 0.080399 0.688628 0.032126
O O4 0.839463 0.131748 0.006586
O O5 0.667397 0.860599 0.556797
O O6 0.500000 0.000000 0.500000
O O7 0.323228 0.204351 0.127288
O O8 0.497227 0.724801 0.072005
O O9 0.951277 0.311409 0.342436
O O10 0.882709 0.410673 0.485406
O O11 0.177442 0.930214 0.613530
O O12 0.588474 0.529961 0.424105
O O13 0.699185 0.628722 0.944206
O O14 0.000000 0.500000 0.500000
O O15 0.000000 0.500000 0.000000
O O16 0.500000 0.500000 0.000000
#
# Coordination Sequence:
#
# PCOD8010020 Si02
#       7
#     2   2   2   2   2   2   2
#     4   9  20  39  61  88 121 155 201 250 298 351
#     4  12  23  40  60  84 124 155 197 250 300 361
#     4  10  22  40  60  90 125 157 201 252 297 359
#     4  10  21  37  64  91 117 158 203 247 299 351
#     4   9  18  36  63  92 119 154 206 251 296 347
#     4  11  24  38  60  86 119 164 201 243 305 361
#     4  11  22  36  60  88 124 157 195 246 299 356
#
# _framework density 20.892301
#
# number of rings (size 3 to 8) (size 9 to 14) (size 15 to 20)
#    0.000    1.714    1.429    4.286    2.000    8.000 
#    0.000    2.857    0.000    5.143    0.000    0.000 
#    0.000    0.000    0.000    0.000    0.000    0.000 
#
# Total GULP energy -173452.358692 kJ/mol
# GULP energy per Si atom -12389.454192 kJ/mol
# Density = 2.084475 g / cm^3
# Si number density = 20.892301 Si / 1000 Ang^3
#
#
#
# Elastic Constant Matrix: (Units=GPa)
#
#
# Indices 1 2 3 4 5 6 
#
# 1 114.7488 44.0236 56.1982 27.8299 -27.3949 14.1480
# 2 44.0236 87.8971 42.1168 29.6414 -11.4522 19.9562
# 3 56.1982 42.1168 120.4140 37.1873 -26.9081 13.8857
# 4 27.8299 29.6414 37.1873 38.9863 5.1626 8.6586
# 5 -27.3949 -11.4522 -26.9081 5.1626 41.7356 -2.0241
# 6 14.1480 19.9562 13.8857 8.6586 -2.0241 33.3166
#
#
#
# Elastic Compliance Matrix: (Units=1/GPa)
#
#
# Indices 1 2 3 4 5 6 
#
# 1 0.014605 -0.002394 -0.001188 -0.008335 0.009120 -0.001553
# 2 -0.002394 0.018632 -0.000012 -0.011534 0.004627 -0.006860
# 3 -0.001188 -0.000012 0.016783 -0.016409 0.011995 -0.001490
# 4 -0.008335 -0.011534 -0.016409 0.059492 -0.026564 0.000212
# 5 0.009120 0.004627 0.011995 -0.026564 0.042130 -0.002180
# 6 -0.001553 -0.006860 -0.001490 0.000212 -0.002180 0.035217
#
#
# Mechanical properties :
#
#
# Convention : Reuss Voigt Hill
#
# Bulk Modulus (GPa) = 23.34731 67.52634 45.43682
# Shear Modulus (GPa) = 24.00103 34.85578 29.42840
#
# Velocity S-wave (km/s) = 3.39307 4.08898 3.75717
# Velocity P-wave (km/s) = 5.15266 7.39489 6.37316
#
# Compressibility (1/GPa) = 0.04283149
#
# Stress axis : x y z
#
# Youngs Moduli (GPa) = 68.46911 53.67088 59.58358
#
# Poissons Ratio (x) = 0.12851 0.07078
# Poissons Ratio (y) = 0.16394 0.00073
# Poissons Ratio (z) = 0.08133 0.00066
#
# Static dielectric constant tensor:
#      x y z
#    x 3.837600 0.072830 -0.549580 
#    y 0.072830 3.900810 0.676620 
#    z -0.549580 0.676620 4.882620 
# 
# 
# High freq. dielectric constant tensor:
#      x y z
#    x 1.815500 0.014810 -0.015760 
#    y 0.014810 1.809540 0.030550 
#    z -0.015760 0.030550 1.821320 
# 
# From -- ./inp_files/269852.got.cif
#   From: 2010.06.25/outbox.cif.g09.slc.cpg/sg2_135_cif.got.tgz:269852.got - 2010.06.27 13:26:56.
