data_PCOD8010812
_publ_section_title
;
Structure prediction by ZEFSAII (Michael W. Deem and Ramdas Pophale) SiO2 
 PCOD8010812
Probable space group: P -1
;
_chemical_formula_sum "Si O2"
_cell_formula_units_Z 16
_cell_length_a 18.359439
_cell_length_b 18.098990
_cell_length_c 8.978894
_cell_angle_alpha 149.203751
_cell_angle_beta 137.551420
_cell_angle_gamma 30.452307
_cell_volume 774.154714
_symmetry_space_group_name_H-M "P -1"
_symmetry_group_IT_number 2
_symmetry_cell_setting 'triclinic'
loop_
_space_group_symop_operation_xyz
x,y,z
-x,-y,-z
loop_
_atom_site_type_symbol
_atom_site_label
_atom_site_fract_x
_atom_site_fract_y
_atom_site_fract_z
Si Si1 0.294773 0.799059 0.402640
Si Si2 0.108215 0.022473 0.759657
Si Si3 0.916144 0.455879 0.206215
Si Si4 0.179774 0.290511 0.782737
Si Si5 0.550347 0.083784 0.328799
Si Si6 0.109190 0.599592 0.419415
Si Si7 0.018191 0.950942 0.770329
Si Si8 0.698333 0.521892 0.222033
O O1 0.396988 0.831685 0.548819
O O2 0.266219 0.857958 0.638702
O O3 0.364976 0.579956 0.095461
O O4 0.137966 0.942370 0.344126
O O5 0.106166 0.998849 0.895947
O O6 0.000000 0.000000 0.500000
O O7 0.043487 0.231930 0.971597
O O8 0.835657 0.592255 0.178666
O O9 0.789434 0.494974 0.174039
O O10 0.000000 0.500000 0.500000
O O11 0.054753 0.282480 0.573382
O O12 0.330905 0.074566 0.647753
O O13 0.174227 0.392427 0.100640
O O14 0.424434 0.254512 0.539497
O O15 0.500000 0.000000 0.000000
O O16 0.109564 0.720998 0.500745
O O17 0.196514 0.586115 0.666092
O O18 0.000000 0.000000 0.000000
#
# Coordination Sequence:
#
# PCOD8010812 Si02
#       8
#     2   2   2   2   2   2   2   2
#     4  11  23  42  67  92 131 174 222 272 333 388
#     4  10  21  38  64 100 126 167 208 278 333 377
#     4  12  24  39  68 104 137 162 218 282 335 389
#     4  11  24  39  66  96 132 174 215 273 332 385
#     4  12  27  45  66  93 135 185 223 266 331 406
#     4  11  21  38  66 100 127 165 225 274 322 393
#     4  11  19  35  67 101 127 155 216 276 330 386
#     4  12  24  44  67  97 134 179 220 271 334 395
#
# _framework density 20.667704000000001
#
# number of rings (size 3 to 8) (size 9 to 14) (size 15 to 20)
#    0.000    0.750    7.500    1.875    3.500    0.500 
#    0.000    0.000    2.750    1.500    0.000    0.000 
#    0.000    0.000    0.000    0.000    0.000    0.000 
#
# Total GULP energy -198313.814358 kJ/mol
# GULP energy per Si atom -12394.613397 kJ/mol
# Density = 2.062066 g / cm^3
# Si number density = 20.667704 Si / 1000 Ang^3
#
#
#
# Elastic Constant Matrix: (Units=GPa)
#
#
# Indices 1 2 3 4 5 6 
#
# 1 89.0321 23.3154 34.4519 1.1634 0.6345 15.2715
# 2 23.3154 93.6186 34.7754 20.6383 -1.5284 8.5185
# 3 34.4519 34.7754 121.8594 18.5553 4.9444 -3.8139
# 4 1.1634 20.6383 18.5553 34.2905 -0.3093 -0.8999
# 5 0.6345 -1.5284 4.9444 -0.3093 38.1516 3.4458
# 6 15.2715 8.5185 -3.8139 -0.8999 3.4458 33.6886
#
#
#
# Elastic Compliance Matrix: (Units=1/GPa)
#
#
# Indices 1 2 3 4 5 6 
#
# 1 0.014462 -0.002076 -0.004168 0.002851 0.000828 -0.006511
# 2 -0.002076 0.013987 -0.002472 -0.007083 0.001145 -0.003182
# 3 -0.004168 -0.002472 0.010923 -0.004197 -0.001825 0.003825
# 4 0.002851 -0.007083 -0.004197 0.035629 0.000417 0.000933
# 5 0.000828 0.001145 -0.001825 0.000417 0.026809 -0.003602
# 6 -0.006511 -0.003182 0.003825 0.000933 -0.003602 0.034266
#
#
# Mechanical properties :
#
#
# Convention : Reuss Voigt Hill
#
# Bulk Modulus (GPa) = 45.57878 54.39951 49.98915
# Shear Modulus (GPa) = 31.09078 35.35729 33.22403
#
# Velocity S-wave (km/s) = 3.88276 4.14061 4.01376
# Velocity P-wave (km/s) = 6.49632 7.01696 6.76165
#
# Compressibility (1/GPa) = 0.02194004
#
# Stress axis : x y z
#
# Youngs Moduli (GPa) = 69.14678 71.49696 91.55173
#
# Poissons Ratio (x) = 0.14843 0.38156
# Poissons Ratio (y) = 0.14355 0.22631
# Poissons Ratio (z) = 0.28818 0.17674
#
# Static dielectric constant tensor:
#      x y z
#    x 4.234060 -0.037960 -0.769300 
#    y -0.037960 3.445870 -0.008810 
#    z -0.769300 -0.008810 4.166870 
# 
# 
# High freq. dielectric constant tensor:
#      x y z
#    x 1.810650 0.014420 0.001060 
#    y 0.014420 1.782960 0.017350 
#    z 0.001060 0.017350 1.829110 
# 
# From -- ./inp_files/336845.got.cif
#   From: 2010.06.25/outbox.cif.g09.slc.cpg/sg2_169_cif.got.tgz:336845.got - 2010.06.27 13:26:56.
