data_PCOD8010713
_publ_section_title
;
Structure prediction by ZEFSAII (Michael W. Deem and Ramdas Pophale) SiO2 
 PCOD8010713
Probable space group: P -1
;
_chemical_formula_sum "Si O2"
_cell_formula_units_Z 16
_cell_length_a 12.332557
_cell_length_b 11.141202
_cell_length_c 15.396368
_cell_angle_alpha 64.095599
_cell_angle_beta 117.820070
_cell_angle_gamma 155.379425
_cell_volume 778.992794
_symmetry_space_group_name_H-M "P -1"
_symmetry_group_IT_number 2
_symmetry_cell_setting 'triclinic'
loop_
_space_group_symop_operation_xyz
x,y,z
-x,-y,-z
loop_
_atom_site_type_symbol
_atom_site_label
_atom_site_fract_x
_atom_site_fract_y
_atom_site_fract_z
Si Si1 0.636238 0.126983 0.714081
Si Si2 0.021935 0.873307 0.519333
Si Si3 0.085129 0.519903 0.619538
Si Si4 0.104918 0.231958 0.691487
Si Si5 0.413033 0.634828 0.358197
Si Si6 0.745601 0.421459 0.948563
Si Si7 0.306857 0.894732 0.073208
Si Si8 0.641847 0.591884 0.758959
O O1 0.617069 0.245000 0.726504
O O2 0.677970 0.065519 0.829455
O O3 0.881239 0.371211 0.663046
O O4 0.376832 0.853345 0.645719
O O5 0.980554 0.820449 0.420218
O O6 0.803721 0.579588 0.580261
O O7 0.308426 0.096701 0.576096
O O8 0.000000 0.000000 0.500000
O O9 0.100161 0.374737 0.683984
O O10 0.000000 0.500000 0.500000
O O11 0.390372 0.438174 0.738785
O O12 0.897312 0.932902 0.754999
O O13 0.382863 0.488751 0.322709
O O14 0.706102 0.273669 0.905385
O O15 0.662594 0.487139 0.863704
O O16 0.050508 0.723547 0.995230
O O17 0.567942 0.214246 0.030528
#
# Coordination Sequence:
#
# PCOD8010713 Si02
#       8
#     2   2   2   2   2   2   2   2
#     4  12  24  43  69  91 129 168 222 263 309 380
#     4  12  22  37  55  89 130 158 202 256 314 388
#     4  12  27  47  64  92 127 179 224 264 299 361
#     4  12  25  40  63  87 125 174 212 254 322 373
#     4  12  22  37  59  96 122 161 203 258 327 367
#     4  10  21  38  62  99 135 154 202 259 340 381
#     4  10  21  38  65  96 128 168 199 262 320 393
#     4  12  22  39  63  94 130 157 200 262 327 391
#
# _framework density 20.539342999999999
#
# number of rings (size 3 to 8) (size 9 to 14) (size 15 to 20)
#    0.000    0.500    3.750    6.000    0.000    0.000 
#    0.000    0.000    0.000   15.000    0.000    0.000 
#    0.000    0.000    0.000    0.000    0.000    0.000 
#
# Total GULP energy -198335.691375 kJ/mol
# GULP energy per Si atom -12395.980711 kJ/mol
# Density = 2.049260 g / cm^3
# Si number density = 20.539343 Si / 1000 Ang^3
#
#
#
# Elastic Constant Matrix: (Units=GPa)
#
#
# Indices 1 2 3 4 5 6 
#
# 1 99.7809 27.6898 26.1274 -1.8080 24.5625 4.9767
# 2 27.6898 105.4552 14.1961 -2.4891 8.3772 17.8617
# 3 26.1274 14.1961 102.6526 1.9389 2.6706 8.7213
# 4 -1.8080 -2.4891 1.9389 24.6768 2.6853 5.3354
# 5 24.5625 8.3772 2.6706 2.6853 37.3913 -3.9317
# 6 4.9767 17.8617 8.7213 5.3354 -3.9317 37.3331
#
#
#
# Elastic Compliance Matrix: (Units=1/GPa)
#
#
# Indices 1 2 3 4 5 6 
#
# 1 0.013592 -0.002238 -0.002861 0.002199 -0.008516 -0.001284
# 2 -0.002238 0.011269 -0.000521 0.002395 -0.001768 -0.005500
# 3 -0.002861 -0.000521 0.010666 -0.000873 0.001127 -0.001618
# 4 0.002199 0.002395 -0.000873 0.043376 -0.005881 -0.008054
# 5 -0.008516 -0.001768 0.001127 -0.005881 0.033719 0.006109
# 6 -0.001284 -0.005500 -0.001618 -0.008054 0.006109 0.031761
#
#
# Mechanical properties :
#
#
# Convention : Reuss Voigt Hill
#
# Bulk Modulus (GPa) = 41.17202 49.32393 45.24797
# Shear Modulus (GPa) = 30.54009 35.87195 33.20602
#
# Velocity S-wave (km/s) = 3.86023 4.18365 4.02519
# Velocity P-wave (km/s) = 6.32119 6.88504 6.60913
#
# Compressibility (1/GPa) = 0.02428834
#
# Stress axis : x y z
#
# Youngs Moduli (GPa) = 73.57051 88.73921 93.75218
#
# Poissons Ratio (x) = 0.19860 0.26822
# Poissons Ratio (y) = 0.16465 0.04882
# Poissons Ratio (z) = 0.21048 0.04621
#
# Static dielectric constant tensor:
#      x y z
#    x 3.749630 0.020210 0.203890 
#    y 0.020210 3.856480 -0.064450 
#    z 0.203890 -0.064450 3.701070 
# 
# 
# High freq. dielectric constant tensor:
#      x y z
#    x 1.799330 0.009020 0.013570 
#    y 0.009020 1.819970 -0.004230 
#    z 0.013570 -0.004230 1.805830 
# 
# From -- ./inp_files/437363.got.cif
#   From: 2010.06.25/outbox.cif.g09.slc.cpg/sg2_219_cif.got.tgz:437363.got - 2010.06.27 13:26:56.
