data_PCOD8010025
_publ_section_title
;
Structure prediction by ZEFSAII (Michael W. Deem and Ramdas Pophale) SiO2 
 PCOD8010025
Probable space group: P -1
;
_chemical_formula_sum "Si O2"
_cell_formula_units_Z 16
_cell_length_a 15.017646
_cell_length_b 4.956041
_cell_length_c 19.699193
_cell_angle_alpha 107.652758
_cell_angle_beta 147.529677
_cell_angle_gamma 64.944391
_cell_volume 708.645674
_symmetry_space_group_name_H-M "P -1"
_symmetry_group_IT_number 2
_symmetry_cell_setting 'triclinic'
loop_
_space_group_symop_operation_xyz
x,y,z
-x,-y,-z
loop_
_atom_site_type_symbol
_atom_site_label
_atom_site_fract_x
_atom_site_fract_y
_atom_site_fract_z
Si Si1 0.387118 0.240968 0.514843
Si Si2 0.279556 0.847880 0.877947
Si Si3 0.050560 0.324043 0.143330
Si Si4 0.385382 0.194968 0.268739
Si Si5 0.586712 0.627618 0.964399
Si Si6 0.728015 0.174984 0.677321
Si Si7 0.073552 0.688183 0.305779
Si Si8 0.687926 0.384589 0.865526
O O1 0.544623 0.393838 0.611669
O O2 0.199582 0.496730 0.432578
O O3 0.443495 0.997399 0.593316
O O4 0.342893 0.109829 0.404756
O O5 0.387494 0.696213 0.869016
O O6 0.278505 0.596083 0.913046
O O7 0.078269 0.026113 0.740225
O O8 0.371309 0.064249 0.989399
O O9 0.218038 0.416070 0.225142
O O10 0.981167 0.510565 0.182353
O O11 0.119243 0.968947 0.179255
O O12 0.886994 0.394370 0.993235
O O13 0.425321 0.382576 0.246081
O O14 0.300928 0.954325 0.166780
O O15 0.595041 0.480156 0.885252
O O16 0.786940 0.230017 0.645488
#
# Coordination Sequence:
#
# PCOD8010025 Si02
#       8
#     2   2   2   2   2   2   2   2
#     4   9  21  37  50  85 112 158 203 233 282 335
#     4  10  21  37  64  92 114 144 181 252 304 344
#     4  10  22  35  53  89 115 148 200 235 291 339
#     4  11  26  37  56  79 121 167 196 223 275 346
#     4  10  21  40  60  88 121 143 189 237 303 353
#     4   9  19  34  58  79 116 151 193 253 288 328
#     4  11  20  33  65  84 117 148 189 259 291 337
#     4  12  23  39  58  81 119 162 191 235 276 355
#
# _framework density 22.578279999999999
#
# number of rings (size 3 to 8) (size 9 to 14) (size 15 to 20)
#    0.000    1.750    1.250    3.375    8.750    0.000 
#    0.000    0.000    0.000    1.500    0.000    0.000 
#    0.000    0.000    0.000    0.000    0.000    0.000 
#
# Total GULP energy -198286.553016 kJ/mol
# GULP energy per Si atom -12392.909564 kJ/mol
# Density = 2.252689 g / cm^3
# Si number density = 22.578280 Si / 1000 Ang^3
#
#
#
# Elastic Constant Matrix: (Units=GPa)
#
#
# Indices 1 2 3 4 5 6 
#
# 1 93.1374 28.6520 42.1346 -18.9847 -7.6043 -14.0478
# 2 28.6520 46.6849 27.2916 -31.7546 2.9450 -7.3404
# 3 42.1346 27.2916 124.1286 -36.4971 -0.0375 -20.0585
# 4 -18.9847 -31.7546 -36.4971 42.5566 -1.8531 5.2337
# 5 -7.6043 2.9450 -0.0375 -1.8531 27.3118 -7.0146
# 6 -14.0478 -7.3404 -20.0585 5.2337 -7.0146 34.4134
#
#
#
# Elastic Compliance Matrix: (Units=1/GPa)
#
#
# Indices 1 2 3 4 5 6 
#
# 1 0.015757 -0.009735 -0.003590 -0.003542 0.006238 0.004074
# 2 -0.009735 0.050282 0.002931 0.035212 -0.005215 0.002042
# 3 -0.003590 0.002931 0.012625 0.010827 0.000726 0.005020
# 4 -0.003542 0.035212 0.010827 0.057023 0.000055 0.003714
# 5 0.006238 -0.005215 0.000726 0.000055 0.041569 0.010322
# 6 0.004074 0.002042 0.005020 0.003714 0.010322 0.035622
#
#
# Mechanical properties :
#
#
# Convention : Reuss Voigt Hill
#
# Bulk Modulus (GPa) = 17.27809 51.12305 34.20057
# Shear Modulus (GPa) = 19.76616 31.91453 25.84034
#
# Velocity S-wave (km/s) = 2.96201 3.76374 3.38668
# Velocity P-wave (km/s) = 4.40081 6.44821 5.52026
#
# Compressibility (1/GPa) = 0.05787677
#
# Stress axis : x y z
#
# Youngs Moduli (GPa) = 63.46340 19.88787 79.20661
#
# Poissons Ratio (x) = 0.19360 0.28433
# Poissons Ratio (y) = 0.61779 -0.23212
# Poissons Ratio (z) = 0.22782 -0.05828
#
# Static dielectric constant tensor:
#      x y z
#    x 3.896080 0.102180 0.138690 
#    y 0.102180 4.552420 0.004210 
#    z 0.138690 0.004210 4.059760 
# 
# 
# High freq. dielectric constant tensor:
#      x y z
#    x 1.861110 0.025010 0.008150 
#    y 0.025010 1.912330 -0.009380 
#    z 0.008150 -0.009380 1.885620 
# 
# From -- ./inp_files/77923.got.cif
#   From: 2010.06.25/outbox.cif.g09.slc.cpg/sg2_39_cif.got.tgz:77923.got - 2010.06.27 13:26:56.
