data_PCOD8010670
_publ_section_title
;
Structure prediction by ZEFSAII (Michael W. Deem and Ramdas Pophale) SiO2 
 PCOD8010670
Probable space group: P -1
;
_chemical_formula_sum "Si O2"
_cell_formula_units_Z 14
_cell_length_a 8.977639
_cell_length_b 9.195170
_cell_length_c 11.247036
_cell_angle_alpha 126.049121
_cell_angle_beta 119.523677
_cell_angle_gamma 67.365514
_cell_volume 647.229114
_symmetry_space_group_name_H-M "P -1"
_symmetry_group_IT_number 2
_symmetry_cell_setting 'triclinic'
loop_
_space_group_symop_operation_xyz
x,y,z
-x,-y,-z
loop_
_atom_site_type_symbol
_atom_site_label
_atom_site_fract_x
_atom_site_fract_y
_atom_site_fract_z
Si Si1 0.537930 0.302435 0.696770
Si Si2 0.954392 0.144014 0.154880
Si Si3 0.699092 0.929725 0.610067
Si Si4 0.691051 0.951029 0.100288
Si Si5 0.767670 0.524767 0.184744
Si Si6 0.826571 0.912758 0.394705
Si Si7 0.204952 0.455397 0.060078
O O1 0.620938 0.128014 0.727171
O O2 0.404645 0.441162 0.787712
O O3 0.690691 0.410304 0.755703
O O4 0.432644 0.220999 0.508110
O O5 0.892473 0.344441 0.180885
O O6 0.809079 0.087709 0.156767
O O7 0.126640 0.156503 0.302269
O O8 0.000000 0.000000 0.000000
O O9 0.722817 0.979696 0.503984
O O10 0.706055 0.962008 0.254599
O O11 0.754569 0.750048 0.979337
O O12 0.500000 0.000000 0.000000
O O13 0.876922 0.694506 0.318695
O O14 0.713754 0.509397 0.019400
O O15 0.000000 0.000000 0.500000
O O16 0.000000 0.500000 0.000000
#
# Coordination Sequence:
#
# PCOD8010670 Si02
#       7
#     2   2   2   2   2   2   2
#     4  10  21  38  62  92 126 164 218 266 314 394
#     4  12  24  42  66  96 134 168 219 274 324 390
#     4  10  22  40  66  96 126 177 218 268 327 388
#     4  11  24  41  66  97 130 167 218 274 325 375
#     4  10  23  39  65  95 126 174 216 261 330 390
#     4  10  21  42  67  94 131 175 216 266 326 394
#     4  11  22  40  64  92 126 174 219 261 325 394
#
# _framework density 21.630672000000001
#
# number of rings (size 3 to 8) (size 9 to 14) (size 15 to 20)
#    0.000    1.429    1.429    3.857    2.000    9.143 
#    2.571    0.000    0.000    5.143    0.000    0.000 
#    0.000    0.000    0.000    0.000    0.000    0.000 
#
# Total GULP energy -173509.685201 kJ/mol
# GULP energy per Si atom -12393.548943 kJ/mol
# Density = 2.158144 g / cm^3
# Si number density = 21.630672 Si / 1000 Ang^3
#
#
#
# Elastic Constant Matrix: (Units=GPa)
#
#
# Indices 1 2 3 4 5 6 
#
# 1 83.2622 40.0850 49.4481 5.0949 29.2953 -13.9755
# 2 40.0850 140.4954 44.4322 2.0712 18.0249 -21.7957
# 3 49.4481 44.4322 107.8200 0.6211 32.9548 -2.3900
# 4 5.0949 2.0712 0.6211 34.2576 3.7748 4.2986
# 5 29.2953 18.0249 32.9548 3.7748 55.7445 2.0856
# 6 -13.9755 -21.7957 -2.3900 4.2986 2.0856 42.5972
#
#
#
# Elastic Compliance Matrix: (Units=1/GPa)
#
#
# Indices 1 2 3 4 5 6 
#
# 1 0.020048 -0.001981 -0.006347 -0.002794 -0.006170 0.005791
# 2 -0.001981 0.009213 -0.002650 -0.000665 -0.000476 0.004006
# 3 -0.006347 -0.002650 0.014567 0.001651 -0.004434 -0.002571
# 4 -0.002794 -0.000665 0.001651 0.030269 -0.001187 -0.004160
# 5 -0.006170 -0.000476 -0.004434 -0.001187 0.024171 -0.003580
# 6 0.005791 0.004006 -0.002571 -0.004160 -0.003580 0.027876
#
#
# Mechanical properties :
#
#
# Convention : Reuss Voigt Hill
#
# Bulk Modulus (GPa) = 45.72380 66.61204 56.16792
# Shear Modulus (GPa) = 32.17668 39.69400 35.93534
#
# Velocity S-wave (km/s) = 3.86106 4.28843 4.08034
# Velocity P-wave (km/s) = 6.40791 7.44197 6.94421
#
# Compressibility (1/GPa) = 0.02187045
#
# Stress axis : x y z
#
# Youngs Moduli (GPa) = 49.88122 108.53824 68.64977
#
# Poissons Ratio (x) = 0.21503 0.43575
# Poissons Ratio (y) = 0.09882 0.18192
# Poissons Ratio (z) = 0.31662 0.28763
#
# Static dielectric constant tensor:
#      x y z
#    x 3.998380 -0.024340 0.020760 
#    y -0.024340 3.912850 0.271350 
#    z 0.020760 0.271350 4.278620 
# 
# 
# High freq. dielectric constant tensor:
#      x y z
#    x 1.853680 -0.010910 0.019200 
#    y -0.010910 1.843720 0.020130 
#    z 0.019200 0.020130 1.855470 
# 
# From -- ./inp_files/174814.got.cif
#   From: 2010.06.25/outbox.cif.g09.slc.cpg/sg2_88_cif.got.tgz:174814.got - 2010.06.27 13:26:56.
