data_PCOD8010107
_publ_section_title
;
Structure prediction by ZEFSAII (Michael W. Deem and Ramdas Pophale) SiO2 
 PCOD8010107
Probable space group: P -1
;
_chemical_formula_sum "Si O2"
_cell_formula_units_Z 16
_cell_length_a 9.702486
_cell_length_b 10.291143
_cell_length_c 11.707128
_cell_angle_alpha 99.457377
_cell_angle_beta 125.793555
_cell_angle_gamma 114.174182
_cell_volume 724.866336
_symmetry_space_group_name_H-M "P -1"
_symmetry_group_IT_number 2
_symmetry_cell_setting 'triclinic'
loop_
_space_group_symop_operation_xyz
x,y,z
-x,-y,-z
loop_
_atom_site_type_symbol
_atom_site_label
_atom_site_fract_x
_atom_site_fract_y
_atom_site_fract_z
Si Si1 0.529546 0.734334 0.360915
Si Si2 0.057852 0.438184 0.715675
Si Si3 0.250563 0.926077 0.392905
Si Si4 0.882340 0.849293 0.051328
Si Si5 0.975578 0.806860 0.847982
Si Si6 0.174519 0.639057 0.015403
Si Si7 0.564507 0.468095 0.249403
Si Si8 0.709148 0.473959 0.555556
O O1 0.395486 0.761437 0.212164
O O2 0.592392 0.637048 0.305841
O O3 0.389328 0.638483 0.394031
O O4 0.740130 0.925072 0.522578
O O5 0.221499 0.479239 0.701534
O O6 0.873668 0.235150 0.608663
O O7 0.927980 0.505744 0.627538
O O8 0.191492 0.535392 0.910582
O O9 0.093621 0.869308 0.198350
O O10 0.500000 0.000000 0.500000
O O11 0.886148 0.005508 0.115429
O O12 0.648690 0.672275 0.951560
O O13 0.864305 0.824316 0.903225
O O14 0.782526 0.661318 0.648152
O O15 0.120473 0.753854 0.950286
O O16 0.000000 0.500000 0.000000
O O17 0.546898 0.395402 0.357733
#
# Coordination Sequence:
#
# PCOD8010107 Si02
#       8
#     2   2   2   2   2   2   2   2
#     4  12  23  38  70  98 130 179 222 282 331 392
#     4  11  25  43  70  95 136 180 219 278 338 402
#     4  12  24  42  68 101 130 172 232 280 329 396
#     4  11  24  38  64 101 135 168 219 282 331 385
#     4  10  21  37  65  96 129 173 222 277 317 388
#     4  11  19  42  66  95 127 173 225 268 331 397
#     4  12  26  43  63 101 141 177 219 275 344 400
#     4  11  22  43  65  96 135 182 225 265 331 406
#
# _framework density 22.073035000000001
#
# number of rings (size 3 to 8) (size 9 to 14) (size 15 to 20)
#    0.000    0.750    5.000    3.750    3.500    3.500 
#    0.000    3.750    0.000    0.000    0.000    0.000 
#    0.000    0.000    0.000    0.000    0.000    0.000 
#
# Total GULP energy -198274.800721 kJ/mol
# GULP energy per Si atom -12392.175045 kJ/mol
# Density = 2.202280 g / cm^3
# Si number density = 22.073035 Si / 1000 Ang^3
#
#
#
# Elastic Constant Matrix: (Units=GPa)
#
#
# Indices 1 2 3 4 5 6 
#
# 1 98.6261 31.4677 31.5174 6.0395 0.6252 -5.9185
# 2 31.4677 77.7467 40.6043 16.8705 -6.5578 -15.7631
# 3 31.5174 40.6043 134.3490 11.3449 2.5823 -0.3080
# 4 6.0395 16.8705 11.3449 42.3849 -8.5450 -2.2643
# 5 0.6252 -6.5578 2.5823 -8.5450 30.4727 2.0610
# 6 -5.9185 -15.7631 -0.3080 -2.2643 2.0610 23.9683
#
#
#
# Elastic Compliance Matrix: (Units=1/GPa)
#
#
# Indices 1 2 3 4 5 6 
#
# 1 0.011955 -0.004061 -0.001571 0.000158 -0.000966 0.000359
# 2 -0.004061 0.020865 -0.004938 -0.005219 0.002722 0.011929
# 3 -0.001571 -0.004938 0.009406 -0.000884 -0.001843 -0.003439
# 4 0.000158 -0.005219 -0.000884 0.027151 0.006658 -0.001412
# 5 -0.000966 0.002722 -0.001843 0.006658 0.035505 -0.000896
# 6 0.000359 0.011929 -0.003439 -0.001412 -0.000896 0.049555
#
#
# Mechanical properties :
#
#
# Convention : Reuss Voigt Hill
#
# Bulk Modulus (GPa) = 47.42292 57.54451 52.48371
# Shear Modulus (GPa) = 27.38105 33.17400 30.27753
#
# Velocity S-wave (km/s) = 3.52586 3.88096 3.70766
# Velocity P-wave (km/s) = 6.17307 6.79773 6.49291
#
# Compressibility (1/GPa) = 0.02108685
#
# Stress axis : x y z
#
# Youngs Moduli (GPa) = 83.64595 47.92607 106.31114
#
# Poissons Ratio (x) = 0.19464 0.16703
# Poissons Ratio (y) = 0.33971 0.52493
# Poissons Ratio (z) = 0.13142 0.23664
#
# Static dielectric constant tensor:
#      x y z
#    x 3.826820 -0.436860 -0.089570 
#    y -0.436860 4.141370 0.196470 
#    z -0.089570 0.196470 4.623230 
# 
# 
# High freq. dielectric constant tensor:
#      x y z
#    x 1.848600 -0.035400 -0.001430 
#    y -0.035400 1.851570 0.002660 
#    z -0.001430 0.002660 1.890590 
# 
# From -- ./inp_files/390772.got.cif
#   From: 2010.06.25/outbox.cif.g09.slc.cpg/sg2_196_cif.got.tgz:390772.got - 2010.06.27 13:26:56.
