data_PCOD8010619
_publ_section_title
;
Structure prediction by ZEFSAII (Michael W. Deem and Ramdas Pophale) SiO2 
 PCOD8010619
Probable space group: P -1
;
_chemical_formula_sum "Si O2"
_cell_formula_units_Z 10
_cell_length_a 5.264470
_cell_length_b 4.985335
_cell_length_c 21.171752
_cell_angle_alpha 123.560448
_cell_angle_beta 59.665257
_cell_angle_gamma 118.265977
_cell_volume 384.766090
_symmetry_space_group_name_H-M "P -1"
_symmetry_group_IT_number 2
_symmetry_cell_setting 'triclinic'
loop_
_space_group_symop_operation_xyz
x,y,z
-x,-y,-z
loop_
_atom_site_type_symbol
_atom_site_label
_atom_site_fract_x
_atom_site_fract_y
_atom_site_fract_z
Si Si1 0.020792 0.245831 0.772321
Si Si2 0.557254 0.181485 0.283068
Si Si3 0.635351 0.391308 0.531435
Si Si4 0.897770 0.089700 0.904285
Si Si5 0.545873 0.479776 0.064861
O O1 0.215477 0.613634 0.773290
O O2 0.836004 0.249329 0.864323
O O3 0.255775 0.027751 0.728182
O O4 0.764607 0.060139 0.730963
O O5 0.483740 0.456761 0.372974
O O6 0.500000 0.500000 0.500000
O O7 0.000000 0.500000 0.500000
O O8 0.500000 0.000000 0.500000
O O9 0.267453 0.179451 0.878416
O O10 0.742667 0.687544 0.874453
O O11 0.770210 0.229173 0.001946
O O12 0.500000 0.500000 0.000000
#
# Coordination Sequence:
#
# PCOD8010619 Si02
#       5
#     2   2   2   2   2
#     4  12  27  45  71  98 146 180 227 277 347 403
#     4  12  26  46  69 105 137 180 227 277 335 417
#     4  12  25  45  74 103 137 179 225 280 335 398
#     4  10  23  38  59  92 119 176 213 280 327 390
#     4  10  21  38  62  87 123 158 234 268 328 388
#
# _framework density 25.989816000000001
#
# number of rings (size 3 to 8) (size 9 to 14) (size 15 to 20)
#    0.000    0.800    0.000    7.200    5.600    0.000 
#    0.000    0.000    0.000    0.000    0.000    0.000 
#    0.000    0.000    0.000    0.000    0.000    0.000 
#
# Total GULP energy -123981.521939 kJ/mol
# GULP energy per Si atom -12398.152194 kJ/mol
# Density = 2.593066 g / cm^3
# Si number density = 25.989816 Si / 1000 Ang^3
#
#
#
# Elastic Constant Matrix: (Units=GPa)
#
#
# Indices 1 2 3 4 5 6 
#
# 1 160.6921 83.1513 11.9177 -4.2580 8.3106 26.3455
# 2 83.1513 244.4897 16.3894 -6.3953 21.6512 36.2733
# 3 11.9177 16.3894 101.3310 -4.0094 -1.8288 25.7926
# 4 -4.2580 -6.3953 -4.0094 41.9430 1.5534 6.2576
# 5 8.3106 21.6512 -1.8288 1.5534 40.9914 -5.5843
# 6 26.3455 36.2733 25.7926 6.2576 -5.5843 43.9753
#
#
#
# Elastic Compliance Matrix: (Units=1/GPa)
#
#
# Indices 1 2 3 4 5 6 
#
# 1 0.007932 -0.002081 0.000320 0.001079 -0.001013 -0.003505
# 2 -0.002081 0.005742 0.000426 0.001476 -0.003242 -0.004361
# 3 0.000320 0.000426 0.011872 0.002457 -0.000940 -0.007976
# 4 0.001079 0.001476 0.002457 0.025608 -0.002855 -0.007311
# 5 -0.001013 -0.003242 -0.000940 -0.002855 0.027431 0.007722
# 6 -0.003505 -0.004361 -0.007976 -0.007311 0.007722 0.035137
#
#
# Mechanical properties :
#
#
# Convention : Reuss Voigt Hill
#
# Bulk Modulus (GPa) = 43.71185 81.04774 62.37980
# Shear Modulus (GPa) = 40.31691 51.71890 46.01790
#
# Velocity S-wave (km/s) = 3.94287 4.46575 4.21243
# Velocity P-wave (km/s) = 6.13055 7.60543 6.90747
#
# Compressibility (1/GPa) = 0.02287709
#
# Stress axis : x y z
#
# Youngs Moduli (GPa) = 126.07297 174.15132 84.22847
#
# Poissons Ratio (x) = 0.36243 -0.02699
# Poissons Ratio (y) = 0.26237 -0.03588
# Poissons Ratio (z) = -0.04040 -0.07419
#
# Static dielectric constant tensor:
#      x y z
#    x 5.568110 0.562090 -1.496870 
#    y 0.562090 5.437440 -0.581970 
#    z -1.496870 -0.581970 7.292450 
# 
# 
# High freq. dielectric constant tensor:
#      x y z
#    x 2.068610 0.005060 -0.025920 
#    y 0.005060 2.070150 0.004580 
#    z -0.025920 0.004580 2.057910 
# 
# From -- ./inp_files/4953.got.cif
#   From: 2010.06.25/outbox.cif.g09.slc.cpg/sg2_3_cif.got.tgz:4953.got - 2010.06.27 13:26:56.
