data_PCOD8010642
_publ_section_title
;
Structure prediction by ZEFSAII (Michael W. Deem and Ramdas Pophale) SiO2 
 PCOD8010642
Probable space group: P -1
;
_chemical_formula_sum "Si O2"
_cell_formula_units_Z 16
_cell_length_a 11.233016
_cell_length_b 11.788923
_cell_length_c 8.617175
_cell_angle_alpha 67.834588
_cell_angle_beta 129.814465
_cell_angle_gamma 122.776446
_cell_volume 736.144753
_symmetry_space_group_name_H-M "P -1"
_symmetry_group_IT_number 2
_symmetry_cell_setting 'triclinic'
loop_
_space_group_symop_operation_xyz
x,y,z
-x,-y,-z
loop_
_atom_site_type_symbol
_atom_site_label
_atom_site_fract_x
_atom_site_fract_y
_atom_site_fract_z
Si Si1 0.575924 0.071485 0.187661
Si Si2 0.115556 0.378531 0.647975
Si Si3 0.270466 0.473153 0.183776
Si Si4 0.335168 0.364553 0.588622
Si Si5 0.912585 0.794403 0.010067
Si Si6 0.201847 0.065041 0.634928
Si Si7 0.181630 0.623305 0.786899
Si Si8 0.237284 0.026373 0.040241
O O1 0.656399 0.233283 0.154470
O O2 0.427095 0.027532 0.220664
O O3 0.725913 0.020967 0.370797
O O4 0.500000 0.000000 0.000000
O O5 0.269962 0.356011 0.713429
O O6 0.024378 0.261411 0.758617
O O7 0.198308 0.526564 0.716778
O O8 0.989150 0.360656 0.407077
O O9 0.259395 0.449220 0.372338
O O10 0.464782 0.563599 0.259598
O O11 0.214772 0.328165 0.134128
O O12 0.165331 0.553231 0.980667
O O13 0.277392 0.214657 0.547859
O O14 0.803866 0.877890 0.924368
O O15 0.083482 0.878335 0.010064
O O16 0.254894 0.075533 0.852975
O O17 0.000000 0.000000 0.500000
#
# Coordination Sequence:
#
# PCOD8010642 Si02
#       8
#     2   2   2   2   2   2   2   2
#     4  10  22  38  62  95 126 166 209 261 317 381
#     4  10  22  40  66  90 126 165 216 261 316 393
#     4  10  23  39  63  91 127 159 216 266 312 376
#     4  11  22  40  63  97 120 167 214 261 316 380
#     4  10  21  39  64  92 128 169 213 258 321 379
#     4  11  21  38  66  92 131 166 207 260 317 387
#     4  10  22  41  62  94 124 165 207 263 325 372
#     4  10  21  38  62  90 127 167 213 255 318 385
#
# _framework density 21.734855
#
# number of rings (size 3 to 8) (size 9 to 14) (size 15 to 20)
#    0.000    1.750    1.250    3.000    1.750    2.500 
#    0.000   13.125    0.000    0.000    0.000    0.000 
#    0.000    0.000    0.000    0.000    0.000    0.000 
#
# Total GULP energy -198253.686398 kJ/mol
# GULP energy per Si atom -12390.855400 kJ/mol
# Density = 2.168539 g / cm^3
# Si number density = 21.734855 Si / 1000 Ang^3
#
#
#
# Elastic Constant Matrix: (Units=GPa)
#
#
# Indices 1 2 3 4 5 6 
#
# 1 117.0409 47.9938 7.1887 0.6132 21.8160 10.6718
# 2 47.9938 150.0344 25.4434 16.6221 15.4478 16.5685
# 3 7.1887 25.4434 71.3280 -3.3224 8.9909 11.1214
# 4 0.6132 16.6221 -3.3224 35.3837 2.7924 -0.4107
# 5 21.8160 15.4478 8.9909 2.7924 26.3315 -3.1842
# 6 10.6718 16.5685 11.1214 -0.4107 -3.1842 28.5786
#
#
#
# Elastic Compliance Matrix: (Units=1/GPa)
#
#
# Indices 1 2 3 4 5 6 
#
# 1 0.011747 -0.002815 0.001802 0.001982 -0.009448 -0.004480
# 2 -0.002815 0.009054 -0.002311 -0.004292 -0.002171 -0.003602
# 3 0.001802 -0.002311 0.016708 0.003097 -0.006965 -0.006567
# 4 0.001982 -0.004292 0.003097 0.030808 -0.003375 0.000610
# 5 -0.009448 -0.002171 -0.006965 -0.003375 0.051408 0.013176
# 6 -0.004480 -0.003602 -0.006567 0.000610 0.013176 0.042785
#
#
# Mechanical properties :
#
#
# Convention : Reuss Voigt Hill
#
# Bulk Modulus (GPa) = 32.40232 55.51725 43.95978
# Shear Modulus (GPa) = 27.86354 35.24391 31.55373
#
# Velocity S-wave (km/s) = 3.58435 4.03120 3.81433
# Velocity P-wave (km/s) = 5.66308 6.87502 6.29827
#
# Compressibility (1/GPa) = 0.03086199
#
# Stress axis : x y z
#
# Youngs Moduli (GPa) = 85.12830 110.44311 59.84991
#
# Poissons Ratio (x) = 0.31094 -0.10785
# Poissons Ratio (y) = 0.23967 0.13829
# Poissons Ratio (z) = -0.15341 0.25520
#
# Static dielectric constant tensor:
#      x y z
#    x 4.523200 -0.314600 0.741930 
#    y -0.314600 4.271150 -0.433440 
#    z 0.741930 -0.433440 4.571330 
# 
# 
# High freq. dielectric constant tensor:
#      x y z
#    x 1.842510 0.002570 0.008770 
#    y 0.002570 1.868200 0.001630 
#    z 0.008770 0.001630 1.847090 
# 
# From -- ./inp_files/261984.got.cif
#   From: 2010.06.25/outbox.cif.g09.slc.cpg/sg2_131_cif.got.tgz:261984.got - 2010.06.27 13:26:56.
