data_PCOD8010740
_publ_section_title
;
Structure prediction by ZEFSAII (Michael W. Deem and Ramdas Pophale) SiO2 
 PCOD8010740
Probable space group: P -1
;
_chemical_formula_sum "Si O2"
_cell_formula_units_Z 14
_cell_length_a 9.080524
_cell_length_b 11.453009
_cell_length_c 16.332432
_cell_angle_alpha 141.629401
_cell_angle_beta 56.282443
_cell_angle_gamma 96.716796
_cell_volume 690.616077
_symmetry_space_group_name_H-M "P -1"
_symmetry_group_IT_number 2
_symmetry_cell_setting 'triclinic'
loop_
_space_group_symop_operation_xyz
x,y,z
-x,-y,-z
loop_
_atom_site_type_symbol
_atom_site_label
_atom_site_fract_x
_atom_site_fract_y
_atom_site_fract_z
Si Si1 0.221012 0.017040 0.231123
Si Si2 0.249304 0.525641 0.311269
Si Si3 0.307494 0.826656 0.932844
Si Si4 0.703960 0.771613 0.264934
Si Si5 0.446857 0.501322 0.923342
Si Si6 0.017621 0.302168 0.001613
Si Si7 0.315242 0.128105 0.970921
O O1 0.244782 0.023597 0.129309
O O2 0.249918 0.775455 0.108311
O O3 0.422922 0.002083 0.202522
O O4 0.984982 0.248199 0.459325
O O5 0.436872 0.413053 0.263380
O O6 0.326613 0.606976 0.257191
O O7 0.221770 0.332584 0.180435
O O8 0.134244 0.769936 0.961992
O O9 0.289308 0.934283 0.908464
O O10 0.630375 0.657737 0.161057
O O11 0.864362 0.583770 0.182920
O O12 0.500000 0.000000 0.500000
O O13 0.834506 0.837872 0.203398
O O14 0.500000 0.500000 0.000000
O O15 0.180284 0.245855 0.994587
#
# Coordination Sequence:
#
# PCOD8010740 Si02
#       7
#     2   2   2   2   2   2   2
#     4  10  21  39  62  87 124 160 205 252 307 365
#     4  10  21  38  63  89 123 160 207 251 307 366
#     4  10  21  40  62  90 124 165 202 252 309 366
#     4  11  24  41  65  90 125 166 206 254 315 368
#     4  10  21  40  62  91 122 161 209 259 306 363
#     4  11  23  41  62  90 127 160 204 252 312 367
#     4  10  22  39  62  93 126 159 203 256 306 368
#
# _framework density 20.271754999999999
#
# number of rings (size 3 to 8) (size 9 to 14) (size 15 to 20)
#    0.000    2.000    2.857    3.857    2.000    5.143 
#    0.000    0.000    0.000    5.143    0.000    0.000 
#    0.000    0.000    0.000    0.000    0.000    0.000 
#
# Total GULP energy -173540.811486 kJ/mol
# GULP energy per Si atom -12395.772249 kJ/mol
# Density = 2.022562 g / cm^3
# Si number density = 20.271755 Si / 1000 Ang^3
#
#
#
# Elastic Constant Matrix: (Units=GPa)
#
#
# Indices 1 2 3 4 5 6 
#
# 1 97.0300 40.7994 37.7953 1.1650 -17.6144 -3.0960
# 2 40.7994 107.2020 39.5702 -1.0844 -7.4651 -3.1588
# 3 37.7953 39.5702 190.9055 -8.6435 -19.9881 0.3343
# 4 1.1650 -1.0844 -8.6435 11.5686 2.3481 -1.8491
# 5 -17.6144 -7.4651 -19.9881 2.3481 20.9096 -0.8262
# 6 -3.0960 -3.1588 0.3343 -1.8491 -0.8262 36.5545
#
#
#
# Elastic Compliance Matrix: (Units=1/GPa)
#
#
# Indices 1 2 3 4 5 6 
#
# 1 0.014527 -0.004436 -0.001105 -0.004628 0.010152 0.000853
# 2 -0.004436 0.011554 -0.001613 0.000672 -0.001204 0.000644
# 3 -0.001105 -0.001613 0.006405 0.003898 0.004179 0.000000
# 4 -0.004628 0.000672 0.003898 0.092599 -0.010171 0.004085
# 5 0.010152 -0.001204 0.004179 -0.010171 0.061146 0.001585
# 6 0.000853 0.000644 0.000000 0.004085 0.001585 0.027727
#
#
# Mechanical properties :
#
#
# Convention : Reuss Voigt Hill
#
# Bulk Modulus (GPa) = 55.01072 70.16303 62.58688
# Shear Modulus (GPa) = 21.33779 32.27139 26.80459
#
# Velocity S-wave (km/s) = 3.24788 3.99424 3.64024
# Velocity P-wave (km/s) = 6.42343 7.48053 6.97204
#
# Compressibility (1/GPa) = 0.01817827
#
# Stress axis : x y z
#
# Youngs Moduli (GPa) = 68.83609 86.55112 156.12004
#
# Poissons Ratio (x) = 0.38393 0.17248
# Poissons Ratio (y) = 0.30535 0.25189
# Poissons Ratio (z) = 0.07605 0.13965
#
# Static dielectric constant tensor:
#      x y z
#    x 3.727180 -0.048140 -0.213780 
#    y -0.048140 3.886920 -0.072850 
#    z -0.213780 -0.072850 3.474830 
# 
# 
# High freq. dielectric constant tensor:
#      x y z
#    x 1.789720 0.002480 -0.019280 
#    y 0.002480 1.804560 -0.007640 
#    z -0.019280 -0.007640 1.772530 
# 
# From -- ./inp_files/387350.got.cif
#   From: 2010.06.25/outbox.cif.g09.slc.cpg/sg2_194_cif.got.tgz:387350.got - 2010.06.27 13:26:56.
