data_PCOD8010843
_publ_section_title
;
Structure prediction by ZEFSAII (Michael W. Deem and Ramdas Pophale) SiO2 
 PCOD8010843
Probable space group: P -1
;
_chemical_formula_sum "Si O2"
_cell_formula_units_Z 14
_cell_length_a 12.884804
_cell_length_b 13.615914
_cell_length_c 5.573050
_cell_angle_alpha 44.066673
_cell_angle_beta 52.916839
_cell_angle_gamma 62.812453
_cell_volume 541.987877
_symmetry_space_group_name_H-M "P -1"
_symmetry_group_IT_number 2
_symmetry_cell_setting 'triclinic'
loop_
_space_group_symop_operation_xyz
x,y,z
-x,-y,-z
loop_
_atom_site_type_symbol
_atom_site_label
_atom_site_fract_x
_atom_site_fract_y
_atom_site_fract_z
Si Si1 0.848942 0.464880 0.374162
Si Si2 0.942174 0.765728 0.478460
Si Si3 0.099336 0.984120 0.605427
Si Si4 0.695454 0.235965 0.259394
Si Si5 0.756142 0.701515 0.414941
Si Si6 0.477565 0.084155 0.635001
Si Si7 0.637602 0.464281 0.264997
O O1 0.838566 0.627781 0.205634
O O2 0.763224 0.466653 0.254281
O O3 0.996830 0.391148 0.251808
O O4 0.796102 0.352119 0.832756
O O5 0.854504 0.741245 0.415654
O O6 0.867309 0.855718 0.638660
O O7 0.050896 0.879918 0.066110
O O8 0.234155 0.905262 0.477426
O O9 0.000000 0.000000 0.500000
O O10 0.591163 0.198692 0.266511
O O11 0.620608 0.307802 0.461253
O O12 0.666178 0.842998 0.256254
O O13 0.657762 0.580902 0.830141
O O14 0.500000 0.000000 0.500000
O O15 0.500000 0.000000 0.000000
O O16 0.500000 0.500000 0.500000
#
# Coordination Sequence:
#
# PCOD8010843 Si02
#       7
#     2   2   2   2   2   2   2
#     4  10  22  41  68  95 129 174 221 284 344 409
#     4  10  22  40  63  96 132 166 223 276 340 417
#     4  10  21  38  64  90 128 175 214 270 341 407
#     4  10  23  42  63  95 129 173 228 277 339 408
#     4  11  25  42  65  98 132 172 226 283 345 406
#     4  12  29  45  69 101 140 185 232 289 349 412
#     4  11  23  40  69  92 131 177 226 281 340 406
#
# _framework density 25.830838
#
# number of rings (size 3 to 8) (size 9 to 14) (size 15 to 20)
#    0.000    1.429    0.000    3.857    8.000    4.000 
#    0.000    0.000    0.000    0.000    0.000    0.000 
#    0.000    0.000    0.000    0.000    0.000    0.000 
#
# Total GULP energy -173493.609496 kJ/mol
# GULP energy per Si atom -12392.400678 kJ/mol
# Density = 2.577205 g / cm^3
# Si number density = 25.830838 Si / 1000 Ang^3
#
#
#
# Elastic Constant Matrix: (Units=GPa)
#
#
# Indices 1 2 3 4 5 6 
#
# 1 158.9635 107.1202 12.5564 -12.7136 18.2272 -4.3858
# 2 107.1202 291.4757 64.5606 -25.0814 8.7148 -4.5116
# 3 12.5564 64.5606 70.2540 -35.2029 13.7518 -16.4236
# 4 -12.7136 -25.0814 -35.2029 47.5429 -2.8689 1.1021
# 5 18.2272 8.7148 13.7518 -2.8689 37.8052 -4.6069
# 6 -4.3858 -4.5116 -16.4236 1.1021 -4.6069 65.9705
#
#
#
# Elastic Compliance Matrix: (Units=1/GPa)
#
#
# Indices 1 2 3 4 5 6 
#
# 1 0.009695 -0.004270 0.005600 0.004139 -0.005253 0.001311
# 2 -0.004270 0.006282 -0.007523 -0.003188 0.002926 -0.001470
# 3 0.005600 -0.007523 0.035704 0.023109 -0.011277 0.007573
# 4 0.004139 -0.003188 0.023109 0.037081 -0.006274 0.004753
# 5 -0.005253 0.002926 -0.011277 -0.006274 0.031859 -0.000627
# 6 0.001311 -0.001470 0.007573 0.004753 -0.000627 0.016907
#
#
# Mechanical properties :
#
#
# Convention : Reuss Voigt Hill
#
# Bulk Modulus (GPa) = 25.44901 98.79641 62.12271
# Shear Modulus (GPa) = 30.67221 52.69412 41.68316
#
# Velocity S-wave (km/s) = 3.44964 4.52150 4.02144
# Velocity P-wave (km/s) = 5.07349 8.09871 6.75757
#
# Compressibility (1/GPa) = 0.03929426
#
# Stress axis : x y z
#
# Youngs Moduli (GPa) = 103.14234 159.18740 28.00789
#
# Poissons Ratio (x) = 0.67972 -0.15683
# Poissons Ratio (y) = 0.44041 0.21071
# Poissons Ratio (z) = -0.57756 1.19762
#
# Static dielectric constant tensor:
#      x y z
#    x 4.320880 -0.385430 -0.325730 
#    y -0.385430 5.473200 -0.322600 
#    z -0.325730 -0.322600 5.213930 
# 
# 
# High freq. dielectric constant tensor:
#      x y z
#    x 2.027750 -0.013580 -0.012900 
#    y -0.013580 2.065180 -0.017190 
#    z -0.012900 -0.017190 2.068820 
# 
# From -- ./inp_files/37041.got.cif
#   From: 2010.06.25/outbox.cif.g09.slc.cpg/sg2_19_cif.got.tgz:37041.got - 2010.06.27 13:26:56.
