data_PCOD8010607
_publ_section_title
;
Structure prediction by ZEFSAII (Michael W. Deem and Ramdas Pophale) SiO2 
 PCOD8010607
Probable space group: P -1
;
_chemical_formula_sum "Si O2"
_cell_formula_units_Z 16
_cell_length_a 9.819480
_cell_length_b 8.931914
_cell_length_c 15.243881
_cell_angle_alpha 91.889115
_cell_angle_beta 133.466006
_cell_angle_gamma 117.395943
_cell_volume 723.802835
_symmetry_space_group_name_H-M "P -1"
_symmetry_group_IT_number 2
_symmetry_cell_setting 'triclinic'
loop_
_space_group_symop_operation_xyz
x,y,z
-x,-y,-z
loop_
_atom_site_type_symbol
_atom_site_label
_atom_site_fract_x
_atom_site_fract_y
_atom_site_fract_z
Si Si1 0.342335 0.349572 0.504934
Si Si2 0.882082 0.125219 0.187309
Si Si3 0.396323 0.048003 0.775441
Si Si4 0.083640 0.745811 0.076053
Si Si5 0.674000 0.647491 0.205322
Si Si6 0.198114 0.215219 0.928750
Si Si7 0.947508 0.647266 0.481248
Si Si8 0.828342 0.504556 0.798129
O O1 0.500000 0.500000 0.500000
O O2 0.268752 0.438402 0.544059
O O3 0.531379 0.333971 0.637740
O O4 0.087125 0.148734 0.343844
O O5 0.649611 0.041512 0.147550
O O6 0.002818 0.337779 0.203218
O O7 0.794574 0.962092 0.070581
O O8 0.189805 0.875969 0.614389
O O9 0.658133 0.120780 0.860075
O O10 0.401019 0.231554 0.783786
O O11 0.060404 0.598157 0.132856
O O12 0.048899 0.872193 0.125123
O O13 0.859631 0.620762 0.902321
O O14 0.812419 0.737242 0.175381
O O15 0.866773 0.660184 0.350786
O O16 0.430972 0.413862 0.084664
O O17 0.000000 0.500000 0.500000
#
# Coordination Sequence:
#
# PCOD8010607 Si02
#       8
#     2   2   2   2   2   2   2   2
#     4   9  19  38  61  83 115 156 195 237 295 350
#     4   9  21  40  61  85 116 161 202 238 295 357
#     4  10  22  40  61  87 121 160 195 237 301 363
#     4  11  22  36  59  92 120 151 198 248 296 346
#     4  10  21  41  61  83 121 163 197 237 301 362
#     4  10  22  38  61  88 117 156 202 249 290 344
#     4  11  23  38  61  92 120 152 199 251 295 347
#     4  10  21  38  62  86 118 158 198 244 297 355
#
# _framework density 22.105468999999999
#
# number of rings (size 3 to 8) (size 9 to 14) (size 15 to 20)
#    0.000    2.000    0.000    3.375    0.000    9.000 
#    0.000    1.250    0.000    0.000    0.000    0.000 
#    0.000    0.000    0.000    0.000    0.000    0.000 
#
# Total GULP energy -198292.627501 kJ/mol
# GULP energy per Si atom -12393.289219 kJ/mol
# Density = 2.205516 g / cm^3
# Si number density = 22.105469 Si / 1000 Ang^3
#
#
#
# Elastic Constant Matrix: (Units=GPa)
#
#
# Indices 1 2 3 4 5 6 
#
# 1 137.3778 24.2147 27.7944 11.6660 -1.6483 9.0558
# 2 24.2147 67.2391 28.4692 10.7028 -0.7764 8.1431
# 3 27.7944 28.4692 93.5893 4.5608 -14.9292 -4.2926
# 4 11.6660 10.7028 4.5608 35.0082 -0.3921 -4.3847
# 5 -1.6483 -0.7764 -14.9292 -0.3921 23.6654 6.0139
# 6 9.0558 8.1431 -4.2926 -4.3847 6.0139 26.8794
#
#
#
# Elastic Compliance Matrix: (Units=1/GPa)
#
#
# Indices 1 2 3 4 5 6 
#
# 1 0.008360 -0.001343 -0.002102 -0.002496 -0.000030 -0.003146
# 2 -0.001343 0.019556 -0.005825 -0.005666 -0.001441 -0.007004
# 3 -0.002102 -0.005825 0.014448 0.001085 0.007990 0.003169
# 4 -0.002496 -0.005666 0.001085 0.032004 -0.001236 0.008228
# 5 -0.000030 -0.001441 0.007990 -0.001236 0.049663 -0.009591
# 6 -0.003146 -0.007004 0.003169 0.008228 -0.009591 0.044379
#
#
# Mechanical properties :
#
#
# Convention : Reuss Voigt Hill
#
# Bulk Modulus (GPa) = 41.97296 51.01808 46.49552
# Shear Modulus (GPa) = 25.65547 31.62579 28.64063
#
# Velocity S-wave (km/s) = 3.41044 3.78653 3.60340
# Velocity P-wave (km/s) = 5.87682 6.49974 6.19611
#
# Compressibility (1/GPa) = 0.02382486
#
# Stress axis : x y z
#
# Youngs Moduli (GPa) = 119.61603 51.13630 69.21392
#
# Poissons Ratio (x) = 0.06867 0.14546
# Poissons Ratio (y) = 0.16064 0.40316
# Poissons Ratio (z) = 0.25139 0.29786
#
# Static dielectric constant tensor:
#      x y z
#    x 4.126520 0.232590 0.039220 
#    y 0.232590 3.838950 0.121000 
#    z 0.039220 0.121000 4.705880 
# 
# 
# High freq. dielectric constant tensor:
#      x y z
#    x 1.875370 0.021860 -0.007840 
#    y 0.021860 1.852680 -0.001130 
#    z -0.007840 -0.001130 1.879510 
# 
# From -- ./inp_files/495308.got.cif
#   From: 2010.06.25/outbox.cif.g09.slc.cpg/sg2_248_cif.got.tgz:495308.got - 2010.06.27 13:26:56.
