data_PCOD8010609
_publ_section_title
;
Structure prediction by ZEFSAII (Michael W. Deem and Ramdas Pophale) SiO2 
 PCOD8010609
Probable space group: P -1
;
_chemical_formula_sum "Si O2"
_cell_formula_units_Z 14
_cell_length_a 28.571965
_cell_length_b 11.594819
_cell_length_c 12.370814
_cell_angle_alpha 31.258386
_cell_angle_beta 160.103086
_cell_angle_gamma 148.343709
_cell_volume 697.179337
_symmetry_space_group_name_H-M "P -1"
_symmetry_group_IT_number 2
_symmetry_cell_setting 'triclinic'
loop_
_space_group_symop_operation_xyz
x,y,z
-x,-y,-z
loop_
_atom_site_type_symbol
_atom_site_label
_atom_site_fract_x
_atom_site_fract_y
_atom_site_fract_z
Si Si1 0.288342 0.467866 0.215119
Si Si2 0.809667 0.474290 0.274487
Si Si3 0.393668 0.242942 0.326189
Si Si4 0.108222 0.547698 0.960635
Si Si5 0.654726 0.976377 0.378170
Si Si6 0.961974 0.731348 0.768030
Si Si7 0.200903 0.005887 0.929235
O O1 0.437229 0.662468 0.370452
O O2 0.319318 0.220338 0.486773
O O3 0.188891 0.473517 0.891561
O O4 0.210505 0.510446 0.119018
O O5 0.779830 0.202046 0.443437
O O6 0.964544 0.595837 0.562984
O O7 0.685957 0.553369 0.006261
O O8 0.332801 0.076798 0.426584
O O9 0.356557 0.104074 0.243391
O O10 0.191974 0.775990 0.025275
O O11 0.072944 0.313145 0.145049
O O12 0.500000 0.000000 0.000000
O O13 0.827042 0.785325 0.370990
O O14 0.093242 0.949117 0.845036
O O15 0.000000 0.500000 0.000000
#
# Coordination Sequence:
#
# PCOD8010609 Si02
#       7
#     2   2   2   2   2   2   2
#     4  11  24  39  58  92 125 152 196 248 300 355
#     4  11  21  39  64  87 116 158 200 247 293 348
#     4  11  21  38  64  89 116 156 205 240 287 361
#     4  11  24  39  59  92 126 153 194 246 301 355
#     4  11  20  40  64  87 112 158 205 243 291 344
#     4   9  18  37  57  84 115 155 202 235 279 348
#     4  10  21  38  62  86 119 160 197 243 293 347
#
# _framework density 20.080916999999999
#
# number of rings (size 3 to 8) (size 9 to 14) (size 15 to 20)
#    0.000    1.429    2.857    4.714    0.000    4.571 
#    0.000    0.714    0.000    0.000    0.000    0.000 
#    0.000    0.000    0.000    0.000    0.000    0.000 
#
# Total GULP energy -173566.356725 kJ/mol
# GULP energy per Si atom -12397.596909 kJ/mol
# Density = 2.003521 g / cm^3
# Si number density = 20.080917 Si / 1000 Ang^3
#
#
#
# Elastic Constant Matrix: (Units=GPa)
#
#
# Indices 1 2 3 4 5 6 
#
# 1 135.1632 37.7657 46.1366 -3.0832 -1.3086 -2.9496
# 2 37.7657 74.0607 26.4713 -12.1533 -5.9179 -14.0199
# 3 46.1366 26.4713 88.1143 -7.6695 -11.2340 -7.8558
# 4 -3.0832 -12.1533 -7.6695 31.9465 -0.4641 -11.3696
# 5 -1.3086 -5.9179 -11.2340 -0.4641 29.1266 6.5997
# 6 -2.9496 -14.0199 -7.8558 -11.3696 6.5997 28.4766
#
#
#
# Elastic Compliance Matrix: (Units=1/GPa)
#
#
# Indices 1 2 3 4 5 6 
#
# 1 0.010186 -0.004865 -0.004678 -0.003287 -0.001577 -0.003577
# 2 -0.004865 0.021308 -0.001420 0.012445 0.000487 0.014451
# 3 -0.004678 -0.001420 0.015508 0.004093 0.004724 0.003633
# 4 -0.003287 0.012445 0.004093 0.045735 -0.001073 0.025425
# 5 -0.001577 0.000487 0.004724 -0.001073 0.037943 -0.007842
# 6 -0.003577 0.014451 0.003633 0.025425 -0.007842 0.054832
#
#
# Mechanical properties :
#
#
# Convention : Reuss Voigt Hill
#
# Bulk Modulus (GPa) = 39.88046 57.56505 48.72275
# Shear Modulus (GPa) = 23.17007 30.37424 26.77215
#
# Velocity S-wave (km/s) = 3.40050 3.89343 3.65528
# Velocity P-wave (km/s) = 5.94314 6.99575 6.49081
#
# Compressibility (1/GPa) = 0.02507494
#
# Stress axis : x y z
#
# Youngs Moduli (GPa) = 98.17178 46.93179 64.48470
#
# Poissons Ratio (x) = 0.22831 0.30167
# Poissons Ratio (y) = 0.47758 0.09159
# Poissons Ratio (z) = 0.45926 0.06666
#
# Static dielectric constant tensor:
#      x y z
#    x 3.689130 0.111060 -0.321350 
#    y 0.111060 3.805660 -0.177290 
#    z -0.321350 -0.177290 3.773330 
# 
# 
# High freq. dielectric constant tensor:
#      x y z
#    x 1.770250 -0.005200 -0.021400 
#    y -0.005200 1.785690 -0.007540 
#    z -0.021400 -0.007540 1.783840 
# 
# From -- ./inp_files/64513.got.cif
#   From: 2010.06.25/outbox.cif.g09.slc.cpg/sg2_33_cif.got.tgz:64513.got - 2010.06.27 13:26:56.
