data_PCOD8010095
_publ_section_title
;
Structure prediction by ZEFSAII (Michael W. Deem and Ramdas Pophale) SiO2 
 PCOD8010095
Probable space group: P -1
;
_chemical_formula_sum "Si O2"
_cell_formula_units_Z 14
_cell_length_a 8.983143
_cell_length_b 14.992070
_cell_length_c 7.789417
_cell_angle_alpha 124.329851
_cell_angle_beta 108.096534
_cell_angle_gamma 110.945238
_cell_volume 604.853916
_symmetry_space_group_name_H-M "P -1"
_symmetry_group_IT_number 2
_symmetry_cell_setting 'triclinic'
loop_
_space_group_symop_operation_xyz
x,y,z
-x,-y,-z
loop_
_atom_site_type_symbol
_atom_site_label
_atom_site_fract_x
_atom_site_fract_y
_atom_site_fract_z
Si Si1 0.188993 0.192427 0.386173
Si Si2 0.775947 0.602895 0.144723
Si Si3 0.648700 0.321729 0.671430
Si Si4 0.008195 0.909560 0.147157
Si Si5 0.127346 0.763600 0.187873
Si Si6 0.437078 0.383024 0.209415
Si Si7 0.847888 0.477024 0.564237
O O1 0.227699 0.334605 0.609464
O O2 0.405396 0.235213 0.442609
O O3 0.013619 0.117803 0.094295
O O4 0.097051 0.073858 0.380820
O O5 0.007269 0.731474 0.287075
O O6 0.737437 0.455921 0.979034
O O7 0.585242 0.566991 0.925671
O O8 0.674178 0.222293 0.681937
O O9 0.787409 0.377898 0.605449
O O10 0.778861 0.784712 0.015851
O O11 0.185714 0.907475 0.282284
O O12 0.955014 0.634702 0.850902
O O13 0.500000 0.500000 0.500000
O O14 0.634253 0.394173 0.287270
O O15 0.000000 0.500000 0.500000
#
# Coordination Sequence:
#
# PCOD8010095 Si02
#       7
#     2   2   2   2   2   2   2
#     4  11  23  39  69  92 125 168 213 257 311 375
#     4  10  21  37  65  94 121 161 214 263 310 364
#     4  11  22  41  60  98 130 160 205 266 310 375
#     4  10  22  42  65  90 128 168 212 254 314 373
#     4  10  23  39  61  92 132 162 206 259 316 367
#     4  11  18  39  64  91 123 162 210 267 303 365
#     4  11  22  36  62  93 127 164 205 260 318 368
#
# _framework density 23.146086
#
# number of rings (size 3 to 8) (size 9 to 14) (size 15 to 20)
#    0.000    1.429    5.714    2.143    2.000    5.143 
#    0.000    0.000    3.143    2.571    0.000    0.000 
#    0.000    0.000    0.000    0.000    0.000    0.000 
#
# Total GULP energy -173451.216264 kJ/mol
# GULP energy per Si atom -12389.372590 kJ/mol
# Density = 2.309340 g / cm^3
# Si number density = 23.146086 Si / 1000 Ang^3
#
#
#
# Elastic Constant Matrix: (Units=GPa)
#
#
# Indices 1 2 3 4 5 6 
#
# 1 121.0898 39.9008 19.9774 -0.9324 -2.2527 -9.5757
# 2 39.9008 83.6418 5.6791 8.9061 2.3295 -25.2568
# 3 19.9774 5.6791 41.6669 -1.8083 -7.0423 0.3994
# 4 -0.9324 8.9061 -1.8083 32.3464 1.2417 11.4566
# 5 -2.2527 2.3295 -7.0423 1.2417 21.2442 -2.7092
# 6 -9.5757 -25.2568 0.3994 11.4566 -2.7092 40.8953
#
#
#
# Elastic Compliance Matrix: (Units=1/GPa)
#
#
# Indices 1 2 3 4 5 6 
#
# 1 0.010659 -0.005437 -0.004264 0.002060 0.000014 -0.001396
# 2 -0.005437 0.019991 -0.000821 -0.010649 -0.000630 0.014023
# 3 -0.004264 -0.000821 0.027691 0.001949 0.008479 -0.001760
# 4 0.002060 -0.010649 0.001949 0.040343 -0.002568 -0.017586
# 5 0.000014 -0.000630 0.008479 -0.002568 0.050562 0.003601
# 6 -0.001396 0.014023 -0.001760 -0.017586 0.003601 0.037969
#
#
# Mechanical properties :
#
#
# Convention : Reuss Voigt Hill
#
# Bulk Modulus (GPa) = 26.81210 41.94589 34.37900
# Shear Modulus (GPa) = 22.65608 30.95325 26.80467
#
# Velocity S-wave (km/s) = 3.13202 3.66088 3.40673
# Velocity P-wave (km/s) = 4.96874 6.00258 5.50996
#
# Compressibility (1/GPa) = 0.03729659
#
# Stress axis : x y z
#
# Youngs Moduli (GPa) = 93.81726 50.02262 36.11305
#
# Poissons Ratio (x) = 0.27195 0.15400
# Poissons Ratio (y) = 0.51005 0.02965
# Poissons Ratio (z) = 0.40007 0.04108
#
# Static dielectric constant tensor:
#      x y z
#    x 4.369370 -0.158070 0.345200 
#    y -0.158070 4.496830 0.007260 
#    z 0.345200 0.007260 4.368030 
# 
# 
# High freq. dielectric constant tensor:
#      x y z
#    x 1.906350 -0.006520 0.009940 
#    y -0.006520 1.922110 -0.009120 
#    z 0.009940 -0.009120 1.886420 
# 
# From -- ./inp_files/204460.got.cif
#   From: 2010.06.25/outbox.cif.g09.slc.cpg/sg2_103_cif.got.tgz:204460.got - 2010.06.27 13:26:56.
