data_PCOD8010277
_publ_section_title
;
Structure prediction by ZEFSAII (Michael W. Deem and Ramdas Pophale) SiO2 
 PCOD8010277
Probable space group: P -1
;
_chemical_formula_sum "Si O2"
_cell_formula_units_Z 16
_cell_length_a 14.005429
_cell_length_b 28.702762
_cell_length_c 7.367616
_cell_angle_alpha 133.492106
_cell_angle_beta 56.885050
_cell_angle_gamma 158.739321
_cell_volume 726.442418
_symmetry_space_group_name_H-M "P -1"
_symmetry_group_IT_number 2
_symmetry_cell_setting 'triclinic'
loop_
_space_group_symop_operation_xyz
x,y,z
-x,-y,-z
loop_
_atom_site_type_symbol
_atom_site_label
_atom_site_fract_x
_atom_site_fract_y
_atom_site_fract_z
Si Si1 0.905664 0.717953 0.799634
Si Si2 0.773816 0.243024 0.401320
Si Si3 0.648024 0.390057 0.207648
Si Si4 0.579651 0.863105 0.252314
Si Si5 0.657411 0.645855 0.525339
Si Si6 0.158363 0.208660 0.657422
Si Si7 0.298891 0.733723 0.825025
Si Si8 0.677138 0.394464 0.612146
O O1 0.884710 0.728279 0.638445
O O2 0.620173 0.540760 0.701030
O O3 0.157114 0.796273 0.755072
O O4 0.972026 0.812965 0.111366
O O5 0.528981 0.134875 0.504850
O O6 0.670168 0.196371 0.174180
O O7 0.036798 0.424839 0.671205
O O8 0.423211 0.328799 0.221550
O O9 0.617300 0.367372 0.391137
O O10 0.565104 0.278364 0.909892
O O11 0.526132 0.854286 0.073111
O O12 0.917504 0.032679 0.381694
O O13 0.770384 0.712675 0.383743
O O14 0.431560 0.311596 0.734615
O O15 0.333011 0.685864 0.541909
O O16 0.990846 0.581565 0.834687
#
# Coordination Sequence:
#
# PCOD8010277 Si02
#       8
#     2   2   2   2   2   2   2   2
#     4  10  22  39  60  85 113 157 207 235 273 342
#     4  10  21  38  58  82 116 156 201 242 272 336
#     4   8  17  36  60  86 114 148 195 243 287 342
#     4  11  23  36  59  91 119 152 187 235 305 352
#     4   9  20  39  62  84 112 153 197 243 285 335
#     4  11  23  38  59  90 123 149 185 244 298 341
#     4   9  19  37  59  83 113 151 191 233 286 343
#     4   8  17  35  59  85 113 148 191 237 285 343
#
# _framework density 22.025148000000002
#
# number of rings (size 3 to 8) (size 9 to 14) (size 15 to 20)
#    0.000    2.500    0.000    2.250    0.000   11.000 
#    0.000    2.500    0.000    0.000    0.000    0.000 
#    0.000    0.000    0.000    0.000    0.000    0.000 
#
# Total GULP energy -198329.892904 kJ/mol
# GULP energy per Si atom -12395.618306 kJ/mol
# Density = 2.197502 g / cm^3
# Si number density = 22.025148 Si / 1000 Ang^3
#
#
#
# Elastic Constant Matrix: (Units=GPa)
#
#
# Indices 1 2 3 4 5 6 
#
# 1 94.8094 0.5671 14.6506 -4.9553 -15.1736 16.1412
# 2 0.5671 23.5394 10.0325 -6.6421 -3.0819 2.9424
# 3 14.6506 10.0325 69.9138 -3.9710 -2.8713 13.8944
# 4 -4.9553 -6.6421 -3.9710 27.3255 4.1725 -1.2338
# 5 -15.1736 -3.0819 -2.8713 4.1725 22.7316 -8.2907
# 6 16.1412 2.9424 13.8944 -1.2338 -8.2907 13.5044
#
#
#
# Elastic Compliance Matrix: (Units=1/GPa)
#
#
# Indices 1 2 3 4 5 6 
#
# 1 0.013698 0.002543 -0.000153 0.001835 0.003965 -0.014168
# 2 0.002543 0.049040 -0.005990 0.010694 0.004156 -0.004033
# 3 -0.000153 -0.005990 0.019509 0.001394 -0.007006 -0.022759
# 4 0.001835 0.010694 0.001394 0.040499 -0.006966 -0.006534
# 5 0.003965 0.004156 -0.007006 -0.006966 0.061763 0.038845
# 6 -0.014168 -0.004033 -0.022759 -0.006534 0.038845 0.138531
#
#
# Mechanical properties :
#
#
# Convention : Reuss Voigt Hill
#
# Bulk Modulus (GPa) = 13.32495 26.52922 19.92709
# Shear Modulus (GPa) = 14.07432 23.57979 18.82706
#
# Velocity S-wave (km/s) = 2.53061 3.27553 2.92687
# Velocity P-wave (km/s) = 3.82121 5.13581 4.52649
#
# Compressibility (1/GPa) = 0.07504720
#
# Stress axis : x y z
#
# Youngs Moduli (GPa) = 73.00074 20.39167 51.25734
#
# Poissons Ratio (x) = -0.05186 0.00782
# Poissons Ratio (y) = -0.18564 0.30706
# Poissons Ratio (z) = 0.01114 0.12216
#
# Static dielectric constant tensor:
#      x y z
#    x 4.472540 0.291700 -0.275910 
#    y 0.291700 3.692000 0.010370 
#    z -0.275910 0.010370 3.738620 
# 
# 
# High freq. dielectric constant tensor:
#      x y z
#    x 1.877390 0.007880 -0.002430 
#    y 0.007880 1.846010 -0.003930 
#    z -0.002430 -0.003930 1.843790 
# 
# From -- ./inp_files/321076.got.cif
#   From: 2010.06.25/outbox.cif.g09.slc.cpg/sg2_161_cif.got.tgz:321076.got - 2010.06.27 13:26:56.
