data_PCOD8010970
_publ_section_title
;
Structure prediction by ZEFSAII (Michael W. Deem and Ramdas Pophale) SiO2 
 PCOD8010970
Probable space group: P -1
;
_chemical_formula_sum "Si O2"
_cell_formula_units_Z 16
_cell_length_a 10.611706
_cell_length_b 11.054221
_cell_length_c 13.056999
_cell_angle_alpha 103.514643
_cell_angle_beta 46.824090
_cell_angle_gamma 68.137313
_cell_volume 717.491679
_symmetry_space_group_name_H-M "P -1"
_symmetry_group_IT_number 2
_symmetry_cell_setting 'triclinic'
loop_
_space_group_symop_operation_xyz
x,y,z
-x,-y,-z
loop_
_atom_site_type_symbol
_atom_site_label
_atom_site_fract_x
_atom_site_fract_y
_atom_site_fract_z
Si Si1 0.405884 0.534789 0.742433
Si Si2 0.994790 0.188194 0.283877
Si Si3 0.394048 0.327513 0.857558
Si Si4 0.540638 0.841953 0.569773
Si Si5 0.164132 0.922584 0.291851
Si Si6 0.758397 0.978997 0.433665
Si Si7 0.762879 0.102549 0.079901
Si Si8 0.070896 0.576191 0.782493
O O1 0.682107 0.345181 0.500862
O O2 0.347663 0.489807 0.870135
O O3 0.402820 0.681320 0.803500
O O4 0.177370 0.629557 0.806063
O O5 0.064139 0.284645 0.214371
O O6 0.126165 0.084446 0.300298
O O7 0.124482 0.008702 0.109986
O O8 0.537087 0.260243 0.875707
O O9 0.545941 0.169198 0.654930
O O10 0.121738 0.406264 0.043158
O O11 0.749373 0.841146 0.448890
O O12 0.417309 0.903649 0.764247
O O13 0.684020 0.634671 0.432349
O O14 0.312120 0.979210 0.639071
O O15 0.047980 0.880541 0.270230
O O16 0.000000 0.000000 0.500000
O O17 0.000000 0.000000 0.000000
#
# Coordination Sequence:
#
# PCOD8010970 Si02
#       8
#     2   2   2   2   2   2   2   2
#     4  12  23  42  67  99 138 171 220 275 332 395
#     4  12  23  43  70  96 133 181 218 273 335 393
#     4  11  24  42  67  95 132 183 223 269 326 396
#     4  11  23  38  62 102 139 163 214 283 339 388
#     4  10  21  44  71  89 127 187 226 260 327 395
#     4  10  21  38  65  92 131 175 218 270 333 391
#     4  12  24  37  65 102 134 173 214 270 339 396
#     4  12  23  39  64  98 138 170 215 280 339 383
#
# _framework density 22.299911000000002
#
# number of rings (size 3 to 8) (size 9 to 14) (size 15 to 20)
#    0.000    0.750    6.250    3.000    0.000    2.500 
#    0.000    2.500    0.000    4.500    0.000    0.000 
#    0.000    0.000    0.000    0.000    0.000    0.000 
#
# Total GULP energy -198334.696393 kJ/mol
# GULP energy per Si atom -12395.918525 kJ/mol
# Density = 2.224916 g / cm^3
# Si number density = 22.299911 Si / 1000 Ang^3
#
#
#
# Elastic Constant Matrix: (Units=GPa)
#
#
# Indices 1 2 3 4 5 6 
#
# 1 53.9259 23.4819 11.8933 0.7069 -2.7760 -0.3081
# 2 23.4819 180.4459 33.7929 -19.7885 5.8904 4.1474
# 3 11.8933 33.7929 90.7258 -11.0960 -1.0146 4.8665
# 4 0.7069 -19.7885 -11.0960 33.9829 6.3050 -0.2504
# 5 -2.7760 5.8904 -1.0146 6.3050 20.6516 0.1481
# 6 -0.3081 4.1474 4.8665 -0.2504 0.1481 33.5030
#
#
#
# Elastic Compliance Matrix: (Units=1/GPa)
#
#
# Indices 1 2 3 4 5 6 
#
# 1 0.020525 -0.002847 -0.002062 -0.003599 0.004563 0.000794
# 2 -0.002847 0.006814 -0.001666 0.004160 -0.003674 -0.000580
# 3 -0.002062 -0.001666 0.012379 0.003129 -0.000138 -0.001587
# 4 -0.003599 0.004160 0.003129 0.035216 -0.012263 -0.000685
# 5 0.004563 -0.003674 -0.000138 -0.012263 0.053819 0.000187
# 6 0.000794 -0.000580 -0.001587 -0.000685 0.000187 0.030152
#
#
# Mechanical properties :
#
#
# Convention : Reuss Voigt Hill
#
# Bulk Modulus (GPa) = 37.63803 51.49266 44.56534
# Shear Modulus (GPa) = 27.63803 34.68947 31.16375
#
# Velocity S-wave (km/s) = 3.52430 3.94837 3.74235
# Velocity P-wave (km/s) = 5.78582 6.62777 6.22105
#
# Compressibility (1/GPa) = 0.02656887
#
# Stress axis : x y z
#
# Youngs Moduli (GPa) = 48.72138 146.76193 80.78019
#
# Poissons Ratio (x) = 0.41777 0.16657
# Poissons Ratio (y) = 0.13869 0.13457
# Poissons Ratio (z) = 0.10046 0.24449
#
# Static dielectric constant tensor:
#      x y z
#    x 4.333090 -0.018630 -0.364740 
#    y -0.018630 4.554200 -0.111560 
#    z -0.364740 -0.111560 3.803180 
# 
# 
# High freq. dielectric constant tensor:
#      x y z
#    x 1.836020 0.005990 -0.002380 
#    y 0.005990 1.905810 -0.016600 
#    z -0.002380 -0.016600 1.875300 
# 
# From -- ./inp_files/402456.got.cif
#   From: 2010.06.25/outbox.cif.g09.slc.cpg/sg2_202_cif.got.tgz:402456.got - 2010.06.27 13:26:56.
