data_PCOD8010293
_publ_section_title
;
Structure prediction by ZEFSAII (Michael W. Deem and Ramdas Pophale) SiO2 
 PCOD8010293
Probable space group: P -1
;
_chemical_formula_sum "Si O2"
_cell_formula_units_Z 16
_cell_length_a 6.148420
_cell_length_b 9.108100
_cell_length_c 17.241647
_cell_angle_alpha 91.317307
_cell_angle_beta 54.204497
_cell_angle_gamma 100.480439
_cell_volume 765.871117
_symmetry_space_group_name_H-M "P -1"
_symmetry_group_IT_number 2
_symmetry_cell_setting 'triclinic'
loop_
_space_group_symop_operation_xyz
x,y,z
-x,-y,-z
loop_
_atom_site_type_symbol
_atom_site_label
_atom_site_fract_x
_atom_site_fract_y
_atom_site_fract_z
Si Si1 0.323186 0.422066 0.925296
Si Si2 0.110534 0.417453 0.406902
Si Si3 0.790846 0.240191 0.846965
Si Si4 0.718581 0.927039 0.775482
Si Si5 0.819098 0.259628 0.323175
Si Si6 0.749879 0.889661 0.590664
Si Si7 0.263188 0.728153 0.968461
Si Si8 0.292031 0.490348 0.759084
O O1 0.563034 0.331913 0.869563
O O2 0.383599 0.577716 0.964251
O O3 0.261939 0.495130 0.857128
O O4 0.040096 0.311206 0.007227
O O5 0.152360 0.264045 0.431192
O O6 0.397351 0.522766 0.323431
O O7 0.000000 0.500000 0.500000
O O8 0.901288 0.378336 0.377766
O O9 0.085126 0.344649 0.767882
O O10 0.785675 0.093916 0.795936
O O11 0.750341 0.190873 0.944791
O O12 0.685535 0.942905 0.690586
O O13 0.442103 0.838827 0.871753
O O14 0.951086 0.834170 0.744589
O O15 0.535522 0.138809 0.398941
O O16 0.774173 0.355541 0.258248
O O17 0.000000 0.000000 0.500000
#
# Coordination Sequence:
#
# PCOD8010293 Si02
#       8
#     2   2   2   2   2   2   2   2
#     4  10  21  38  61  88 120 159 206 251 293 354
#     4  10  22  38  62  91 118 152 200 254 301 355
#     4  11  23  36  60  91 124 162 199 248 302 355
#     4  11  24  40  60  89 124 162 201 247 301 361
#     4  10  22  42  64  85 119 161 199 244 302 358
#     4  10  24  41  61  89 120 159 200 244 302 362
#     4  10  21  38  58  87 121 161 207 245 298 359
#     4  10  21  39  61  89 119 158 204 246 299 356
#
# _framework density 20.891241999999998
#
# number of rings (size 3 to 8) (size 9 to 14) (size 15 to 20)
#    0.000    1.750    0.000    4.500    0.000   13.500 
#    0.000    0.000    0.000    0.000    0.000    0.000 
#    0.000    0.000    0.000    0.000    0.000    0.000 
#
# Total GULP energy -198340.135896 kJ/mol
# GULP energy per Si atom -12396.258494 kJ/mol
# Density = 2.084369 g / cm^3
# Si number density = 20.891242 Si / 1000 Ang^3
#
#
#
# Elastic Constant Matrix: (Units=GPa)
#
#
# Indices 1 2 3 4 5 6 
#
# 1 92.0678 32.7974 56.6135 -8.7578 -11.8298 25.7737
# 2 32.7974 110.5211 63.9035 7.2773 -1.3026 34.9049
# 3 56.6135 63.9035 140.2183 -14.1710 -16.1256 28.0618
# 4 -8.7578 7.2773 -14.1710 48.0099 14.9193 -3.2154
# 5 -11.8298 -1.3026 -16.1256 14.9193 24.3215 -10.6390
# 6 25.7737 34.9049 28.0618 -3.2154 -10.6390 25.3027
#
#
#
# Elastic Compliance Matrix: (Units=1/GPa)
#
#
# Indices 1 2 3 4 5 6 
#
# 1 0.017659 0.003483 -0.005382 0.000906 -0.003256 -0.018077
# 2 0.003483 0.022663 -0.006960 -0.002473 -0.014923 -0.033681
# 3 -0.005382 -0.006960 0.012602 0.002307 0.005591 0.003752
# 4 0.000906 -0.002473 0.002307 0.026831 -0.016126 -0.003441
# 5 -0.003256 -0.014923 0.005591 -0.016126 0.072517 0.046145
# 6 -0.018077 -0.033681 0.003752 -0.003441 0.046145 0.119202
#
#
# Mechanical properties :
#
#
# Convention : Reuss Voigt Hill
#
# Bulk Modulus (GPa) = 28.40558 72.15958 50.28258
# Shear Modulus (GPa) = 16.61525 32.15965 24.38745
#
# Velocity S-wave (km/s) = 2.82320 3.92776 3.42036
# Velocity P-wave (km/s) = 4.92481 7.42868 6.30234
#
# Compressibility (1/GPa) = 0.03520435
#
# Stress axis : x y z
#
# Youngs Moduli (GPa) = 56.62928 44.12472 79.35119
#
# Poissons Ratio (x) = -0.15367 0.42708
# Poissons Ratio (y) = -0.19722 0.55230
# Poissons Ratio (z) = 0.30479 0.30712
#
# Static dielectric constant tensor:
#      x y z
#    x 3.779820 -0.127290 -0.056390 
#    y -0.127290 3.007550 0.110180 
#    z -0.056390 0.110180 3.817710 
# 
# 
# High freq. dielectric constant tensor:
#      x y z
#    x 1.822370 0.014940 -0.008200 
#    y 0.014940 1.813040 -0.004580 
#    z -0.008200 -0.004580 1.824150 
# 
# From -- ./inp_files/39184.got.cif
#   From: 2010.06.25/outbox.cif.g09.slc.cpg/sg2_20_cif.got.tgz:39184.got - 2010.06.27 13:26:56.
