data_PCOD8010753
_publ_section_title
;
Structure prediction by ZEFSAII (Michael W. Deem and Ramdas Pophale) SiO2 
 PCOD8010753
Probable space group: P -1
;
_chemical_formula_sum "Si O2"
_cell_formula_units_Z 14
_cell_length_a 7.924817
_cell_length_b 14.473892
_cell_length_c 14.664207
_cell_angle_alpha 34.340994
_cell_angle_beta 76.799267
_cell_angle_gamma 53.218455
_cell_volume 614.256761
_symmetry_space_group_name_H-M "P -1"
_symmetry_group_IT_number 2
_symmetry_cell_setting 'triclinic'
loop_
_space_group_symop_operation_xyz
x,y,z
-x,-y,-z
loop_
_atom_site_type_symbol
_atom_site_label
_atom_site_fract_x
_atom_site_fract_y
_atom_site_fract_z
Si Si1 0.237174 0.054346 0.586757
Si Si2 0.756579 0.384389 0.487446
Si Si3 0.297457 0.834850 0.070988
Si Si4 0.988907 0.909980 0.777657
Si Si5 0.728395 0.444827 0.807675
Si Si6 0.978537 0.337898 0.674353
Si Si7 0.677541 0.988063 0.590982
O O1 0.509897 0.944498 0.673393
O O2 0.005871 0.295818 0.480237
O O3 0.230432 0.860224 0.759450
O O4 0.178779 0.142255 0.416912
O O5 0.501067 0.668679 0.262640
O O6 0.781552 0.374740 0.602207
O O7 0.752653 0.195198 0.610494
O O8 0.386870 0.653475 0.124721
O O9 0.000000 0.000000 0.000000
O O10 0.266565 0.046958 0.872212
O O11 0.074235 0.719986 0.998458
O O12 0.891002 0.871008 0.737003
O O13 0.873032 0.419180 0.723422
O O14 0.502927 0.725933 0.636528
O O15 0.000000 0.500000 0.500000
#
# Coordination Sequence:
#
# PCOD8010753 Si02
#       7
#     2   2   2   2   2   2   2
#     4   9  22  42  68  97 136 173 220 279 331 392
#     4  10  21  42  65  91 135 173 218 274 328 392
#     4  10  21  38  63  91 123 173 223 265 329 396
#     4  10  22  40  66  96 133 176 216 272 334 389
#     4  11  22  38  65  98 127 175 230 263 332 405
#     4  11  24  41  62  94 135 171 221 281 334 393
#     4  11  21  43  69  97 134 177 219 277 333 392
#
# _framework density 22.79177
#
# number of rings (size 3 to 8) (size 9 to 14) (size 15 to 20)
#    0.857    0.857    2.857    1.286    0.000    5.714 
#    0.000   12.857    0.000    0.000    0.000    0.000 
#    0.000    0.000    0.000    0.000    0.000    0.000 
#
# Total GULP energy -173462.605536 kJ/mol
# GULP energy per Si atom -12390.186110 kJ/mol
# Density = 2.273989 g / cm^3
# Si number density = 22.791770 Si / 1000 Ang^3
#
#
#
# Elastic Constant Matrix: (Units=GPa)
#
#
# Indices 1 2 3 4 5 6 
#
# 1 107.9166 31.2484 28.7431 20.6165 -6.9442 -0.4283
# 2 31.2484 76.0965 26.3910 22.4036 -0.6642 -11.3506
# 3 28.7431 26.3910 145.2276 21.0344 3.6508 -6.3986
# 4 20.6165 22.4036 21.0344 35.0475 7.2289 1.6228
# 5 -6.9442 -0.6642 3.6508 7.2289 33.6297 5.9814
# 6 -0.4283 -11.3506 -6.3986 1.6228 5.9814 31.4437
#
#
#
# Elastic Compliance Matrix: (Units=1/GPa)
#
#
# Indices 1 2 3 4 5 6 
#
# 1 0.011666 -0.003176 -0.001205 -0.004817 0.003817 -0.001710
# 2 -0.003176 0.018785 -0.001054 -0.009980 0.000748 0.006896
# 3 -0.001205 -0.001054 0.007873 -0.003270 -0.000689 0.001505
# 4 -0.004817 -0.009980 -0.003270 0.041779 -0.008967 -0.004784
# 5 0.003817 0.000748 -0.000689 -0.008967 0.033562 -0.005740
# 6 -0.001710 0.006896 0.001505 -0.004784 -0.005740 0.035914
#
#
# Mechanical properties :
#
#
# Convention : Reuss Voigt Hill
#
# Bulk Modulus (GPa) = 36.42759 55.77841 46.10300
# Shear Modulus (GPa) = 29.48092 36.21473 32.84782
#
# Velocity S-wave (km/s) = 3.60041 3.99047 3.80045
# Velocity P-wave (km/s) = 5.77074 6.76447 6.28727
#
# Compressibility (1/GPa) = 0.02745172
#
# Stress axis : x y z
#
# Youngs Moduli (GPa) = 85.71768 53.23514 127.01438
#
# Poissons Ratio (x) = 0.16909 0.15310
# Poissons Ratio (y) = 0.27226 0.13392
# Poissons Ratio (z) = 0.10332 0.05613
#
# Static dielectric constant tensor:
#      x y z
#    x 4.021100 0.268100 -0.238080 
#    y 0.268100 4.135660 -0.030200 
#    z -0.238080 -0.030200 4.396940 
# 
# 
# High freq. dielectric constant tensor:
#      x y z
#    x 1.878260 0.014440 -0.007660 
#    y 0.014440 1.899650 0.013970 
#    z -0.007660 0.013970 1.893750 
# 
# From -- ./inp_files/503834.got.cif
#   From: 2010.06.25/outbox.cif.g09.slc.cpg/sg2_252_cif.got.tgz:503834.got - 2010.06.27 13:26:56.
