data_PCOD8010360
_publ_section_title
;
Structure prediction by ZEFSAII (Michael W. Deem and Ramdas Pophale) SiO2 
 PCOD8010360
Probable space group: P -1
;
_chemical_formula_sum "Si O2"
_cell_formula_units_Z 16
_cell_length_a 11.117377
_cell_length_b 14.452261
_cell_length_c 11.242242
_cell_angle_alpha 31.716970
_cell_angle_beta 127.517850
_cell_angle_gamma 115.351702
_cell_volume 735.495406
_symmetry_space_group_name_H-M "P -1"
_symmetry_group_IT_number 2
_symmetry_cell_setting 'triclinic'
loop_
_space_group_symop_operation_xyz
x,y,z
-x,-y,-z
loop_
_atom_site_type_symbol
_atom_site_label
_atom_site_fract_x
_atom_site_fract_y
_atom_site_fract_z
Si Si1 0.305037 0.998397 0.502501
Si Si2 0.304395 0.342098 0.719595
Si Si3 0.773949 0.637175 0.806657
Si Si4 0.153466 0.849644 0.768029
Si Si5 0.434583 0.830266 0.110180
Si Si6 0.569648 0.352212 0.446054
Si Si7 0.099364 0.469957 0.236565
Si Si8 0.339563 0.003662 0.252028
O O1 0.223476 0.183847 0.313649
O O2 0.488829 0.963195 0.664694
O O3 0.244168 0.839265 0.707204
O O4 0.256357 0.001529 0.331410
O O5 0.463265 0.279943 0.811436
O O6 0.337049 0.486386 0.680249
O O7 0.164929 0.430557 0.450856
O O8 0.250586 0.175228 0.934290
O O9 0.606526 0.584497 0.778366
O O10 0.809530 0.674383 0.647337
O O11 0.913474 0.479114 0.115363
O O12 0.261267 0.903708 0.877650
O O13 0.120630 0.658556 0.989462
O O14 0.000000 0.000000 0.500000
O O15 0.435378 0.697703 0.364820
O O16 0.500000 0.000000 0.000000
O O17 0.662808 0.182550 0.612712
#
# Coordination Sequence:
#
# PCOD8010360 Si02
#       8
#     2   2   2   2   2   2   2   2
#     4  10  21  42  61  88 123 170 209 250 309 370
#     4  12  22  38  64  95 126 160 207 264 307 368
#     4  10  21  38  59  88 130 156 199 256 314 375
#     4  12  23  38  64  92 126 159 204 266 315 368
#     4  12  21  35  62  94 126 160 202 262 320 358
#     4  11  21  39  63  95 125 157 215 257 309 368
#     4  11  23  36  60  98 125 158 201 258 330 366
#     4  10  23  41  64  87 127 172 209 254 303 369
#
# _framework density 21.754045000000001
#
# number of rings (size 3 to 8) (size 9 to 14) (size 15 to 20)
#    0.000    1.000    6.250    1.875    0.000    0.000 
#    2.250    2.500    0.000    3.000    0.000    0.000 
#    0.000    0.000    0.000    0.000    0.000    0.000 
#
# Total GULP energy -198374.122703 kJ/mol
# GULP energy per Si atom -12398.382669 kJ/mol
# Density = 2.170453 g / cm^3
# Si number density = 21.754045 Si / 1000 Ang^3
#
#
#
# Elastic Constant Matrix: (Units=GPa)
#
#
# Indices 1 2 3 4 5 6 
#
# 1 58.8142 37.7869 35.8794 1.9207 -5.3202 -12.5902
# 2 37.7869 135.2634 58.5641 0.5996 5.8135 -9.7909
# 3 35.8794 58.5641 110.4682 6.0663 5.3992 -3.4484
# 4 1.9207 0.5996 6.0663 34.6321 1.9503 8.0441
# 5 -5.3202 5.8135 5.3992 1.9503 23.8934 11.6945
# 6 -12.5902 -9.7909 -3.4484 8.0441 11.6945 30.5880
#
#
#
# Elastic Compliance Matrix: (Units=1/GPa)
#
#
# Indices 1 2 3 4 5 6 
#
# 1 0.025326 -0.004194 -0.005879 -0.002244 0.004628 0.007240
# 2 -0.004194 0.010674 -0.004041 0.000363 -0.003943 0.002646
# 3 -0.005879 -0.004041 0.013311 -0.001613 -0.002862 -0.000694
# 4 -0.002244 0.000363 -0.001613 0.031499 0.002146 -0.010094
# 5 0.004628 -0.003943 -0.002862 0.002146 0.054662 -0.021143
# 6 0.007240 0.002646 -0.000694 -0.010094 -0.021143 0.047179
#
#
# Mechanical properties :
#
#
# Convention : Reuss Voigt Hill
#
# Bulk Modulus (GPa) = 47.43439 63.22294 55.32866
# Shear Modulus (GPa) = 22.94560 29.31039 26.12799
#
# Velocity S-wave (km/s) = 3.25125 3.67461 3.46940
# Velocity P-wave (km/s) = 5.99553 6.86509 6.44499
#
# Compressibility (1/GPa) = 0.02108175
#
# Stress axis : x y z
#
# Youngs Moduli (GPa) = 39.48564 93.68824 75.12657
#
# Poissons Ratio (x) = 0.39297 0.44166
# Poissons Ratio (y) = 0.16562 0.30358
# Poissons Ratio (z) = 0.23213 0.37858
#
# Static dielectric constant tensor:
#      x y z
#    x 3.088650 -0.298380 0.895440 
#    y -0.298380 4.131140 0.333840 
#    z 0.895440 0.333840 3.167430 
# 
# 
# High freq. dielectric constant tensor:
#      x y z
#    x 1.819060 -0.004320 0.007800 
#    y -0.004320 1.862860 0.000400 
#    z 0.007800 0.000400 1.856970 
# 
# From -- ./inp_files/423233.got.cif
#   From: 2010.06.25/outbox.cif.g09.slc.cpg/sg2_212_cif.got.tgz:423233.got - 2010.06.27 13:26:56.
