data_PCOD8010309
_publ_section_title
;
Structure prediction by ZEFSAII (Michael W. Deem and Ramdas Pophale) SiO2 
 PCOD8010309
Probable space group: P -1
;
_chemical_formula_sum "Si O2"
_cell_formula_units_Z 14
_cell_length_a 23.754718
_cell_length_b 14.699757
_cell_length_c 6.393384
_cell_angle_alpha 101.765703
_cell_angle_beta 71.597682
_cell_angle_gamma 162.225855
_cell_volume 609.547770
_symmetry_space_group_name_H-M "P -1"
_symmetry_group_IT_number 2
_symmetry_cell_setting 'triclinic'
loop_
_space_group_symop_operation_xyz
x,y,z
-x,-y,-z
loop_
_atom_site_type_symbol
_atom_site_label
_atom_site_fract_x
_atom_site_fract_y
_atom_site_fract_z
Si Si1 0.170634 0.751209 0.745853
Si Si2 0.146457 0.344606 0.262339
Si Si3 0.345794 0.143843 0.399519
Si Si4 0.260438 0.695156 0.558119
Si Si5 0.361110 0.756860 0.860580
Si Si6 0.293894 0.272640 0.447536
Si Si7 0.534283 0.335400 0.876097
O O1 0.130659 0.592184 0.601911
O O2 0.179261 0.846753 0.609094
O O3 0.386943 0.069128 0.754904
O O4 0.000000 0.500000 0.000000
O O5 0.189566 0.496589 0.433020
O O6 0.275600 0.448145 0.219090
O O7 0.197013 0.442657 0.005999
O O8 0.907925 0.970092 0.379657
O O9 0.249596 0.095578 0.400449
O O10 0.552689 0.477651 0.429189
O O11 0.405467 0.161402 0.154819
O O12 0.245024 0.661274 0.814811
O O13 0.490440 0.068001 0.400509
O O14 0.500000 0.000000 0.000000
O O15 0.382070 0.440608 0.202034
#
# Coordination Sequence:
#
# PCOD8010309 Si02
#       7
#     2   2   2   2   2   2   2
#     4  11  25  40  64  96 129 167 217 256 318 386
#     4  11  23  38  67  97 127 164 212 261 320 378
#     4  10  24  46  67  89 131 169 212 268 314 376
#     4  10  21  38  58  92 133 165 203 259 315 376
#     4   9  18  34  57  84 126 164 196 247 312 366
#     4  10  24  44  66  94 126 169 219 258 318 377
#     4  11  23  43  67  94 128 167 212 268 314 376
#
# _framework density 22.967846999999999
#
# number of rings (size 3 to 8) (size 9 to 14) (size 15 to 20)
#    0.000    1.714    0.000    4.286    4.000    4.571 
#    0.000    0.000    0.000    0.000    0.000    0.000 
#    0.000    0.000    0.000    0.000    0.000    0.000 
#
# Total GULP energy -173488.731441 kJ/mol
# GULP energy per Si atom -12392.052246 kJ/mol
# Density = 2.291557 g / cm^3
# Si number density = 22.967847 Si / 1000 Ang^3
#
#
#
# Elastic Constant Matrix: (Units=GPa)
#
#
# Indices 1 2 3 4 5 6 
#
# 1 158.0164 26.8535 61.0135 -8.2498 6.0972 -13.3062
# 2 26.8535 31.9275 23.0269 -11.5753 9.8519 -4.0238
# 3 61.0135 23.0269 124.6803 -15.6632 22.2005 -9.4263
# 4 -8.2498 -11.5753 -15.6632 38.9417 -5.1943 -4.2604
# 5 6.0972 9.8519 22.2005 -5.1943 43.7572 -3.4613
# 6 -13.3062 -4.0238 -9.4263 -4.2604 -3.4613 31.3128
#
#
#
# Elastic Compliance Matrix: (Units=1/GPa)
#
#
# Indices 1 2 3 4 5 6 
#
# 1 0.008653 -0.005304 -0.003516 -0.000687 0.001853 0.002048
# 2 -0.005304 0.043911 -0.002869 0.010301 -0.006213 0.003240
# 3 -0.003516 -0.002869 0.011468 0.002609 -0.004256 0.001474
# 4 -0.000687 0.010301 0.002609 0.030374 0.000534 0.006009
# 5 0.001853 -0.006213 -0.004256 0.000534 0.026351 0.001693
# 6 0.002048 0.003240 0.001474 0.006009 0.001693 0.034671
#
#
# Mechanical properties :
#
#
# Convention : Reuss Voigt Hill
#
# Bulk Modulus (GPa) = 24.59806 59.60131 42.09969
# Shear Modulus (GPa) = 25.99340 36.38439 31.18889
#
# Velocity S-wave (km/s) = 3.36777 3.98445 3.68902
# Velocity P-wave (km/s) = 5.08483 6.86833 6.04274
#
# Compressibility (1/GPa) = 0.04065361
#
# Stress axis : x y z
#
# Youngs Moduli (GPa) = 115.57255 22.77316 87.19978
#
# Poissons Ratio (x) = 0.12079 0.30659
# Poissons Ratio (y) = 0.61303 0.25017
# Poissons Ratio (z) = 0.40634 0.06533
#
# Static dielectric constant tensor:
#      x y z
#    x 4.438740 -0.030850 0.260200 
#    y -0.030850 4.010010 -0.254400 
#    z 0.260200 -0.254400 4.423490 
# 
# 
# High freq. dielectric constant tensor:
#      x y z
#    x 1.913050 0.002610 0.012150 
#    y 0.002610 1.891690 -0.010030 
#    z 0.012150 -0.010030 1.912600 
# 
# From -- ./inp_files/76324.got.cif
#   From: 2010.06.25/outbox.cif.g09.slc.cpg/sg2_39_cif.got.tgz:76324.got - 2010.06.27 13:26:56.
