data_PCOD8010819
_publ_section_title
;
Structure prediction by ZEFSAII (Michael W. Deem and Ramdas Pophale) SiO2 
 PCOD8010819
Probable space group: P -1
;
_chemical_formula_sum "Si O2"
_cell_formula_units_Z 16
_cell_length_a 13.962836
_cell_length_b 14.111814
_cell_length_c 13.944004
_cell_angle_alpha 145.389904
_cell_angle_beta 149.404825
_cell_angle_gamma 45.967753
_cell_volume 793.429535
_symmetry_space_group_name_H-M "P -1"
_symmetry_group_IT_number 2
_symmetry_cell_setting 'triclinic'
loop_
_space_group_symop_operation_xyz
x,y,z
-x,-y,-z
loop_
_atom_site_type_symbol
_atom_site_label
_atom_site_fract_x
_atom_site_fract_y
_atom_site_fract_z
Si Si1 0.587533 0.387346 0.113943
Si Si2 0.921486 0.541935 0.070237
Si Si3 0.088187 0.635028 0.482357
Si Si4 0.827754 0.981901 0.119617
Si Si5 0.183501 0.789285 0.207827
Si Si6 0.252276 0.587918 0.928789
Si Si7 0.799760 0.903184 0.239059
Si Si8 0.449295 0.033863 0.748468
O O1 0.717655 0.418940 0.346394
O O2 0.726826 0.365892 0.125957
O O3 0.452757 0.538705 0.105314
O O4 0.451784 0.223446 0.872761
O O5 0.802855 0.706810 0.101147
O O6 0.086208 0.569869 0.316015
O O7 0.785903 0.385736 0.856440
O O8 0.000000 0.500000 0.000000
O O9 0.907293 0.559727 0.320889
O O10 0.071839 0.834447 0.634364
O O11 0.731020 0.927907 0.091993
O O12 0.979936 0.852263 0.112001
O O13 0.661922 0.976595 0.894540
O O14 0.349490 0.920747 0.487418
O O15 0.192117 0.753522 0.071590
O O16 0.659882 0.986580 0.261826
O O17 0.000000 0.000000 0.500000
#
# Coordination Sequence:
#
# PCOD8010819 Si02
#       8
#     2   2   2   2   2   2   2   2
#     4  10  22  42  64  89 115 161 206 247 297 358
#     4  11  20  35  60  86 119 158 190 243 300 343
#     4  10  21  38  64  86 118 158 205 243 291 361
#     4  11  22  38  61  86 121 163 200 243 290 356
#     4  11  22  38  58  88 125 154 195 248 305 345
#     4  10  22  40  65  89 121 154 199 256 306 347
#     4  12  20  39  64  83 118 167 200 236 295 358
#     4  11  23  39  60  88 121 157 206 241 290 362
#
# _framework density 20.165623
#
# number of rings (size 3 to 8) (size 9 to 14) (size 15 to 20)
#    0.000    1.250    3.750    3.000    0.000    2.500 
#    0.000    3.125    0.000    0.000    0.000    0.000 
#    0.000    0.000    0.000    0.000    0.000    0.000 
#
# Total GULP energy -198424.599040 kJ/mol
# GULP energy per Si atom -12401.537440 kJ/mol
# Density = 2.011972 g / cm^3
# Si number density = 20.165623 Si / 1000 Ang^3
#
#
#
# Elastic Constant Matrix: (Units=GPa)
#
#
# Indices 1 2 3 4 5 6 
#
# 1 100.0510 13.2398 44.2645 6.0203 -2.4327 2.5039
# 2 13.2398 56.9312 29.7983 0.7376 -3.1380 3.0755
# 3 44.2645 29.7983 107.2479 -0.1924 -1.1957 -3.6781
# 4 6.0203 0.7376 -0.1924 20.1909 0.9064 -5.9380
# 5 -2.4327 -3.1380 -1.1957 0.9064 29.5683 -2.1733
# 6 2.5039 3.0755 -3.6781 -5.9380 -2.1733 24.3599
#
#
#
# Elastic Compliance Matrix: (Units=1/GPa)
#
#
# Indices 1 2 3 4 5 6 
#
# 1 0.012767 0.000151 -0.005424 -0.004859 0.000756 -0.003267
# 2 0.000151 0.021019 -0.006021 -0.002107 0.001775 -0.003934
# 3 -0.005424 -0.006021 0.013378 0.003181 -0.000342 0.004082
# 4 -0.004859 -0.002107 0.003181 0.055445 -0.001117 0.014661
# 5 0.000756 0.001775 -0.000342 -0.001117 0.034270 0.002432
# 6 -0.003267 -0.003934 0.004082 0.014661 0.002432 0.046291
#
#
# Mechanical properties :
#
#
# Convention : Reuss Voigt Hill
#
# Bulk Modulus (GPa) = 40.69058 48.75948 44.72503
# Shear Modulus (GPa) = 23.37003 26.61898 24.99451
#
# Velocity S-wave (km/s) = 3.40796 3.63715 3.52442
# Velocity P-wave (km/s) = 5.97558 6.47074 6.22808
#
# Compressibility (1/GPa) = 0.02457571
#
# Stress axis : x y z
#
# Youngs Moduli (GPa) = 78.32746 47.57559 74.75229
#
# Poissons Ratio (x) = -0.00717 0.40542
# Poissons Ratio (y) = -0.01181 0.45010
# Poissons Ratio (z) = 0.42481 0.28646
#
# Static dielectric constant tensor:
#      x y z
#    x 3.831390 0.154630 -0.035050 
#    y 0.154630 3.614910 0.081700 
#    z -0.035050 0.081700 3.697760 
# 
# 
# High freq. dielectric constant tensor:
#      x y z
#    x 1.789550 0.008280 0.000360 
#    y 0.008280 1.780650 0.003830 
#    z 0.000360 0.003830 1.787420 
# 
# From -- ./inp_files/272354.got.cif
#   From: 2010.06.25/outbox.cif.g09.slc.cpg/sg2_137_cif.got.tgz:272354.got - 2010.06.27 13:26:56.
