data_PCOD8010767
_publ_section_title
;
Structure prediction by ZEFSAII (Michael W. Deem and Ramdas Pophale) SiO2 
 PCOD8010767
Probable space group: P -1
;
_chemical_formula_sum "Si O2"
_cell_formula_units_Z 16
_cell_length_a 9.556390
_cell_length_b 9.323806
_cell_length_c 14.881666
_cell_angle_alpha 132.397908
_cell_angle_beta 80.495258
_cell_angle_gamma 121.726511
_cell_volume 794.101366
_symmetry_space_group_name_H-M "P -1"
_symmetry_group_IT_number 2
_symmetry_cell_setting 'triclinic'
loop_
_space_group_symop_operation_xyz
x,y,z
-x,-y,-z
loop_
_atom_site_type_symbol
_atom_site_label
_atom_site_fract_x
_atom_site_fract_y
_atom_site_fract_z
Si Si1 0.770050 0.306566 0.754211
Si Si2 0.594398 0.272792 0.584291
Si Si3 0.554839 0.429815 0.293976
Si Si4 0.133911 0.477761 0.823354
Si Si5 0.670613 0.008206 0.973318
Si Si6 0.432117 0.814982 0.642631
Si Si7 0.741225 0.551453 0.025632
Si Si8 0.361607 0.124439 0.890618
O O1 0.732177 0.394795 0.702447
O O2 0.805564 0.499268 0.906306
O O3 0.947094 0.323406 0.730675
O O4 0.622003 0.039835 0.687654
O O5 0.462641 0.353123 0.628681
O O6 0.673362 0.319960 0.494659
O O7 0.500000 0.000000 0.500000
O O8 0.724315 0.491598 0.248731
O O9 0.374953 0.193985 0.178788
O O10 0.565145 0.374186 0.374068
O O11 0.127006 0.354101 0.865043
O O12 0.175897 0.729246 0.960676
O O13 0.734035 0.966472 0.042915
O O14 0.500000 0.000000 0.000000
O O15 0.332548 0.907805 0.744344
O O16 0.562330 0.311848 0.971992
O O17 0.717857 0.761754 0.106956
#
# Coordination Sequence:
#
# PCOD8010767 Si02
#       8
#     2   2   2   2   2   2   2   2
#     4  10  22  39  55  88 123 150 186 243 290 339
#     4  10  23  40  61  83 112 155 204 243 275 334
#     4  11  20  37  64  87 111 153 198 233 283 353
#     4  11  21  35  59  91 123 148 182 238 302 342
#     4  10  16  32  55  86 114 145 182 228 282 350
#     4  10  20  38  62  79 114 155 205 234 276 337
#     4  10  19  30  56  83 118 145 185 229 292 339
#     4  10  17  31  55  87 106 148 195 231 267 343
#
# _framework density 20.148561999999998
#
# number of rings (size 3 to 8) (size 9 to 14) (size 15 to 20)
#    0.000    1.750    5.000    2.250    5.250    0.000 
#    0.000    6.875    0.000    0.000    0.000    0.000 
#    0.000    0.000    0.000    0.000    0.000    0.000 
#
# Total GULP energy -198251.648713 kJ/mol
# GULP energy per Si atom -12390.728045 kJ/mol
# Density = 2.010270 g / cm^3
# Si number density = 20.148562 Si / 1000 Ang^3
#
#
#
# Elastic Constant Matrix: (Units=GPa)
#
#
# Indices 1 2 3 4 5 6 
#
# 1 88.2727 42.7273 39.0276 -12.2977 7.3008 -20.2475
# 2 42.7273 86.2569 48.2565 -26.7307 7.2725 -28.5675
# 3 39.0276 48.2565 73.2938 -28.5478 -0.4767 -18.5043
# 4 -12.2977 -26.7307 -28.5478 43.6115 -14.3124 6.3475
# 5 7.3008 7.2725 -0.4767 -14.3124 24.3457 0.6306
# 6 -20.2475 -28.5675 -18.5043 6.3475 0.6306 27.4394
#
#
#
# Elastic Compliance Matrix: (Units=1/GPa)
#
#
# Indices 1 2 3 4 5 6 
#
# 1 0.017721 -0.003658 -0.008009 -0.005897 -0.007985 0.005414
# 2 -0.003658 0.026083 -0.008806 0.005276 -0.004216 0.017394
# 3 -0.008009 -0.008806 0.031077 0.017745 0.016037 0.001406
# 4 -0.005897 0.005276 0.017745 0.044552 0.026674 0.002189
# 5 -0.007985 -0.004216 0.016037 0.026674 0.060906 -0.007037
# 6 0.005414 0.017394 0.001406 0.002189 -0.007037 0.059151
#
#
# Mechanical properties :
#
#
# Convention : Reuss Voigt Hill
#
# Bulk Modulus (GPa) = 29.46891 56.42735 42.94813
# Shear Modulus (GPa) = 17.13794 26.93346 22.03570
#
# Velocity S-wave (km/s) = 2.91963 3.66012 3.31064
# Velocity P-wave (km/s) = 5.10130 6.77705 5.99798
#
# Compressibility (1/GPa) = 0.03393406
#
# Stress axis : x y z
#
# Youngs Moduli (GPa) = 56.42945 38.33898 32.17763
#
# Poissons Ratio (x) = 0.14026 0.25772
# Poissons Ratio (y) = 0.20644 0.28336
# Poissons Ratio (z) = 0.45196 0.33762
#
# Static dielectric constant tensor:
#      x y z
#    x 3.429730 -0.295850 0.081050 
#    y -0.295850 3.816450 -0.289660 
#    z 0.081050 -0.289660 4.125910 
# 
# 
# High freq. dielectric constant tensor:
#      x y z
#    x 1.755730 -0.032790 -0.006030 
#    y -0.032790 1.789150 -0.019430 
#    z -0.006030 -0.019430 1.778580 
# 
# From -- ./inp_files/176722.got.cif
#   From: 2010.06.25/outbox.cif.g09.slc.cpg/sg2_89_cif.got.tgz:176722.got - 2010.06.27 13:26:56.
