data_PCOD8010774
_publ_section_title
;
Structure prediction by ZEFSAII (Michael W. Deem and Ramdas Pophale) SiO2 
 PCOD8010774
Probable space group: P -1
;
_chemical_formula_sum "Si O2"
_cell_formula_units_Z 16
_cell_length_a 8.749224
_cell_length_b 11.053651
_cell_length_c 14.478940
_cell_angle_alpha 108.095837
_cell_angle_beta 60.040983
_cell_angle_gamma 61.641043
_cell_volume 742.499088
_symmetry_space_group_name_H-M "P -1"
_symmetry_group_IT_number 2
_symmetry_cell_setting 'triclinic'
loop_
_space_group_symop_operation_xyz
x,y,z
-x,-y,-z
loop_
_atom_site_type_symbol
_atom_site_label
_atom_site_fract_x
_atom_site_fract_y
_atom_site_fract_z
Si Si1 0.757486 0.198701 0.395698
Si Si2 0.018488 0.188370 0.795672
Si Si3 0.820000 0.522836 0.300728
Si Si4 0.997830 0.161899 0.129561
Si Si5 0.870292 0.956719 0.586503
Si Si6 0.257603 0.298655 0.822717
Si Si7 0.068671 0.630306 0.323304
Si Si8 0.319535 0.746050 0.930505
O O1 0.443075 0.404788 0.561334
O O2 0.806567 0.214925 0.280914
O O3 0.968852 0.149935 0.391083
O O4 0.790880 0.027896 0.353468
O O5 0.206593 0.176316 0.798480
O O6 0.896731 0.334856 0.782032
O O7 0.769335 0.267390 0.948637
O O8 0.047384 0.286392 0.157210
O O9 0.715534 0.648260 0.270410
O O10 0.938947 0.561061 0.344343
O O11 0.853789 0.223508 0.089811
O O12 0.275043 0.924320 0.989896
O O13 0.886316 0.819584 0.488775
O O14 0.548198 0.160360 0.754325
O O15 0.000000 0.000000 0.500000
O O16 0.000000 0.500000 0.000000
O O17 0.368390 0.454651 0.234241
#
# Coordination Sequence:
#
# PCOD8010774 Si02
#       8
#     2   2   2   2   2   2   2   2
#     4  11  22  40  65  89 123 167 211 255 306 368
#     4  10  21  38  63  92 128 154 202 258 322 372
#     4  11  22  40  61  90 128 166 203 261 307 374
#     4  10  23  41  61  86 122 173 216 249 306 364
#     4  12  23  40  65  95 126 160 208 259 311 378
#     4  11  24  38  62  98 127 162 198 259 325 369
#     4  11  23  38  64  94 124 159 207 260 322 361
#     4  10  22  41  64  90 123 168 210 258 302 376
#
# _framework density 21.548846999999999
#
# number of rings (size 3 to 8) (size 9 to 14) (size 15 to 20)
#    0.000    1.250    2.500    3.000    1.750    6.500 
#    0.000    6.250    0.000    0.000    0.000    0.000 
#    0.000    0.000    0.000    0.000    0.000    0.000 
#
# Total GULP energy -198416.694173 kJ/mol
# GULP energy per Si atom -12401.043386 kJ/mol
# Density = 2.149980 g / cm^3
# Si number density = 21.548847 Si / 1000 Ang^3
#
#
#
# Elastic Constant Matrix: (Units=GPa)
#
#
# Indices 1 2 3 4 5 6 
#
# 1 105.2786 25.1037 35.7030 16.4351 15.6227 20.4516
# 2 25.1037 59.8238 16.0290 11.8806 4.7654 10.5192
# 3 35.7030 16.0290 102.7125 14.8437 -0.9079 -4.6621
# 4 16.4351 11.8806 14.8437 29.7755 -2.8350 12.1509
# 5 15.6227 4.7654 -0.9079 -2.8350 38.3842 8.9520
# 6 20.4516 10.5192 -4.6621 12.1509 8.9520 30.7252
#
#
#
# Elastic Compliance Matrix: (Units=1/GPa)
#
#
# Indices 1 2 3 4 5 6 
#
# 1 0.013932 -0.002704 -0.004522 -0.001794 -0.003898 -0.007189
# 2 -0.002704 0.019809 -0.001679 -0.004345 -0.000964 -0.003238
# 3 -0.004522 -0.001679 0.012893 -0.006595 -0.000036 0.008160
# 4 -0.001794 -0.004345 -0.006595 0.048817 0.009473 -0.020384
# 5 -0.003898 -0.000964 -0.000036 0.009473 0.030739 -0.009783
# 6 -0.007189 -0.003238 0.008160 -0.020384 -0.009783 0.050590
#
#
# Mechanical properties :
#
#
# Convention : Reuss Voigt Hill
#
# Bulk Modulus (GPa) = 34.69326 46.83180 40.76253
# Shear Modulus (GPa) = 24.48600 32.50894 28.49747
#
# Velocity S-wave (km/s) = 3.37456 3.88830 3.64051
# Velocity P-wave (km/s) = 5.59628 6.47600 6.05215
#
# Compressibility (1/GPa) = 0.02882404
#
# Stress axis : x y z
#
# Youngs Moduli (GPa) = 71.77743 50.48151 77.56151
#
# Poissons Ratio (x) = 0.13648 0.35076
# Poissons Ratio (y) = 0.19406 0.13023
# Poissons Ratio (z) = 0.32460 0.08476
#
# Static dielectric constant tensor:
#      x y z
#    x 3.941230 0.147240 0.259060 
#    y 0.147240 3.976890 0.154780 
#    z 0.259060 0.154780 3.874300 
# 
# 
# High freq. dielectric constant tensor:
#      x y z
#    x 1.841690 0.006320 0.017770 
#    y 0.006320 1.846580 0.008250 
#    z 0.017770 0.008250 1.845440 
# 
# From -- ./inp_files/298334.got.cif
#   From: 2010.06.25/outbox.cif.g09.slc.cpg/sg2_150_cif.got.tgz:298334.got - 2010.06.27 13:26:56.
