data_PCOD8010561
_publ_section_title
;
Structure prediction by ZEFSAII (Michael W. Deem and Ramdas Pophale) SiO2 
 PCOD8010561
Probable space group: P -1
;
_chemical_formula_sum "Si O2"
_cell_formula_units_Z 14
_cell_length_a 9.476357
_cell_length_b 16.169948
_cell_length_c 8.888961
_cell_angle_alpha 136.809702
_cell_angle_beta 44.631619
_cell_angle_gamma 123.698180
_cell_volume 653.103381
_symmetry_space_group_name_H-M "P -1"
_symmetry_group_IT_number 2
_symmetry_cell_setting 'triclinic'
loop_
_space_group_symop_operation_xyz
x,y,z
-x,-y,-z
loop_
_atom_site_type_symbol
_atom_site_label
_atom_site_fract_x
_atom_site_fract_y
_atom_site_fract_z
Si Si1 0.227797 0.970645 0.811747
Si Si2 0.558044 0.183207 0.785403
Si Si3 0.062825 0.409220 0.662295
Si Si4 0.169918 0.674424 0.003251
Si Si5 0.166643 0.775359 0.818152
Si Si6 0.221871 0.316309 0.137090
Si Si7 0.282787 0.553164 0.252292
O O1 0.273859 0.880064 0.519053
O O2 0.267542 0.904467 0.853910
O O3 0.379096 0.089313 0.854064
O O4 0.000000 0.000000 0.000000
O O5 0.643829 0.260823 0.963155
O O6 0.449405 0.278138 0.883665
O O7 0.197811 0.536572 0.747247
O O8 0.190037 0.323200 0.350540
O O9 0.838450 0.424737 0.781274
O O10 0.027298 0.340578 0.758312
O O11 0.148678 0.762284 0.993665
O O12 0.288163 0.669589 0.510928
O O13 0.939313 0.782802 0.939924
O O14 0.159097 0.442454 0.284129
O O15 0.500000 0.500000 0.000000
#
# Coordination Sequence:
#
# PCOD8010561 Si02
#       7
#     2   2   2   2   2   2   2
#     4  11  24  47  71  89 120 175 222 270 306 377
#     4  11  25  42  71  96 122 167 226 255 323 380
#     4  10  21  38  61  91 143 171 196 251 336 379
#     4  11  22  40  59  99 133 163 206 265 323 384
#     4  11  21  41  65  90 130 166 210 263 321 364
#     4  11  19  40  66  94 123 172 210 253 308 400
#     4  11  20  36  61  96 125 171 217 252 308 400
#
# _framework density 21.436116999999999
#
# number of rings (size 3 to 8) (size 9 to 14) (size 15 to 20)
#    0.000    1.143    4.286    4.286    0.000    1.143 
#    5.143    0.714    0.000    0.000    0.000    0.000 
#    0.000    0.000    0.000    0.000    0.000    0.000 
#
# Total GULP energy -173481.342674 kJ/mol
# GULP energy per Si atom -12391.524477 kJ/mol
# Density = 2.138733 g / cm^3
# Si number density = 21.436117 Si / 1000 Ang^3
#
#
#
# Elastic Constant Matrix: (Units=GPa)
#
#
# Indices 1 2 3 4 5 6 
#
# 1 100.5024 40.8094 65.0145 1.1380 7.9238 4.1546
# 2 40.8094 108.4101 15.9262 -3.5746 5.3911 -23.5309
# 3 65.0145 15.9262 91.6850 -6.3174 -20.7110 -4.0243
# 4 1.1380 -3.5746 -6.3174 27.8533 -4.4692 5.2478
# 5 7.9238 5.3911 -20.7110 -4.4692 34.0762 -6.2670
# 6 4.1546 -23.5309 -4.0243 5.2478 -6.2670 38.0630
#
#
#
# Elastic Compliance Matrix: (Units=1/GPa)
#
#
# Indices 1 2 3 4 5 6 
#
# 1 0.049599 -0.015960 -0.044220 -0.016277 -0.042566 -0.024720
# 2 -0.015960 0.016120 0.012124 0.004668 0.011769 0.014284
# 3 -0.044220 0.012124 0.053165 0.018658 0.047386 0.023173
# 4 -0.016277 0.004668 0.018658 0.043995 0.020894 0.004010
# 5 -0.042566 0.011769 0.047386 0.020894 0.073740 0.026192
# 6 -0.024720 0.014284 0.023173 0.004010 0.026192 0.044011
#
#
# Mechanical properties :
#
#
# Convention : Reuss Voigt Hill
#
# Bulk Modulus (GPa) = 43.91458 60.45529 52.18493
# Shear Modulus (GPa) = 13.00957 31.92165 22.46561
#
# Velocity S-wave (km/s) = 2.46621 3.86314 3.24084
# Velocity P-wave (km/s) = 5.35166 6.93990 6.19688
#
# Compressibility (1/GPa) = 0.02277148
#
# Stress axis : x y z
#
# Youngs Moduli (GPa) = 20.16177 62.03483 18.80941
#
# Poissons Ratio (x) = 0.99008 0.83176
# Poissons Ratio (y) = 0.32178 -0.22805
# Poissons Ratio (z) = 0.89156 -0.75213
#
# Static dielectric constant tensor:
#      x y z
#    x 3.653500 -0.097050 0.066370 
#    y -0.097050 4.405670 -0.034580 
#    z 0.066370 -0.034580 3.725790 
# 
# 
# High freq. dielectric constant tensor:
#      x y z
#    x 1.816860 0.000150 -0.001900 
#    y 0.000150 1.869530 -0.008210 
#    z -0.001900 -0.008210 1.830940 
# 
# From -- ./inp_files/179755.got.cif
#   From: 2010.06.25/outbox.cif.g09.slc.cpg/sg2_90_cif.got.tgz:179755.got - 2010.06.27 13:26:56.
