data_PCOD8010298
_publ_section_title
;
Structure prediction by ZEFSAII (Michael W. Deem and Ramdas Pophale) SiO2 
 PCOD8010298
Probable space group: P -1
;
_chemical_formula_sum "Si O2"
_cell_formula_units_Z 14
_cell_length_a 7.995085
_cell_length_b 11.756272
_cell_length_c 12.403338
_cell_angle_alpha 57.569860
_cell_angle_beta 125.349180
_cell_angle_gamma 139.658087
_cell_volume 605.447694
_symmetry_space_group_name_H-M "P -1"
_symmetry_group_IT_number 2
_symmetry_cell_setting 'triclinic'
loop_
_space_group_symop_operation_xyz
x,y,z
-x,-y,-z
loop_
_atom_site_type_symbol
_atom_site_label
_atom_site_fract_x
_atom_site_fract_y
_atom_site_fract_z
Si Si1 0.708151 0.043960 0.966327
Si Si2 0.288798 0.339249 0.129678
Si Si3 0.575678 0.322076 0.049529
Si Si4 0.639143 0.253692 0.673964
Si Si5 0.909725 0.341406 0.329606
Si Si6 0.906504 0.858563 0.444977
Si Si7 0.433449 0.167691 0.401546
O O1 0.696866 0.136112 0.811633
O O2 0.652704 0.865916 0.998682
O O3 0.992158 0.171278 0.066532
O O4 0.500000 0.000000 0.000000
O O5 0.486460 0.364373 0.100370
O O6 0.374927 0.301933 0.291633
O O7 0.317391 0.512589 0.073297
O O8 0.816102 0.325424 0.178356
O O9 0.397937 0.229647 0.660535
O O10 0.553808 0.191437 0.551496
O O11 0.919181 0.456222 0.671327
O O12 0.642871 0.199690 0.375846
O O13 0.103080 0.295328 0.431072
O O14 0.000000 0.000000 0.500000
O O15 0.136018 0.966371 0.381370
#
# Coordination Sequence:
#
# PCOD8010298 Si02
#       7
#     2   2   2   2   2   2   2
#     4  12  25  44  66  98 132 176 223 265 331 399
#     4  10  22  44  66  98 129 169 223 266 332 386
#     4  10  22  43  70  92 132 174 216 278 321 390
#     4  11  23  43  64  98 134 169 218 273 329 393
#     4  11  21  41  68  98 127 172 221 272 329 387
#     4  10  21  38  58  88 129 169 208 261 323 382
#     4  10  22  41  67  97 129 167 218 274 323 394
#
# _framework density 23.123384999999999
#
# number of rings (size 3 to 8) (size 9 to 14) (size 15 to 20)
#    0.000    1.429    1.429    4.286    0.000    2.857 
#   10.286    0.000    0.000    0.000    0.000    0.000 
#    0.000    0.000    0.000    0.000    0.000    0.000 
#
# Total GULP energy -173533.471840 kJ/mol
# GULP energy per Si atom -12395.247989 kJ/mol
# Density = 2.307075 g / cm^3
# Si number density = 23.123385 Si / 1000 Ang^3
#
#
#
# Elastic Constant Matrix: (Units=GPa)
#
#
# Indices 1 2 3 4 5 6 
#
# 1 37.8393 20.9866 20.4936 -2.9978 9.8394 2.5663
# 2 20.9866 118.0662 12.0581 -10.9144 4.3627 -10.7198
# 3 20.4936 12.0581 76.4896 -11.3105 -0.1113 -7.8410
# 4 -2.9978 -10.9144 -11.3105 32.4225 2.9992 14.1517
# 5 9.8394 4.3627 -0.1113 2.9992 28.8834 -0.9042
# 6 2.5663 -10.7198 -7.8410 14.1517 -0.9042 36.6857
#
#
#
# Elastic Compliance Matrix: (Units=1/GPa)
#
#
# Indices 1 2 3 4 5 6 
#
# 1 0.039333 -0.005951 -0.010022 0.002866 -0.013089 -0.008061
# 2 -0.005951 0.009863 0.000579 0.001722 0.000448 0.002769
# 3 -0.010022 0.000579 0.016493 0.003341 0.003143 0.003184
# 4 0.002866 0.001722 0.003341 0.039691 -0.005797 -0.014437
# 5 -0.013089 0.000448 0.003143 -0.005797 0.039782 0.004935
# 6 -0.008061 0.002769 0.003184 -0.014437 0.004935 0.035003
#
#
# Mechanical properties :
#
#
# Convention : Reuss Voigt Hill
#
# Bulk Modulus (GPa) = 28.65336 37.71907 33.18622
# Shear Modulus (GPa) = 22.46328 31.52211 26.99269
#
# Velocity S-wave (km/s) = 3.12019 3.69618 3.42033
# Velocity P-wave (km/s) = 5.03976 5.87904 5.47551
#
# Compressibility (1/GPa) = 0.03489992
#
# Stress axis : x y z
#
# Youngs Moduli (GPa) = 25.42375 101.39331 60.63347
#
# Poissons Ratio (x) = 0.60342 0.60765
# Poissons Ratio (y) = 0.15130 -0.03510
# Poissons Ratio (z) = 0.25479 -0.05869
#
# Static dielectric constant tensor:
#      x y z
#    x 4.211390 0.370180 0.240190 
#    y 0.370180 4.431040 -0.444190 
#    z 0.240190 -0.444190 4.440270 
# 
# 
# High freq. dielectric constant tensor:
#      x y z
#    x 1.901990 0.015260 0.021910 
#    y 0.015260 1.916890 -0.020380 
#    z 0.021910 -0.020380 1.920690 
# 
# From -- ./inp_files/195285.got.cif
#   From: 2010.06.25/outbox.cif.g09.slc.cpg/sg2_98_cif.got.tgz:195285.got - 2010.06.27 13:26:56.
