data_PCOD8010078
_publ_section_title
;
Structure prediction by ZEFSAII (Michael W. Deem and Ramdas Pophale) SiO2 
 PCOD8010078
Probable space group: P -1
;
_chemical_formula_sum "Si O2"
_cell_formula_units_Z 16
_cell_length_a 18.283821
_cell_length_b 8.584570
_cell_length_c 8.446318
_cell_angle_alpha 116.306657
_cell_angle_beta 52.053785
_cell_angle_gamma 82.213839
_cell_volume 765.338563
_symmetry_space_group_name_H-M "P -1"
_symmetry_group_IT_number 2
_symmetry_cell_setting 'triclinic'
loop_
_space_group_symop_operation_xyz
x,y,z
-x,-y,-z
loop_
_atom_site_type_symbol
_atom_site_label
_atom_site_fract_x
_atom_site_fract_y
_atom_site_fract_z
Si Si1 0.191639 0.510938 0.089927
Si Si2 0.953901 0.633622 0.780877
Si Si3 0.557047 0.249532 0.818966
Si Si4 0.156094 0.633871 0.532999
Si Si5 0.334882 0.593336 0.735943
Si Si6 0.440180 0.797666 0.844113
Si Si7 0.771560 0.110476 0.282845
Si Si8 0.363212 0.223191 0.976271
O O1 0.106815 0.464746 0.095885
O O2 0.132641 0.674271 0.391734
O O3 0.225652 0.611751 0.956980
O O4 0.302505 0.288438 0.913629
O O5 0.000000 0.500000 0.500000
O O6 0.058207 0.611726 0.726222
O O7 0.857078 0.881002 0.988585
O O8 0.685571 0.115571 0.524286
O O9 0.482114 0.197181 0.790928
O O10 0.500000 0.500000 0.000000
O O11 0.560317 0.164901 0.951905
O O12 0.151489 0.826753 0.705642
O O13 0.280616 0.414634 0.296873
O O14 0.377646 0.681533 0.851002
O O15 0.431961 0.349026 0.457346
O O16 0.304909 0.726284 0.677670
O O17 0.376369 0.014964 0.928826
#
# Coordination Sequence:
#
# PCOD8010078 Si02
#       8
#     2   2   2   2   2   2   2   2
#     4   9  21  41  61  88 125 163 205 257 302 368
#     4  10  22  43  67  89 118 166 214 262 311 357
#     4  12  21  40  60  93 130 164 201 248 317 370
#     4   9  20  42  66  85 124 164 210 253 311 359
#     4  11  23  36  59  93 131 161 210 246 314 373
#     4  11  23  37  58  92 131 169 201 251 303 384
#     4  12  23  39  67  93 125 168 204 259 306 377
#     4  10  21  37  65  87 126 165 202 255 304 369
#
# _framework density 20.905781000000001
#
# number of rings (size 3 to 8) (size 9 to 14) (size 15 to 20)
#    0.750    0.750    2.500    3.000    3.500    0.500 
#    0.000    3.125    2.750    0.000    0.000    0.000 
#    0.000    0.000    0.000    0.000    0.000    0.000 
#
# Total GULP energy -198324.113850 kJ/mol
# GULP energy per Si atom -12395.257116 kJ/mol
# Density = 2.085820 g / cm^3
# Si number density = 20.905781 Si / 1000 Ang^3
#
#
#
# Elastic Constant Matrix: (Units=GPa)
#
#
# Indices 1 2 3 4 5 6 
#
# 1 90.6160 8.1474 27.7175 -14.5991 -14.7867 35.4327
# 2 8.1474 64.7800 33.7146 -0.9731 -2.8467 12.1620
# 3 27.7175 33.7146 89.7503 10.8876 -6.6724 18.3547
# 4 -14.5991 -0.9731 10.8876 33.6457 1.9092 -7.2822
# 5 -14.7867 -2.8467 -6.6724 1.9092 23.2506 -9.9198
# 6 35.4327 12.1620 18.3547 -7.2822 -9.9198 37.1960
#
#
#
# Elastic Compliance Matrix: (Units=1/GPa)
#
#
# Indices 1 2 3 4 5 6 
#
# 1 0.019967 0.003082 -0.004694 0.006728 0.004718 -0.015136
# 2 0.003082 0.020159 -0.007934 0.003417 -0.000269 -0.005015
# 3 -0.004694 -0.007934 0.017251 -0.008523 0.000411 -0.003006
# 4 0.006728 0.003417 -0.008523 0.036319 0.001000 0.004056
# 5 0.004718 -0.000269 0.000411 0.001000 0.049796 0.008866
# 6 -0.015136 -0.005015 -0.003006 0.004056 0.008866 0.047585
#
#
# Mechanical properties :
#
#
# Convention : Reuss Voigt Hill
#
# Bulk Modulus (GPa) = 26.11934 42.70059 34.40997
# Shear Modulus (GPa) = 22.42858 30.52289 26.47574
#
# Velocity S-wave (km/s) = 3.27898 3.82517 3.56256
# Velocity P-wave (km/s) = 5.18233 6.32288 5.78080
#
# Compressibility (1/GPa) = 0.03828581
#
# Stress axis : x y z
#
# Youngs Moduli (GPa) = 50.08363 49.60486 57.96734
#
# Poissons Ratio (x) = -0.15287 0.27209
# Poissons Ratio (y) = -0.15435 0.45988
# Poissons Ratio (z) = 0.23509 0.39354
#
# Static dielectric constant tensor:
#      x y z
#    x 3.903440 0.364050 -0.167760 
#    y 0.364050 3.546000 -0.019230 
#    z -0.167760 -0.019230 3.755080 
# 
# 
# High freq. dielectric constant tensor:
#      x y z
#    x 1.816640 0.030330 -0.009100 
#    y 0.030330 1.801760 0.001910 
#    z -0.009100 0.001910 1.812100 
# 
# From -- ./inp_files/342917.got.cif
#   From: 2010.06.25/outbox.cif.g09.slc.cpg/sg2_172_cif.got.tgz:342917.got - 2010.06.27 13:26:56.
