data_PCOD8010506
_publ_section_title
;
Structure prediction by ZEFSAII (Michael W. Deem and Ramdas Pophale) SiO2 
 PCOD8010506
Probable space group: P -1
;
_chemical_formula_sum "Si O2"
_cell_formula_units_Z 16
_cell_length_a 15.469821
_cell_length_b 20.625926
_cell_length_c 8.667558
_cell_angle_alpha 128.529988
_cell_angle_beta 128.411934
_cell_angle_gamma 21.111671
_cell_volume 771.297233
_symmetry_space_group_name_H-M "P -1"
_symmetry_group_IT_number 2
_symmetry_cell_setting 'triclinic'
loop_
_space_group_symop_operation_xyz
x,y,z
-x,-y,-z
loop_
_atom_site_type_symbol
_atom_site_label
_atom_site_fract_x
_atom_site_fract_y
_atom_site_fract_z
Si Si1 0.506317 0.316611 0.722196
Si Si2 0.832602 0.338134 0.326303
Si Si3 0.758057 0.806098 0.924309
Si Si4 0.119853 0.687518 0.310811
Si Si5 0.879231 0.550580 0.594771
Si Si6 0.992504 0.050963 0.406812
Si Si7 0.229572 0.175571 0.400281
Si Si8 0.599065 0.331690 0.152959
O O1 0.375485 0.480509 0.737031
O O2 0.381271 0.314410 0.533450
O O3 0.495367 0.334036 0.921404
O O4 0.784436 0.130242 0.712243
O O5 0.832795 0.373953 0.553225
O O6 0.775027 0.278794 0.180355
O O7 0.097336 0.177430 0.302786
O O8 0.828652 0.661875 0.817845
O O9 0.761347 0.821697 0.769153
O O10 0.961599 0.724180 0.108030
O O11 0.500000 0.000000 0.000000
O O12 0.984458 0.865951 0.420012
O O13 0.374068 0.530272 0.273033
O O14 0.000000 0.500000 0.500000
O O15 0.065587 0.355432 0.573344
O O16 0.751336 0.187214 0.245634
O O17 0.000000 0.000000 0.500000
O O18 0.500000 0.000000 0.500000
#
# Coordination Sequence:
#
# PCOD8010506 Si02
#       8
#     2   2   2   2   2   2   2   2
#     4  11  21  38  60  87 116 152 197 246 295 353
#     4  10  21  38  61  87 121 157 195 244 298 359
#     4  11  22  40  62  87 118 160 206 251 298 355
#     4  11  22  40  61  85 119 160 197 245 302 358
#     4   9  20  38  59  83 116 155 195 245 297 350
#     4  11  23  39  58  87 121 153 194 245 298 360
#     4  10  21  39  61  88 119 159 203 250 302 355
#     4  11  22  38  61  88 117 158 197 240 300 360
#
# _framework density 20.744271000000001
#
# number of rings (size 3 to 8) (size 9 to 14) (size 15 to 20)
#    0.000    1.500    0.000    7.500    0.000    4.000 
#    0.000   11.875    0.000    0.000    0.000    0.000 
#    0.000    0.000    0.000    0.000    0.000    0.000 
#
# Total GULP energy -198364.240469 kJ/mol
# GULP energy per Si atom -12397.765029 kJ/mol
# Density = 2.069706 g / cm^3
# Si number density = 20.744271 Si / 1000 Ang^3
#
#
#
# Elastic Constant Matrix: (Units=GPa)
#
#
# Indices 1 2 3 4 5 6 
#
# 1 88.4599 31.6685 30.7841 -5.8859 -8.1598 -3.1413
# 2 31.6685 127.5526 51.4537 -8.0263 -4.2280 -8.3493
# 3 30.7841 51.4537 134.7438 -14.6269 -3.4811 12.1959
# 4 -5.8859 -8.0263 -14.6269 37.9546 -4.4985 -8.8103
# 5 -8.1598 -4.2280 -3.4811 -4.4985 30.7526 -2.7450
# 6 -3.1413 -8.3493 12.1959 -8.8103 -2.7450 34.0321
#
#
#
# Elastic Compliance Matrix: (Units=1/GPa)
#
#
# Indices 1 2 3 4 5 6 
#
# 1 0.013312 -0.002056 -0.002182 0.001715 0.003452 0.002229
# 2 -0.002056 0.010201 -0.003603 0.001520 0.001036 0.004081
# 3 -0.002182 -0.003603 0.009859 0.001719 -0.000080 -0.004180
# 4 0.001715 0.001520 0.001719 0.030219 0.006013 0.008223
# 5 0.003452 0.001036 -0.000080 0.006013 0.034890 0.004972
# 6 0.002229 0.004081 -0.004180 0.008223 0.004972 0.034619
#
#
# Mechanical properties :
#
#
# Convention : Reuss Voigt Hill
#
# Bulk Modulus (GPa) = 56.53629 64.28544 60.41087
# Shear Modulus (GPa) = 32.32483 36.33787 34.33135
#
# Velocity S-wave (km/s) = 3.95175 4.18988 4.07256
# Velocity P-wave (km/s) = 6.93793 7.37994 7.16235
#
# Compressibility (1/GPa) = 0.01768775
#
# Stress axis : x y z
#
# Youngs Moduli (GPa) = 75.12056 98.02856 101.43091
#
# Poissons Ratio (x) = 0.20159 0.22136
# Poissons Ratio (y) = 0.15448 0.36548
# Poissons Ratio (z) = 0.16394 0.35322
#
# Static dielectric constant tensor:
#      x y z
#    x 4.011010 0.059850 0.076640 
#    y 0.059850 3.983880 0.081540 
#    z 0.076640 0.081540 3.973810 
# 
# 
# High freq. dielectric constant tensor:
#      x y z
#    x 1.811400 -0.010070 -0.001400 
#    y -0.010070 1.821650 -0.005380 
#    z -0.001400 -0.005380 1.811130 
# 
# From -- ./inp_files/218738.got.cif
#   From: 2010.06.25/outbox.cif.g09.slc.cpg/sg2_110_cif.got.tgz:218738.got - 2010.06.27 13:26:56.
