data_PCOD8010534
_publ_section_title
;
Structure prediction by ZEFSAII (Michael W. Deem and Ramdas Pophale) SiO2 
 PCOD8010534
Probable space group: P -1
;
_chemical_formula_sum "Si O2"
_cell_formula_units_Z 16
_cell_length_a 6.428170
_cell_length_b 11.291790
_cell_length_c 13.671364
_cell_angle_alpha 65.983287
_cell_angle_beta 131.295876
_cell_angle_gamma 93.328761
_cell_volume 648.174818
_symmetry_space_group_name_H-M "P -1"
_symmetry_group_IT_number 2
_symmetry_cell_setting 'triclinic'
loop_
_space_group_symop_operation_xyz
x,y,z
-x,-y,-z
loop_
_atom_site_type_symbol
_atom_site_label
_atom_site_fract_x
_atom_site_fract_y
_atom_site_fract_z
Si Si1 0.325338 0.501064 0.092511
Si Si2 0.263491 0.125568 0.333760
Si Si3 0.378554 0.728236 0.511117
Si Si4 0.577621 0.431950 0.683515
Si Si5 0.261612 0.222048 0.689898
Si Si6 0.635901 0.273469 0.123258
Si Si7 0.158140 0.208110 0.886137
Si Si8 0.263026 0.941829 0.230130
O O1 0.449544 0.517639 0.230365
O O2 0.528128 0.359263 0.158530
O O3 0.334125 0.628710 0.987645
O O4 0.000000 0.500000 0.000000
O O5 0.392061 0.253125 0.341621
O O6 0.950934 0.162745 0.277956
O O7 0.500000 0.000000 0.500000
O O8 0.215227 0.088724 0.217561
O O9 0.474894 0.576042 0.544803
O O10 0.367485 0.825328 0.383815
O O11 0.062448 0.763723 0.451395
O O12 0.353292 0.346640 0.630703
O O13 0.902739 0.347646 0.782319
O O14 0.286020 0.215804 0.816334
O O15 0.483785 0.081869 0.763951
O O16 0.410923 0.192483 0.049063
O O17 0.033815 0.077881 0.901725
#
# Coordination Sequence:
#
# PCOD8010534 Si02
#       8
#     2   2   2   2   2   2   2   2
#     4  11  22  38  62  99 128 159 198 252 320 381
#     4  10  23  44  64  89 124 167 212 260 302 365
#     4  10  22  38  61  91 126 164 210 256 308 369
#     4  11  21  36  62  95 130 155 204 257 318 377
#     4  10  21  38  61  89 127 168 206 254 310 367
#     4  11  23  40  66  91 129 163 202 257 317 367
#     4  10  21  39  62  92 125 160 208 257 309 378
#     4   9  22  42  61  86 127 163 217 255 301 362
#
# _framework density 24.684698999999998
#
# number of rings (size 3 to 8) (size 9 to 14) (size 15 to 20)
#    0.000    1.750    2.500    1.125    1.750    8.500 
#    0.000    6.875    0.000    0.000    0.000    0.000 
#    0.000    0.000    0.000    0.000    0.000    0.000 
#
# Total GULP energy -198386.443489 kJ/mol
# GULP energy per Si atom -12399.152718 kJ/mol
# Density = 2.462852 g / cm^3
# Si number density = 24.684699 Si / 1000 Ang^3
#
#
#
# Elastic Constant Matrix: (Units=GPa)
#
#
# Indices 1 2 3 4 5 6 
#
# 1 126.5333 46.6879 28.2624 2.4927 37.2901 -25.4215
# 2 46.6879 130.2260 24.9675 22.1222 30.5855 -21.2016
# 3 28.2624 24.9675 73.9112 6.6922 46.5614 -1.5875
# 4 2.4927 22.1222 6.6922 40.6260 10.0366 9.2740
# 5 37.2901 30.5855 46.5614 10.0366 44.6660 -3.1023
# 6 -25.4215 -21.2016 -1.5875 9.2740 -3.1023 42.9140
#
#
#
# Elastic Compliance Matrix: (Units=1/GPa)
#
#
# Indices 1 2 3 4 5 6 
#
# 1 0.012777 -0.001389 0.004821 0.001512 -0.014687 0.005673
# 2 -0.001389 0.011340 0.001237 -0.006079 -0.006134 0.005696
# 3 0.004821 0.001237 0.042368 0.004282 -0.049965 0.000497
# 4 0.001512 -0.006079 0.004282 0.031585 -0.009317 -0.009448
# 5 -0.014687 -0.006134 -0.049965 -0.009317 0.092692 -0.004865
# 6 0.005673 0.005696 0.000497 -0.009448 -0.004865 0.031185
#
#
# Mechanical properties :
#
#
# Convention : Reuss Voigt Hill
#
# Bulk Modulus (GPa) = 13.18852 58.94513 36.06682
# Shear Modulus (GPa) = 21.01875 41.02471 31.02173
#
# Velocity S-wave (km/s) = 2.92119 4.08112 3.54887
# Velocity P-wave (km/s) = 4.09050 6.79253 5.60672
#
# Compressibility (1/GPa) = 0.07582352
#
# Stress axis : x y z
#
# Youngs Moduli (GPa) = 78.26575 88.18129 23.60294
#
# Poissons Ratio (x) = 0.12246 -0.11378
# Poissons Ratio (y) = 0.10869 -0.02921
# Poissons Ratio (z) = -0.37730 -0.10911
#
# Static dielectric constant tensor:
#      x y z
#    x 4.756590 -0.370820 0.278950 
#    y -0.370820 5.840720 0.341990 
#    z 0.278950 0.341990 4.402860 
# 
# 
# High freq. dielectric constant tensor:
#      x y z
#    x 1.986310 -0.006790 0.010040 
#    y -0.006790 2.001770 0.011380 
#    z 0.010040 0.011380 1.966530 
# 
# From -- ./inp_files/118647.got.cif
#   From: 2010.06.25/outbox.cif.g09.slc.cpg/sg2_60_cif.got.tgz:118647.got - 2010.06.27 13:26:56.
