data_PCOD8010988
_publ_section_title
;
Structure prediction by ZEFSAII (Michael W. Deem and Ramdas Pophale) SiO2 
 PCOD8010988
Probable space group: P -1
;
_chemical_formula_sum "Si O2"
_cell_formula_units_Z 14
_cell_length_a 8.975212
_cell_length_b 16.677984
_cell_length_c 9.631953
_cell_angle_alpha 69.531587
_cell_angle_beta 115.469194
_cell_angle_gamma 152.595158
_cell_volume 597.340119
_symmetry_space_group_name_H-M "P -1"
_symmetry_group_IT_number 2
_symmetry_cell_setting 'triclinic'
loop_
_space_group_symop_operation_xyz
x,y,z
-x,-y,-z
loop_
_atom_site_type_symbol
_atom_site_label
_atom_site_fract_x
_atom_site_fract_y
_atom_site_fract_z
Si Si1 0.176784 0.670609 0.980136
Si Si2 0.779263 0.931404 0.239183
Si Si3 0.121244 0.944626 0.528064
Si Si4 0.161439 0.345077 0.542332
Si Si5 0.497364 0.555233 0.103696
Si Si6 0.759070 0.325698 0.436802
Si Si7 0.640950 0.801651 0.891338
O O1 0.385185 0.769792 0.148538
O O2 0.461979 0.802886 0.893756
O O3 0.000000 0.500000 0.000000
O O4 0.892472 0.616114 0.893619
O O5 0.821493 0.863303 0.385120
O O6 0.923692 0.073840 0.309640
O O7 0.973297 0.007275 0.120901
O O8 0.098541 0.840910 0.515385
O O9 0.485822 0.152711 0.525932
O O10 0.500000 0.500000 0.500000
O O11 0.251182 0.369144 0.725714
O O12 0.990029 0.358270 0.439814
O O13 0.500000 0.500000 0.000000
O O14 0.626467 0.709004 0.031016
O O15 0.568844 0.303039 0.269890
O O16 0.000000 0.500000 0.500000
#
# Coordination Sequence:
#
# PCOD8010988 Si02
#       7
#     2   2   2   2   2   2   2
#     4  10  21  38  65  94 131 173 225 279 343 409
#     4  10  22  40  71 101 138 182 235 293 353 426
#     4  10  24  42  68 104 145 181 237 291 358 417
#     4  12  27  45  72 105 147 185 234 295 355 417
#     4  11  25  43  70 101 142 181 233 291 352 416
#     4  11  25  43  74 101 138 187 237 286 356 430
#     4  10  22  43  67 101 132 179 239 284 357 416
#
# _framework density 23.437234
#
# number of rings (size 3 to 8) (size 9 to 14) (size 15 to 20)
#    0.000    1.429    0.000    4.286   14.000    1.143 
#    0.000    2.143    0.000    0.000    0.000    0.000 
#    0.000    0.000    0.000    0.000    0.000    0.000 
#
# Total GULP energy -173487.016972 kJ/mol
# GULP energy per Si atom -12391.929784 kJ/mol
# Density = 2.338389 g / cm^3
# Si number density = 23.437234 Si / 1000 Ang^3
#
#
#
# Elastic Constant Matrix: (Units=GPa)
#
#
# Indices 1 2 3 4 5 6 
#
# 1 112.7877 36.1309 1.0403 3.0487 -12.8773 -5.4670
# 2 36.1309 118.5062 17.4847 12.4462 -1.5099 -3.0879
# 3 1.0403 17.4847 53.8615 -3.7134 -6.5985 3.5730
# 4 3.0487 12.4462 -3.7134 28.3730 5.1816 0.0804
# 5 -12.8773 -1.5099 -6.5985 5.1816 40.8706 1.7102
# 6 -5.4670 -3.0879 3.5730 0.0804 1.7102 40.6081
#
#
#
# Elastic Compliance Matrix: (Units=1/GPa)
#
#
# Indices 1 2 3 4 5 6 
#
# 1 0.010318 -0.003241 0.001188 -0.000137 0.003303 0.000899
# 2 -0.003241 0.010482 -0.003792 -0.004622 -0.000691 0.000733
# 3 0.001188 -0.003792 0.020553 0.003651 0.003177 -0.002078
# 4 -0.000137 -0.004622 0.003651 0.038587 -0.004492 -0.000578
# 5 0.003303 -0.000691 0.003177 -0.004492 0.026607 -0.000999
# 6 0.000899 0.000733 -0.002078 -0.000578 -0.000999 0.025028
#
#
# Mechanical properties :
#
#
# Convention : Reuss Voigt Hill
#
# Bulk Modulus (GPa) = 33.71192 43.82969 38.77081
# Shear Modulus (GPa) = 32.64738 37.33698 34.99218
#
# Velocity S-wave (km/s) = 3.73630 3.99565 3.86815
# Velocity P-wave (km/s) = 5.74703 6.32680 6.04387
#
# Compressibility (1/GPa) = 0.02966310
#
# Stress axis : x y z
#
# Youngs Moduli (GPa) = 96.91854 95.40384 48.65507
#
# Poissons Ratio (x) = 0.30923 -0.05782
# Poissons Ratio (y) = 0.31414 0.18450
# Poissons Ratio (z) = -0.11518 0.36176
#
# Static dielectric constant tensor:
#      x y z
#    x 5.309300 0.198460 -0.024700 
#    y 0.198460 4.359860 0.188760 
#    z -0.024700 0.188760 4.424620 
# 
# 
# High freq. dielectric constant tensor:
#      x y z
#    x 1.929110 0.015560 -0.018550 
#    y 0.015560 1.927860 0.026750 
#    z -0.018550 0.026750 1.930230 
# 
# From -- ./inp_files/217148.got.cif
#   From: 2010.06.25/outbox.cif.g09.slc.cpg/sg2_109_cif.got.tgz:217148.got - 2010.06.27 13:26:56.
