data_PCOD8010784
_publ_section_title
;
Structure prediction by ZEFSAII (Michael W. Deem and Ramdas Pophale) SiO2 
 PCOD8010784
Probable space group: P -1
;
_chemical_formula_sum "Si O2"
_cell_formula_units_Z 14
_cell_length_a 9.096597
_cell_length_b 11.420964
_cell_length_c 10.623074
_cell_angle_alpha 121.486557
_cell_angle_beta 40.414031
_cell_angle_gamma 113.714337
_cell_volume 610.135057
_symmetry_space_group_name_H-M "P -1"
_symmetry_group_IT_number 2
_symmetry_cell_setting 'triclinic'
loop_
_space_group_symop_operation_xyz
x,y,z
-x,-y,-z
loop_
_atom_site_type_symbol
_atom_site_label
_atom_site_fract_x
_atom_site_fract_y
_atom_site_fract_z
Si Si1 0.556778 0.333218 0.204170
Si Si2 0.788534 0.078868 0.811013
Si Si3 0.061045 0.028058 0.833203
Si Si4 0.045258 0.679592 0.879992
Si Si5 0.420971 0.442246 0.887623
Si Si6 0.729718 0.836444 0.538072
Si Si7 0.620641 0.202608 0.474909
O O1 0.771559 0.377626 0.173497
O O2 0.500005 0.455736 0.217106
O O3 0.339093 0.301509 0.417462
O O4 0.600744 0.191921 0.023018
O O5 0.863525 0.994749 0.841024
O O6 0.003632 0.161489 0.659734
O O7 0.671716 0.974080 0.731420
O O8 0.282111 0.937996 0.605391
O O9 0.092174 0.192686 0.896909
O O10 0.000000 0.000000 0.000000
O O11 0.173616 0.721308 0.691060
O O12 0.851831 0.564847 0.923801
O O13 0.536874 0.297235 0.697674
O O14 0.500000 0.500000 0.000000
O O15 0.585508 0.839383 0.505720
#
# Coordination Sequence:
#
# PCOD8010784 Si02
#       7
#     2   2   2   2   2   2   2
#     4  10  22  41  61  84 123 160 198 244 291 360
#     4  10  21  38  63  94 121 151 199 251 297 352
#     4   9  19  38  65  93 123 156 191 246 308 355
#     4   9  21  41  64  88 117 160 203 244 298 355
#     4  12  27  40  59  90 121 162 205 246 302 362
#     4  10  22  38  63  92 114 156 205 247 302 349
#     4  10  22  41  62  88 124 159 198 247 301 359
#
# _framework density 22.945740000000001
#
# number of rings (size 3 to 8) (size 9 to 14) (size 15 to 20)
#    0.000    2.000    0.000    3.429    0.000   12.000 
#    0.000    0.000    0.000    0.000    0.000    0.000 
#    0.000    0.000    0.000    0.000    0.000    0.000 
#
# Total GULP energy -173523.457014 kJ/mol
# GULP energy per Si atom -12394.532644 kJ/mol
# Density = 2.289351 g / cm^3
# Si number density = 22.945740 Si / 1000 Ang^3
#
#
#
# Elastic Constant Matrix: (Units=GPa)
#
#
# Indices 1 2 3 4 5 6 
#
# 1 99.9698 50.9786 38.8316 11.2992 16.5899 14.6063
# 2 50.9786 79.7327 21.3018 -22.0944 -9.6239 13.0213
# 3 38.8316 21.3018 85.9612 3.0906 4.1413 14.5131
# 4 11.2992 -22.0944 3.0906 33.0234 2.9871 -2.6629
# 5 16.5899 -9.6239 4.1413 2.9871 31.8717 9.9722
# 6 14.6063 13.0213 14.5131 -2.6629 9.9722 35.8036
#
#
#
# Elastic Compliance Matrix: (Units=1/GPa)
#
#
# Indices 1 2 3 4 5 6 
#
# 1 0.040947 -0.039041 -0.007094 -0.036183 -0.030742 0.006241
# 2 -0.039041 0.056106 0.002357 0.046405 0.036400 -0.012120
# 3 -0.007094 0.002357 0.014829 0.001874 0.003836 -0.004903
# 4 -0.036183 0.046405 0.001874 0.070603 0.027652 -0.005327
# 5 -0.030742 0.036400 0.003836 0.027652 0.060623 -0.017080
# 6 0.006241 -0.012120 -0.004903 -0.005327 -0.017080 0.036141
#
#
# Mechanical properties :
#
#
# Convention : Reuss Voigt Hill
#
# Bulk Modulus (GPa) = 41.10891 54.20974 47.65932
# Shear Modulus (GPa) = 13.33640 30.44319 21.88979
#
# Velocity S-wave (km/s) = 2.41345 3.64641 3.09201
# Velocity P-wave (km/s) = 5.07158 6.43466 5.79335
#
# Compressibility (1/GPa) = 0.02432563
#
# Stress axis : x y z
#
# Youngs Moduli (GPa) = 24.42211 17.82342 67.43354
#
# Poissons Ratio (x) = 0.69584 0.47838
# Poissons Ratio (y) = 0.95346 -0.15894
# Poissons Ratio (z) = 0.17325 -0.04201
#
# Static dielectric constant tensor:
#      x y z
#    x 4.120840 -0.029880 0.065680 
#    y -0.029880 4.125710 -0.044230 
#    z 0.065680 -0.044230 4.297220 
# 
# 
# High freq. dielectric constant tensor:
#      x y z
#    x 1.892790 0.003780 0.009870 
#    y 0.003780 1.903100 -0.014070 
#    z 0.009870 -0.014070 1.913840 
# 
# From -- ./inp_files/270158.got.cif
#   From: 2010.06.25/outbox.cif.g09.slc.cpg/sg2_136_cif.got.tgz:270158.got - 2010.06.27 13:26:56.
