data_PCOD8010674
_publ_section_title
;
Structure prediction by ZEFSAII (Michael W. Deem and Ramdas Pophale) SiO2 
 PCOD8010674
Probable space group: P -1
;
_chemical_formula_sum "Si O2"
_cell_formula_units_Z 16
_cell_length_a 25.147384
_cell_length_b 9.934976
_cell_length_c 9.845395
_cell_angle_alpha 43.712177
_cell_angle_beta 152.072424
_cell_angle_gamma 133.208390
_cell_volume 788.015592
_symmetry_space_group_name_H-M "P -1"
_symmetry_group_IT_number 2
_symmetry_cell_setting 'triclinic'
loop_
_space_group_symop_operation_xyz
x,y,z
-x,-y,-z
loop_
_atom_site_type_symbol
_atom_site_label
_atom_site_fract_x
_atom_site_fract_y
_atom_site_fract_z
Si Si1 0.492146 0.471753 0.843554
Si Si2 0.118933 0.801809 0.245137
Si Si3 0.404721 0.092955 0.789850
Si Si4 0.224191 0.237272 0.112131
Si Si5 0.197947 0.900260 0.627831
Si Si6 0.252475 0.455135 0.735609
Si Si7 0.250592 0.549187 0.166185
Si Si8 0.135841 0.301393 0.317629
O O1 0.458999 0.239023 0.921998
O O2 0.389918 0.575981 0.470020
O O3 0.500000 0.500000 0.000000
O O4 0.612529 0.541028 0.990602
O O5 0.105137 0.803095 0.378091
O O6 0.217348 0.674411 0.509526
O O7 0.142459 0.027500 0.081125
O O8 0.000032 0.699086 0.989043
O O9 0.351624 0.204372 0.465307
O O10 0.312647 0.932553 0.771334
O O11 0.500000 0.000000 0.000000
O O12 0.190749 0.387463 0.042069
O O13 0.219918 0.336852 0.885380
O O14 0.167407 0.101678 0.470681
O O15 0.213387 0.757933 0.891318
O O16 0.179980 0.326701 0.551513
O O17 0.198829 0.488270 0.240817
#
# Coordination Sequence:
#
# PCOD8010674 Si02
#       8
#     2   2   2   2   2   2   2   2
#     4  11  21  42  65  92 136 167 203 268 320 382
#     4  11  24  44  70  92 131 172 215 272 321 372
#     4  10  21  38  62  92 129 166 213 258 314 384
#     4  10  23  41  65  97 127 165 220 261 317 385
#     4  11  22  42  64  98 126 169 219 262 318 383
#     4  12  25  43  66  99 131 170 214 264 329 379
#     4  11  23  41  68  99 127 172 217 257 324 388
#     4  12  25  45  65  96 133 168 220 272 313 381
#
# _framework density 20.304165000000001
#
# number of rings (size 3 to 8) (size 9 to 14) (size 15 to 20)
#    0.000    1.000    6.250    2.250    1.750    4.000 
#    2.250    1.250    0.000    0.000    0.000    0.000 
#    0.000    0.000    0.000    0.000    0.000    0.000 
#
# Total GULP energy -198362.781351 kJ/mol
# GULP energy per Si atom -12397.673834 kJ/mol
# Density = 2.025795 g / cm^3
# Si number density = 20.304165 Si / 1000 Ang^3
#
#
#
# Elastic Constant Matrix: (Units=GPa)
#
#
# Indices 1 2 3 4 5 6 
#
# 1 78.9548 23.9372 43.7189 -0.4565 -11.9412 -2.5004
# 2 23.9372 70.1661 46.0877 6.7405 -6.2986 2.4190
# 3 43.7189 46.0877 91.0828 9.4589 -9.1906 15.4198
# 4 -0.4565 6.7405 9.4589 42.0813 -1.2011 -9.2914
# 5 -11.9412 -6.2986 -9.1906 -1.2011 36.9084 2.3568
# 6 -2.5004 2.4190 15.4198 -9.2914 2.3568 27.5496
#
#
#
# Elastic Compliance Matrix: (Units=1/GPa)
#
#
# Indices 1 2 3 4 5 6 
#
# 1 0.019703 0.000237 -0.011388 0.004930 0.003131 0.009536
# 2 0.000237 0.021903 -0.011995 0.000279 0.000526 0.004861
# 3 -0.011388 -0.011995 0.026514 -0.008014 0.001739 -0.017672
# 4 0.004930 0.000279 -0.008014 0.028799 -0.000351 0.014651
# 5 0.003131 0.000526 0.001739 -0.000351 0.028830 -0.003320
# 6 0.009536 0.004861 -0.017672 0.014651 -0.003320 0.051853
#
#
# Mechanical properties :
#
#
# Convention : Reuss Voigt Hill
#
# Bulk Modulus (GPa) = 45.81321 51.96571 48.88946
# Shear Modulus (GPa) = 21.62894 29.73853 25.68373
#
# Velocity S-wave (km/s) = 3.26735 3.83123 3.56047
# Velocity P-wave (km/s) = 6.07014 6.72460 6.40573
#
# Compressibility (1/GPa) = 0.02182776
#
# Stress axis : x y z
#
# Youngs Moduli (GPa) = 50.75264 45.65589 37.71567
#
# Poissons Ratio (x) = -0.01081 0.42950
# Poissons Ratio (y) = -0.01201 0.45241
# Poissons Ratio (z) = 0.57796 0.54766
#
# Static dielectric constant tensor:
#      x y z
#    x 3.848700 0.316810 -0.130600 
#    y 0.316810 4.308080 -0.098330 
#    z -0.130600 -0.098330 3.937600 
# 
# 
# High freq. dielectric constant tensor:
#      x y z
#    x 1.787920 -0.009940 0.000260 
#    y -0.009940 1.796610 0.006980 
#    z 0.000260 0.006980 1.799460 
# 
# From -- ./inp_files/186397.got.cif
#   From: 2010.06.25/outbox.cif.g09.slc.cpg/sg2_94_cif.got.tgz:186397.got - 2010.06.27 13:26:56.
