data_PCOD8010651
_publ_section_title
;
Structure prediction by ZEFSAII (Michael W. Deem and Ramdas Pophale) SiO2 
 PCOD8010651
Probable space group: P -1
;
_chemical_formula_sum "Si O2"
_cell_formula_units_Z 14
_cell_length_a 9.109782
_cell_length_b 12.212150
_cell_length_c 21.049193
_cell_angle_alpha 40.559409
_cell_angle_beta 151.530636
_cell_angle_gamma 136.284595
_cell_volume 714.355907
_symmetry_space_group_name_H-M "P -1"
_symmetry_group_IT_number 2
_symmetry_cell_setting 'triclinic'
loop_
_space_group_symop_operation_xyz
x,y,z
-x,-y,-z
loop_
_atom_site_type_symbol
_atom_site_label
_atom_site_fract_x
_atom_site_fract_y
_atom_site_fract_z
Si Si1 0.090255 0.829615 0.580176
Si Si2 0.332710 0.118248 0.074398
Si Si3 0.812042 0.477484 0.661651
Si Si4 0.299202 0.276430 0.119521
Si Si5 0.424752 0.822693 0.085058
Si Si6 0.399292 0.195145 0.699036
Si Si7 0.387522 0.363558 0.876145
O O1 0.463547 0.838892 0.706896
O O2 0.988758 0.669880 0.662150
O O3 0.915788 0.773570 0.470798
O O4 0.000000 0.000000 0.500000
O O5 0.348512 0.267345 0.066487
O O6 0.565345 0.987901 0.236739
O O7 0.427371 0.201585 0.005621
O O8 0.000000 0.000000 0.000000
O O9 0.500000 0.500000 0.500000
O O10 0.704421 0.345757 0.736621
O O11 0.031468 0.393463 0.734019
O O12 0.370098 0.471963 0.081472
O O13 0.945509 0.202137 0.035016
O O14 0.622903 0.820932 0.226244
O O15 0.530196 0.674243 0.148106
O O16 0.500000 0.000000 0.000000
#
# Coordination Sequence:
#
# PCOD8010651 Si02
#       7
#     2   2   2   2   2   2   2
#     4  10  21  38  62  91 123 151 198 257 305 346
#     4  12  19  35  65  91 118 155 208 255 292 350
#     4   9  20  37  62  87 117 156 202 244 293 353
#     4  11  23  39  60  91 120 157 204 257 304 348
#     4  12  24  40  62  87 125 165 203 241 302 374
#     4  11  21  39  61  94 119 158 205 244 299 359
#     4  11  22  38  58  93 125 158 198 254 303 353
#
# _framework density 19.598072999999999
#
# number of rings (size 3 to 8) (size 9 to 14) (size 15 to 20)
#    0.000    1.143    5.714    0.857    0.000    1.143 
#    0.000    7.143    0.000    0.000    0.000    0.000 
#    0.000    0.000    0.000    0.000    0.000    0.000 
#
# Total GULP energy -173470.227781 kJ/mol
# GULP energy per Si atom -12390.730556 kJ/mol
# Density = 1.955347 g / cm^3
# Si number density = 19.598073 Si / 1000 Ang^3
#
#
#
# Elastic Constant Matrix: (Units=GPa)
#
#
# Indices 1 2 3 4 5 6 
#
# 1 112.3116 40.2907 35.7335 3.0163 -11.1145 -11.1874
# 2 40.2907 90.2978 25.8681 -11.5575 -9.8759 -9.3130
# 3 35.7335 25.8681 98.5619 7.0778 -0.7682 5.2314
# 4 3.0163 -11.5575 7.0778 39.6317 -0.6843 0.4862
# 5 -11.1145 -9.8759 -0.7682 -0.6843 27.9420 1.2057
# 6 -11.1874 -9.3130 5.2314 0.4862 1.2057 32.8556
#
#
#
# Elastic Compliance Matrix: (Units=1/GPa)
#
#
# Indices 1 2 3 4 5 6 
#
# 1 0.012082 -0.003895 -0.003414 -0.001434 0.003151 0.003459
# 2 -0.003895 0.015106 -0.003074 0.005275 0.003695 0.003231
# 3 -0.003414 -0.003074 0.012589 -0.002871 -0.001999 -0.003922
# 4 -0.001434 0.005275 -0.002871 0.027412 0.001844 0.000991
# 5 0.003151 0.003695 -0.001999 0.001844 0.038294 0.001006
# 6 0.003459 0.003231 -0.003922 0.000991 0.001006 0.033103
#
#
# Mechanical properties :
#
#
# Convention : Reuss Voigt Hill
#
# Bulk Modulus (GPa) = 52.60181 56.10621 54.35401
# Shear Modulus (GPa) = 30.17684 33.37112 31.77398
#
# Velocity S-wave (km/s) = 3.92827 4.13095 4.03088
# Velocity P-wave (km/s) = 6.89011 7.17242 7.03268
#
# Compressibility (1/GPa) = 0.01901075
#
# Stress axis : x y z
#
# Youngs Moduli (GPa) = 82.76549 66.20089 79.43279
#
# Poissons Ratio (x) = 0.25786 0.27120
# Poissons Ratio (y) = 0.32238 0.24416
# Poissons Ratio (z) = 0.28258 0.20349
#
# Static dielectric constant tensor:
#      x y z
#    x 3.575430 0.142280 0.239810 
#    y 0.142280 4.406180 -0.232370 
#    z 0.239810 -0.232370 3.560640 
# 
# 
# High freq. dielectric constant tensor:
#      x y z
#    x 1.735270 -0.001100 0.006290 
#    y -0.001100 1.779300 -0.005210 
#    z 0.006290 -0.005210 1.774720 
# 
# From -- ./inp_files/195282.got.cif
#   From: 2010.06.25/outbox.cif.g09.slc.cpg/sg2_98_cif.got.tgz:195282.got - 2010.06.27 13:26:56.
