data_PCOD8010030
_publ_section_title
;
Structure prediction by ZEFSAII (Michael W. Deem and Ramdas Pophale) SiO2 
 PCOD8010030
Probable space group: P -1
;
_chemical_formula_sum "Si O2"
_cell_formula_units_Z 16
_cell_length_a 13.201806
_cell_length_b 8.866610
_cell_length_c 14.214474
_cell_angle_alpha 136.061780
_cell_angle_beta 39.892087
_cell_angle_gamma 118.570320
_cell_volume 730.074357
_symmetry_space_group_name_H-M "P -1"
_symmetry_group_IT_number 2
_symmetry_cell_setting 'triclinic'
loop_
_space_group_symop_operation_xyz
x,y,z
-x,-y,-z
loop_
_atom_site_type_symbol
_atom_site_label
_atom_site_fract_x
_atom_site_fract_y
_atom_site_fract_z
Si Si1 0.356176 0.091367 0.777052
Si Si2 0.655854 0.810966 0.374340
Si Si3 0.779460 0.627884 0.676969
Si Si4 0.767543 0.408564 0.913631
Si Si5 0.988151 0.784605 0.205119
Si Si6 0.897499 0.263607 0.561081
Si Si7 0.530284 0.373573 0.212464
Si Si8 0.749664 0.049179 0.020931
O O1 0.305907 0.058206 0.689299
O O2 0.545900 0.982698 0.599816
O O3 0.322348 0.349576 0.940475
O O4 0.252291 0.982566 0.878942
O O5 0.555446 0.619403 0.332792
O O6 0.826443 0.703147 0.248865
O O7 0.779491 0.396311 0.627110
O O8 0.649487 0.642859 0.694127
O O9 0.754507 0.821352 0.858968
O O10 0.943401 0.624994 0.501662
O O11 0.919064 0.401560 0.874241
O O12 0.817567 0.275952 0.725028
O O13 0.641302 0.285643 0.003810
O O14 0.100082 0.831991 0.059237
O O15 0.935440 0.007947 0.399183
O O16 0.583177 0.208105 0.186249
#
# Coordination Sequence:
#
# PCOD8010030 Si02
#       8
#     2   2   2   2   2   2   2   2
#     4  10  22  40  61  85 124 157 208 245 292 359
#     4  10  24  43  58  90 121 165 203 243 298 358
#     4  10  21  38  61  94 124 152 197 255 303 356
#     4  10  21  40  61  95 119 157 202 249 302 354
#     4  10  23  40  65  87 128 158 196 250 299 358
#     4  10  21  37  64  92 121 156 199 247 309 355
#     4  10  23  39  64  86 126 160 199 248 299 357
#     4  10  21  41  62  92 117 159 203 249 304 351
#
# _framework density 21.915575
#
# number of rings (size 3 to 8) (size 9 to 14) (size 15 to 20)
#    0.000    2.000    1.250    0.750    5.250    8.000 
#    0.000    2.500    0.000    0.000    0.000    0.000 
#    0.000    0.000    0.000    0.000    0.000    0.000 
#
# Total GULP energy -198319.663257 kJ/mol
# GULP energy per Si atom -12394.978954 kJ/mol
# Density = 2.186569 g / cm^3
# Si number density = 21.915575 Si / 1000 Ang^3
#
#
#
# Elastic Constant Matrix: (Units=GPa)
#
#
# Indices 1 2 3 4 5 6 
#
# 1 64.2987 3.8347 15.1951 6.2750 -16.6368 7.6934
# 2 3.8347 55.6228 29.9756 2.5115 9.0076 -11.9129
# 3 15.1951 29.9756 97.7461 -1.2828 6.9333 -8.4050
# 4 6.2750 2.5115 -1.2828 21.0395 -9.5098 2.0203
# 5 -16.6368 9.0076 6.9333 -9.5098 30.7672 -0.0710
# 6 7.6934 -11.9129 -8.4050 2.0203 -0.0710 29.7212
#
#
#
# Elastic Compliance Matrix: (Units=1/GPa)
#
#
# Indices 1 2 3 4 5 6 
#
# 1 0.020993 -0.003227 -0.003887 0.000681 0.013365 -0.007841
# 2 -0.003227 0.025522 -0.005841 -0.008085 -0.010377 0.009938
# 3 -0.003887 -0.005841 0.013048 0.001081 -0.002993 0.002274
# 4 0.000681 -0.008085 0.001081 0.058296 0.020494 -0.007025
# 5 0.013365 -0.010377 -0.002993 0.020494 0.049753 -0.009739
# 6 -0.007841 0.009938 0.002274 -0.007025 -0.009739 0.040757
#
#
# Mechanical properties :
#
#
# Convention : Reuss Voigt Hill
#
# Bulk Modulus (GPa) = 29.71409 35.07536 32.39473
# Shear Modulus (GPa) = 20.36687 27.54973 23.95830
#
# Velocity S-wave (km/s) = 3.05180 3.54939 3.30996
# Velocity P-wave (km/s) = 5.09960 5.73036 5.42415
#
# Compressibility (1/GPa) = 0.03365407
#
# Stress axis : x y z
#
# Youngs Moduli (GPa) = 47.63424 39.18142 76.63960
#
# Poissons Ratio (x) = 0.12643 0.29792
# Poissons Ratio (y) = 0.15371 0.44763
# Poissons Ratio (z) = 0.18516 0.22885
#
# Static dielectric constant tensor:
#      x y z
#    x 3.837020 -0.323430 -0.275500 
#    y -0.323430 3.826550 -0.016520 
#    z -0.275500 -0.016520 4.114490 
# 
# 
# High freq. dielectric constant tensor:
#      x y z
#    x 1.845650 -0.024490 -0.016410 
#    y -0.024490 1.849150 0.006870 
#    z -0.016410 0.006870 1.873680 
# 
# From -- ./inp_files/351704.got.cif
#   From: 2010.06.25/outbox.cif.g09.slc.cpg/sg2_176_cif.got.tgz:351704.got - 2010.06.27 13:26:56.
