data_PCOD8010011
_publ_section_title
;
Structure prediction by ZEFSAII (Michael W. Deem and Ramdas Pophale) SiO2 
 PCOD8010011
Probable space group: P -1
;
_chemical_formula_sum "Si O2"
_cell_formula_units_Z 14
_cell_length_a 11.839546
_cell_length_b 18.464968
_cell_length_c 14.804245
_cell_angle_alpha 147.896741
_cell_angle_beta 27.741244
_cell_angle_gamma 151.732497
_cell_volume 679.111157
_symmetry_space_group_name_H-M "P -1"
_symmetry_group_IT_number 2
_symmetry_cell_setting 'triclinic'
loop_
_space_group_symop_operation_xyz
x,y,z
-x,-y,-z
loop_
_atom_site_type_symbol
_atom_site_label
_atom_site_fract_x
_atom_site_fract_y
_atom_site_fract_z
Si Si1 0.352112 0.819270 0.209022
Si Si2 0.726720 0.679425 0.827017
Si Si3 0.879072 0.844670 0.482100
Si Si4 0.182446 0.872871 0.565187
Si Si5 0.482432 0.317053 0.593199
Si Si6 0.029220 0.950917 0.207317
Si Si7 0.830231 0.160729 0.174857
O O1 0.184153 0.771066 0.371598
O O2 0.117677 0.796343 0.276128
O O3 0.605267 0.004958 0.226187
O O4 0.490143 0.711294 0.985409
O O5 0.576136 0.490436 0.746677
O O6 0.997987 0.746035 0.639198
O O7 0.854279 0.765385 0.924947
O O8 0.619131 0.699745 0.457668
O O9 0.000000 0.000000 0.500000
O O10 0.783962 0.894299 0.695057
O O11 0.500000 0.000000 0.500000
O O12 0.054491 0.981240 0.746493
O O13 0.232925 0.187868 0.698073
O O14 0.749397 0.294727 0.384252
O O15 0.189428 0.879517 0.962116
#
# Coordination Sequence:
#
# PCOD8010011 Si02
#       7
#     2   2   2   2   2   2   2
#     4  11  21  38  64  89 119 159 211 247 287 364
#     4  12  25  37  62  97 126 154 195 256 315 349
#     4   9  19  42  63  86 118 164 207 248 286 357
#     4  11  19  36  61  89 119 159 200 246 296 361
#     4  11  24  43  58  90 131 156 198 257 300 354
#     4  10  21  37  64  88 112 164 211 239 291 361
#     4  12  21  38  65  91 117 163 204 244 303 365
#
# _framework density 20.615182999999998
#
# number of rings (size 3 to 8) (size 9 to 14) (size 15 to 20)
#    0.000    1.143    7.143    1.714    0.000    2.857 
#    0.000    2.857    0.000    0.000    0.000    0.000 
#    0.000    0.000    0.000    0.000    0.000    0.000 
#
# Total GULP energy -173469.558954 kJ/mol
# GULP energy per Si atom -12390.682782 kJ/mol
# Density = 2.056826 g / cm^3
# Si number density = 20.615183 Si / 1000 Ang^3
#
#
#
# Elastic Constant Matrix: (Units=GPa)
#
#
# Indices 1 2 3 4 5 6 
#
# 1 93.4284 11.1083 24.4176 3.0334 1.8635 6.5273
# 2 11.1083 51.5654 15.3104 7.9504 8.6095 1.5035
# 3 24.4176 15.3104 99.6043 3.9816 1.3443 -8.4443
# 4 3.0334 7.9504 3.9816 29.2508 -6.6274 2.6198
# 5 1.8635 8.6095 1.3443 -6.6274 41.0978 1.4043
# 6 6.5273 1.5035 -8.4443 2.6198 1.4043 19.9659
#
#
#
# Elastic Compliance Matrix: (Units=1/GPa)
#
#
# Indices 1 2 3 4 5 6 
#
# 1 0.012072 -0.001532 -0.003167 0.000075 0.000066 -0.005185
# 2 -0.001532 0.022581 -0.002844 -0.006765 -0.005621 -0.001120
# 3 -0.003167 -0.002844 0.011841 -0.001094 -0.000043 0.006404
# 4 0.000075 -0.006765 -0.001094 0.038442 0.007839 -0.005573
# 5 0.000066 -0.005621 -0.000043 0.007839 0.026859 -0.002534
# 6 -0.005185 -0.001120 0.006404 -0.005573 -0.002534 0.055483
#
#
# Mechanical properties :
#
#
# Convention : Reuss Voigt Hill
#
# Bulk Modulus (GPa) = 31.83963 38.47451 35.15707
# Shear Modulus (GPa) = 25.92916 30.98035 28.45475
#
# Velocity S-wave (km/s) = 3.55035 3.88079 3.71924
# Velocity P-wave (km/s) = 5.68198 6.22772 5.96110
#
# Compressibility (1/GPa) = 0.03140740
#
# Stress axis : x y z
#
# Youngs Moduli (GPa) = 82.83772 44.28432 84.45502
#
# Poissons Ratio (x) = 0.06782 0.26751
# Poissons Ratio (y) = 0.12687 0.24021
# Poissons Ratio (z) = 0.26238 0.12595
#
# Static dielectric constant tensor:
#      x y z
#    x 4.523620 0.152210 0.091040 
#    y 0.152210 3.453740 0.006290 
#    z 0.091040 0.006290 3.769460 
# 
# 
# High freq. dielectric constant tensor:
#      x y z
#    x 1.819430 -0.005480 0.000520 
#    y -0.005480 1.768890 0.000030 
#    z 0.000520 0.000030 1.808250 
# 
# From -- ./inp_files/181010.got.cif
#   From: 2010.06.25/outbox.cif.g09.slc.cpg/sg2_91_cif.got.tgz:181010.got - 2010.06.27 13:26:56.
