data_PCOD8010042
_publ_section_title
;
Structure prediction by ZEFSAII (Michael W. Deem and Ramdas Pophale) SiO2 
 PCOD8010042
Probable space group: P -1
;
_chemical_formula_sum "Si O2"
_cell_formula_units_Z 16
_cell_length_a 19.626708
_cell_length_b 11.939498
_cell_length_c 9.396790
_cell_angle_alpha 127.561325
_cell_angle_beta 45.986472
_cell_angle_gamma 152.727995
_cell_volume 725.421242
_symmetry_space_group_name_H-M "P -1"
_symmetry_group_IT_number 2
_symmetry_cell_setting 'triclinic'
loop_
_space_group_symop_operation_xyz
x,y,z
-x,-y,-z
loop_
_atom_site_type_symbol
_atom_site_label
_atom_site_fract_x
_atom_site_fract_y
_atom_site_fract_z
Si Si1 0.137699 0.964853 0.674144
Si Si2 0.367946 0.405031 0.869766
Si Si3 0.168573 0.683538 0.816717
Si Si4 0.167433 0.701397 0.501292
Si Si5 0.802893 0.973958 0.940098
Si Si6 0.735468 0.770967 0.581526
Si Si7 0.240235 0.533771 0.101761
Si Si8 0.182461 0.442275 0.793762
O O1 0.230003 0.939024 0.586755
O O2 0.945941 0.737402 0.805009
O O3 0.230136 0.209941 0.798814
O O4 0.164611 0.008633 0.501018
O O5 0.544113 0.570062 0.690364
O O6 0.321985 0.271314 0.978045
O O7 0.363324 0.568948 0.019390
O O8 0.143526 0.623991 0.638943
O O9 0.248172 0.642172 0.742629
O O10 0.000000 0.500000 0.000000
O O11 0.268867 0.952328 0.904012
O O12 0.285198 0.735403 0.273072
O O13 0.000000 0.500000 0.500000
O O14 0.812744 0.910720 0.726092
O O15 0.985426 0.201996 0.918137
O O16 0.761226 0.637358 0.413395
O O17 0.265922 0.578192 0.929388
#
# Coordination Sequence:
#
# PCOD8010042 Si02
#       8
#     2   2   2   2   2   2   2   2
#     4  11  21  41  65  90 120 162 208 251 303 356
#     4  12  23  45  61  87 129 163 208 251 307 357
#     4  10  21  38  63  92 125 155 201 260 303 358
#     4  10  21  37  64  94 120 157 204 256 306 356
#     4  11  23  42  64  89 124 163 202 251 310 365
#     4  12  27  38  64  92 125 166 203 256 300 366
#     4  11  23  39  68  93 121 160 205 259 303 361
#     4  11  23  41  63  96 124 156 207 256 305 361
#
# _framework density 22.056151
#
# number of rings (size 3 to 8) (size 9 to 14) (size 15 to 20)
#    0.000    1.000    3.750    4.500   10.500    0.000 
#    0.000    2.500    0.000    0.000    0.000    0.000 
#    0.000    0.000    0.000    0.000    0.000    0.000 
#
# Total GULP energy -198372.525173 kJ/mol
# GULP energy per Si atom -12398.282823 kJ/mol
# Density = 2.200595 g / cm^3
# Si number density = 22.056151 Si / 1000 Ang^3
#
#
#
# Elastic Constant Matrix: (Units=GPa)
#
#
# Indices 1 2 3 4 5 6 
#
# 1 146.1249 33.6320 67.9697 -0.1610 5.9711 -43.4723
# 2 33.6320 13.9574 27.0903 4.8036 -5.5095 -7.5721
# 3 67.9697 27.0903 119.0429 22.3327 6.7150 -16.5585
# 4 -0.1610 4.8036 22.3327 26.3789 0.6833 -4.4853
# 5 5.9711 -5.5095 6.7150 0.6833 60.4956 4.7704
# 6 -43.4723 -7.5721 -16.5585 -4.4853 4.7704 29.9592
#
#
#
# Elastic Compliance Matrix: (Units=1/GPa)
#
#
# Indices 1 2 3 4 5 6 
#
# 1 0.041327 -0.088534 -0.001292 0.025211 -0.015686 0.043149
# 2 -0.088534 0.341304 -0.030828 -0.050587 0.049708 -0.074731
# 3 -0.001292 -0.030828 0.018189 -0.009733 -0.004562 -0.000344
# 4 0.025211 -0.050587 -0.009733 0.060667 -0.008982 0.028930
# 5 -0.015686 0.049708 -0.004562 -0.008982 0.024632 -0.017986
# 6 0.043149 -0.074731 -0.000344 0.028930 -0.017986 0.084107
#
#
# Mechanical properties :
#
#
# Convention : Reuss Voigt Hill
#
# Bulk Modulus (GPa) = 6.26913 59.61211 32.94062
# Shear Modulus (GPa) = 5.78233 33.39562 19.58897
#
# Velocity S-wave (km/s) = 1.62090 3.89539 2.98340
# Velocity P-wave (km/s) = 2.52024 6.87882 5.18024
#
# Compressibility (1/GPa) = 0.15951178
#
# Stress axis : x y z
#
# Youngs Moduli (GPa) = 24.19738 2.92994 54.97887
#
# Poissons Ratio (x) = 0.25940 0.07102
# Poissons Ratio (y) = 2.14230 1.69489
# Poissons Ratio (z) = 0.03126 0.09032
#
# Static dielectric constant tensor:
#      x y z
#    x 4.510420 -0.609260 -0.262200 
#    y -0.609260 3.890410 0.452280 
#    z -0.262200 0.452280 4.334390 
# 
# 
# High freq. dielectric constant tensor:
#      x y z
#    x 1.880070 -0.024930 0.005600 
#    y -0.024930 1.836370 0.021340 
#    z 0.005600 0.021340 1.879600 
# 
# From -- ./inp_files/207806.got.cif
#   From: 2010.06.25/outbox.cif.g09.slc.cpg/sg2_104_cif.got.tgz:207806.got - 2010.06.27 13:26:56.
