data_PCOD8010327
_publ_section_title
;
Structure prediction by ZEFSAII (Michael W. Deem and Ramdas Pophale) SiO2 
 PCOD8010327
Probable space group: P -1
;
_chemical_formula_sum "Si O2"
_cell_formula_units_Z 14
_cell_length_a 13.659820
_cell_length_b 11.144529
_cell_length_c 11.725757
_cell_angle_alpha 127.249486
_cell_angle_beta 130.025354
_cell_angle_gamma 30.420016
_cell_volume 686.173532
_symmetry_space_group_name_H-M "P -1"
_symmetry_group_IT_number 2
_symmetry_cell_setting 'triclinic'
loop_
_space_group_symop_operation_xyz
x,y,z
-x,-y,-z
loop_
_atom_site_type_symbol
_atom_site_label
_atom_site_fract_x
_atom_site_fract_y
_atom_site_fract_z
Si Si1 0.760536 0.273031 0.354876
Si Si2 0.185024 0.442723 0.820987
Si Si3 0.556800 0.087347 0.309112
Si Si4 0.416902 0.379359 0.163303
Si Si5 0.222487 0.805840 0.418848
Si Si6 0.646004 0.657657 0.344738
Si Si7 0.275245 0.178901 0.324047
O O1 0.637755 0.235441 0.204153
O O2 0.749584 0.302738 0.500973
O O3 0.658295 0.508430 0.353812
O O4 0.989176 0.048095 0.354930
O O5 0.229629 0.487228 0.761122
O O6 0.946533 0.660969 0.793882
O O7 0.267980 0.196926 0.737761
O O8 0.288212 0.442659 0.997570
O O9 0.448906 0.212739 0.178915
O O10 0.659186 0.144887 0.466535
O O11 0.381951 0.193245 0.323376
O O12 0.308509 0.620274 0.279468
O O13 0.740273 0.722149 0.509283
O O14 0.408778 0.904983 0.280474
#
# Coordination Sequence:
#
# PCOD8010327 Si02
#       7
#     2   2   2   2   2   2   2
#     4  10  21  39  62  85 116 152 194 241 283 337
#     4  11  24  38  58  88 121 154 189 234 293 346
#     4  10  21  39  62  87 114 151 198 240 282 340
#     4  11  23  38  58  90 122 149 188 240 293 345
#     4  10  21  38  65  90 111 150 197 238 288 341
#     4  10  21  38  59  84 114 154 198 238 280 341
#     4  10  21  38  61  84 114 154 198 240 281 336
#
# _framework density 20.403001
#
# number of rings (size 3 to 8) (size 9 to 14) (size 15 to 20)
#    0.000    1.714    0.000    5.143    0.000    9.143 
#    0.000    1.429    0.000    0.000    0.000    0.000 
#    0.000    0.000    0.000    0.000    0.000    0.000 
#
# Total GULP energy -173645.697357 kJ/mol
# GULP energy per Si atom -12403.264097 kJ/mol
# Density = 2.035656 g / cm^3
# Si number density = 20.403001 Si / 1000 Ang^3
#
#
#
# Elastic Constant Matrix: (Units=GPa)
#
#
# Indices 1 2 3 4 5 6 
#
# 1 109.2532 71.8198 53.6883 -16.9923 -2.1413 1.4373
# 2 71.8198 104.4626 50.7343 -16.8515 3.8995 -0.5783
# 3 53.6883 50.7343 105.2646 -22.4765 0.8140 -10.2211
# 4 -16.9923 -16.8515 -22.4765 32.3580 -4.4069 7.9387
# 5 -2.1413 3.8995 0.8140 -4.4069 15.3164 -7.6024
# 6 1.4373 -0.5783 -10.2211 7.9387 -7.6024 39.7258
#
#
#
# Elastic Compliance Matrix: (Units=1/GPa)
#
#
# Indices 1 2 3 4 5 6 
#
# 1 0.018678 -0.010711 -0.003989 0.002543 0.005644 -0.001286
# 2 -0.010711 0.019145 -0.003593 0.001385 -0.006683 -0.001814
# 3 -0.003989 -0.003593 0.014827 0.005924 0.002901 0.003278
# 4 0.002543 0.001385 0.005924 0.039426 0.008665 -0.004768
# 5 0.005644 -0.006683 0.002901 0.008665 0.076773 0.013405
# 6 -0.001286 -0.001814 0.003278 -0.004768 0.013405 0.029554
#
#
# Mechanical properties :
#
#
# Convention : Reuss Voigt Hill
#
# Bulk Modulus (GPa) = 62.25637 74.60723 68.43180
# Shear Modulus (GPa) = 20.80357 26.99590 23.89974
#
# Velocity S-wave (km/s) = 3.19663 3.64144 3.42626
# Velocity P-wave (km/s) = 6.64862 7.37063 7.01892
#
# Compressibility (1/GPa) = 0.01606261
#
# Stress axis : x y z
#
# Youngs Moduli (GPa) = 53.53940 52.23360 67.44502
#
# Poissons Ratio (x) = 0.55950 0.26905
# Poissons Ratio (y) = 0.57348 0.24232
# Poissons Ratio (z) = 0.21358 0.18767
#
# Static dielectric constant tensor:
#      x y z
#    x 3.775200 -0.033680 -0.034120 
#    y -0.033680 3.838300 -0.186150 
#    z -0.034120 -0.186150 3.545640 
# 
# 
# High freq. dielectric constant tensor:
#      x y z
#    x 1.804280 0.000060 -0.004340 
#    y 0.000060 1.808370 -0.011810 
#    z -0.004340 -0.011810 1.779590 
# 
# From -- ./inp_files/246039.got.cif
#   From: 2010.06.25/outbox.cif.g09.slc.cpg/sg2_124_cif.got.tgz:246039.got - 2010.06.27 13:26:56.
