data_PCOD8010594
_publ_section_title
;
Structure prediction by ZEFSAII (Michael W. Deem and Ramdas Pophale) SiO2 
 PCOD8010594
Probable space group: P -1
;
_chemical_formula_sum "Si O2"
_cell_formula_units_Z 12
_cell_length_a 7.769668
_cell_length_b 15.921947
_cell_length_c 7.428281
_cell_angle_alpha 62.976767
_cell_angle_beta 140.363535
_cell_angle_gamma 113.293725
_cell_volume 520.524287
_symmetry_space_group_name_H-M "P -1"
_symmetry_group_IT_number 2
_symmetry_cell_setting 'triclinic'
loop_
_space_group_symop_operation_xyz
x,y,z
-x,-y,-z
loop_
_atom_site_type_symbol
_atom_site_label
_atom_site_fract_x
_atom_site_fract_y
_atom_site_fract_z
Si Si1 0.331113 0.598963 0.089623
Si Si2 0.390897 0.203046 0.333551
Si Si3 0.047400 0.690808 0.275810
Si Si4 0.272876 0.063618 0.686541
Si Si5 0.667599 0.781445 0.120402
Si Si6 0.858935 0.499776 0.604415
O O1 0.419199 0.710891 0.060787
O O2 0.589262 0.545862 0.281346
O O3 0.220079 0.568245 0.223780
O O4 0.098335 0.578279 0.773515
O O5 0.647419 0.267874 0.546911
O O6 0.351660 0.110355 0.513584
O O7 0.427684 0.168475 0.189705
O O8 0.135935 0.268882 0.072535
O O9 0.034427 0.575364 0.382541
O O10 0.925226 0.722278 0.337344
O O11 0.232387 0.143529 0.722921
O O12 0.000000 0.000000 0.500000
O O13 0.500000 0.000000 0.000000
#
# Coordination Sequence:
#
# PCOD8010594 Si02
#       6
#     2   2   2   2   2   2
#     4  10  22  37  63  94 135 177 221 267 312 383
#     4  10  24  45  66 100 131 173 210 275 326 398
#     4  10  22  42  66  96 139 176 211 274 315 384
#     4  12  28  47  74  98 127 171 217 276 340 405
#     4  10  27  43  70  97 134 175 220 268 340 382
#     4  10  21  38  61  99 133 178 225 262 308 375
#
# _framework density 23.05368
#
# number of rings (size 3 to 8) (size 9 to 14) (size 15 to 20)
#    1.000    0.667    0.000    3.000    4.667    5.333 
#    0.000    0.000    0.000    0.000    0.000    0.000 
#    0.000    0.000    0.000    0.000    0.000    0.000 
#
# Total GULP energy -148792.424539 kJ/mol
# GULP energy per Si atom -12399.368712 kJ/mol
# Density = 2.300121 g / cm^3
# Si number density = 23.053680 Si / 1000 Ang^3
#
#
#
# Elastic Constant Matrix: (Units=GPa)
#
#
# Indices 1 2 3 4 5 6 
#
# 1 64.4463 60.6305 38.9567 9.2011 -3.8868 1.4062
# 2 60.6305 168.5112 62.4481 24.3544 1.7386 14.1981
# 3 38.9567 62.4481 158.7476 13.8832 15.2439 15.0241
# 4 9.2011 24.3544 13.8832 45.4706 10.3599 3.6243
# 5 -3.8868 1.7386 15.2439 10.3599 38.7592 -3.2854
# 6 1.4062 14.1981 15.0241 3.6243 -3.2854 47.7893
#
#
#
# Elastic Compliance Matrix: (Units=1/GPa)
#
#
# Indices 1 2 3 4 5 6 
#
# 1 0.025786 -0.008002 -0.003874 -0.001162 0.005056 0.003272
# 2 -0.008002 0.009991 -0.001503 -0.003112 0.000001 -0.002024
# 3 -0.003874 -0.001503 0.008428 0.000083 -0.003858 -0.002361
# 4 -0.001162 -0.003112 0.000083 0.025576 -0.006972 -0.001486
# 5 0.005056 0.000001 -0.003858 -0.006972 0.029998 0.003655
# 6 0.003272 -0.002024 -0.002361 -0.001486 0.003655 0.022536
#
#
# Mechanical properties :
#
#
# Convention : Reuss Voigt Hill
#
# Bulk Modulus (GPa) = 57.31523 79.53064 68.42294
# Shear Modulus (GPa) = 32.28141 41.71513 36.99827
#
# Velocity S-wave (km/s) = 3.74608 4.25841 4.01043
# Velocity P-wave (km/s) = 6.60503 7.66496 7.15465
#
# Compressibility (1/GPa) = 0.01744737
#
# Stress axis : x y z
#
# Youngs Moduli (GPa) = 38.78021 100.09251 118.65694
#
# Poissons Ratio (x) = 0.80098 0.45963
# Poissons Ratio (y) = 0.31033 0.17831
# Poissons Ratio (z) = 0.15022 0.15041
#
# Static dielectric constant tensor:
#      x y z
#    x 4.249630 0.236350 -0.060330 
#    y 0.236350 4.074140 -0.022330 
#    z -0.060330 -0.022330 4.147760 
# 
# 
# High freq. dielectric constant tensor:
#      x y z
#    x 1.921130 0.017370 -0.003530 
#    y 0.017370 1.901320 0.003400 
#    z -0.003530 0.003400 1.922150 
# 
# From -- ./inp_files/115202.got.cif
#   From: 2010.06.25/outbox.cif.g09.slc.cpg/sg2_58_cif.got.tgz:115202.got - 2010.06.27 13:26:56.
