data_PCOD8010140
_publ_section_title
;
Structure prediction by ZEFSAII (Michael W. Deem and Ramdas Pophale) SiO2 
 PCOD8010140
Probable space group: P -1
;
_chemical_formula_sum "Si O2"
_cell_formula_units_Z 16
_cell_length_a 18.057438
_cell_length_b 12.404374
_cell_length_c 9.735292
_cell_angle_alpha 136.906288
_cell_angle_beta 122.305299
_cell_angle_gamma 31.314100
_cell_volume 749.322749
_symmetry_space_group_name_H-M "P -1"
_symmetry_group_IT_number 2
_symmetry_cell_setting 'triclinic'
loop_
_space_group_symop_operation_xyz
x,y,z
-x,-y,-z
loop_
_atom_site_type_symbol
_atom_site_label
_atom_site_fract_x
_atom_site_fract_y
_atom_site_fract_z
Si Si1 0.899800 0.570966 0.585448
Si Si2 0.411001 0.841356 0.164563
Si Si3 0.402194 0.517774 0.724482
Si Si4 0.146303 0.678597 0.231425
Si Si5 0.074443 0.441662 0.880841
Si Si6 0.123854 0.720626 0.560177
Si Si7 0.594466 0.087510 0.287573
Si Si8 0.454457 0.206981 0.995116
O O1 0.903669 0.376723 0.443797
O O2 0.000000 0.500000 0.500000
O O3 0.950793 0.578444 0.779366
O O4 0.735988 0.859072 0.654215
O O5 0.504456 0.687801 0.250754
O O6 0.377615 0.735365 0.940930
O O7 0.505437 0.821485 0.147772
O O8 0.241011 0.672519 0.696152
O O9 0.496978 0.353652 0.525747
O O10 0.180812 0.585934 0.340101
O O11 0.298147 0.511154 0.157880
O O12 0.091220 0.602503 0.032802
O O13 0.032122 0.979207 0.358914
O O14 0.232088 0.129206 0.717703
O O15 0.000000 0.500000 0.000000
O O16 0.568427 0.133184 0.140219
O O17 0.543311 0.984885 0.176055
#
# Coordination Sequence:
#
# PCOD8010140 Si02
#       8
#     2   2   2   2   2   2   2   2
#     4  12  26  44  67  99 131 178 221 271 333 397
#     4  11  26  43  65  94 137 171 217 275 327 395
#     4  11  24  45  64  96 132 175 218 269 333 393
#     4  10  22  41  66 101 130 173 215 276 328 388
#     4  11  21  39  65  97 134 171 216 273 325 387
#     4  11  23  42  68  94 134 171 224 271 328 392
#     4  10  21  37  66  93 128 169 217 267 322 391
#     4  10  21  40  65  98 129 165 221 266 329 383
#
# _framework density 21.352613000000002
#
# number of rings (size 3 to 8) (size 9 to 14) (size 15 to 20)
#    0.000    1.250    2.500    3.000    1.750    7.500 
#    0.000    1.875    0.000    0.000    0.000    0.000 
#    0.000    0.000    0.000    0.000    0.000    0.000 
#
# Total GULP energy -198273.081195 kJ/mol
# GULP energy per Si atom -12392.067575 kJ/mol
# Density = 2.130401 g / cm^3
# Si number density = 21.352613 Si / 1000 Ang^3
#
#
#
# Elastic Constant Matrix: (Units=GPa)
#
#
# Indices 1 2 3 4 5 6 
#
# 1 91.7786 33.7080 14.0925 6.7106 -26.6361 4.0903
# 2 33.7080 90.4574 14.3712 1.9763 0.3606 1.3075
# 3 14.0925 14.3712 54.5346 3.5255 -5.2519 -1.3652
# 4 6.7106 1.9763 3.5255 36.6874 -9.4888 2.5270
# 5 -26.6361 0.3606 -5.2519 -9.4888 35.2719 0.0278
# 6 4.0903 1.3075 -1.3652 2.5270 0.0278 28.0999
#
#
#
# Elastic Compliance Matrix: (Units=1/GPa)
#
#
# Indices 1 2 3 4 5 6 
#
# 1 0.017279 -0.006208 -0.001685 0.000890 0.013102 -0.002401
# 2 -0.006208 0.013801 -0.002498 -0.000782 -0.005412 0.000216
# 3 -0.001685 -0.002498 0.019674 -0.001194 0.001360 0.001423
# 4 0.000890 -0.000782 -0.001194 0.029639 0.008478 -0.002825
# 5 0.013102 -0.005412 0.001360 0.008478 0.040786 -0.002392
# 6 -0.002401 0.000216 0.001423 -0.002825 -0.002392 0.036252
#
#
# Mechanical properties :
#
#
# Convention : Reuss Voigt Hill
#
# Bulk Modulus (GPa) = 33.36387 40.12377 36.74382
# Shear Modulus (GPa) = 26.56689 31.65177 29.10933
#
# Velocity S-wave (km/s) = 3.53115 3.85429 3.69625
# Velocity P-wave (km/s) = 5.68194 6.21605 5.95498
#
# Compressibility (1/GPa) = 0.02997254
#
# Stress axis : x y z
#
# Youngs Moduli (GPa) = 57.87317 72.46010 50.82734
#
# Poissons Ratio (x) = 0.44984 0.08564
# Poissons Ratio (y) = 0.35929 0.12695
# Poissons Ratio (z) = 0.09751 0.18099
#
# Static dielectric constant tensor:
#      x y z
#    x 3.813920 -0.100930 -0.042490 
#    y -0.100930 3.895750 0.046380 
#    z -0.042490 0.046380 3.799720 
# 
# 
# High freq. dielectric constant tensor:
#      x y z
#    x 1.837780 -0.008810 -0.002940 
#    y -0.008810 1.853250 -0.003420 
#    z -0.002940 -0.003420 1.835640 
# 
# From -- ./inp_files/333791.got.cif
#   From: 2010.06.25/outbox.cif.g09.slc.cpg/sg2_167_cif.got.tgz:333791.got - 2010.06.27 13:26:56.
