data_PCOD8010170
_publ_section_title
;
Structure prediction by ZEFSAII (Michael W. Deem and Ramdas Pophale) SiO2 
 PCOD8010170
Probable space group: P -1
;
_chemical_formula_sum "Si O2"
_cell_formula_units_Z 14
_cell_length_a 9.877390
_cell_length_b 12.327617
_cell_length_c 11.702207
_cell_angle_alpha 123.386077
_cell_angle_beta 141.277006
_cell_angle_gamma 44.810974
_cell_volume 628.190172
_symmetry_space_group_name_H-M "P -1"
_symmetry_group_IT_number 2
_symmetry_cell_setting 'triclinic'
loop_
_space_group_symop_operation_xyz
x,y,z
-x,-y,-z
loop_
_atom_site_type_symbol
_atom_site_label
_atom_site_fract_x
_atom_site_fract_y
_atom_site_fract_z
Si Si1 0.630415 0.175327 0.445463
Si Si2 0.328689 0.676464 0.224195
Si Si3 0.599448 0.134054 0.048715
Si Si4 0.028181 0.836083 0.519759
Si Si5 0.328427 0.681975 0.975663
Si Si6 0.118724 0.599375 0.605945
Si Si7 0.224292 0.205883 0.037779
O O1 0.605596 0.227456 0.590301
O O2 0.354318 0.257557 0.248875
O O3 0.817459 0.218807 0.530143
O O4 0.753217 0.991718 0.410090
O O5 0.577829 0.504510 0.283751
O O6 0.260456 0.757683 0.100851
O O7 0.081898 0.670968 0.096626
O O8 0.536861 0.244396 0.962213
O O9 0.333841 0.198051 0.978800
O O10 0.807564 0.130900 0.266161
O O11 0.721460 0.960023 0.986684
O O12 0.983079 0.706751 0.467917
O O13 0.085229 0.706755 0.755693
O O14 0.500000 0.500000 0.000000
O O15 0.000000 0.500000 0.500000
#
# Coordination Sequence:
#
# PCOD8010170 Si02
#       7
#     2   2   2   2   2   2   2
#     4  10  21  38  66  95 124 157 206 261 306 361
#     4  11  23  41  63  96 126 158 213 262 293 374
#     4   9  18  39  62  89 125 164 199 250 317 366
#     4   9  19  41  63  90 128 164 201 254 314 368
#     4   9  21  41  59  83 127 166 199 249 310 365
#     4  10  23  43  64  85 126 173 205 247 320 371
#     4  10  21  37  67  95 122 158 208 257 309 362
#
# _framework density 22.286245999999998
#
# number of rings (size 3 to 8) (size 9 to 14) (size 15 to 20)
#    0.000    2.286    1.429    0.000    4.000    3.429 
#    0.000   12.857    0.000    0.000    0.000    0.000 
#    0.000    0.000    0.000    0.000    0.000    0.000 
#
# Total GULP energy -173516.596818 kJ/mol
# GULP energy per Si atom -12394.042630 kJ/mol
# Density = 2.223552 g / cm^3
# Si number density = 22.286246 Si / 1000 Ang^3
#
#
#
# Elastic Constant Matrix: (Units=GPa)
#
#
# Indices 1 2 3 4 5 6 
#
# 1 109.6200 36.3352 32.9119 10.4809 -18.4106 20.0701
# 2 36.3352 48.2551 13.9693 3.7195 -3.6737 22.2189
# 3 32.9119 13.9693 72.1536 5.4660 -3.3016 -15.0343
# 4 10.4809 3.7195 5.4660 30.6178 -8.4772 2.3594
# 5 -18.4106 -3.6737 -3.3016 -8.4772 39.8352 1.1485
# 6 20.0701 22.2189 -15.0343 2.3594 1.1485 48.7978
#
#
#
# Elastic Compliance Matrix: (Units=1/GPa)
#
#
# Indices 1 2 3 4 5 6 
#
# 1 0.015357 -0.006698 -0.006456 -0.001266 0.005829 -0.005332
# 2 -0.006698 0.034719 -0.006866 0.000494 0.000080 -0.015195
# 3 -0.006456 -0.006866 0.020763 -0.002379 -0.002759 0.012359
# 4 -0.001266 0.000494 -0.002379 0.035546 0.006895 -0.002318
# 5 0.005829 0.000080 -0.002759 0.006895 0.029168 -0.004304
# 6 -0.005332 -0.015195 0.012359 -0.002318 -0.004304 0.033625
#
#
# Mechanical properties :
#
#
# Convention : Reuss Voigt Hill
#
# Bulk Modulus (GPa) = 32.47077 44.05127 38.26102
# Shear Modulus (GPa) = 22.78051 33.63766 28.20909
#
# Velocity S-wave (km/s) = 3.20062 3.88925 3.56161
# Velocity P-wave (km/s) = 5.31603 6.32276 5.84112
#
# Compressibility (1/GPa) = 0.03079693
#
# Stress axis : x y z
#
# Youngs Moduli (GPa) = 65.11529 28.80264 48.16320
#
# Poissons Ratio (x) = 0.19293 0.31096
# Poissons Ratio (y) = 0.43617 0.33070
# Poissons Ratio (z) = 0.42042 0.19776
#
# Static dielectric constant tensor:
#      x y z
#    x 4.430940 0.111870 -0.404220 
#    y 0.111870 3.744650 -0.046580 
#    z -0.404220 -0.046580 4.179080 
# 
# 
# High freq. dielectric constant tensor:
#      x y z
#    x 1.874880 0.008860 -0.015450 
#    y 0.008860 1.846650 -0.000780 
#    z -0.015450 -0.000780 1.884140 
# 
# From -- ./inp_files/188486.got.cif
#   From: 2010.06.25/outbox.cif.g09.slc.cpg/sg2_95_cif.got.tgz:188486.got - 2010.06.27 13:26:56.
