data_PCOD8010214
_publ_section_title
;
Structure prediction by ZEFSAII (Michael W. Deem and Ramdas Pophale) SiO2 
 PCOD8010214
Probable space group: P -1
;
_chemical_formula_sum "Si O2"
_cell_formula_units_Z 16
_cell_length_a 14.751042
_cell_length_b 9.142876
_cell_length_c 10.386162
_cell_angle_alpha 133.487288
_cell_angle_beta 104.073750
_cell_angle_gamma 105.998506
_cell_volume 766.005144
_symmetry_space_group_name_H-M "P -1"
_symmetry_group_IT_number 2
_symmetry_cell_setting 'triclinic'
loop_
_space_group_symop_operation_xyz
x,y,z
-x,-y,-z
loop_
_atom_site_type_symbol
_atom_site_label
_atom_site_fract_x
_atom_site_fract_y
_atom_site_fract_z
Si Si1 0.956234 0.806035 0.484525
Si Si2 0.801355 0.967582 0.147794
Si Si3 0.894975 0.973388 0.791138
Si Si4 0.343065 0.888359 0.480528
Si Si5 0.641553 0.688508 0.159391
Si Si6 0.207569 0.794100 0.960662
Si Si7 0.614678 0.208488 0.842261
Si Si8 0.843849 0.648985 0.814408
O O1 0.883791 0.513992 0.231720
O O2 0.068912 0.871476 0.643060
O O3 0.873394 0.846575 0.566083
O O4 0.000000 0.000000 0.500000
O O5 0.800758 0.152455 0.158789
O O6 0.693062 0.843115 0.135810
O O7 0.773537 0.730278 0.912960
O O8 0.872854 0.752330 0.742086
O O9 0.814415 0.054446 0.853235
O O10 0.031904 0.237472 0.004202
O O11 0.333222 0.777195 0.270597
O O12 0.241635 0.661108 0.401992
O O13 0.316966 0.094104 0.585832
O O14 0.470989 0.021167 0.674368
O O15 0.500000 0.500000 0.000000
O O16 0.679448 0.508524 0.086154
O O17 0.342157 0.897048 0.102261
#
# Coordination Sequence:
#
# PCOD8010214 Si02
#       8
#     2   2   2   2   2   2   2   2
#     4  11  24  39  63  91 124 162 205 253 299 366
#     4  10  21  40  62  90 125 162 202 249 310 360
#     4   9  22  39  58  95 123 155 202 245 304 367
#     4  10  21  37  70  84 115 169 201 255 306 352
#     4  10  21  38  64  90 118 161 211 253 299 358
#     4  11  24  40  63  89 129 162 195 256 309 365
#     4  10  22  42  58  93 123 151 215 252 299 365
#     4   9  18  39  66  86 122 161 201 251 297 363
#
# _framework density 20.887588999999998
#
# number of rings (size 3 to 8) (size 9 to 14) (size 15 to 20)
#    0.000    2.000    1.250    1.875    5.250    2.500 
#    0.000    5.000    2.750    0.000    0.000    0.000 
#    0.000    0.000    0.000    0.000    0.000    0.000 
#
# Total GULP energy -198309.831999 kJ/mol
# GULP energy per Si atom -12394.364500 kJ/mol
# Density = 2.084005 g / cm^3
# Si number density = 20.887589 Si / 1000 Ang^3
#
#
#
# Elastic Constant Matrix: (Units=GPa)
#
#
# Indices 1 2 3 4 5 6 
#
# 1 93.0058 35.6829 30.5086 -0.4003 -11.1732 -7.5408
# 2 35.6829 77.9461 21.6393 8.3727 7.9178 -6.6505
# 3 30.5086 21.6393 73.3041 11.1681 -11.8514 -10.6711
# 4 -0.4003 8.3727 11.1681 35.9851 -3.1888 1.3955
# 5 -11.1732 7.9178 -11.8514 -3.1888 32.5570 -2.8382
# 6 -7.5408 -6.6505 -10.6711 1.3955 -2.8382 41.4209
#
#
#
# Elastic Compliance Matrix: (Units=1/GPa)
#
#
# Indices 1 2 3 4 5 6 
#
# 1 0.015481 -0.006931 -0.003798 0.003459 0.006044 0.001025
# 2 -0.006931 0.018195 -0.003147 -0.004087 -0.008313 0.000417
# 3 -0.003798 -0.003147 0.018445 -0.004656 0.006080 0.004129
# 4 0.003459 -0.004087 -0.004656 0.030595 0.003306 -0.002030
# 5 0.006044 -0.008313 0.006080 0.003306 0.037680 0.003803
# 6 0.001025 0.000417 0.004129 -0.002030 0.003803 0.025788
#
#
# Mechanical properties :
#
#
# Convention : Reuss Voigt Hill
#
# Bulk Modulus (GPa) = 41.03580 46.65750 43.84665
# Shear Modulus (GPa) = 27.46357 32.42094 29.94226
#
# Velocity S-wave (km/s) = 3.62999 3.94402 3.79026
# Velocity P-wave (km/s) = 6.10391 6.56707 6.33972
#
# Compressibility (1/GPa) = 0.02436897
#
# Stress axis : x y z
#
# Youngs Moduli (GPa) = 64.59536 54.96024 54.21565
#
# Poissons Ratio (x) = 0.38092 0.20590
# Poissons Ratio (y) = 0.44770 0.17063
# Poissons Ratio (z) = 0.24532 0.17298
#
# Static dielectric constant tensor:
#      x y z
#    x 3.948910 -0.077760 -0.308740 
#    y -0.077760 3.725030 0.128340 
#    z -0.308740 0.128340 3.848760 
# 
# 
# High freq. dielectric constant tensor:
#      x y z
#    x 1.821830 0.002150 -0.017810 
#    y 0.002150 1.809400 0.011010 
#    z -0.017810 0.011010 1.814860 
# 
# From -- ./inp_files/255829.got.cif
#   From: 2010.06.25/outbox.cif.g09.slc.cpg/sg2_128_cif.got.tgz:255829.got - 2010.06.27 13:26:56.
