data_PCOD8010930
_publ_section_title
;
Structure prediction by ZEFSAII (Michael W. Deem and Ramdas Pophale) SiO2 
 PCOD8010930
Probable space group: P -1
;
_chemical_formula_sum "Si O2"
_cell_formula_units_Z 16
_cell_length_a 8.815355
_cell_length_b 19.551843
_cell_length_c 11.187124
_cell_angle_alpha 22.783674
_cell_angle_beta 106.725288
_cell_angle_gamma 108.946677
_cell_volume 705.883206
_symmetry_space_group_name_H-M "P -1"
_symmetry_group_IT_number 2
_symmetry_cell_setting 'triclinic'
loop_
_space_group_symop_operation_xyz
x,y,z
-x,-y,-z
loop_
_atom_site_type_symbol
_atom_site_label
_atom_site_fract_x
_atom_site_fract_y
_atom_site_fract_z
Si Si1 0.179551 0.485482 0.029222
Si Si2 0.884355 0.813144 0.154874
Si Si3 0.660742 0.230872 0.215793
Si Si4 0.819023 0.895790 0.269225
Si Si5 0.070845 0.821247 0.820215
Si Si6 0.311752 0.817338 0.094536
Si Si7 0.426678 0.154723 0.080699
Si Si8 0.868804 0.454646 0.342440
O O1 0.201828 0.279077 0.370965
O O2 0.307570 0.600050 0.961553
O O3 0.211433 0.560517 0.782062
O O4 0.000000 0.500000 0.000000
O O5 0.796955 0.843922 0.209487
O O6 0.974959 0.643984 0.459686
O O7 0.743200 0.775586 0.084505
O O8 0.003412 0.990457 0.856088
O O9 0.825400 0.209735 0.221963
O O10 0.525698 0.263495 0.035617
O O11 0.596183 0.056237 0.559383
O O12 0.683772 0.014382 0.085144
O O13 0.173793 0.837438 0.936495
O O14 0.000000 0.000000 0.500000
O O15 0.924236 0.659287 0.061813
O O16 0.266084 0.633223 0.454057
O O17 0.479267 0.813403 0.074542
#
# Coordination Sequence:
#
# PCOD8010930 Si02
#       8
#     2   2   2   2   2   2   2   2
#     4  12  20  38  69  95 129 164 222 279 311 377
#     4  10  21  38  69  97 125 171 212 275 318 378
#     4  10  23  41  66  97 124 178 218 262 320 395
#     4  10  21  38  65 103 122 164 226 269 323 368
#     4  11  22  39  69  95 130 166 216 274 322 373
#     4  10  24  41  60  97 135 169 209 266 326 388
#     4  10  23  44  66  89 137 177 211 256 331 398
#     4  11  23  39  67 103 126 163 223 274 316 373
#
# _framework density 22.666639
#
# number of rings (size 3 to 8) (size 9 to 14) (size 15 to 20)
#    0.000    1.500    2.500    1.875    7.000    0.500 
#    0.000    6.250   13.750    0.000    0.000    0.000 
#    0.000    0.000    0.000    0.000    0.000    0.000 
#
# Total GULP energy -198465.661324 kJ/mol
# GULP energy per Si atom -12404.103833 kJ/mol
# Density = 2.261505 g / cm^3
# Si number density = 22.666639 Si / 1000 Ang^3
#
#
#
# Elastic Constant Matrix: (Units=GPa)
#
#
# Indices 1 2 3 4 5 6 
#
# 1 62.7884 33.1155 47.0451 13.8646 -16.1335 6.7817
# 2 33.1155 66.4979 49.0614 2.6050 7.7174 10.2801
# 3 47.0451 49.0614 153.1660 -4.7369 -13.7164 3.3785
# 4 13.8646 2.6050 -4.7369 36.2625 -2.5654 -3.2548
# 5 -16.1335 7.7174 -13.7164 -2.5654 30.3158 10.3649
# 6 6.7817 10.2801 3.3785 -3.2548 10.3649 32.8724
#
#
#
# Elastic Compliance Matrix: (Units=1/GPa)
#
#
# Indices 1 2 3 4 5 6 
#
# 1 0.039088 -0.016839 -0.004441 -0.013542 0.025994 -0.011879
# 2 -0.016839 0.029958 -0.006132 0.002202 -0.019559 0.001120
# 3 -0.004441 -0.006132 0.010301 0.003842 0.003863 0.000938
# 4 -0.013542 0.002202 0.003842 0.033314 -0.005518 0.006749
# 5 0.025994 -0.019559 0.003863 -0.005518 0.059566 -0.018971
# 6 -0.011879 0.001120 0.000938 0.006749 -0.018971 0.039074
#
#
# Mechanical properties :
#
#
# Convention : Reuss Voigt Hill
#
# Bulk Modulus (GPa) = 40.77774 60.09959 50.43867
# Shear Modulus (GPa) = 18.22823 30.10548 24.16685
#
# Velocity S-wave (km/s) = 2.83890 3.64838 3.26879
# Velocity P-wave (km/s) = 5.36424 6.65730 6.04544
#
# Compressibility (1/GPa) = 0.02452318
#
# Stress axis : x y z
#
# Youngs Moduli (GPa) = 25.58353 33.37958 97.07531
#
# Poissons Ratio (x) = 0.56207 0.43112
# Poissons Ratio (y) = 0.43079 0.59529
# Poissons Ratio (z) = 0.11362 0.20469
#
# Static dielectric constant tensor:
#      x y z
#    x 3.925660 -0.080070 -0.251390 
#    y -0.080070 4.478080 0.097070 
#    z -0.251390 0.097070 4.104760 
# 
# 
# High freq. dielectric constant tensor:
#      x y z
#    x 1.874300 -0.004390 -0.015380 
#    y -0.004390 1.902930 0.007610 
#    z -0.015380 0.007610 1.898280 
# 
# From -- ./inp_files/392602.got.cif
#   From: 2010.06.25/outbox.cif.g09.slc.cpg/sg2_197_cif.got.tgz:392602.got - 2010.06.27 13:26:56.
