data_PCOD8010396
_publ_section_title
;
Structure prediction by ZEFSAII (Michael W. Deem and Ramdas Pophale) SiO2 
 PCOD8010396
Probable space group: P -1
;
_chemical_formula_sum "Si O2"
_cell_formula_units_Z 16
_cell_length_a 6.787412
_cell_length_b 8.754604
_cell_length_c 14.739299
_cell_angle_alpha 74.247201
_cell_angle_beta 77.184059
_cell_angle_gamma 127.276263
_cell_volume 579.185442
_symmetry_space_group_name_H-M "P -1"
_symmetry_group_IT_number 2
_symmetry_cell_setting 'triclinic'
loop_
_space_group_symop_operation_xyz
x,y,z
-x,-y,-z
loop_
_atom_site_type_symbol
_atom_site_label
_atom_site_fract_x
_atom_site_fract_y
_atom_site_fract_z
Si Si1 0.129759 0.459526 0.610681
Si Si2 0.425486 0.718013 0.850925
Si Si3 0.229016 0.962637 0.389264
Si Si4 0.289523 0.090536 0.562501
Si Si5 0.058379 0.878049 0.167041
Si Si6 0.040393 0.663420 0.729776
Si Si7 0.267606 0.722039 0.048371
Si Si8 0.585452 0.640886 0.123022
O O1 0.433026 0.643438 0.497549
O O2 0.136911 0.334522 0.710848
O O3 0.885532 0.274783 0.591808
O O4 0.057874 0.584435 0.645146
O O5 0.301856 0.468537 0.906042
O O6 0.470623 0.821751 0.728276
O O7 0.246613 0.727563 0.940605
O O8 0.753850 0.899355 0.827060
O O9 0.985909 0.954332 0.392876
O O10 0.306599 0.007203 0.478708
O O11 0.270163 0.937804 0.664683
O O12 0.830497 0.843623 0.133144
O O13 0.279848 0.889754 0.080969
O O14 0.024235 0.536247 0.843185
O O15 0.722883 0.563655 0.767210
O O16 0.542769 0.756498 0.033929
#
# Coordination Sequence:
#
# PCOD8010396 Si02
#       8
#     2   2   2   2   2   2   2   2
#     4  10  21  38  60  85 118 158 197 241 299 354
#     4  11  20  40  64  88 122 159 201 246 298 359
#     4  10  22  35  60  91 114 153 201 244 293 354
#     4  11  20  38  59  84 119 154 197 245 298 348
#     4  10  22  39  63  90 122 160 198 243 305 355
#     4   9  21  39  59  86 122 154 193 251 293 346
#     4   9  21  40  64  89 125 155 196 255 293 353
#     4  10  21  40  59  88 125 157 195 247 294 350
#
# _framework density 27.625004000000001
#
# number of rings (size 3 to 8) (size 9 to 14) (size 15 to 20)
#    0.750    1.250    1.250    2.250    1.750    1.500 
#    0.000    2.500    0.000    0.000    0.000    0.000 
#    0.000    0.000    0.000    0.000    0.000    0.000 
#
# Total GULP energy -198330.094073 kJ/mol
# GULP energy per Si atom -12395.630880 kJ/mol
# Density = 2.756213 g / cm^3
# Si number density = 27.625004 Si / 1000 Ang^3
#
#
#
# Elastic Constant Matrix: (Units=GPa)
#
#
# Indices 1 2 3 4 5 6 
#
# 1 63.2677 5.4999 29.8884 -0.6133 9.4562 -5.1193
# 2 5.4999 104.3802 20.0907 -4.5435 4.5543 -5.1064
# 3 29.8884 20.0907 103.8589 6.0483 -7.0955 -2.0162
# 4 -0.6133 -4.5435 6.0483 36.2006 -6.3915 -1.7912
# 5 9.4562 4.5543 -7.0955 -6.3915 29.1373 -7.7105
# 6 -5.1193 -5.1064 -2.0162 -1.7912 -7.7105 27.5383
#
#
#
# Elastic Compliance Matrix: (Units=1/GPa)
#
#
# Indices 1 2 3 4 5 6 
#
# 1 0.020043 0.000582 -0.006400 0.000163 -0.007803 0.001191
# 2 0.000582 0.010201 -0.002309 0.001459 -0.001637 0.001467
# 3 -0.006400 -0.002309 0.012379 -0.001497 0.005303 0.000676
# 4 0.000163 0.001459 -0.001497 0.029476 0.006889 0.004037
# 5 -0.007803 -0.001637 0.005303 0.006889 0.042843 0.011078
# 6 0.001191 0.001467 0.000676 0.004037 0.011078 0.040220
#
#
# Mechanical properties :
#
#
# Convention : Reuss Voigt Hill
#
# Bulk Modulus (GPa) = 37.92390 42.49609 40.20999
# Shear Modulus (GPa) = 27.74598 32.97710 30.36154
#
# Velocity S-wave (km/s) = 3.17263 3.45880 3.31880
# Velocity P-wave (km/s) = 5.21332 5.60069 5.41047
#
# Compressibility (1/GPa) = 0.02636860
#
# Stress axis : x y z
#
# Youngs Moduli (GPa) = 49.89280 98.03080 80.77893
#
# Poissons Ratio (x) = -0.05701 0.51698
# Poissons Ratio (y) = -0.02902 0.18652
# Poissons Ratio (z) = 0.31931 0.22635
#
# Static dielectric constant tensor:
#      x y z
#    x 4.822530 0.246970 -0.332610 
#    y 0.246970 5.099220 -0.205420 
#    z -0.332610 -0.205420 5.536500 
# 
# 
# High freq. dielectric constant tensor:
#      x y z
#    x 2.117030 0.018710 -0.021170 
#    y 0.018710 2.117430 -0.021710 
#    z -0.021170 -0.021710 2.146110 
# 
# From -- ./inp_files/557171.got.cif
#   From: 2010.06.25/outbox.cif.g09.slc.cpg/sg2_279_cif.got.tgz:557171.got - 2010.06.27 13:26:56.
