data_PCOD8010599
_publ_section_title
;
Structure prediction by ZEFSAII (Michael W. Deem and Ramdas Pophale) SiO2 
 PCOD8010599
Probable space group: P -1
;
_chemical_formula_sum "Si O2"
_cell_formula_units_Z 16
_cell_length_a 15.189481
_cell_length_b 9.327584
_cell_length_c 9.351813
_cell_angle_alpha 43.538696
_cell_angle_beta 102.453501
_cell_angle_gamma 115.923980
_cell_volume 809.820830
_symmetry_space_group_name_H-M "P -1"
_symmetry_group_IT_number 2
_symmetry_cell_setting 'triclinic'
loop_
_space_group_symop_operation_xyz
x,y,z
-x,-y,-z
loop_
_atom_site_type_symbol
_atom_site_label
_atom_site_fract_x
_atom_site_fract_y
_atom_site_fract_z
Si Si1 0.888316 0.909106 0.477671
Si Si2 0.387170 0.349114 0.510577
Si Si3 0.514559 0.098484 0.776244
Si Si4 0.339007 0.720192 0.815549
Si Si5 0.688437 0.164575 0.584834
Si Si6 0.225993 0.878095 0.860943
Si Si7 0.290810 0.236786 0.268865
Si Si8 0.765402 0.439657 0.655306
O O1 0.816892 0.842900 0.639294
O O2 0.856934 0.680709 0.538086
O O3 0.875389 0.099166 0.233559
O O4 0.000000 0.000000 0.500000
O O5 0.373367 0.275558 0.391941
O O6 0.345311 0.551061 0.367938
O O7 0.497655 0.342829 0.594045
O O8 0.311617 0.134017 0.731227
O O9 0.431404 0.914721 0.782414
O O10 0.613093 0.104281 0.735423
O O11 0.500000 0.000000 0.000000
O O12 0.349094 0.745355 0.630171
O O13 0.243611 0.751126 0.819019
O O14 0.326896 0.467562 0.025911
O O15 0.780310 0.369251 0.548552
O O16 0.713458 0.953566 0.707812
O O17 0.221498 0.737443 0.102264
#
# Coordination Sequence:
#
# PCOD8010599 Si02
#       8
#     2   2   2   2   2   2   2   2
#     4  10  21  39  67  96 116 150 203 246 294 379
#     4   9  19  37  57  79 118 159 202 243 283 352
#     4  11  24  38  59  88 124 160 214 253 283 347
#     4  11  20  39  59  84 122 166 198 239 304 348
#     4  12  23  38  59  89 124 160 201 254 296 346
#     4   9  16  37  63  82 117 155 193 240 293 356
#     4  10  21  38  62  83 122 159 199 241 308 356
#     4  10  21  38  62  87 118 159 198 244 308 350
#
# _framework density 19.757456000000001
#
# number of rings (size 3 to 8) (size 9 to 14) (size 15 to 20)
#    0.000    2.000    6.250    1.875    0.000    4.500 
#    0.000    0.625    0.000    1.500    0.000    0.000 
#    0.000    0.000    0.000    0.000    0.000    0.000 
#
# Total GULP energy -198232.827867 kJ/mol
# GULP energy per Si atom -12389.551742 kJ/mol
# Density = 1.971249 g / cm^3
# Si number density = 19.757456 Si / 1000 Ang^3
#
#
#
# Elastic Constant Matrix: (Units=GPa)
#
#
# Indices 1 2 3 4 5 6 
#
# 1 0.2369 -63.8050 55.1177 4.4795 38.7700 -34.0392
# 2 -63.8050 -2.9340 95.1654 12.9000 38.9714 -90.3379
# 3 55.1177 95.1654 97.5484 -1.2517 6.7612 18.0000
# 4 4.4795 12.9000 -1.2517 37.2361 -9.9385 8.3981
# 5 38.7700 38.9714 6.7612 -9.9385 22.9873 19.6163
# 6 -34.0392 -90.3379 18.0000 8.3981 19.6163 0.4460
#
#
#
# Elastic Compliance Matrix: (Units=1/GPa)
#
#
# Indices 1 2 3 4 5 6 
#
# 1 0.022369 -0.009440 0.000201 0.002967 -0.005717 -0.017324
# 2 -0.009440 0.005469 -0.000363 0.001722 0.008425 -0.001082
# 3 0.000201 -0.000363 0.009988 -0.003357 -0.009188 0.005949
# 4 0.002967 0.001722 -0.003357 0.026984 0.004602 0.000151
# 5 -0.005717 0.008425 -0.009188 0.004602 0.035114 0.009890
# 6 -0.017324 -0.001082 0.005949 0.000151 0.009890 0.022826
#
#
# Mechanical properties :
#
#
# Convention : Reuss Voigt Hill
#
# Bulk Modulus (GPa) = 53.70096 29.75640 41.72868
# Shear Modulus (GPa) = 33.74702 12.69210 23.21956
#
# Velocity S-wave (km/s) = 4.13736 2.53730 3.43188
# Velocity P-wave (km/s) = 7.07550 4.86594 6.07207
#
# Compressibility (1/GPa) = 0.01862164
#
# Stress axis : x y z
#
# Youngs Moduli (GPa) = 44.70429 182.86308 100.11631
#
# Poissons Ratio (x) = 1.72618 -0.02011
# Poissons Ratio (y) = 0.42200 0.03638
# Poissons Ratio (z) = -0.00898 0.06644
#
# Static dielectric constant tensor:
#      x y z
#    x 3.555210 -0.080910 0.306490 
#    y -0.080910 3.951880 -0.161370 
#    z 0.306490 -0.161370 3.806330 
# 
# 
# High freq. dielectric constant tensor:
#      x y z
#    x 1.735820 -0.006740 0.028940 
#    y -0.006740 1.790860 -0.012670 
#    z 0.028940 -0.012670 1.779820 
# 
# From -- ./inp_files/297512.got.cif
#   From: 2010.06.25/outbox.cif.g09.slc.cpg/sg2_149_cif.got.tgz:297512.got - 2010.06.27 13:26:56.
