data_PCOD8010121
_publ_section_title
;
Structure prediction by ZEFSAII (Michael W. Deem and Ramdas Pophale) SiO2 
 PCOD8010121
Probable space group: P -1
;
_chemical_formula_sum "Si O2"
_cell_formula_units_Z 16
_cell_length_a 9.307568
_cell_length_b 17.425532
_cell_length_c 13.923512
_cell_angle_alpha 146.689025
_cell_angle_beta 38.079544
_cell_angle_gamma 140.035969
_cell_volume 724.495191
_symmetry_space_group_name_H-M "P -1"
_symmetry_group_IT_number 2
_symmetry_cell_setting 'triclinic'
loop_
_space_group_symop_operation_xyz
x,y,z
-x,-y,-z
loop_
_atom_site_type_symbol
_atom_site_label
_atom_site_fract_x
_atom_site_fract_y
_atom_site_fract_z
Si Si1 0.168956 0.015127 0.735516
Si Si2 0.250419 0.001452 0.321266
Si Si3 0.514719 0.865613 0.479687
Si Si4 0.434430 0.295558 0.004341
Si Si5 0.960642 0.411111 0.748202
Si Si6 0.328620 0.536866 0.207572
Si Si7 0.724869 0.804062 0.667330
Si Si8 0.329407 0.704455 0.922338
O O1 0.242623 0.080168 0.657811
O O2 0.243670 0.140209 0.908033
O O3 0.291768 0.889085 0.561304
O O4 0.876675 0.932364 0.796263
O O5 0.453963 0.045330 0.344248
O O6 0.336797 0.122143 0.318735
O O7 0.000000 0.000000 0.500000
O O8 0.223331 0.839571 0.127798
O O9 0.459681 0.694082 0.351960
O O10 0.693794 0.326285 0.845072
O O11 0.294980 0.415360 0.181621
O O12 0.479545 0.294730 0.092723
O O13 0.922497 0.463131 0.713962
O O14 0.119787 0.302083 0.553176
O O15 0.099149 0.554720 0.888819
O O16 0.500000 0.500000 0.000000
O O17 0.471377 0.712476 0.755406
#
# Coordination Sequence:
#
# PCOD8010121 Si02
#       8
#     2   2   2   2   2   2   2   2
#     4  11  20  41  69  93 131 167 216 277 321 379
#     4  12  26  42  70 100 125 176 224 271 321 385
#     4  11  20  40  66 100 126 158 230 275 313 378
#     4  11  23  42  69 101 123 172 226 272 319 377
#     4  11  23  45  68  94 131 177 220 270 320 389
#     4  10  21  37  66 101 125 161 216 280 324 364
#     4  12  26  45  66  94 138 179 209 268 337 389
#     4  12  28  45  61  99 140 173 214 266 334 399
#
# _framework density 22.084340999999998
#
# number of rings (size 3 to 8) (size 9 to 14) (size 15 to 20)
#    0.000    0.750    6.250    2.625    7.000    0.500 
#    0.000    0.625    0.000    0.000    0.000    0.000 
#    0.000    0.000    0.000    0.000    0.000    0.000 
#
# Total GULP energy -198436.250750 kJ/mol
# GULP energy per Si atom -12402.265672 kJ/mol
# Density = 2.203408 g / cm^3
# Si number density = 22.084341 Si / 1000 Ang^3
#
#
#
# Elastic Constant Matrix: (Units=GPa)
#
#
# Indices 1 2 3 4 5 6 
#
# 1 103.1100 19.6116 22.1898 9.6212 2.0326 -16.1724
# 2 19.6116 54.5807 21.0725 14.0568 5.1268 -2.3922
# 3 22.1898 21.0725 82.0941 33.6274 0.0966 -4.2320
# 4 9.6212 14.0568 33.6274 37.3406 -4.1631 3.3589
# 5 2.0326 5.1268 0.0966 -4.1631 31.7540 11.6343
# 6 -16.1724 -2.3922 -4.2320 3.3589 11.6343 39.3178
#
#
#
# Elastic Compliance Matrix: (Units=1/GPa)
#
#
# Indices 1 2 3 4 5 6 
#
# 1 0.011552 -0.002759 -0.001665 -0.001168 -0.002347 0.005199
# 2 -0.002759 0.022400 -0.002263 -0.006425 -0.005015 0.002017
# 3 -0.001665 -0.002263 0.020923 -0.018309 -0.003465 0.004019
# 4 -0.001168 -0.006425 -0.018309 0.048168 0.011252 -0.010286
# 5 -0.002347 -0.005015 -0.003465 0.011252 0.039135 -0.014185
# 6 0.005199 0.002017 0.004019 -0.010286 -0.014185 0.033204
#
#
# Mechanical properties :
#
#
# Convention : Reuss Voigt Hill
#
# Bulk Modulus (GPa) = 24.09522 40.61475 32.35499
# Shear Modulus (GPa) = 24.68037 33.47654 29.07846
#
# Velocity S-wave (km/s) = 3.34661 3.89762 3.63257
# Velocity P-wave (km/s) = 5.08599 6.21980 5.68125
#
# Compressibility (1/GPa) = 0.04150200
#
# Stress axis : x y z
#
# Youngs Moduli (GPa) = 86.56420 44.64204 47.79378
#
# Poissons Ratio (x) = 0.12316 0.07959
# Poissons Ratio (y) = 0.23882 0.10814
# Poissons Ratio (z) = 0.14416 0.10101
#
# Static dielectric constant tensor:
#      x y z
#    x 4.520460 -0.177570 -0.161900 
#    y -0.177570 3.854450 0.372540 
#    z -0.161900 0.372540 3.869220 
# 
# 
# High freq. dielectric constant tensor:
#      x y z
#    x 1.884830 -0.001920 -0.004940 
#    y -0.001920 1.848750 0.032080 
#    z -0.004940 0.032080 1.860200 
# 
# From -- ./inp_files/207306.got.cif
#   From: 2010.06.25/outbox.cif.g09.slc.cpg/sg2_104_cif.got.tgz:207306.got - 2010.06.27 13:26:56.
