data_PCOD8010261
_publ_section_title
;
Structure prediction by ZEFSAII (Michael W. Deem and Ramdas Pophale) SiO2 
 PCOD8010261
Probable space group: P -1
;
_chemical_formula_sum "Si O2"
_cell_formula_units_Z 14
_cell_length_a 13.001063
_cell_length_b 7.480253
_cell_length_c 19.476421
_cell_angle_alpha 41.079388
_cell_angle_beta 149.313167
_cell_angle_gamma 132.991017
_cell_volume 631.984770
_symmetry_space_group_name_H-M "P -1"
_symmetry_group_IT_number 2
_symmetry_cell_setting 'triclinic'
loop_
_space_group_symop_operation_xyz
x,y,z
-x,-y,-z
loop_
_atom_site_type_symbol
_atom_site_label
_atom_site_fract_x
_atom_site_fract_y
_atom_site_fract_z
Si Si1 0.096847 0.803672 0.520986
Si Si2 0.917639 0.609776 0.009874
Si Si3 0.211289 0.376557 0.484988
Si Si4 0.760080 0.744233 0.244086
Si Si5 0.353002 0.695697 0.234287
Si Si6 0.129129 0.802088 0.202767
Si Si7 0.625223 0.093879 0.953526
O O1 0.924759 0.664854 0.513882
O O2 0.985338 0.846474 0.372067
O O3 0.265162 0.587803 0.672484
O O4 0.207552 0.089339 0.525872
O O5 0.739690 0.378934 0.962178
O O6 0.883162 0.888523 0.868057
O O7 0.139923 0.515072 0.142792
O O8 0.931683 0.693759 0.074891
O O9 0.448270 0.467056 0.612017
O O10 0.132428 0.611137 0.325895
O O11 0.605277 0.891578 0.159750
O O12 0.729542 0.843588 0.119616
O O13 0.329226 0.798838 0.269127
O O14 0.374941 0.940921 0.118950
#
# Coordination Sequence:
#
# PCOD8010261 Si02
#       7
#     2   2   2   2   2   2   2
#     4  10  23  40  60  83 113 154 191 239 274 333
#     4   9  21  37  59  85 116 146 188 233 287 335
#     4  11  21  40  60  84 117 149 190 233 287 331
#     4  10  23  40  60  83 113 154 191 239 274 333
#     4  10  21  38  57  88 114 148 186 242 268 359
#     4   9  21  37  59  85 116 146 188 233 287 335
#     4  11  21  40  60  84 117 149 190 233 287 331
#
# _framework density 22.152432000000001
#
# number of rings (size 3 to 8) (size 9 to 14) (size 15 to 20)
#    0.857    1.143    1.429    1.714    4.000    0.000 
#    0.000    1.429    0.000    0.000    0.000    0.000 
#    0.000    0.000    0.000    0.000    0.000    0.000 
#
# Total GULP energy -173440.803671 kJ/mol
# GULP energy per Si atom -12388.628834 kJ/mol
# Density = 2.210201 g / cm^3
# Si number density = 22.152432 Si / 1000 Ang^3
#
#
#
# Elastic Constant Matrix: (Units=GPa)
#
#
# Indices 1 2 3 4 5 6 
#
# 1 37.4853 -6.2385 12.3306 3.4674 -4.6977 5.8019
# 2 -6.2385 49.4642 24.0225 -11.9156 3.3376 3.8526
# 3 12.3306 24.0225 133.3046 -12.8174 -13.2945 5.3562
# 4 3.4674 -11.9156 -12.8174 19.0729 1.7471 4.1574
# 5 -4.6977 3.3376 -13.2945 1.7471 32.5987 -2.1141
# 6 5.8019 3.8526 5.3562 4.1574 -2.1141 21.2591
#
#
#
# Elastic Compliance Matrix: (Units=1/GPa)
#
#
# Indices 1 2 3 4 5 6 
#
# 1 0.030442 0.005243 -0.003558 -0.003200 0.002082 -0.007529
# 2 0.005243 0.027819 -0.004101 0.016135 -0.005221 -0.009113
# 3 -0.003558 -0.004101 0.009373 0.004321 0.003423 -0.001152
# 4 -0.003200 0.016135 0.004321 0.070270 -0.005246 -0.017403
# 5 0.002082 -0.005221 0.003423 -0.005246 0.033439 0.003866
# 6 -0.007529 -0.009113 -0.001152 -0.017403 0.003866 0.054823
#
#
# Mechanical properties :
#
#
# Convention : Reuss Voigt Hill
#
# Bulk Modulus (GPa) = 15.92350 31.16480 23.54415
# Shear Modulus (GPa) = 19.84657 27.26210 23.55433
#
# Velocity S-wave (km/s) = 2.99642 3.51188 3.26434
# Velocity P-wave (km/s) = 4.37894 5.52660 4.98590
#
# Compressibility (1/GPa) = 0.06280027
#
# Stress axis : x y z
#
# Youngs Moduli (GPa) = 32.84900 35.94728 106.68978
#
# Poissons Ratio (x) = -0.18845 0.37962
# Poissons Ratio (y) = -0.17221 0.43755
# Poissons Ratio (z) = 0.11688 0.14743
#
# Static dielectric constant tensor:
#      x y z
#    x 3.960660 0.048690 -0.116920 
#    y 0.048690 3.508880 0.080670 
#    z -0.116920 0.080670 4.080810 
# 
# 
# High freq. dielectric constant tensor:
#      x y z
#    x 1.868540 0.003800 -0.006120 
#    y 0.003800 1.831230 0.010070 
#    z -0.006120 0.010070 1.883220 
# 
# From -- ./inp_files/272365.got.cif
#   From: 2010.06.25/outbox.cif.g09.slc.cpg/sg2_137_cif.got.tgz:272365.got - 2010.06.27 13:26:56.
