data_PCOD8010142
_publ_section_title
;
Structure prediction by ZEFSAII (Michael W. Deem and Ramdas Pophale) SiO2 
 PCOD8010142
Probable space group: P -1
;
_chemical_formula_sum "Si O2"
_cell_formula_units_Z 12
_cell_length_a 17.789487
_cell_length_b 15.455542
_cell_length_c 12.547744
_cell_angle_alpha 151.955884
_cell_angle_beta 22.033573
_cell_angle_gamma 147.813376
_cell_volume 600.669712
_symmetry_space_group_name_H-M "P -1"
_symmetry_group_IT_number 2
_symmetry_cell_setting 'triclinic'
loop_
_space_group_symop_operation_xyz
x,y,z
-x,-y,-z
loop_
_atom_site_type_symbol
_atom_site_label
_atom_site_fract_x
_atom_site_fract_y
_atom_site_fract_z
Si Si1 0.107321 0.437501 0.187572
Si Si2 0.500022 0.920574 0.073645
Si Si3 0.929380 0.984141 0.196085
Si Si4 0.698259 0.264449 0.072696
Si Si5 0.573377 0.573418 0.713931
Si Si6 0.063741 0.334276 0.523491
O O1 0.000000 0.500000 0.500000
O O2 0.041367 0.536432 0.276842
O O3 0.345089 0.491868 0.956657
O O4 0.050950 0.217504 0.002659
O O5 0.300231 0.978505 0.451904
O O6 0.663592 0.104565 0.035455
O O7 0.448688 0.801549 0.904496
O O8 0.597807 0.790233 0.884681
O O9 0.078280 0.137561 0.234416
O O10 0.000000 0.000000 0.000000
O O11 0.643999 0.456076 0.396634
O O12 0.931194 0.298435 0.766453
O O13 0.713306 0.564871 0.625455
#
# Coordination Sequence:
#
# PCOD8010142 Si02
#       6
#     2   2   2   2   2   2
#     4  12  24  45  68  88 128 170 212 265 319 374
#     4  10  21  37  66  94 126 175 207 251 324 370
#     4  11  21  44  65  88 128 168 212 262 314 375
#     4  10  21  39  62  97 132 167 210 253 316 381
#     4  12  23  41  67  96 133 162 213 266 308 377
#     4  11  26  40  65 102 122 170 217 254 322 375
#
# _framework density 19.977701
#
# number of rings (size 3 to 8) (size 9 to 14) (size 15 to 20)
#    0.000    1.000    6.667    1.000    0.000    2.667 
#    0.000    1.667    0.000    0.000    0.000    0.000 
#    0.000    0.000    0.000    0.000    0.000    0.000 
#
# Total GULP energy -148841.668609 kJ/mol
# GULP energy per Si atom -12403.472384 kJ/mol
# Density = 1.993223 g / cm^3
# Si number density = 19.977701 Si / 1000 Ang^3
#
#
#
# Elastic Constant Matrix: (Units=GPa)
#
#
# Indices 1 2 3 4 5 6 
#
# 1 80.4473 50.9004 59.8900 -10.6156 -2.9004 15.3626
# 2 50.9004 124.9022 55.3285 14.4746 -1.6252 -5.5326
# 3 59.8900 55.3285 120.7325 12.3848 22.9134 14.3077
# 4 -10.6156 14.4746 12.3848 38.9369 -1.9775 -2.2861
# 5 -2.9004 -1.6252 22.9134 -1.9775 32.0630 -7.3951
# 6 15.3626 -5.5326 14.3077 -2.2861 -7.3951 23.8799
#
#
#
# Elastic Compliance Matrix: (Units=1/GPa)
#
#
# Indices 1 2 3 4 5 6 
#
# 1 0.035631 -0.009446 -0.016850 0.018767 0.013887 -0.008918
# 2 -0.009446 0.015103 -0.004323 -0.005737 0.005736 0.013393
# 3 -0.016850 -0.004323 0.026568 -0.013599 -0.025061 -0.015143
# 4 0.018767 -0.005737 -0.013599 0.038137 0.014116 0.002768
# 5 0.013887 0.005736 -0.025061 0.014116 0.057655 0.026617
# 6 -0.008918 0.013393 -0.015143 0.002768 0.026617 0.068297
#
#
# Mechanical properties :
#
#
# Convention : Reuss Voigt Hill
#
# Bulk Modulus (GPa) = 62.24597 73.14662 67.69629
# Shear Modulus (GPa) = 16.23457 29.64019 22.93738
#
# Velocity S-wave (km/s) = 2.85377 3.85601 3.39211
# Velocity P-wave (km/s) = 6.48722 7.51789 7.02149
#
# Compressibility (1/GPa) = 0.01606530
#
# Stress axis : x y z
#
# Youngs Moduli (GPa) = 28.06514 66.21048 37.63858
#
# Poissons Ratio (x) = 0.62540 0.63422
# Poissons Ratio (y) = 0.26509 0.16272
# Poissons Ratio (z) = 0.47290 0.28624
#
# Static dielectric constant tensor:
#      x y z
#    x 3.396320 -0.143530 0.061400 
#    y -0.143530 4.189240 0.266360 
#    z 0.061400 0.266360 3.875870 
# 
# 
# High freq. dielectric constant tensor:
#      x y z
#    x 1.756620 -0.006780 0.011350 
#    y -0.006780 1.795850 0.007470 
#    z 0.011350 0.007470 1.789190 
# 
# From -- ./inp_files/168227.got.cif
#   From: 2010.06.25/outbox.cif.g09.slc.cpg/sg2_85_cif.got.tgz:168227.got - 2010.06.27 13:26:56.
