data_PCOD8010769
_publ_section_title
;
Structure prediction by ZEFSAII (Michael W. Deem and Ramdas Pophale) SiO2 
 PCOD8010769
Probable space group: P -1
;
_chemical_formula_sum "Si O2"
_cell_formula_units_Z 14
_cell_length_a 8.803853
_cell_length_b 8.762483
_cell_length_c 12.789369
_cell_angle_alpha 125.075363
_cell_angle_beta 105.158892
_cell_angle_gamma 60.046190
_cell_volume 699.143304
_symmetry_space_group_name_H-M "P -1"
_symmetry_group_IT_number 2
_symmetry_cell_setting 'triclinic'
loop_
_space_group_symop_operation_xyz
x,y,z
-x,-y,-z
loop_
_atom_site_type_symbol
_atom_site_label
_atom_site_fract_x
_atom_site_fract_y
_atom_site_fract_z
Si Si1 0.659263 0.282862 0.929752
Si Si2 0.715054 0.054028 0.051977
Si Si3 0.600876 0.748479 0.789527
Si Si4 0.892827 0.283637 0.657414
Si Si5 0.774698 0.930997 0.489112
Si Si6 0.012966 0.713443 0.103287
Si Si7 0.437979 0.029025 0.334567
O O1 0.790641 0.326542 0.898531
O O2 0.580293 0.147009 0.804367
O O3 0.500000 0.500000 0.000000
O O4 0.750813 0.187104 0.020082
O O5 0.581794 0.218553 0.176599
O O6 0.888828 0.904395 0.084960
O O7 0.644691 0.910565 0.924214
O O8 0.753906 0.519830 0.740033
O O9 0.579347 0.789882 0.677608
O O10 0.029343 0.247371 0.572192
O O11 0.021341 0.215690 0.754530
O O12 0.782954 0.151241 0.573126
O O13 0.718639 0.882844 0.573669
O O14 0.629495 0.934717 0.383232
O O15 0.000000 0.500000 0.000000
#
# Coordination Sequence:
#
# PCOD8010769 Si02
#       7
#     2   2   2   2   2   2   2
#     4  11  24  39  65  94 125 161 202 255 313 373
#     4  10  22  38  60  95 130 155 198 250 320 368
#     4  10  21  38  63  92 124 158 199 257 305 372
#     4  11  22  40  64  91 121 164 212 246 306 360
#     4  10  23  41  63  85 121 169 209 253 291 363
#     4  12  23  39  64  94 123 161 200 256 315 366
#     4  10  22  42  62  87 126 160 208 253 304 356
#
# _framework density 20.024508000000001
#
# number of rings (size 3 to 8) (size 9 to 14) (size 15 to 20)
#    0.000    1.429    2.857    2.143    6.000    1.143 
#    0.000    0.000    0.000    0.000    0.000    0.000 
#    0.000    0.000    0.000    0.000    0.000    0.000 
#
# Total GULP energy -173548.620620 kJ/mol
# GULP energy per Si atom -12396.330044 kJ/mol
# Density = 1.997893 g / cm^3
# Si number density = 20.024508 Si / 1000 Ang^3
#
#
#
# Elastic Constant Matrix: (Units=GPa)
#
#
# Indices 1 2 3 4 5 6 
#
# 1 91.8160 19.7423 42.7846 1.1870 -16.0255 2.1932
# 2 19.7423 102.9459 48.3517 -4.5411 -12.0987 -7.4044
# 3 42.7846 48.3517 92.9014 -12.9037 -14.7069 0.7445
# 4 1.1870 -4.5411 -12.9037 27.8859 -3.9530 -3.9038
# 5 -16.0255 -12.0987 -14.7069 -3.9530 38.5961 1.4287
# 6 2.1932 -7.4044 0.7445 -3.9038 1.4287 31.8917
#
#
#
# Elastic Compliance Matrix: (Units=1/GPa)
#
#
# Indices 1 2 3 4 5 6 
#
# 1 0.014691 0.000636 -0.007049 -0.003494 0.003303 -0.001274
# 2 0.000636 0.013289 -0.007049 -0.000470 0.001582 0.003078
# 3 -0.007049 -0.007049 0.019354 0.008453 0.003130 -0.000709
# 4 -0.003494 -0.000470 0.008453 0.041312 0.005679 0.004736
# 5 0.003303 0.001582 0.003130 0.005679 0.029572 -0.000563
# 6 -0.001274 0.003078 -0.000709 0.004736 -0.000563 0.032780
#
#
# Mechanical properties :
#
#
# Convention : Reuss Voigt Hill
#
# Bulk Modulus (GPa) = 48.99375 56.60228 52.79802
# Shear Modulus (GPa) = 27.06704 31.46039 29.26372
#
# Velocity S-wave (km/s) = 3.68053 3.96800 3.82697
# Velocity P-wave (km/s) = 6.52547 7.02291 6.77875
#
# Compressibility (1/GPa) = 0.02041076
#
# Stress axis : x y z
#
# Youngs Moduli (GPa) = 68.06684 75.24931 51.66772
#
# Poissons Ratio (x) = -0.04785 0.36421
# Poissons Ratio (y) = -0.04328 0.36420
# Poissons Ratio (z) = 0.47981 0.53042
#
# Static dielectric constant tensor:
#      x y z
#    x 3.785440 0.173830 -0.236110 
#    y 0.173830 3.634460 -0.213560 
#    z -0.236110 -0.213560 3.844910 
# 
# 
# High freq. dielectric constant tensor:
#      x y z
#    x 1.790640 0.002090 -0.013300 
#    y 0.002090 1.774680 -0.011090 
#    z -0.013300 -0.011090 1.787490 
# 
# From -- ./inp_files/156736.got.cif
#   From: 2010.06.25/outbox.cif.g09.slc.cpg/sg2_79_cif.got.tgz:156736.got - 2010.06.27 13:26:56.
