data_PCOD8010508
_publ_section_title
;
Structure prediction by ZEFSAII (Michael W. Deem and Ramdas Pophale) SiO2 
 PCOD8010508
Probable space group: P -1
;
_chemical_formula_sum "Si O2"
_cell_formula_units_Z 12
_cell_length_a 11.465702
_cell_length_b 9.079996
_cell_length_c 9.360725
_cell_angle_alpha 66.356468
_cell_angle_beta 139.096774
_cell_angle_gamma 118.824309
_cell_volume 557.904956
_symmetry_space_group_name_H-M "P -1"
_symmetry_group_IT_number 2
_symmetry_cell_setting 'triclinic'
loop_
_space_group_symop_operation_xyz
x,y,z
-x,-y,-z
loop_
_atom_site_type_symbol
_atom_site_label
_atom_site_fract_x
_atom_site_fract_y
_atom_site_fract_z
Si Si1 0.660391 0.707164 0.424029
Si Si2 0.647949 0.602667 0.763621
Si Si3 0.990116 0.832164 0.146737
Si Si4 0.371097 0.935297 0.771510
Si Si5 0.026549 0.171201 0.538505
Si Si6 0.404245 0.826370 0.551726
O O1 0.713183 0.630825 0.648644
O O2 0.451082 0.597212 0.223700
O O3 0.803611 0.691242 0.436508
O O4 0.670717 0.898797 0.395304
O O5 0.483335 0.685676 0.612826
O O6 0.829858 0.672316 0.000668
O O7 0.930702 0.851829 0.246787
O O8 0.182020 0.783577 0.338665
O O9 0.000000 0.000000 0.000000
O O10 0.461938 0.851362 0.763974
O O11 0.173953 0.794328 0.681254
O O12 0.500000 0.000000 0.000000
O O13 0.000000 0.000000 0.500000
O O14 0.500000 0.000000 0.500000
#
# Coordination Sequence:
#
# PCOD8010508 Si02
#       6
#     2   2   2   2   2   2
#     4  10  22  42  58  87 123 157 196 244 306 347
#     4  11  23  41  62  86 125 158 195 252 296 351
#     4  11  21  37  63  88 117 158 201 245 296 353
#     4  10  21  38  61  88 117 153 199 248 294 354
#     4   9  20  37  58  86 115 154 200 236 295 358
#     4  11  21  38  61  90 114 153 211 239 288 362
#
# _framework density 21.509041
#
# number of rings (size 3 to 8) (size 9 to 14) (size 15 to 20)
#    0.000    1.667    3.333    2.000    4.667    2.000 
#    3.000    3.333    0.000    0.000    0.000    0.000 
#    0.000    0.000    0.000    0.000    0.000    0.000 
#
# Total GULP energy -148693.206717 kJ/mol
# GULP energy per Si atom -12391.100560 kJ/mol
# Density = 2.146009 g / cm^3
# Si number density = 21.509041 Si / 1000 Ang^3
#
#
#
# Elastic Constant Matrix: (Units=GPa)
#
#
# Indices 1 2 3 4 5 6 
#
# 1 151.5962 31.7834 54.6353 13.0624 -23.9187 18.7294
# 2 31.7834 64.1712 17.5116 26.9586 -0.5760 17.9769
# 3 54.6353 17.5116 110.2158 39.0919 -12.2350 11.0612
# 4 13.0624 26.9586 39.0919 38.9914 -5.5718 5.3784
# 5 -23.9187 -0.5760 -12.2350 -5.5718 36.8328 1.2944
# 6 18.7294 17.9769 11.0612 5.3784 1.2944 35.8859
#
#
#
# Elastic Compliance Matrix: (Units=1/GPa)
#
#
# Indices 1 2 3 4 5 6 
#
# 1 0.010756 -0.006592 -0.006458 0.008552 0.006094 -0.001822
# 2 -0.006592 0.030558 0.008333 -0.026524 -0.004686 -0.010292
# 3 -0.006458 0.008333 0.019145 -0.022478 -0.000988 -0.003300
# 4 0.008552 -0.026524 -0.022478 0.063857 0.007124 0.005925
# 5 0.006094 -0.004686 -0.000988 0.007124 0.031880 -0.002746
# 6 -0.001822 -0.010292 -0.003300 0.005925 -0.002746 0.034201
#
#
# Mechanical properties :
#
#
# Convention : Reuss Voigt Hill
#
# Bulk Modulus (GPa) = 19.59872 59.31599 39.45736
# Shear Modulus (GPa) = 23.05855 37.14555 30.10205
#
# Velocity S-wave (km/s) = 3.27775 4.16020 3.74506
# Velocity P-wave (km/s) = 4.84319 7.12133 6.08974
#
# Compressibility (1/GPa) = 0.05102373
#
# Stress axis : x y z
#
# Youngs Moduli (GPa) = 92.97198 32.72429 52.23412
#
# Poissons Ratio (x) = 0.21573 0.33734
# Poissons Ratio (y) = 0.61291 -0.43527
# Poissons Ratio (z) = 0.60043 -0.27269
#
# Static dielectric constant tensor:
#      x y z
#    x 4.642190 0.140200 -0.084430 
#    y 0.140200 4.141640 0.243970 
#    z -0.084430 0.243970 3.822030 
# 
# 
# High freq. dielectric constant tensor:
#      x y z
#    x 1.866610 0.012810 -0.010630 
#    y 0.012810 1.831490 0.031290 
#    z -0.010630 0.031290 1.826790 
# 
# From -- ./inp_files/150268.got.cif
#   From: 2010.06.25/outbox.cif.g09.slc.cpg/sg2_76_cif.got.tgz:150268.got - 2010.06.27 13:26:56.
