data_PCOD8010353
_publ_section_title
;
Structure prediction by ZEFSAII (Michael W. Deem and Ramdas Pophale) SiO2 
 PCOD8010353
Probable space group: P -1
;
_chemical_formula_sum "Si O2"
_cell_formula_units_Z 16
_cell_length_a 14.071501
_cell_length_b 25.545003
_cell_length_c 23.361122
_cell_angle_alpha 10.989671
_cell_angle_beta 151.019342
_cell_angle_gamma 150.909011
_cell_volume 765.163047
_symmetry_space_group_name_H-M "P -1"
_symmetry_group_IT_number 2
_symmetry_cell_setting 'triclinic'
loop_
_space_group_symop_operation_xyz
x,y,z
-x,-y,-z
loop_
_atom_site_type_symbol
_atom_site_label
_atom_site_fract_x
_atom_site_fract_y
_atom_site_fract_z
Si Si1 0.118865 0.147558 0.664341
Si Si2 0.084395 0.336118 0.319753
Si Si3 0.495499 0.493856 0.690884
Si Si4 0.548325 0.134635 0.625853
Si Si5 0.794411 0.442098 0.629322
Si Si6 0.890701 0.867991 0.640092
Si Si7 0.684110 0.969875 0.668463
Si Si8 0.228789 0.619268 0.625464
O O1 0.169989 0.265993 0.501198
O O2 0.217798 0.376878 0.515010
O O3 0.881874 0.082252 0.616517
O O4 0.217664 0.875232 0.017537
O O5 0.266802 0.447851 0.253868
O O6 0.954585 0.060411 0.521711
O O7 0.944749 0.567293 0.004221
O O8 0.429952 0.713824 0.464312
O O9 0.394507 0.530594 0.537812
O O10 0.431415 0.184975 0.012307
O O11 0.344368 0.169213 0.450520
O O12 0.728349 0.273529 0.531431
O O13 0.991852 0.550671 0.580457
O O14 0.000000 0.000000 0.500000
O O15 0.500000 0.000000 0.500000
O O16 0.674315 0.143550 0.534506
O O17 0.670654 0.649715 0.021623
#
# Coordination Sequence:
#
# PCOD8010353 Si02
#       8
#     2   2   2   2   2   2   2   2
#     4  10  23  40  62  90 121 158 201 246 303 352
#     4  12  24  40  63  92 121 161 200 243 305 361
#     4  12  24  41  64  89 119 163 206 245 298 354
#     4  12  25  39  63  93 120 161 203 241 304 362
#     4  10  23  44  62  87 124 156 202 259 290 346
#     4  12  23  41  61  86 131 158 193 254 297 353
#     4  10  21  38  59  87 120 158 199 242 294 359
#     4  10  23  40  59  88 123 154 198 249 297 349
#
# _framework density 20.910577
#
# number of rings (size 3 to 8) (size 9 to 14) (size 15 to 20)
#    0.000    1.000    2.500    3.750    3.500    2.000 
#    0.000    0.000    0.000    0.000    0.000    0.000 
#    0.000    0.000    0.000    0.000    0.000    0.000 
#
# Total GULP energy -198545.141056 kJ/mol
# GULP energy per Si atom -12409.071316 kJ/mol
# Density = 2.086298 g / cm^3
# Si number density = 20.910577 Si / 1000 Ang^3
#
#
#
# Elastic Constant Matrix: (Units=GPa)
#
#
# Indices 1 2 3 4 5 6 
#
# 1 68.1895 29.4069 51.9697 -28.7482 -15.8456 -25.0116
# 2 29.4069 53.1421 0.0829 24.3021 27.7956 -15.0438
# 3 51.9697 0.0829 81.7855 18.2011 33.1585 -0.9760
# 4 -28.7482 24.3021 18.2011 14.5123 -20.5925 -3.7462
# 5 -15.8456 27.7956 33.1585 -20.5925 28.2375 -10.7752
# 6 -25.0116 -15.0438 -0.9760 -3.7462 -10.7752 25.6117
#
#
#
# Elastic Compliance Matrix: (Units=1/GPa)
#
#
# Indices 1 2 3 4 5 6 
#
# 1 0.007019 0.006584 0.001211 -0.009439 -0.008656 0.005746
# 2 0.006584 0.016743 -0.006330 0.003289 0.003983 0.018180
# 3 0.001211 -0.006330 0.008071 0.008392 0.003779 0.000590
# 4 -0.009439 0.003289 0.008392 0.012697 -0.013198 -0.010662
# 5 -0.008656 0.003983 0.003779 -0.013198 0.011388 -0.003109
# 6 0.005746 0.018180 0.000590 -0.010662 -0.003109 0.052490
#
#
# Mechanical properties :
#
#
# Convention : Reuss Voigt Hill
#
# Bulk Modulus (GPa) = 28.76520 40.67068 34.71794
# Shear Modulus (GPa) = 42.71062 21.78280 32.24671
#
# Velocity S-wave (km/s) = 4.52435 3.23106 3.93125
# Velocity P-wave (km/s) = 6.40930 5.78028 6.10290
#
# Compressibility (1/GPa) = 0.03476423
#
# Stress axis : x y z
#
# Youngs Moduli (GPa) = 142.46431 59.72477 123.90050
#
# Poissons Ratio (x) = -0.39325 -0.15009
# Poissons Ratio (y) = -0.93803 0.78435
# Poissons Ratio (z) = -0.17258 0.37809
#
# Static dielectric constant tensor:
#      x y z
#    x 3.779040 -0.049600 0.129460 
#    y -0.049600 3.744960 -0.093770 
#    z 0.129460 -0.093770 3.801460 
# 
# 
# High freq. dielectric constant tensor:
#      x y z
#    x 1.822840 -0.008280 0.005530 
#    y -0.008280 1.821280 -0.006430 
#    z 0.005530 -0.006430 1.834930 
# 
# From -- ./inp_files/94925.got.cif
#   From: 2010.06.25/outbox.cif.g09.slc.cpg/sg2_48_cif.got.tgz:94925.got - 2010.06.27 13:26:56.
