data_PCOD8010024
_publ_section_title
;
Structure prediction by ZEFSAII (Michael W. Deem and Ramdas Pophale) SiO2 
 PCOD8010024
Probable space group: P -1
;
_chemical_formula_sum "Si O2"
_cell_formula_units_Z 16
_cell_length_a 14.540290
_cell_length_b 14.012129
_cell_length_c 12.656809
_cell_angle_alpha 147.144298
_cell_angle_beta 138.254227
_cell_angle_gamma 29.469487
_cell_volume 687.205425
_symmetry_space_group_name_H-M "P -1"
_symmetry_group_IT_number 2
_symmetry_cell_setting 'triclinic'
loop_
_space_group_symop_operation_xyz
x,y,z
-x,-y,-z
loop_
_atom_site_type_symbol
_atom_site_label
_atom_site_fract_x
_atom_site_fract_y
_atom_site_fract_z
Si Si1 0.406777 0.053998 0.356409
Si Si2 0.282153 0.572257 0.467606
Si Si3 0.293916 0.818201 0.525019
Si Si4 0.698263 0.284026 0.802545
Si Si5 0.217151 0.410739 0.805507
Si Si6 0.045002 0.374081 0.812580
Si Si7 0.301076 0.526661 0.671799
Si Si8 0.100973 0.200944 0.363683
O O1 0.366213 0.271072 0.463953
O O2 0.211310 0.114020 0.264972
O O3 0.500000 0.000000 0.500000
O O4 0.560009 0.817357 0.200398
O O5 0.205380 0.777317 0.505831
O O6 0.491783 0.330850 0.396748
O O7 0.261691 0.662510 0.654215
O O8 0.150799 0.516467 0.301974
O O9 0.287671 0.720340 0.317039
O O10 0.189998 0.091023 0.684413
O O11 0.479460 0.466790 0.824297
O O12 0.800872 0.018125 0.676969
O O13 0.798411 0.365623 0.018647
O O14 0.124968 0.452522 0.877145
O O15 0.116959 0.383403 0.600545
O O16 0.000000 0.500000 0.000000
O O17 0.114676 0.675511 0.723555
#
# Coordination Sequence:
#
# PCOD8010024 Si02
#       8
#     2   2   2   2   2   2   2   2
#     4  10  21  42  70  92 126 178 207 268 336 373
#     4  10  21  37  64  91 123 175 211 255 324 374
#     4  10  21  41  61  89 133 168 211 263 316 378
#     4  11  22  41  67  91 133 176 208 269 321 375
#     4  11  22  42  64  96 131 167 220 260 317 387
#     4  12  23  39  64  94 129 172 211 260 317 381
#     4  11  20  41  68  91 131 169 213 268 323 382
#     4  11  22  44  66  95 131 170 216 268 323 380
#
# _framework density 23.282705
#
# number of rings (size 3 to 8) (size 9 to 14) (size 15 to 20)
#    0.000    1.250    5.000    2.250    0.000    2.000 
#    2.250    4.375    0.000    0.000    0.000    0.000 
#    0.000    0.000    0.000    0.000    0.000    0.000 
#
# Total GULP energy -198324.609802 kJ/mol
# GULP energy per Si atom -12395.288113 kJ/mol
# Density = 2.322971 g / cm^3
# Si number density = 23.282705 Si / 1000 Ang^3
#
#
#
# Elastic Constant Matrix: (Units=GPa)
#
#
# Indices 1 2 3 4 5 6 
#
# 1 105.4047 -3.0151 15.7306 -3.6403 15.0033 -17.6041
# 2 -3.0151 51.8777 17.7369 -5.3193 9.0029 -13.0381
# 3 15.7306 17.7369 75.1609 -6.2350 17.6181 -13.4149
# 4 -3.6403 -5.3193 -6.2350 9.0699 -0.4916 0.0946
# 5 15.0033 9.0029 17.6181 -0.4916 31.1583 5.3406
# 6 -17.6041 -13.0381 -13.4149 0.0946 5.3406 40.9880
#
#
#
# Elastic Compliance Matrix: (Units=1/GPa)
#
#
# Indices 1 2 3 4 5 6 
#
# 1 0.012489 0.005000 0.000420 0.007660 -0.008988 0.008245
# 2 0.005000 0.026462 -0.001330 0.015894 -0.011027 0.011530
# 3 0.000420 -0.001330 0.018408 0.011356 -0.011286 0.007227
# 4 0.007660 0.015894 0.011356 0.129501 -0.015011 0.013720
# 5 -0.008988 -0.011027 -0.011286 -0.015011 0.048732 -0.017377
# 6 0.008245 0.011530 0.007227 0.013720 -0.017377 0.036204
#
#
# Mechanical properties :
#
#
# Convention : Reuss Voigt Hill
#
# Bulk Modulus (GPa) = 15.25813 32.59425 23.92619
# Shear Modulus (GPa) = 17.51544 29.70927 23.61236
#
# Velocity S-wave (km/s) = 2.74577 3.57602 3.18804
# Velocity P-wave (km/s) = 4.07676 5.57497 4.88366
#
# Compressibility (1/GPa) = 0.06553881
#
# Stress axis : x y z
#
# Youngs Moduli (GPa) = 80.07358 37.78944 54.32382
#
# Poissons Ratio (x) = -0.18893 -0.02284
# Poissons Ratio (y) = -0.40033 0.07225
# Poissons Ratio (z) = -0.03366 0.05026
#
# Static dielectric constant tensor:
#      x y z
#    x 4.735020 -0.375910 0.204370 
#    y -0.375910 4.364650 0.037650 
#    z 0.204370 0.037650 3.800320 
# 
# 
# High freq. dielectric constant tensor:
#      x y z
#    x 1.945840 -0.011160 0.018290 
#    y -0.011160 1.930130 0.003550 
#    z 0.018290 0.003550 1.873690 
# 
# From -- ./inp_files/533931.got.cif
#   From: 2010.06.25/outbox.cif.g09.slc.cpg/sg2_267_cif.got.tgz:533931.got - 2010.06.27 13:26:56.
