data_PCOD8010437
_publ_section_title
;
Structure prediction by ZEFSAII (Michael W. Deem and Ramdas Pophale) SiO2 
 PCOD8010437
Probable space group: P -1
;
_chemical_formula_sum "Si O2"
_cell_formula_units_Z 16
_cell_length_a 17.837862
_cell_length_b 7.825912
_cell_length_c 11.282563
_cell_angle_alpha 119.179066
_cell_angle_beta 45.443317
_cell_angle_gamma 84.647370
_cell_volume 699.988169
_symmetry_space_group_name_H-M "P -1"
_symmetry_group_IT_number 2
_symmetry_cell_setting 'triclinic'
loop_
_space_group_symop_operation_xyz
x,y,z
-x,-y,-z
loop_
_atom_site_type_symbol
_atom_site_label
_atom_site_fract_x
_atom_site_fract_y
_atom_site_fract_z
Si Si1 0.134073 0.924801 0.892158
Si Si2 0.586197 0.879944 0.240809
Si Si3 0.369483 0.913904 0.204012
Si Si4 0.107242 0.253611 0.455247
Si Si5 0.163933 0.312859 0.950569
Si Si6 0.960265 0.267704 0.421647
Si Si7 0.310904 0.334435 0.575073
Si Si8 0.344452 0.516876 0.160348
O O1 0.262967 0.600330 0.659104
O O2 0.186867 0.051557 0.805202
O O3 0.000000 0.000000 0.000000
O O4 0.087471 0.055134 0.117080
O O5 0.745962 0.762565 0.051940
O O6 0.500000 0.000000 0.500000
O O7 0.482733 0.139168 0.353890
O O8 0.607742 0.637951 0.073460
O O9 0.359831 0.728510 0.227571
O O10 0.278727 0.994185 0.211053
O O11 0.289513 0.196295 0.453583
O O12 0.548350 0.717605 0.934116
O O13 0.112358 0.427422 0.418291
O O14 0.038182 0.159598 0.428118
O O15 0.007634 0.422447 0.739993
O O16 0.213572 0.390540 0.815313
O O17 0.827713 0.288887 0.561041
#
# Coordination Sequence:
#
# PCOD8010437 Si02
#       8
#     2   2   2   2   2   2   2   2
#     4  11  25  40  61  94 124 161 214 254 307 371
#     4   9  19  39  65  90 123 162 204 253 313 373
#     4  10  23  39  61  92 121 160 210 251 304 376
#     4  10  21  38  60  89 121 160 203 251 313 363
#     4  10  21  39  64  91 126 161 204 262 306 366
#     4  10  22  39  62  87 125 159 201 259 305 366
#     4  10  22  40  63  91 124 168 207 252 313 369
#     4  10  21  40  63  87 125 160 201 256 307 364
#
# _framework density 22.857527000000001
#
# number of rings (size 3 to 8) (size 9 to 14) (size 15 to 20)
#    0.000    2.000    1.250    1.500    3.500    4.500 
#    0.000    0.000    0.000    0.000    0.000    0.000 
#    0.000    0.000    0.000    0.000    0.000    0.000 
#
# Total GULP energy -198216.891938 kJ/mol
# GULP energy per Si atom -12388.555746 kJ/mol
# Density = 2.280550 g / cm^3
# Si number density = 22.857527 Si / 1000 Ang^3
#
#
#
# Elastic Constant Matrix: (Units=GPa)
#
#
# Indices 1 2 3 4 5 6 
#
# 1 110.6014 12.9809 20.2552 20.4473 -34.6583 -10.1936
# 2 12.9809 47.0690 4.3241 19.0124 1.2203 0.9032
# 3 20.2552 4.3241 45.2026 14.1401 -1.5921 -4.4734
# 4 20.4473 19.0124 14.1401 34.6329 -3.3400 -4.4002
# 5 -34.6583 1.2203 -1.5921 -3.3400 34.1362 8.9439
# 6 -10.1936 0.9032 -4.4734 -4.4002 8.9439 33.9589
#
#
#
# Elastic Compliance Matrix: (Units=1/GPa)
#
#
# Indices 1 2 3 4 5 6 
#
# 1 0.015993 -0.002503 -0.004993 -0.004576 0.015789 -0.000542
# 2 -0.002503 0.028257 0.003058 -0.015966 -0.004447 -0.001997
# 3 -0.004993 0.003058 0.027250 -0.010112 -0.005457 0.002136
# 4 -0.004576 -0.015966 -0.010112 0.044845 -0.001164 0.003836
# 5 0.015789 -0.004447 -0.005457 -0.001164 0.047337 -0.008479
# 6 -0.000542 -0.001997 0.002136 0.003836 -0.008479 0.032350
#
#
# Mechanical properties :
#
#
# Convention : Reuss Voigt Hill
#
# Bulk Modulus (GPa) = 15.96777 30.88813 23.42795
# Shear Modulus (GPa) = 22.14532 31.56645 26.85588
#
# Velocity S-wave (km/s) = 3.11600 3.72022 3.43144
# Velocity P-wave (km/s) = 4.46619 5.65651 5.09622
#
# Compressibility (1/GPa) = 0.06262617
#
# Stress axis : x y z
#
# Youngs Moduli (GPa) = 62.52624 35.38889 36.69755
#
# Poissons Ratio (x) = 0.08856 0.18324
# Poissons Ratio (y) = 0.15647 -0.11224
# Poissons Ratio (z) = 0.31220 -0.10824
#
# Static dielectric constant tensor:
#      x y z
#    x 4.652860 0.028540 -0.358160 
#    y 0.028540 3.836320 0.226720 
#    z -0.358160 0.226720 4.177630 
# 
# 
# High freq. dielectric constant tensor:
#      x y z
#    x 1.926450 -0.001200 -0.012670 
#    y -0.001200 1.868730 0.017160 
#    z -0.012670 0.017160 1.896000 
# 
# From -- ./inp_files/314088.got.cif
#   From: 2010.06.25/outbox.cif.g09.slc.cpg/sg2_158_cif.got.tgz:314088.got - 2010.06.27 13:26:56.
