data_PCOD8010177
_publ_section_title
;
Structure prediction by ZEFSAII (Michael W. Deem and Ramdas Pophale) SiO2 
 PCOD8010177
Probable space group: P -1
;
_chemical_formula_sum "Si O2"
_cell_formula_units_Z 14
_cell_length_a 8.393365
_cell_length_b 9.222406
_cell_length_c 9.448026
_cell_angle_alpha 107.756064
_cell_angle_beta 88.655098
_cell_angle_gamma 68.370401
_cell_volume 639.789386
_symmetry_space_group_name_H-M "P -1"
_symmetry_group_IT_number 2
_symmetry_cell_setting 'triclinic'
loop_
_space_group_symop_operation_xyz
x,y,z
-x,-y,-z
loop_
_atom_site_type_symbol
_atom_site_label
_atom_site_fract_x
_atom_site_fract_y
_atom_site_fract_z
Si Si1 0.093969 0.115489 0.589738
Si Si2 0.292385 0.028552 0.825102
Si Si3 0.943230 0.542162 0.354542
Si Si4 0.632859 0.028067 0.683582
Si Si5 0.507663 0.316371 0.293216
Si Si6 0.539457 0.643618 0.366744
Si Si7 0.789171 0.780457 0.833341
O O1 0.124681 0.081696 0.745882
O O2 0.985363 0.314386 0.641831
O O3 0.273912 0.074703 0.488140
O O4 0.000000 0.000000 0.500000
O O5 0.458351 0.004698 0.717023
O O6 0.337293 0.843227 0.827583
O O7 0.265773 0.159999 0.988438
O O8 0.738888 0.619375 0.351107
O O9 0.000000 0.500000 0.500000
O O10 0.021055 0.368961 0.213464
O O11 0.578814 0.222031 0.706535
O O12 0.767689 0.943070 0.786379
O O13 0.522292 0.475508 0.270722
O O14 0.536711 0.308456 0.459857
O O15 0.323890 0.313551 0.256739
#
# Coordination Sequence:
#
# PCOD8010177 Si02
#       7
#     2   2   2   2   2   2   2
#     4  12  26  40  71  99 128 168 223 274 322 386
#     4  11  23  45  65  96 135 175 216 266 334 389
#     4  12  23  42  66  94 130 171 220 270 327 386
#     4  11  21  44  68  96 124 176 221 259 323 388
#     4  10  21  37  67  98 128 163 225 271 314 382
#     4  11  22  38  70  99 125 169 224 277 311 377
#     4  11  25  42  69  93 136 177 211 269 336 389
#
# _framework density 21.882200000000001
#
# number of rings (size 3 to 8) (size 9 to 14) (size 15 to 20)
#    0.000    0.857    5.714    3.000    4.000    0.571 
#    0.000    7.143    0.000    0.000    0.000    0.000 
#    0.000    0.000    0.000    0.000    0.000    0.000 
#
# Total GULP energy -173451.032919 kJ/mol
# GULP energy per Si atom -12389.359494 kJ/mol
# Density = 2.183240 g / cm^3
# Si number density = 21.882200 Si / 1000 Ang^3
#
#
#
# Elastic Constant Matrix: (Units=GPa)
#
#
# Indices 1 2 3 4 5 6 
#
# 1 41.8387 49.4567 29.5706 5.4612 -2.1322 0.1651
# 2 49.4567 202.9069 44.5938 16.1969 3.6396 -0.9011
# 3 29.5706 44.5938 93.2579 14.1039 0.5963 0.8835
# 4 5.4612 16.1969 14.1039 32.2815 -6.0797 2.0609
# 5 -2.1322 3.6396 0.5963 -6.0797 17.2005 7.4285
# 6 0.1651 -0.9011 0.8835 2.0609 7.4285 32.6018
#
#
#
# Elastic Compliance Matrix: (Units=1/GPa)
#
#
# Indices 1 2 3 4 5 6 
#
# 1 0.040278 -0.008196 -0.009389 0.003313 0.009306 -0.002506
# 2 -0.008196 0.007345 -0.000448 -0.002987 -0.004218 0.001407
# 3 -0.009389 -0.000448 0.014750 -0.005414 -0.003865 0.000858
# 4 0.003313 -0.002987 -0.005414 0.037956 0.017372 -0.006310
# 5 0.009306 -0.004218 -0.003865 0.017372 0.074266 -0.018079
# 6 -0.002506 0.001407 0.000858 -0.006310 -0.018079 0.035220
#
#
# Mechanical properties :
#
#
# Convention : Reuss Voigt Hill
#
# Bulk Modulus (GPa) = 38.01439 65.02730 51.52084
# Shear Modulus (GPa) = 19.63493 30.70891 25.17192
#
# Velocity S-wave (km/s) = 2.99875 3.75023 3.39534
# Velocity P-wave (km/s) = 5.42218 6.96662 6.24235
#
# Compressibility (1/GPa) = 0.02630583
#
# Stress axis : x y z
#
# Youngs Moduli (GPa) = 24.82763 136.14809 67.79890
#
# Poissons Ratio (x) = 1.11593 0.63656
# Poissons Ratio (y) = 0.20350 0.03036
# Poissons Ratio (z) = 0.23310 0.06097
#
# Static dielectric constant tensor:
#      x y z
#    x 3.761400 -0.168870 -0.128610 
#    y -0.168870 4.724400 0.147050 
#    z -0.128610 0.147050 3.737780 
# 
# 
# High freq. dielectric constant tensor:
#      x y z
#    x 1.831800 -0.011280 0.001760 
#    y -0.011280 1.891620 0.010380 
#    z 0.001760 0.010380 1.832450 
# 
# From -- ./inp_files/157672.got.cif
#   From: 2010.06.25/outbox.cif.g09.slc.cpg/sg2_79_cif.got.tgz:157672.got - 2010.06.27 13:26:56.
