data_PCOD8010541
_publ_section_title
;
Structure prediction by ZEFSAII (Michael W. Deem and Ramdas Pophale) SiO2 
 PCOD8010541
Probable space group: P -1
;
_chemical_formula_sum "Si O2"
_cell_formula_units_Z 14
_cell_length_a 9.268380
_cell_length_b 18.364971
_cell_length_c 8.432653
_cell_angle_alpha 58.101089
_cell_angle_beta 32.674808
_cell_angle_gamma 60.959090
_cell_volume 655.288415
_symmetry_space_group_name_H-M "P -1"
_symmetry_group_IT_number 2
_symmetry_cell_setting 'triclinic'
loop_
_space_group_symop_operation_xyz
x,y,z
-x,-y,-z
loop_
_atom_site_type_symbol
_atom_site_label
_atom_site_fract_x
_atom_site_fract_y
_atom_site_fract_z
Si Si1 0.368721 0.749997 0.462991
Si Si2 0.340561 0.878237 0.070844
Si Si3 0.924292 0.761061 0.104561
Si Si4 0.553844 0.441413 0.367611
Si Si5 0.826450 0.978871 0.534232
Si Si6 0.998319 0.435201 0.720906
Si Si7 0.137605 0.910480 0.906157
O O1 0.397185 0.790932 0.216191
O O2 0.336199 0.651692 0.564092
O O3 0.617849 0.763905 0.330659
O O4 0.101104 0.786746 0.760475
O O5 0.024220 0.908523 0.341204
O O6 0.544221 0.942666 0.881799
O O7 0.373269 0.871953 0.855155
O O8 0.036775 0.665311 0.175718
O O9 0.946203 0.833327 0.138047
O O10 0.500000 0.500000 0.500000
O O11 0.280344 0.435217 0.540153
O O12 0.768489 0.474831 0.008091
O O13 0.744846 0.062858 0.403995
O O14 0.000000 0.000000 0.500000
O O15 0.000000 0.500000 0.500000
O O16 0.000000 0.000000 0.000000
#
# Coordination Sequence:
#
# PCOD8010541 Si02
#       7
#     2   2   2   2   2   2   2
#     4  10  21  39  60  83 113 153 197 233 289 360
#     4  11  22  36  55  82 109 142 188 240 283 333
#     4  10  22  40  60  82 117 157 193 237 289 355
#     4  10  21  38  61  90 122 155 194 249 301 356
#     4  11  22  37  57  78 107 148 188 231 285 343
#     4  10  21  39  63  91 121 158 200 241 300 365
#     4  10  23  39  56  84 117 149 194 247 291 334
#
# _framework density 21.364637999999999
#
# number of rings (size 3 to 8) (size 9 to 14) (size 15 to 20)
#    0.000    1.714    0.000    4.286    0.000    6.857 
#    0.000    2.857    0.000    0.000    0.000    0.000 
#    0.000    0.000    0.000    0.000    0.000    0.000 
#
# Total GULP energy -173469.202745 kJ/mol
# GULP energy per Si atom -12390.657339 kJ/mol
# Density = 2.131601 g / cm^3
# Si number density = 21.364638 Si / 1000 Ang^3
#
#
#
# Elastic Constant Matrix: (Units=GPa)
#
#
# Indices 1 2 3 4 5 6 
#
# 1 121.6895 49.1164 25.6704 -24.5612 22.5693 -7.3167
# 2 49.1164 105.9664 32.9535 -16.5636 17.9278 12.5922
# 3 25.6704 32.9535 107.8472 -11.0872 5.1771 -0.1614
# 4 -24.5612 -16.5636 -11.0872 33.9638 -10.9743 5.8410
# 5 22.5693 17.9278 5.1771 -10.9743 37.1518 -13.6848
# 6 -7.3167 12.5922 -0.1614 5.8410 -13.6848 50.4894
#
#
#
# Elastic Compliance Matrix: (Units=1/GPa)
#
#
# Indices 1 2 3 4 5 6 
#
# 1 0.011670 -0.003974 -0.000900 0.004986 -0.003110 0.001260
# 2 -0.003974 0.014170 -0.002889 0.002328 -0.005499 -0.005879
# 3 -0.000900 -0.002889 0.010478 0.001631 0.001247 0.000773
# 4 0.004986 0.002328 0.001631 0.036969 0.005576 -0.002618
# 5 -0.003110 -0.005499 0.001247 0.005576 0.036700 0.010227
# 6 0.001260 -0.005879 0.000773 -0.002618 0.010227 0.024532
#
#
# Mechanical properties :
#
#
# Convention : Reuss Voigt Hill
#
# Bulk Modulus (GPa) = 48.09316 61.22041 54.65679
# Shear Modulus (GPa) = 31.85195 39.50519 35.67857
#
# Velocity S-wave (km/s) = 3.86537 4.30477 4.09098
# Velocity P-wave (km/s) = 6.51774 7.30926 6.92482
#
# Compressibility (1/GPa) = 0.02079298
#
# Stress axis : x y z
#
# Youngs Moduli (GPa) = 85.68850 70.57067 95.43443
#
# Poissons Ratio (x) = 0.28042 0.08588
# Poissons Ratio (y) = 0.34049 0.27576
# Poissons Ratio (z) = 0.07711 0.20391
#
# Static dielectric constant tensor:
#      x y z
#    x 4.208210 0.017070 0.326420 
#    y 0.017070 4.418490 -0.106290 
#    z 0.326420 -0.106290 4.342690 
# 
# 
# High freq. dielectric constant tensor:
#      x y z
#    x 1.840610 -0.008460 -0.000790 
#    y -0.008460 1.830020 -0.010840 
#    z -0.000790 -0.010840 1.843660 
# 
# From -- ./inp_files/46222.got.cif
#   From: 2010.06.25/outbox.cif.g09.slc.cpg/sg2_24_cif.got.tgz:46222.got - 2010.06.27 13:26:56.
