data_PCOD8010156
_publ_section_title
;
Structure prediction by ZEFSAII (Michael W. Deem and Ramdas Pophale) SiO2 
 PCOD8010156
Probable space group: P -1
;
_chemical_formula_sum "Si O2"
_cell_formula_units_Z 16
_cell_length_a 6.422916
_cell_length_b 13.748993
_cell_length_c 24.378304
_cell_angle_alpha 32.709933
_cell_angle_beta 129.928741
_cell_angle_gamma 138.225936
_cell_volume 774.404996
_symmetry_space_group_name_H-M "P -1"
_symmetry_group_IT_number 2
_symmetry_cell_setting 'triclinic'
loop_
_space_group_symop_operation_xyz
x,y,z
-x,-y,-z
loop_
_atom_site_type_symbol
_atom_site_label
_atom_site_fract_x
_atom_site_fract_y
_atom_site_fract_z
Si Si1 0.278948 0.033953 0.601810
Si Si2 0.966353 0.796948 0.768281
Si Si3 0.799673 0.158275 0.438858
Si Si4 0.235147 0.131410 0.854179
Si Si5 0.319345 0.598122 0.893874
Si Si6 0.168281 0.991775 0.263462
Si Si7 0.088965 0.773092 0.072583
Si Si8 0.295421 0.475165 0.775231
O O1 0.135554 0.188128 0.501200
O O2 0.257571 0.925266 0.592504
O O3 0.648816 0.138320 0.631756
O O4 0.058290 0.865864 0.688516
O O5 0.025341 0.989458 0.726356
O O6 0.608286 0.622214 0.791079
O O7 0.182150 0.695615 0.869461
O O8 0.850662 0.388862 0.337831
O O9 0.500000 0.000000 0.500000
O O10 0.547231 0.121536 0.900537
O O11 0.334370 0.358644 0.785202
O O12 0.054998 0.106657 0.778948
O O13 0.025672 0.943295 0.950244
O O14 0.563491 0.772712 0.812110
O O15 0.026128 0.426213 0.891473
O O16 0.500000 0.500000 0.000000
O O17 0.916963 0.707077 0.132563
#
# Coordination Sequence:
#
# PCOD8010156 Si02
#       8
#     2   2   2   2   2   2   2   2
#     4  10  21  37  66  99 129 154 210 272 318 380
#     4  11  21  38  65  93 129 164 214 262 313 377
#     4  11  21  38  69 105 124 160 215 273 327 380
#     4  11  26  41  61  89 139 174 214 262 324 377
#     4  11  21  38  62  90 124 164 225 264 308 365
#     4  11  22  41  62  95 128 172 213 271 316 377
#     4  11  23  43  60  92 128 177 219 261 317 385
#     4  12  22  40  66  94 126 172 215 267 321 385
#
# _framework density 20.661024000000001
#
# number of rings (size 3 to 8) (size 9 to 14) (size 15 to 20)
#    0.000    1.000    6.250    1.125    0.000    2.500 
#    4.500    0.625    0.000    3.750    0.000    0.000 
#    0.000    0.000    0.000    0.000    0.000    0.000 
#
# Total GULP energy -198285.813766 kJ/mol
# GULP energy per Si atom -12392.863360 kJ/mol
# Density = 2.061400 g / cm^3
# Si number density = 20.661024 Si / 1000 Ang^3
#
#
#
# Elastic Constant Matrix: (Units=GPa)
#
#
# Indices 1 2 3 4 5 6 
#
# 1 107.3729 27.8967 46.1108 17.8365 13.0519 -9.3638
# 2 27.8967 87.3262 23.3684 22.4961 7.2501 -5.0146
# 3 46.1108 23.3684 78.3402 25.1887 13.7846 -6.3014
# 4 17.8365 22.4961 25.1887 31.7146 8.1068 7.6427
# 5 13.0519 7.2501 13.7846 8.1068 47.5035 1.7486
# 6 -9.3638 -5.0146 -6.3014 7.6427 1.7486 27.3661
#
#
#
# Elastic Compliance Matrix: (Units=1/GPa)
#
#
# Indices 1 2 3 4 5 6 
#
# 1 0.013166 -0.001825 -0.006162 -0.001657 -0.001390 0.003303
# 2 -0.001825 0.015166 0.000791 -0.011643 -0.000262 0.005605
# 3 -0.006162 0.000791 0.022422 -0.016171 -0.002464 0.007873
# 4 -0.001657 -0.011643 -0.016171 0.059714 -0.002421 -0.022946
# 5 -0.001390 -0.000262 -0.002464 -0.002421 0.022670 -0.001863
# 6 0.003303 0.005605 0.007873 -0.022946 -0.001863 0.047039
#
#
# Mechanical properties :
#
#
# Convention : Reuss Voigt Hill
#
# Bulk Modulus (GPa) = 27.50186 51.97678 39.73932
# Shear Modulus (GPa) = 24.19087 33.02775 28.60931
#
# Velocity S-wave (km/s) = 3.42547 4.00253 3.72519
# Velocity P-wave (km/s) = 5.38378 6.82436 6.14642
#
# Compressibility (1/GPa) = 0.03636118
#
# Stress axis : x y z
#
# Youngs Moduli (GPa) = 75.95316 65.93856 44.59818
#
# Poissons Ratio (x) = 0.12035 0.27482
# Poissons Ratio (y) = 0.13863 -0.03527
# Poissons Ratio (z) = 0.46804 -0.05215
#
# Static dielectric constant tensor:
#      x y z
#    x 4.158290 0.043380 0.495820 
#    y 0.043380 3.432570 0.206540 
#    z 0.495820 0.206540 4.634210 
# 
# 
# High freq. dielectric constant tensor:
#      x y z
#    x 1.824480 -0.003220 0.012030 
#    y -0.003220 1.778460 0.015040 
#    z 0.012030 0.015040 1.809240 
# 
# From -- ./inp_files/208583.got.cif
#   From: 2010.06.25/outbox.cif.g09.slc.cpg/sg2_105_cif.got.tgz:208583.got - 2010.06.27 13:26:56.
