data_PCOD8010411
_publ_section_title
;
Structure prediction by ZEFSAII (Michael W. Deem and Ramdas Pophale) SiO2 
 PCOD8010411
Probable space group: P -1
;
_chemical_formula_sum "Si O2"
_cell_formula_units_Z 16
_cell_length_a 12.113258
_cell_length_b 10.660921
_cell_length_c 14.451347
_cell_angle_alpha 136.199523
_cell_angle_beta 140.474121
_cell_angle_gamma 63.086113
_cell_volume 798.806731
_symmetry_space_group_name_H-M "P -1"
_symmetry_group_IT_number 2
_symmetry_cell_setting 'triclinic'
loop_
_space_group_symop_operation_xyz
x,y,z
-x,-y,-z
loop_
_atom_site_type_symbol
_atom_site_label
_atom_site_fract_x
_atom_site_fract_y
_atom_site_fract_z
Si Si1 0.542959 0.551486 0.662578
Si Si2 0.910974 0.611881 0.881413
Si Si3 0.189253 0.086260 0.127852
Si Si4 0.043417 0.778765 0.340118
Si Si5 0.415313 0.203179 0.499900
Si Si6 0.222857 0.902207 0.335146
Si Si7 0.626070 0.981155 0.961890
Si Si8 0.252420 0.009836 0.754913
O O1 0.500000 0.500000 0.500000
O O2 0.420209 0.416876 0.587669
O O3 0.529124 0.760707 0.785883
O O4 0.747627 0.530807 0.803468
O O5 0.813756 0.699567 0.783197
O O6 0.995403 0.444321 0.814104
O O7 0.050353 0.782901 0.108173
O O8 0.341363 0.077886 0.295653
O O9 0.234238 0.973535 0.007727
O O10 0.000000 0.000000 0.000000
O O11 0.177799 0.893031 0.409930
O O12 0.849186 0.823965 0.233922
O O13 0.140962 0.834510 0.530810
O O14 0.613926 0.183603 0.635968
O O15 0.280082 0.120371 0.453546
O O16 0.459961 0.079341 0.893556
O O17 0.740912 0.048855 0.164405
#
# Coordination Sequence:
#
# PCOD8010411 Si02
#       8
#     2   2   2   2   2   2   2   2
#     4  11  19  34  62  92 118 148 193 259 300 341
#     4  11  21  35  62  90 119 150 196 254 304 343
#     4  11  21  38  63  94 120 151 185 253 319 351
#     4  11  21  38  59  84 118 154 208 240 282 351
#     4  11  22  34  55  96 124 153 174 235 339 349
#     4  11  23  36  56  92 128 152 185 248 317 359
#     4  10  21  38  60  87 118 152 209 236 286 358
#     4  10  23  37  58  83 114 171 198 243 272 338
#
# _framework density 20.029876999999999
#
# number of rings (size 3 to 8) (size 9 to 14) (size 15 to 20)
#    0.000    1.250    5.000    3.375    1.750    0.000 
#    0.000    0.000    0.000    9.000    0.000    0.000 
#    0.000    0.000    0.000    0.000    0.000    0.000 
#
# Total GULP energy -198222.369414 kJ/mol
# GULP energy per Si atom -12388.898088 kJ/mol
# Density = 1.998429 g / cm^3
# Si number density = 20.029877 Si / 1000 Ang^3
#
#
#
# Elastic Constant Matrix: (Units=GPa)
#
#
# Indices 1 2 3 4 5 6 
#
# 1 118.7749 35.2361 36.1762 1.9809 7.8003 0.7995
# 2 35.2361 68.5935 24.7074 -8.9052 4.0641 -5.6199
# 3 36.1762 24.7074 82.0576 -13.1404 9.0416 3.0660
# 4 1.9809 -8.9052 -13.1404 35.5948 0.7504 8.1523
# 5 7.8003 4.0641 9.0416 0.7504 29.6385 -0.5532
# 6 0.7995 -5.6199 3.0660 8.1523 -0.5532 36.9698
#
#
#
# Elastic Compliance Matrix: (Units=1/GPa)
#
#
# Indices 1 2 3 4 5 6 
#
# 1 0.011108 -0.004652 -0.003903 -0.003218 -0.001012 0.000071
# 2 -0.004652 0.018741 -0.003120 0.003235 -0.000429 0.002488
# 3 -0.003903 -0.003120 0.016389 0.006298 -0.003764 -0.003194
# 4 -0.003218 0.003235 0.006298 0.033133 -0.002493 -0.007304
# 5 -0.001012 -0.000429 -0.003764 -0.002493 0.035302 0.001347
# 6 0.000071 0.002488 -0.003194 -0.007304 0.001347 0.029322
#
#
# Mechanical properties :
#
#
# Convention : Reuss Voigt Hill
#
# Bulk Modulus (GPa) = 43.68861 51.29615 47.49238
# Shear Modulus (GPa) = 28.57584 31.99438 30.28511
#
# Velocity S-wave (km/s) = 3.78121 4.00100 3.89266
# Velocity P-wave (km/s) = 6.39707 6.85634 6.63068
#
# Compressibility (1/GPa) = 0.02288926
#
# Stress axis : x y z
#
# Youngs Moduli (GPa) = 90.02741 53.35760 61.01662
#
# Poissons Ratio (x) = 0.24823 0.23812
# Poissons Ratio (y) = 0.41883 0.19035
# Poissons Ratio (z) = 0.35134 0.16646
#
# Static dielectric constant tensor:
#      x y z
#    x 3.325970 -0.367890 -0.182480 
#    y -0.367890 3.235230 -0.522440 
#    z -0.182480 -0.522440 3.688380 
# 
# 
# High freq. dielectric constant tensor:
#      x y z
#    x 1.764480 -0.000270 0.010210 
#    y -0.000270 1.775130 -0.032050 
#    z 0.010210 -0.032050 1.784150 
# 
# From -- ./inp_files/519933.got.cif
#   From: 2010.06.25/outbox.cif.g09.slc.cpg/sg2_260_cif.got.tgz:519933.got - 2010.06.27 13:26:56.
