data_PCOD8010240
_publ_section_title
;
Structure prediction by ZEFSAII (Michael W. Deem and Ramdas Pophale) SiO2 
 PCOD8010240
Probable space group: P -1
;
_chemical_formula_sum "Si O2"
_cell_formula_units_Z 16
_cell_length_a 16.142602
_cell_length_b 13.069344
_cell_length_c 8.337736
_cell_angle_alpha 64.789414
_cell_angle_beta 82.589997
_cell_angle_gamma 33.083551
_cell_volume 770.685375
_symmetry_space_group_name_H-M "P -1"
_symmetry_group_IT_number 2
_symmetry_cell_setting 'triclinic'
loop_
_space_group_symop_operation_xyz
x,y,z
-x,-y,-z
loop_
_atom_site_type_symbol
_atom_site_label
_atom_site_fract_x
_atom_site_fract_y
_atom_site_fract_z
Si Si1 0.742754 0.986711 0.091560
Si Si2 0.795579 0.155239 0.378946
Si Si3 0.974194 0.434567 0.923130
Si Si4 0.924030 0.345087 0.279089
Si Si5 0.517829 0.571926 0.587477
Si Si6 0.166138 0.869325 0.984978
Si Si7 0.612788 0.583347 0.274373
Si Si8 0.114585 0.304340 0.473261
O O1 0.736285 0.933974 0.304193
O O2 0.845557 0.794456 0.061212
O O3 0.846110 0.982330 0.080307
O O4 0.545999 0.234339 0.928893
O O5 0.652825 0.224900 0.396259
O O6 0.808021 0.180821 0.176177
O O7 0.739195 0.328875 0.381141
O O8 0.973823 0.894467 0.574020
O O9 0.831311 0.656292 0.687227
O O10 0.918390 0.387968 0.063639
O O11 0.000000 0.500000 0.000000
O O12 0.726638 0.560968 0.237902
O O13 0.007015 0.338515 0.379308
O O14 0.500000 0.500000 0.500000
O O15 0.544821 0.657782 0.426179
O O16 0.674332 0.368493 0.801736
O O17 0.000000 0.000000 0.000000
O O18 0.000000 0.500000 0.500000
#
# Coordination Sequence:
#
# PCOD8010240 Si02
#       8
#     2   2   2   2   2   2   2   2
#     4  11  21  41  63  86 126 165 196 251 320 351
#     4  11  22  38  60  89 135 165 201 239 302 375
#     4   9  21  40  65  89 110 154 213 260 305 363
#     4  11  21  37  65  92 117 163 205 246 312 358
#     4  10  21  38  56  81 132 162 198 240 291 354
#     4  12  24  36  58  92 126 168 205 243 295 373
#     4  11  24  38  59  97 128 160 203 251 295 378
#     4   9  20  41  63  82 113 153 208 258 304 359
#
# _framework density 20.760740999999999
#
# number of rings (size 3 to 8) (size 9 to 14) (size 15 to 20)
#    0.000    1.500    3.750    2.250    3.500    0.000 
#    0.000    6.250    0.000    0.000    0.000    0.000 
#    0.000    0.000    0.000    0.000    0.000    0.000 
#
# Total GULP energy -198227.165207 kJ/mol
# GULP energy per Si atom -12389.197825 kJ/mol
# Density = 2.071349 g / cm^3
# Si number density = 20.760741 Si / 1000 Ang^3
#
#
#
# Elastic Constant Matrix: (Units=GPa)
#
#
# Indices 1 2 3 4 5 6 
#
# 1 46.6315 30.1176 46.0022 -4.8088 -1.8316 -19.1013
# 2 30.1176 77.5141 34.6292 12.9782 -2.4576 -25.0662
# 3 46.0022 34.6292 177.8631 20.5184 -25.1137 -33.6040
# 4 -4.8088 12.9782 20.5184 36.4936 -5.6367 -6.9538
# 5 -1.8316 -2.4576 -25.1137 -5.6367 21.9017 0.3269
# 6 -19.1013 -25.0662 -33.6040 -6.9538 0.3269 44.6949
#
#
#
# Elastic Compliance Matrix: (Units=1/GPa)
#
#
# Indices 1 2 3 4 5 6 
#
# 1 0.044685 -0.013692 -0.010447 0.016971 -0.005504 0.006245
# 2 -0.013692 0.020831 0.001706 -0.008966 0.000756 0.005714
# 3 -0.010447 0.001706 0.010773 -0.005787 0.010127 0.003618
# 4 0.016971 -0.008966 -0.005787 0.037289 0.003320 0.003651
# 5 -0.005504 0.000756 0.010127 0.003320 0.057664 0.005781
# 6 0.006245 0.005714 0.003618 0.003651 0.005781 0.031493
#
#
# Mechanical properties :
#
#
# Convention : Reuss Voigt Hill
#
# Bulk Modulus (GPa) = 31.82189 58.16741 44.99465
# Shear Modulus (GPa) = 19.37420 33.36868 26.37144
#
# Velocity S-wave (km/s) = 3.05817 4.01346 3.56793
# Velocity P-wave (km/s) = 5.27551 7.03960 6.22041
#
# Compressibility (1/GPa) = 0.03142491
#
# Stress axis : x y z
#
# Youngs Moduli (GPa) = 22.37870 48.00455 92.82420
#
# Poissons Ratio (x) = 0.65727 0.96970
# Poissons Ratio (y) = 0.30640 -0.15835
# Poissons Ratio (z) = 0.23378 -0.08189
#
# Static dielectric constant tensor:
#      x y z
#    x 2.709640 0.469140 0.275100 
#    y 0.469140 3.531180 -0.194510 
#    z 0.275100 -0.194510 4.345660 
# 
# 
# High freq. dielectric constant tensor:
#      x y z
#    x 1.790360 -0.003150 -0.015710 
#    y -0.003150 1.804730 0.018950 
#    z -0.015710 0.018950 1.834280 
# 
# From -- ./inp_files/202946.got.cif
#   From: 2010.06.25/outbox.cif.g09.slc.cpg/sg2_102_cif.got.tgz:202946.got - 2010.06.27 13:26:56.
