data_PCOD8010171
_publ_section_title
;
Structure prediction by ZEFSAII (Michael W. Deem and Ramdas Pophale) SiO2 
 PCOD8010171
Probable space group: P -1
;
_chemical_formula_sum "Si O2"
_cell_formula_units_Z 16
_cell_length_a 14.465080
_cell_length_b 24.153360
_cell_length_c 17.905954
_cell_angle_alpha 21.539172
_cell_angle_beta 149.162967
_cell_angle_gamma 160.863027
_cell_volume 742.345443
_symmetry_space_group_name_H-M "P -1"
_symmetry_group_IT_number 2
_symmetry_cell_setting 'triclinic'
loop_
_space_group_symop_operation_xyz
x,y,z
-x,-y,-z
loop_
_atom_site_type_symbol
_atom_site_label
_atom_site_fract_x
_atom_site_fract_y
_atom_site_fract_z
Si Si1 0.644932 0.815924 0.769988
Si Si2 0.991656 0.923668 0.008928
Si Si3 0.395777 0.760699 0.011721
Si Si4 0.416561 0.919534 0.128620
Si Si5 0.113060 0.788198 0.665758
Si Si6 0.251448 0.560238 0.564011
Si Si7 0.136057 0.317611 0.006609
Si Si8 0.127471 0.071448 0.418299
O O1 0.706858 0.712786 0.890567
O O2 0.781765 0.887693 0.856717
O O3 0.735880 0.034870 0.522718
O O4 0.301454 0.571923 0.836668
O O5 0.877726 0.681784 0.244994
O O6 0.301887 0.124804 0.933336
O O7 0.000000 0.000000 0.000000
O O8 0.332519 0.818059 0.821787
O O9 0.385457 0.860993 0.951523
O O10 0.160894 0.480789 0.215097
O O11 0.393366 0.730536 0.375366
O O12 0.096832 0.776224 0.095647
O O13 0.500000 0.000000 0.000000
O O14 0.000949 0.842510 0.576990
O O15 0.522444 0.709478 0.620250
O O16 0.000000 0.500000 0.500000
O O17 0.007128 0.147110 0.203025
O O18 0.000000 0.000000 0.500000
#
# Coordination Sequence:
#
# PCOD8010171 Si02
#       8
#     2   2   2   2   2   2   2   2
#     4  10  21  42  64  96 124 172 220 275 336 396
#     4  12  26  44  69 100 135 174 223 285 344 408
#     4  11  24  46  63  96 136 178 224 274 351 411
#     4  12  25  42  69 101 136 178 230 287 337 406
#     4  10  24  41  69  89 135 180 213 277 349 406
#     4  12  23  44  73  97 136 181 235 280 339 409
#     4  10  21  37  67  95 128 163 227 278 325 388
#     4  11  22  39  66 100 129 174 229 281 336 408
#
# _framework density 21.553307
#
# number of rings (size 3 to 8) (size 9 to 14) (size 15 to 20)
#    0.000    1.000    5.000    0.750    7.000    1.500 
#    2.250    0.625    0.000    0.000    0.000    0.000 
#    0.000    0.000    0.000    0.000    0.000    0.000 
#
# Total GULP energy -198317.897560 kJ/mol
# GULP energy per Si atom -12394.868597 kJ/mol
# Density = 2.150425 g / cm^3
# Si number density = 21.553307 Si / 1000 Ang^3
#
#
#
# Elastic Constant Matrix: (Units=GPa)
#
#
# Indices 1 2 3 4 5 6 
#
# 1 74.9773 13.7651 30.1359 -12.8200 -9.7551 -26.3337
# 2 13.7651 116.2764 50.9874 -15.9928 2.0448 -24.3408
# 3 30.1359 50.9874 148.8380 -19.4887 -7.5864 -24.0475
# 4 -12.8200 -15.9928 -19.4887 36.1683 -4.9144 -1.0820
# 5 -9.7551 2.0448 -7.5864 -4.9144 27.7326 5.9087
# 6 -26.3337 -24.3408 -24.0475 -1.0820 5.9087 30.8319
#
#
#
# Elastic Compliance Matrix: (Units=1/GPa)
#
#
# Indices 1 2 3 4 5 6 
#
# 1 0.022834 0.003381 -0.000765 0.010478 0.004957 0.020992
# 2 0.003381 0.012445 -0.002504 0.005438 -0.001859 0.011307
# 3 -0.000765 -0.002504 0.009020 0.003904 0.002197 0.004121
# 4 0.010478 0.005438 0.003904 0.037378 0.007534 0.016155
# 5 0.004957 -0.001859 0.002197 0.007534 0.040519 -0.003021
# 6 0.020992 0.011307 0.004121 0.016155 -0.003021 0.063650
#
#
# Mechanical properties :
#
#
# Convention : Reuss Voigt Hill
#
# Bulk Modulus (GPa) = 22.46014 58.87430 40.66722
# Shear Modulus (GPa) = 24.94212 35.29344 30.11778
#
# Velocity S-wave (km/s) = 3.40550 4.05099 3.74219
# Velocity P-wave (km/s) = 5.08985 7.01824 6.13034
#
# Compressibility (1/GPa) = 0.04452332
#
# Stress axis : x y z
#
# Youngs Moduli (GPa) = 43.79491 80.35034 110.86004
#
# Poissons Ratio (x) = -0.27164 0.08481
# Poissons Ratio (y) = -0.14806 0.27757
# Poissons Ratio (z) = 0.03351 0.20118
#
# Static dielectric constant tensor:
#      x y z
#    x 3.604240 -0.022490 -0.243140 
#    y -0.022490 4.438080 0.193650 
#    z -0.243140 0.193650 4.610520 
# 
# 
# High freq. dielectric constant tensor:
#      x y z
#    x 1.820350 -0.007570 -0.015460 
#    y -0.007570 1.861220 0.002300 
#    z -0.015460 0.002300 1.859930 
# 
# From -- ./inp_files/539315.got.cif
#   From: 2010.06.25/outbox.cif.g09.slc.cpg/sg2_270_cif.got.tgz:539315.got - 2010.06.27 13:26:56.
