data_PCOD8010320
_publ_section_title
;
Structure prediction by ZEFSAII (Michael W. Deem and Ramdas Pophale) SiO2 
 PCOD8010320
Probable space group: P -1
;
_chemical_formula_sum "Si O2"
_cell_formula_units_Z 16
_cell_length_a 8.279838
_cell_length_b 21.153560
_cell_length_c 16.092445
_cell_angle_alpha 20.180568
_cell_angle_beta 52.030345
_cell_angle_gamma 51.588961
_cell_volume 756.518732
_symmetry_space_group_name_H-M "P -1"
_symmetry_group_IT_number 2
_symmetry_cell_setting 'triclinic'
loop_
_space_group_symop_operation_xyz
x,y,z
-x,-y,-z
loop_
_atom_site_type_symbol
_atom_site_label
_atom_site_fract_x
_atom_site_fract_y
_atom_site_fract_z
Si Si1 0.815275 0.157819 0.842180
Si Si2 0.532555 0.060687 0.737157
Si Si3 0.108218 0.126594 0.249344
Si Si4 0.322993 0.461116 0.538884
Si Si5 0.024529 0.762931 0.022877
Si Si6 0.139905 0.497468 0.878470
Si Si7 0.403854 0.451257 0.334552
Si Si8 0.128238 0.858531 0.343628
O O1 0.838434 0.344237 0.655762
O O2 0.807326 0.207086 0.687407
O O3 0.596311 0.101583 0.003920
O O4 0.000000 0.000000 0.000000
O O5 0.380847 0.259903 0.528813
O O6 0.675378 0.087692 0.736930
O O7 0.670532 0.997137 0.690920
O O8 0.133771 0.316883 0.049350
O O9 0.000000 0.000000 0.500000
O O10 0.969093 0.180882 0.144855
O O11 0.500000 0.500000 0.500000
O O12 0.413454 0.412764 0.478241
O O13 0.195463 0.303769 0.805226
O O14 0.217458 0.608728 0.173815
O O15 0.041724 0.951380 0.837333
O O16 0.379433 0.493389 0.832346
O O17 0.046642 0.685194 0.626751
O O18 0.000000 0.500000 0.000000
#
# Coordination Sequence:
#
# PCOD8010320 Si02
#       8
#     2   2   2   2   2   2   2   2
#     4  12  22  34  54  88 122 153 192 241 288 341
#     4  10  21  38  59  83 117 159 194 234 291 353
#     4  11  23  43  65  86 114 154 201 245 294 360
#     4  12  22  36  60  90 123 163 198 237 294 361
#     4  11  22  39  61  91 123 156 197 249 297 345
#     4  11  23  43  65  86 114 154 201 245 294 360
#     4  11  22  39  61  91 123 156 197 249 297 345
#     4  10  21  38  59  83 117 159 194 234 291 353
#
# _framework density 21.149511
#
# number of rings (size 3 to 8) (size 9 to 14) (size 15 to 20)
#    0.000    1.000    0.000   10.500    0.000    0.000 
#    0.000    6.250    0.000    0.000    0.000    0.000 
#    0.000    0.000    0.000    0.000    0.000    0.000 
#
# Total GULP energy -198386.957689 kJ/mol
# GULP energy per Si atom -12399.184856 kJ/mol
# Density = 2.110137 g / cm^3
# Si number density = 21.149511 Si / 1000 Ang^3
#
#
#
# Elastic Constant Matrix: (Units=GPa)
#
#
# Indices 1 2 3 4 5 6 
#
# 1 44.0288 33.3169 36.0032 9.4712 4.0920 -6.5552
# 2 33.3169 163.6421 78.0741 -2.4073 -4.4358 1.5230
# 3 36.0032 78.0741 162.1659 0.8442 -6.8198 -0.8772
# 4 9.4712 -2.4073 0.8442 63.2591 -1.1391 -1.7821
# 5 4.0920 -4.4358 -6.8198 -1.1391 27.6208 -14.7442
# 6 -6.5552 1.5230 -0.8772 -1.7821 -14.7442 28.5992
#
#
#
# Elastic Compliance Matrix: (Units=1/GPa)
#
#
# Indices 1 2 3 4 5 6 
#
# 1 0.032495 -0.004346 -0.005253 -0.004899 -0.004361 0.004965
# 2 -0.004346 0.008530 -0.003125 0.000997 0.000678 -0.001135
# 3 -0.005253 -0.003125 0.008962 0.000623 0.002937 0.000790
# 4 -0.004899 0.000997 0.000623 0.016642 0.002293 0.001062
# 5 -0.004361 0.000678 0.002937 0.002293 0.051533 0.025765
# 6 0.004965 -0.001135 0.000790 0.001062 0.025765 0.049538
#
#
# Mechanical properties :
#
#
# Convention : Reuss Voigt Hill
#
# Bulk Modulus (GPa) = 40.75123 73.84724 57.29924
# Shear Modulus (GPa) = 24.83521 38.72531 31.78026
#
# Velocity S-wave (km/s) = 3.43048 4.28369 3.88061
# Velocity P-wave (km/s) = 5.91616 7.71098 6.87241
#
# Compressibility (1/GPa) = 0.02453914
#
# Stress axis : x y z
#
# Youngs Moduli (GPa) = 30.77404 117.23079 111.58625
#
# Poissons Ratio (x) = 0.50950 0.58616
# Poissons Ratio (y) = 0.13375 0.34868
# Poissons Ratio (z) = 0.16165 0.36632
#
# Static dielectric constant tensor:
#      x y z
#    x 3.589150 0.061420 -0.065290 
#    y 0.061420 4.285610 -0.531070 
#    z -0.065290 -0.531070 4.190710 
# 
# 
# High freq. dielectric constant tensor:
#      x y z
#    x 1.804200 0.000930 -0.002420 
#    y 0.000930 1.851180 -0.023810 
#    z -0.002420 -0.023810 1.847100 
# 
# From -- ./inp_files/223253.got.cif
#   From: 2010.06.25/outbox.cif.g09.slc.cpg/sg2_112_cif.got.tgz:223253.got - 2010.06.27 13:26:56.
