data_PCOD8010017
_publ_section_title
;
Structure prediction by ZEFSAII (Michael W. Deem and Ramdas Pophale) SiO2 
 PCOD8010017
Probable space group: P -1
;
_chemical_formula_sum "Si O2"
_cell_formula_units_Z 16
_cell_length_a 7.551535
_cell_length_b 8.083892
_cell_length_c 11.428290
_cell_angle_alpha 109.969891
_cell_angle_beta 88.960782
_cell_angle_gamma 111.705454
_cell_volume 604.517790
_symmetry_space_group_name_H-M "P -1"
_symmetry_group_IT_number 2
_symmetry_cell_setting 'triclinic'
loop_
_space_group_symop_operation_xyz
x,y,z
-x,-y,-z
loop_
_atom_site_type_symbol
_atom_site_label
_atom_site_fract_x
_atom_site_fract_y
_atom_site_fract_z
Si Si1 0.674533 0.939019 0.012137
Si Si2 0.373953 0.442133 0.188875
Si Si3 0.051590 0.573281 0.258262
Si Si4 0.824731 0.102587 0.821264
Si Si5 0.666902 0.477688 0.376637
Si Si6 0.241455 0.786871 0.525827
Si Si7 0.107517 0.150732 0.433610
Si Si8 0.565453 0.877724 0.242029
O O1 0.616833 0.712526 0.940094
O O2 0.846900 0.061526 0.949561
O O3 0.726496 0.966213 0.157203
O O4 0.500000 0.000000 0.000000
O O5 0.152736 0.423424 0.200317
O O6 0.459975 0.396249 0.297460
O O7 0.517027 0.654115 0.201060
O O8 0.034349 0.681961 0.164996
O O9 0.209750 0.744305 0.376867
O O10 0.838893 0.476179 0.288790
O O11 0.609694 0.078749 0.793832
O O12 0.864838 0.945207 0.707368
O O13 0.651928 0.337494 0.450113
O O14 0.700149 0.687883 0.476466
O O15 0.027125 0.731946 0.568432
O O16 0.359879 0.012113 0.608826
O O17 0.000000 0.000000 0.500000
#
# Coordination Sequence:
#
# PCOD8010017 Si02
#       8
#     2   2   2   2   2   2   2   2
#     4  10  22  43  67  91 123 166 219 270 310 370
#     4  11  24  40  71  91 124 174 211 261 333 371
#     4  10  23  40  62 101 131 165 207 260 325 390
#     4  10  21  37  64  90 124 167 211 259 318 376
#     4  11  23  38  60  97 136 163 206 263 313 390
#     4  11  23  39  61  94 136 165 207 263 318 382
#     4  11  20  37  61  91 134 172 199 256 331 377
#     4  10  23  42  65  90 126 168 221 262 310 379
#
# _framework density 26.467376000000002
#
# number of rings (size 3 to 8) (size 9 to 14) (size 15 to 20)
#    0.000    1.500    2.500    4.125    5.250    1.500 
#    0.000    0.625    5.500    5.250    0.000    0.000 
#    0.000    0.000    0.000    0.000    0.000    0.000 
#
# Total GULP energy -198258.688170 kJ/mol
# GULP energy per Si atom -12391.168011 kJ/mol
# Density = 2.640713 g / cm^3
# Si number density = 26.467376 Si / 1000 Ang^3
#
#
#
# Elastic Constant Matrix: (Units=GPa)
#
#
# Indices 1 2 3 4 5 6 
#
# 1 51.8316 14.4934 5.8288 4.2324 -16.9479 -20.8050
# 2 14.4934 101.7306 23.9232 -3.6974 -13.2893 -24.0027
# 3 5.8288 23.9232 64.0763 -3.0934 -18.9432 -16.2615
# 4 4.2324 -3.6974 -3.0934 49.0349 -0.1897 -6.0217
# 5 -16.9479 -13.2893 -18.9432 -0.1897 37.8178 3.7604
# 6 -20.8050 -24.0027 -16.2615 -6.0217 3.7604 34.6174
#
#
#
# Elastic Compliance Matrix: (Units=1/GPa)
#
#
# Indices 1 2 3 4 5 6 
#
# 1 0.032128 0.001001 0.006967 0.000458 0.016093 0.021607
# 2 0.001001 0.012560 -0.001568 0.001823 0.003237 0.008539
# 3 0.006967 -0.001568 0.022655 0.002327 0.012661 0.012771
# 4 0.000458 0.001823 0.002327 0.021405 0.001503 0.006192
# 5 0.016093 0.003237 0.012661 0.001503 0.039769 0.013805
# 6 0.021607 0.008539 0.012771 0.006192 0.013805 0.053371
#
#
# Mechanical properties :
#
#
# Convention : Reuss Voigt Hill
#
# Bulk Modulus (GPa) = 12.47785 34.01439 23.24612
# Shear Modulus (GPa) = 25.53627 35.85356 30.69491
#
# Velocity S-wave (km/s) = 3.10953 3.68453 3.40917
# Velocity P-wave (km/s) = 4.19724 5.56600 4.92936
#
# Compressibility (1/GPa) = 0.08014204
#
# Stress axis : x y z
#
# Youngs Moduli (GPa) = 31.12596 79.61847 44.14122
#
# Poissons Ratio (x) = -0.07974 -0.30753
# Poissons Ratio (y) = -0.03117 0.06923
# Poissons Ratio (z) = -0.21685 0.12487
#
# Static dielectric constant tensor:
#      x y z
#    x 4.971440 -0.307160 -0.376110 
#    y -0.307160 4.830580 -0.251830 
#    z -0.376110 -0.251830 5.120920 
# 
# 
# High freq. dielectric constant tensor:
#      x y z
#    x 2.058450 -0.021110 -0.023120 
#    y -0.021110 2.063850 -0.010300 
#    z -0.023120 -0.010300 2.049060 
# 
# From -- ./inp_files/218827.got.cif
#   From: 2010.06.25/outbox.cif.g09.slc.cpg/sg2_110_cif.got.tgz:218827.got - 2010.06.27 13:26:56.
