data_PCOD8010543
_publ_section_title
;
Structure prediction by ZEFSAII (Michael W. Deem and Ramdas Pophale) SiO2 
 PCOD8010543
Probable space group: P -1
;
_chemical_formula_sum "Si O2"
_cell_formula_units_Z 14
_cell_length_a 11.053620
_cell_length_b 15.278418
_cell_length_c 14.605092
_cell_angle_alpha 152.883843
_cell_angle_beta 43.398928
_cell_angle_gamma 119.405596
_cell_volume 670.149493
_symmetry_space_group_name_H-M "P -1"
_symmetry_group_IT_number 2
_symmetry_cell_setting 'triclinic'
loop_
_space_group_symop_operation_xyz
x,y,z
-x,-y,-z
loop_
_atom_site_type_symbol
_atom_site_label
_atom_site_fract_x
_atom_site_fract_y
_atom_site_fract_z
Si Si1 0.955526 0.578748 0.841611
Si Si2 0.977974 0.201567 0.257334
Si Si3 0.519999 0.816893 0.247218
Si Si4 0.745339 0.631102 0.682508
Si Si5 0.335840 0.875816 0.212417
Si Si6 0.109658 0.938460 0.638489
Si Si7 0.973340 0.236234 0.648792
O O1 0.151401 0.432878 0.534326
O O2 0.963003 0.458351 0.821299
O O3 0.752551 0.617086 0.934998
O O4 0.943505 0.810527 0.084040
O O5 0.790770 0.416504 0.516677
O O6 0.947587 0.165658 0.344826
O O7 0.177095 0.227688 0.169886
O O8 0.000000 0.000000 0.000000
O O9 0.454134 0.903401 0.260093
O O10 0.348731 0.761969 0.326005
O O11 0.500000 0.000000 0.500000
O O12 0.500329 0.769163 0.940110
O O13 0.233432 0.722622 0.148081
O O14 0.161932 0.121061 0.507441
O O15 0.982398 0.936438 0.619156
#
# Coordination Sequence:
#
# PCOD8010543 Si02
#       7
#     2   2   2   2   2   2   2
#     4  11  21  40  64  93 120 156 205 251 302 353
#     4  11  21  36  59  93 130 154 196 252 308 356
#     4   9  20  36  61  91 118 149 200 252 294 350
#     4  11  23  37  61  92 123 157 201 248 304 357
#     4  10  23  42  62  87 124 163 202 245 307 358
#     4  10  21  38  61  90 124 157 202 251 299 357
#     4  10  23  44  62  84 124 166 201 248 296 365
#
# _framework density 20.89086
#
# number of rings (size 3 to 8) (size 9 to 14) (size 15 to 20)
#    0.000    1.714    2.857    1.714    4.000    1.714 
#    0.000   13.571    0.000    0.000    0.000    0.000 
#    0.000    0.000    0.000    0.000    0.000    0.000 
#
# Total GULP energy -173471.602157 kJ/mol
# GULP energy per Si atom -12390.828725 kJ/mol
# Density = 2.084331 g / cm^3
# Si number density = 20.890860 Si / 1000 Ang^3
#
#
#
# Elastic Constant Matrix: (Units=GPa)
#
#
# Indices 1 2 3 4 5 6 
#
# 1 55.1956 25.2708 23.0769 -3.9771 -10.4102 -4.5662
# 2 25.2708 127.8884 47.0787 2.6531 -13.7778 -5.1896
# 3 23.0769 47.0787 84.1848 -21.8436 -11.3206 9.8908
# 4 -3.9771 2.6531 -21.8436 40.8491 4.0869 3.9812
# 5 -10.4102 -13.7778 -11.3206 4.0869 33.3608 7.7995
# 6 -4.5662 -5.1896 9.8908 3.9812 7.7995 27.7670
#
#
#
# Elastic Compliance Matrix: (Units=1/GPa)
#
#
# Indices 1 2 3 4 5 6 
#
# 1 0.022155 -0.001749 -0.005554 -0.001485 0.003426 0.004545
# 2 -0.001749 0.011534 -0.007954 -0.005784 0.001000 0.005250
# 3 -0.005554 -0.007954 0.023631 0.013519 0.004631 -0.014056
# 4 -0.001485 -0.005784 0.013519 0.032981 0.000253 -0.010940
# 5 0.003426 0.001000 0.004631 0.000253 0.035551 -0.010922
# 6 0.004545 0.005250 -0.014056 -0.010940 -0.010922 0.047386
#
#
# Mechanical properties :
#
#
# Convention : Reuss Voigt Hill
#
# Bulk Modulus (GPa) = 37.30377 50.90240 44.10308
# Shear Modulus (GPa) = 23.50872 31.85156 27.68014
#
# Velocity S-wave (km/s) = 3.35821 3.90893 3.64399
# Velocity P-wave (km/s) = 5.73864 6.69266 6.23393
#
# Compressibility (1/GPa) = 0.02680694
#
# Stress axis : x y z
#
# Youngs Moduli (GPa) = 45.13585 86.70331 42.31740
#
# Poissons Ratio (x) = 0.15165 0.23502
# Poissons Ratio (y) = 0.07895 0.33658
# Poissons Ratio (z) = 0.25067 0.68960
#
# Static dielectric constant tensor:
#      x y z
#    x 3.796180 0.109730 -0.106580 
#    y 0.109730 3.805070 -0.138550 
#    z -0.106580 -0.138550 3.710450 
# 
# 
# High freq. dielectric constant tensor:
#      x y z
#    x 1.805120 0.000700 0.004030 
#    y 0.000700 1.831990 -0.013000 
#    z 0.004030 -0.013000 1.803200 
# 
# From -- ./inp_files/469630.got.cif
#   From: 2010.06.25/outbox.cif.g09.slc.cpg/sg2_235_cif.got.tgz:469630.got - 2010.06.27 13:26:56.
