data_PCOD8010634
_publ_section_title
;
Structure prediction by ZEFSAII (Michael W. Deem and Ramdas Pophale) SiO2 
 PCOD8010634
Probable space group: P -1
;
_chemical_formula_sum "Si O2"
_cell_formula_units_Z 16
_cell_length_a 12.589673
_cell_length_b 14.790163
_cell_length_c 8.735115
_cell_angle_alpha 131.604933
_cell_angle_beta 140.430821
_cell_angle_gamma 46.099602
_cell_volume 716.241067
_symmetry_space_group_name_H-M "P -1"
_symmetry_group_IT_number 2
_symmetry_cell_setting 'triclinic'
loop_
_space_group_symop_operation_xyz
x,y,z
-x,-y,-z
loop_
_atom_site_type_symbol
_atom_site_label
_atom_site_fract_x
_atom_site_fract_y
_atom_site_fract_z
Si Si1 0.146987 0.265315 0.570352
Si Si2 0.221491 0.983896 0.842611
Si Si3 0.613144 0.211872 0.712162
Si Si4 0.142288 0.029201 0.475305
Si Si5 0.465879 0.741640 0.992544
Si Si6 0.085998 0.478894 0.241159
Si Si7 0.219634 0.225295 0.274468
Si Si8 0.527198 0.521286 0.234787
O O1 0.078500 0.173948 0.497248
O O2 0.361327 0.220004 0.771674
O O3 0.101083 0.247754 0.323097
O O4 0.052203 0.415185 0.681700
O O5 0.248777 0.022860 0.743700
O O6 0.283229 0.076846 0.121924
O O7 0.018779 0.013537 0.703236
O O8 0.341876 0.830563 0.821157
O O9 0.662749 0.220155 0.954932
O O10 0.400938 0.246905 0.533220
O O11 0.619255 0.328900 0.738579
O O12 0.732141 0.071337 0.622054
O O13 0.522648 0.586585 0.847703
O O14 0.101545 0.333590 0.142714
O O15 0.277523 0.493099 0.497012
O O16 0.000000 0.500000 0.000000
O O17 0.500000 0.500000 0.000000
#
# Coordination Sequence:
#
# PCOD8010634 Si02
#       8
#     2   2   2   2   2   2   2   2
#     4  11  23  40  63  89 122 164 208 256 311 373
#     4  11  24  39  57  86 120 157 205 259 315 375
#     4   9  20  39  61  87 117 156 202 252 307 367
#     4  11  24  39  57  85 122 160 202 258 320 372
#     4  10  21  38  62  90 119 156 207 255 303 371
#     4  11  23  40  64  94 130 167 206 257 314 366
#     4  10  22  39  61  89 120 159 208 253 304 374
#     4   9  20  40  64  90 124 163 206 252 302 368
#
# _framework density 22.338847999999999
#
# number of rings (size 3 to 8) (size 9 to 14) (size 15 to 20)
#    0.000    1.750    0.000    4.125    0.000   12.000 
#    0.000    1.250    0.000    0.000    0.000    0.000 
#    0.000    0.000    0.000    0.000    0.000    0.000 
#
# Total GULP energy -198263.685444 kJ/mol
# GULP energy per Si atom -12391.480340 kJ/mol
# Density = 2.228800 g / cm^3
# Si number density = 22.338848 Si / 1000 Ang^3
#
#
#
# Elastic Constant Matrix: (Units=GPa)
#
#
# Indices 1 2 3 4 5 6 
#
# 1 49.1751 6.2534 0.4266 -0.7009 3.6855 19.8543
# 2 6.2534 106.8826 4.9908 6.1369 7.8174 26.4571
# 3 0.4266 4.9908 76.3053 -5.0369 -6.5860 17.7105
# 4 -0.7009 6.1369 -5.0369 38.3388 5.2640 -2.7363
# 5 3.6855 7.8174 -6.5860 5.2640 9.3907 -2.8495
# 6 19.8543 26.4571 17.7105 -2.7363 -2.8495 42.7140
#
#
#
# Elastic Compliance Matrix: (Units=1/GPa)
#
#
# Indices 1 2 3 4 5 6 
#
# 1 0.028431 0.003938 0.002144 0.001539 -0.019173 -0.017724
# 2 0.003938 0.012994 0.000351 -0.000680 -0.015096 -0.011075
# 3 0.002144 0.000351 0.015368 0.000507 0.007215 -0.007072
# 4 0.001539 -0.000680 0.000507 0.028440 -0.015540 0.000281
# 5 -0.019173 -0.015096 0.007215 -0.015540 0.147672 0.024127
# 6 -0.017724 -0.011075 -0.007072 0.000281 0.024127 0.043069
#
#
# Mechanical properties :
#
#
# Convention : Reuss Voigt Hill
#
# Bulk Modulus (GPa) = 14.35599 28.41163 21.38381
# Shear Modulus (GPa) = 17.46241 32.80152 25.13197
#
# Velocity S-wave (km/s) = 2.79893 3.83608 3.35779
# Velocity P-wave (km/s) = 4.10923 5.68918 4.96249
#
# Compressibility (1/GPa) = 0.06965736
#
# Stress axis : x y z
#
# Youngs Moduli (GPa) = 35.17293 76.95964 65.07084
#
# Poissons Ratio (x) = -0.30304 -0.13951
# Poissons Ratio (y) = -0.13850 -0.02282
# Poissons Ratio (z) = -0.07541 -0.02699
#
# Static dielectric constant tensor:
#      x y z
#    x 3.794640 0.259690 -0.077710 
#    y 0.259690 4.178570 0.026370 
#    z -0.077710 0.026370 4.007130 
# 
# 
# High freq. dielectric constant tensor:
#      x y z
#    x 1.857820 0.015220 -0.001510 
#    y 0.015220 1.899080 0.001670 
#    z -0.001510 0.001670 1.875620 
# 
# From -- ./inp_files/182426.got.cif
#   From: 2010.06.25/outbox.cif.g09.slc.cpg/sg2_92_cif.got.tgz:182426.got - 2010.06.27 13:26:56.
