data_PCOD8010953
_publ_section_title
;
Structure prediction by ZEFSAII (Michael W. Deem and Ramdas Pophale) SiO2 
 PCOD8010953
Probable space group: P -1
;
_chemical_formula_sum "Si O2"
_cell_formula_units_Z 12
_cell_length_a 10.862797
_cell_length_b 9.204906
_cell_length_c 9.590102
_cell_angle_alpha 149.409968
_cell_angle_beta 94.893930
_cell_angle_gamma 81.064528
_cell_volume 479.827315
_symmetry_space_group_name_H-M "P -1"
_symmetry_group_IT_number 2
_symmetry_cell_setting 'triclinic'
loop_
_space_group_symop_operation_xyz
x,y,z
-x,-y,-z
loop_
_atom_site_type_symbol
_atom_site_label
_atom_site_fract_x
_atom_site_fract_y
_atom_site_fract_z
Si Si1 0.578237 0.601790 0.901707
Si Si2 0.125084 0.294529 0.382190
Si Si3 0.180935 0.207349 0.015847
Si Si4 0.037112 0.839496 0.514641
Si Si5 0.362935 0.873753 0.282590
Si Si6 0.675290 0.490511 0.258568
O O1 0.673245 0.771481 0.971653
O O2 0.656609 0.304183 0.726602
O O3 0.468254 0.530655 0.726255
O O4 0.509691 0.793379 0.182254
O O5 0.168739 0.106217 0.092621
O O6 0.231717 0.494294 0.590898
O O7 0.000000 0.500000 0.500000
O O8 0.089584 0.115438 0.365443
O O9 0.087805 0.502520 0.214739
O O10 0.146969 0.965443 0.709214
O O11 0.000000 0.000000 0.500000
O O12 0.326213 0.212790 0.585237
O O13 0.278476 0.775773 0.063857
#
# Coordination Sequence:
#
# PCOD8010953 Si02
#       6
#     2   2   2   2   2   2
#     4   9  22  37  65  95 135 155 220 258 345 358
#     4  10  25  47  65  93 139 174 219 263 329 383
#     4  11  25  42  67  95 135 169 208 282 320 387
#     4  11  26  43  69  95 124 176 225 266 316 384
#     4   9  21  35  61  98 128 163 206 274 315 389
#     4  10  21  38  65  91 126 174 210 260 325 382
#
# _framework density 25.008996
#
# number of rings (size 3 to 8) (size 9 to 14) (size 15 to 20)
#    1.000    1.000    0.000    1.500    7.000    6.000 
#    0.000    0.833    0.000    0.000    0.000    0.000 
#    0.000    0.000    0.000    0.000    0.000    0.000 
#
# Total GULP energy -148692.977276 kJ/mol
# GULP energy per Si atom -12391.081440 kJ/mol
# Density = 2.495207 g / cm^3
# Si number density = 25.008996 Si / 1000 Ang^3
#
#
#
# Elastic Constant Matrix: (Units=GPa)
#
#
# Indices 1 2 3 4 5 6 
#
# 1 110.8506 22.8014 14.7493 -25.5609 31.2636 13.9907
# 2 22.8014 73.8379 -2.6761 -36.9549 3.6715 21.1892
# 3 14.7493 -2.6761 67.4676 -10.7042 25.6101 7.7879
# 4 -25.5609 -36.9549 -10.7042 40.2340 -10.5185 4.1145
# 5 31.2636 3.6715 25.6101 -10.5185 46.0524 -11.0460
# 6 13.9907 21.1892 7.7879 4.1145 -11.0460 41.3876
#
#
#
# Elastic Compliance Matrix: (Units=1/GPa)
#
#
# Indices 1 2 3 4 5 6 
#
# 1 0.019935 0.017669 0.012217 0.029266 -0.021460 -0.026720
# 2 0.017669 0.071633 0.032038 0.083859 -0.032098 -0.065579
# 3 0.012217 0.032038 0.036605 0.042912 -0.030986 -0.039956
# 4 0.029266 0.083859 0.042912 0.129812 -0.041101 -0.084776
# 5 -0.021460 -0.032098 -0.030986 -0.041101 0.058491 0.049215
# 6 -0.026720 -0.065579 -0.039956 -0.084776 0.049215 0.095850
#
#
# Mechanical properties :
#
#
# Convention : Reuss Voigt Hill
#
# Bulk Modulus (GPa) = 3.96796 35.76726 19.86761
# Shear Modulus (GPa) = 13.42334 40.02021 26.72178
#
# Velocity S-wave (km/s) = 2.31928 4.00463 3.27232
# Velocity P-wave (km/s) = 2.96009 5.97625 4.71581
#
# Compressibility (1/GPa) = 0.25201891
#
# Stress axis : x y z
#
# Youngs Moduli (GPa) = 50.16425 13.95999 27.31900
#
# Poissons Ratio (x) = -0.24666 -0.33375
# Poissons Ratio (y) = -0.88636 -0.87523
# Poissons Ratio (z) = -0.61284 -0.44724
#
# Static dielectric constant tensor:
#      x y z
#    x 4.775390 0.156020 0.157750 
#    y 0.156020 4.525970 -0.149130 
#    z 0.157750 -0.149130 4.373790 
# 
# 
# High freq. dielectric constant tensor:
#      x y z
#    x 1.999410 -0.014160 0.013580 
#    y -0.014160 1.981820 0.005040 
#    z 0.013580 0.005040 1.989550 
# 
# From -- ./inp_files/246269.got.cif
#   From: 2010.06.25/outbox.cif.g09.slc.cpg/sg2_124_cif.got.tgz:246269.got - 2010.06.27 13:26:56.
