data_PCOD8010221
_publ_section_title
;
Structure prediction by ZEFSAII (Michael W. Deem and Ramdas Pophale) SiO2 
 PCOD8010221
Probable space group: P -1
;
_chemical_formula_sum "Si O2"
_cell_formula_units_Z 14
_cell_length_a 14.872488
_cell_length_b 11.585560
_cell_length_c 8.288956
_cell_angle_alpha 126.466477
_cell_angle_beta 63.137677
_cell_angle_gamma 148.695372
_cell_volume 591.417403
_symmetry_space_group_name_H-M "P -1"
_symmetry_group_IT_number 2
_symmetry_cell_setting 'triclinic'
loop_
_space_group_symop_operation_xyz
x,y,z
-x,-y,-z
loop_
_atom_site_type_symbol
_atom_site_label
_atom_site_fract_x
_atom_site_fract_y
_atom_site_fract_z
Si Si1 0.676848 0.455370 0.167978
Si Si2 0.367539 0.153250 0.380762
Si Si3 0.750554 0.306002 0.497980
Si Si4 0.549302 0.050947 0.760130
Si Si5 0.339155 0.309685 0.849742
Si Si6 0.091164 0.805378 0.764724
Si Si7 0.022499 0.695289 0.101564
O O1 0.554548 0.402530 0.348177
O O2 0.711015 0.591398 0.094021
O O3 0.857098 0.600642 0.214312
O O4 0.550359 0.173862 0.997396
O O5 0.374605 0.252286 0.619074
O O6 0.339705 0.954897 0.280545
O O7 0.193960 0.976420 0.265948
O O8 0.635399 0.221147 0.672745
O O9 0.769453 0.155594 0.357706
O O10 0.932624 0.601657 0.597349
O O11 0.649560 0.229173 0.350499
O O12 0.175968 0.058829 0.875347
O O13 0.500000 0.500000 0.000000
O O14 0.022380 0.706166 0.918074
O O15 0.000000 0.500000 0.000000
#
# Coordination Sequence:
#
# PCOD8010221 Si02
#       7
#     2   2   2   2   2   2   2
#     4  12  27  47  74 110 150 197 239 298 375 437
#     4  12  26  47  74 106 147 196 240 304 366 431
#     4  10  21  37  72 106 138 181 248 298 357 412
#     4  11  21  42  71 109 139 186 248 297 361 426
#     4  12  28  50  74 105 150 195 246 298 367 445
#     4  11  23  44  70 106 144 187 238 307 353 428
#     4  12  26  46  73 112 149 184 246 306 362 434
#
# _framework density 23.671945000000001
#
# number of rings (size 3 to 8) (size 9 to 14) (size 15 to 20)
#    0.000    0.571    4.286    3.429    6.000    1.143 
#    0.000    1.429    0.000    0.000    0.000    0.000 
#    0.000    0.000    0.000    0.000    0.000    0.000 
#
# Total GULP energy -173560.658773 kJ/mol
# GULP energy per Si atom -12397.189912 kJ/mol
# Density = 2.361807 g / cm^3
# Si number density = 23.671945 Si / 1000 Ang^3
#
#
#
# Elastic Constant Matrix: (Units=GPa)
#
#
# Indices 1 2 3 4 5 6 
#
# 1 119.0585 48.8842 29.5117 17.1491 6.3812 16.3879
# 2 48.8842 110.7876 19.8394 9.8116 5.4561 11.2522
# 3 29.5117 19.8394 100.1577 8.0213 11.8042 16.8329
# 4 17.1491 9.8116 8.0213 38.2876 6.1206 0.0064
# 5 6.3812 5.4561 11.8042 6.1206 29.7656 13.8260
# 6 16.3879 11.2522 16.8329 0.0064 13.8260 50.4382
#
#
#
# Elastic Compliance Matrix: (Units=1/GPa)
#
#
# Indices 1 2 3 4 5 6 
#
# 1 0.011413 -0.004155 -0.001948 -0.003795 0.000983 -0.002400
# 2 -0.004155 0.011161 -0.000751 -0.000790 -0.000323 -0.000801
# 3 -0.001948 -0.000751 0.011487 -0.000900 -0.002757 -0.002277
# 4 -0.003795 -0.000790 -0.000900 0.029213 -0.006284 0.003429
# 5 0.000983 -0.000323 -0.002757 -0.006284 0.040699 -0.010483
# 6 -0.002400 -0.000801 -0.002277 0.003429 -0.010483 0.024418
#
#
# Mechanical properties :
#
#
# Convention : Reuss Voigt Hill
#
# Bulk Modulus (GPa) = 49.13404 58.49716 53.81560
# Shear Modulus (GPa) = 33.58340 39.14952 36.36646
#
# Velocity S-wave (km/s) = 3.77065 4.07115 3.92378
# Velocity P-wave (km/s) = 6.30542 6.84575 6.58113
#
# Compressibility (1/GPa) = 0.02035249
#
# Stress axis : x y z
#
# Youngs Moduli (GPa) = 87.62212 89.59424 87.05694
#
# Poissons Ratio (x) = 0.37230 0.16960
# Poissons Ratio (y) = 0.36411 0.06534
# Poissons Ratio (z) = 0.17071 0.06725
#
# Static dielectric constant tensor:
#      x y z
#    x 4.499950 0.101830 0.140460 
#    y 0.101830 4.248070 0.078290 
#    z 0.140460 0.078290 4.259970 
# 
# 
# High freq. dielectric constant tensor:
#      x y z
#    x 1.937680 0.006440 0.012000 
#    y 0.006440 1.941780 -0.001270 
#    z 0.012000 -0.001270 1.938170 
# 
# From -- ./inp_files/261861.got.cif
#   From: 2010.06.25/outbox.cif.g09.slc.cpg/sg2_131_cif.got.tgz:261861.got - 2010.06.27 13:26:56.
