data_PCOD8010459
_publ_section_title
;
Structure prediction by ZEFSAII (Michael W. Deem and Ramdas Pophale) SiO2 
 PCOD8010459
Probable space group: P -1
;
_chemical_formula_sum "Si O2"
_cell_formula_units_Z 14
_cell_length_a 8.828658
_cell_length_b 22.078102
_cell_length_c 12.742047
_cell_angle_alpha 154.460830
_cell_angle_beta 58.285325
_cell_angle_gamma 137.353094
_cell_volume 639.378245
_symmetry_space_group_name_H-M "P -1"
_symmetry_group_IT_number 2
_symmetry_cell_setting 'triclinic'
loop_
_space_group_symop_operation_xyz
x,y,z
-x,-y,-z
loop_
_atom_site_type_symbol
_atom_site_label
_atom_site_fract_x
_atom_site_fract_y
_atom_site_fract_z
Si Si1 0.857046 0.726362 0.321087
Si Si2 0.442620 0.956399 0.192359
Si Si3 0.995851 0.427208 0.139328
Si Si4 0.089676 0.672109 0.311999
Si Si5 0.786409 0.946731 0.922037
Si Si6 0.028431 0.897527 0.127620
Si Si7 0.389610 0.533841 0.308018
O O1 0.554441 0.564991 0.199376
O O2 0.973332 0.750518 0.431424
O O3 0.974555 0.942363 0.583323
O O4 0.925263 0.655652 0.095766
O O5 0.603980 0.143443 0.507183
O O6 0.259375 0.950896 0.184100
O O7 0.651725 0.998989 0.111288
O O8 0.286872 0.754263 0.999021
O O9 0.994961 0.576677 0.314569
O O10 0.193017 0.537358 0.336784
O O11 0.000000 0.500000 0.000000
O O12 0.570724 0.712421 0.604154
O O13 0.924951 0.087233 0.989238
O O14 0.000000 0.000000 0.000000
O O15 0.760948 0.676518 0.909018
#
# Coordination Sequence:
#
# PCOD8010459 Si02
#       7
#     2   2   2   2   2   2   2
#     4  10  21  38  60  92 128 157 197 246 298 357
#     4  11  23  40  63  91 122 157 203 251 297 356
#     4  10  23  39  62  91 121 162 202 245 298 355
#     4  10  22  38  59  87 122 161 198 243 296 351
#     4  11  24  42  61  88 122 157 202 253 302 356
#     4  10  23  40  63  90 120 161 201 248 301 354
#     4  10  22  40  63  87 117 162 204 244 299 358
#
# _framework density 21.896273000000001
#
# number of rings (size 3 to 8) (size 9 to 14) (size 15 to 20)
#    0.000    1.714    0.000    4.286    0.000   14.286 
#    0.000    0.000    0.000    0.000    0.000    0.000 
#    0.000    0.000    0.000    0.000    0.000    0.000 
#
# Total GULP energy -173568.143477 kJ/mol
# GULP energy per Si atom -12397.724534 kJ/mol
# Density = 2.184644 g / cm^3
# Si number density = 21.896273 Si / 1000 Ang^3
#
#
#
# Elastic Constant Matrix: (Units=GPa)
#
#
# Indices 1 2 3 4 5 6 
#
# 1 107.3301 10.6161 41.6639 15.8489 4.1554 -23.7550
# 2 10.6161 77.8213 32.8957 19.4733 3.0114 -9.0332
# 3 41.6639 32.8957 108.2052 20.4392 17.0076 -0.7224
# 4 15.8489 19.4733 20.4392 39.2400 0.0268 -14.9738
# 5 4.1554 3.0114 17.0076 0.0268 39.2637 1.8286
# 6 -23.7550 -9.0332 -0.7224 -14.9738 1.8286 28.1581
#
#
#
# Elastic Compliance Matrix: (Units=1/GPa)
#
#
# Indices 1 2 3 4 5 6 
#
# 1 0.014299 0.001847 -0.006383 0.001740 0.000485 0.013386
# 2 0.001847 0.016278 -0.004804 -0.004758 0.000450 0.004097
# 3 -0.006383 -0.004804 0.015144 -0.006639 -0.005058 -0.009740
# 4 0.001740 -0.004758 -0.006639 0.038215 0.002101 0.019957
# 5 0.000485 0.000450 -0.005058 0.002101 0.027584 -0.000250
# 6 0.013386 0.004097 -0.009740 0.019957 -0.000250 0.058500
#
#
# Mechanical properties :
#
#
# Convention : Reuss Voigt Hill
#
# Bulk Modulus (GPa) = 36.98191 51.52307 44.25249
# Shear Modulus (GPa) = 25.28916 35.21108 30.25012
#
# Velocity S-wave (km/s) = 3.40215 4.01444 3.72091
# Velocity P-wave (km/s) = 5.68850 6.71337 6.22207
#
# Compressibility (1/GPa) = 0.02704025
#
# Stress axis : x y z
#
# Youngs Moduli (GPa) = 69.93516 61.43371 66.03275
#
# Poissons Ratio (x) = -0.11347 0.42148
# Poissons Ratio (y) = -0.12917 0.31724
# Poissons Ratio (z) = 0.44639 0.29514
#
# Static dielectric constant tensor:
#      x y z
#    x 4.462220 -0.238230 0.135150 
#    y -0.238230 4.103210 0.258980 
#    z 0.135150 0.258980 4.048320 
# 
# 
# High freq. dielectric constant tensor:
#      x y z
#    x 1.873100 -0.011470 0.008780 
#    y -0.011470 1.855190 0.012940 
#    z 0.008780 0.012940 1.866300 
# 
# From -- ./inp_files/333170.got.cif
#   From: 2010.06.25/outbox.cif.g09.slc.cpg/sg2_167_cif.got.tgz:333170.got - 2010.06.27 13:26:56.
