data_PCOD8010991
_publ_section_title
;
Structure prediction by ZEFSAII (Michael W. Deem and Ramdas Pophale) SiO2 
 PCOD8010991
Probable space group: P -1
;
_chemical_formula_sum "Si O2"
_cell_formula_units_Z 16
_cell_length_a 8.910079
_cell_length_b 19.740986
_cell_length_c 12.889453
_cell_angle_alpha 26.057915
_cell_angle_beta 123.575304
_cell_angle_gamma 113.065614
_cell_volume 794.860071
_symmetry_space_group_name_H-M "P -1"
_symmetry_group_IT_number 2
_symmetry_cell_setting 'triclinic'
loop_
_space_group_symop_operation_xyz
x,y,z
-x,-y,-z
loop_
_atom_site_type_symbol
_atom_site_label
_atom_site_fract_x
_atom_site_fract_y
_atom_site_fract_z
Si Si1 0.911113 0.638723 0.503702
Si Si2 0.795950 0.661429 0.056319
Si Si3 0.719429 0.866202 0.946434
Si Si4 0.548766 0.430133 0.000783
Si Si5 0.282740 0.045014 0.514089
Si Si6 0.127892 0.843464 0.417693
Si Si7 0.832714 0.482701 0.890299
Si Si8 0.014274 0.878899 0.539162
O O1 0.807998 0.596500 0.623903
O O2 0.010713 0.475690 0.703540
O O3 0.065017 0.733786 0.459076
O O4 0.749513 0.750456 0.216662
O O5 0.815725 0.762813 0.025869
O O6 0.632004 0.576185 0.125396
O O7 0.733452 0.773810 0.776592
O O8 0.498076 0.939232 0.743225
O O9 0.824828 0.001847 0.825794
O O10 0.689601 0.253487 0.314049
O O11 0.500000 0.500000 0.000000
O O12 0.646949 0.534660 0.820742
O O13 0.188602 0.044920 0.590723
O O14 0.160884 0.980831 0.472822
O O15 0.968875 0.887659 0.386458
O O16 0.000000 0.500000 0.000000
O O17 0.885166 0.296577 0.132260
#
# Coordination Sequence:
#
# PCOD8010991 Si02
#       8
#     2   2   2   2   2   2   2   2
#     4  12  25  42  61  93 134 167 199 258 323 371
#     4  12  22  42  65  92 121 172 214 256 304 373
#     4  12  25  41  62  95 129 165 208 257 318 370
#     4  11  21  36  67  99 118 152 222 266 297 357
#     4  11  22  39  67  91 123 161 214 261 302 369
#     4  11  21  40  64  93 125 163 207 262 306 370
#     4  11  20  37  63  88 122 162 206 252 308 370
#     4  10  21  38  65  95 115 156 220 259 302 359
#
# _framework density 20.129331000000001
#
# number of rings (size 3 to 8) (size 9 to 14) (size 15 to 20)
#    0.000    0.750    7.500    2.625    0.000    0.000 
#    0.000    4.375    0.000    0.000    0.000    0.000 
#    0.000    0.000    0.000    0.000    0.000    0.000 
#
# Total GULP energy -198374.400367 kJ/mol
# GULP energy per Si atom -12398.400023 kJ/mol
# Density = 2.008352 g / cm^3
# Si number density = 20.129331 Si / 1000 Ang^3
#
#
#
# Elastic Constant Matrix: (Units=GPa)
#
#
# Indices 1 2 3 4 5 6 
#
# 1 122.2687 38.0392 47.6399 -9.1406 -13.1829 -6.2150
# 2 38.0392 64.1650 17.8213 -14.9122 -2.3057 -6.0827
# 3 47.6399 17.8213 107.2692 2.7836 -16.7242 -6.5424
# 4 -9.1406 -14.9122 2.7836 25.5258 -2.8898 -0.2159
# 5 -13.1829 -2.3057 -16.7242 -2.8898 26.4450 -4.6569
# 6 -6.2150 -6.0827 -6.5424 -0.2159 -4.6569 32.3275
#
#
#
# Elastic Compliance Matrix: (Units=1/GPa)
#
#
# Indices 1 2 3 4 5 6 
#
# 1 0.011902 -0.005304 -0.003860 0.001981 0.003425 0.001015
# 2 -0.005304 0.021985 -0.001387 0.011135 0.000128 0.002929
# 3 -0.003860 -0.001387 0.012403 -0.002858 0.005898 0.002338
# 4 0.001981 0.011135 -0.002858 0.047392 0.005868 0.003059
# 5 0.003425 0.000128 0.005898 0.005868 0.045393 0.008454
# 6 0.001015 0.002929 0.002338 0.003059 0.008454 0.033391
#
#
# Mechanical properties :
#
#
# Convention : Reuss Voigt Hill
#
# Bulk Modulus (GPa) = 39.70286 55.63375 47.66830
# Shear Modulus (GPa) = 24.75687 29.53983 27.14835
#
# Velocity S-wave (km/s) = 3.51078 3.83495 3.67644
# Velocity P-wave (km/s) = 6.01671 6.87803 6.46174
#
# Compressibility (1/GPa) = 0.02518711
#
# Stress axis : x y z
#
# Youngs Moduli (GPa) = 84.02075 45.48655 80.62272
#
# Poissons Ratio (x) = 0.24126 0.31121
# Poissons Ratio (y) = 0.44565 0.11184
# Poissons Ratio (z) = 0.32433 0.06310
#
# Static dielectric constant tensor:
#      x y z
#    x 4.360170 0.015290 -0.501960 
#    y 0.015290 3.747040 -0.404560 
#    z -0.501960 -0.404560 3.893070 
# 
# 
# High freq. dielectric constant tensor:
#      x y z
#    x 1.794770 -0.006050 -0.012110 
#    y -0.006050 1.788430 -0.022450 
#    z -0.012110 -0.022450 1.759430 
# 
# From -- ./inp_files/205656.got.cif
#   From: 2010.06.25/outbox.cif.g09.slc.cpg/sg2_103_cif.got.tgz:205656.got - 2010.06.27 13:26:56.
