data_PCOD8010175
_publ_section_title
;
Structure prediction by ZEFSAII (Michael W. Deem and Ramdas Pophale) SiO2 
 PCOD8010175
Probable space group: P -1
;
_chemical_formula_sum "Si O2"
_cell_formula_units_Z 14
_cell_length_a 8.773966
_cell_length_b 5.035439
_cell_length_c 17.578788
_cell_angle_alpha 114.063261
_cell_angle_beta 94.713615
_cell_angle_gamma 51.796263
_cell_volume 541.396238
_symmetry_space_group_name_H-M "P -1"
_symmetry_group_IT_number 2
_symmetry_cell_setting 'triclinic'
loop_
_space_group_symop_operation_xyz
x,y,z
-x,-y,-z
loop_
_atom_site_type_symbol
_atom_site_label
_atom_site_fract_x
_atom_site_fract_y
_atom_site_fract_z
Si Si1 0.068103 0.634040 0.773779
Si Si2 0.271487 0.341935 0.199352
Si Si3 0.677681 0.326482 0.623431
Si Si4 0.343810 0.436175 0.896861
Si Si5 0.777461 0.187380 0.332222
Si Si6 0.643651 0.564083 0.936398
Si Si7 0.298990 0.320381 0.484266
O O1 0.163354 0.642132 0.855366
O O2 0.088533 0.853170 0.735701
O O3 0.837583 0.835699 0.808862
O O4 0.171829 0.211733 0.698962
O O5 0.214223 0.633639 0.299030
O O6 0.195822 0.555519 0.138144
O O7 0.512419 0.023959 0.162612
O O8 0.456458 0.499105 0.660622
O O9 0.658691 0.557835 0.577091
O O10 0.800909 0.874688 0.559702
O O11 0.502622 0.487024 0.889477
O O12 0.251014 0.616449 0.998164
O O13 0.833056 0.305296 0.424222
O O14 0.500000 0.000000 0.000000
O O15 0.500000 0.000000 0.500000
#
# Coordination Sequence:
#
# PCOD8010175 Si02
#       7
#     2   2   2   2   2   2   2
#     4  12  26  40  68 100 134 176 216 271 324 391
#     4  11  25  40  66  99 133 169 224 265 328 391
#     4  11  21  39  68  95 128 177 218 274 322 382
#     4  10  22  44  69  93 132 174 215 270 331 382
#     4  11  22  43  62  98 135 170 224 270 324 390
#     4   9  21  43  69  96 127 172 217 268 325 394
#     4  10  21  37  67  97 126 174 227 265 327 385
#
# _framework density 25.859065999999999
#
# number of rings (size 3 to 8) (size 9 to 14) (size 15 to 20)
#    0.000    1.429    1.429    5.143    6.000    0.571 
#    0.000   10.714    0.000    0.000    0.000    0.000 
#    0.000    0.000    0.000    0.000    0.000    0.000 
#
# Total GULP energy -173519.787974 kJ/mol
# GULP energy per Si atom -12394.270570 kJ/mol
# Density = 2.580021 g / cm^3
# Si number density = 25.859066 Si / 1000 Ang^3
#
#
#
# Elastic Constant Matrix: (Units=GPa)
#
#
# Indices 1 2 3 4 5 6 
#
# 1 77.6479 19.2155 72.0485 -28.6162 1.4019 17.3438
# 2 19.2155 46.9072 40.3931 -9.9453 -5.2581 20.3063
# 3 72.0485 40.3931 183.5368 -25.8833 3.6431 7.8450
# 4 -28.6162 -9.9453 -25.8833 40.2422 11.8450 -2.9068
# 5 1.4019 -5.2581 3.6431 11.8450 45.7964 -4.4957
# 6 17.3438 20.3063 7.8450 -2.9068 -4.4957 42.1722
#
#
#
# Elastic Compliance Matrix: (Units=1/GPa)
#
#
# Indices 1 2 3 4 5 6 
#
# 1 0.029559 0.004187 -0.009588 0.016535 -0.005096 -0.011793
# 2 0.004187 0.034789 -0.007953 0.004785 0.001642 -0.016489
# 3 -0.009588 -0.007953 0.010527 -0.001449 -0.000527 0.005658
# 4 0.016535 0.004785 -0.001449 0.039505 -0.010772 -0.007260
# 5 -0.005096 0.001642 -0.000527 -0.010772 0.025338 0.003362
# 6 -0.011793 -0.016489 0.005658 -0.007260 0.003362 0.035307
#
#
# Mechanical properties :
#
#
# Convention : Reuss Voigt Hill
#
# Bulk Modulus (GPa) = 20.76101 63.48957 42.12529
# Shear Modulus (GPa) = 22.95809 37.40446 30.18128
#
# Velocity S-wave (km/s) = 2.98286 3.80738 3.42006
# Velocity P-wave (km/s) = 4.46197 6.62825 5.64990
#
# Compressibility (1/GPa) = 0.04816721
#
# Stress axis : x y z
#
# Youngs Moduli (GPa) = 33.83063 28.74495 94.99446
#
# Poissons Ratio (x) = -0.12037 0.91081
# Poissons Ratio (y) = -0.14166 0.75550
# Poissons Ratio (z) = 0.32437 0.22861
#
# Static dielectric constant tensor:
#      x y z
#    x 4.548660 0.386890 -0.042810 
#    y 0.386890 4.360580 -0.024840 
#    z -0.042810 -0.024840 5.972590 
# 
# 
# High freq. dielectric constant tensor:
#      x y z
#    x 2.022660 0.017510 0.002150 
#    y 0.017510 2.032410 0.014510 
#    z 0.002150 0.014510 2.060640 
# 
# From -- ./inp_files/35240.got.cif
#   From: 2010.06.25/outbox.cif.g09.slc.cpg/sg2_18_cif.got.tgz:35240.got - 2010.06.27 13:26:56.
