data_PCOD8010829
_publ_section_title
;
Structure prediction by ZEFSAII (Michael W. Deem and Ramdas Pophale) SiO2 
 PCOD8010829
Probable space group: P -1
;
_chemical_formula_sum "Si O2"
_cell_formula_units_Z 16
_cell_length_a 20.859508
_cell_length_b 9.336524
_cell_length_c 17.442532
_cell_angle_alpha 149.468348
_cell_angle_beta 31.414785
_cell_angle_gamma 149.106894
_cell_volume 796.503921
_symmetry_space_group_name_H-M "P -1"
_symmetry_group_IT_number 2
_symmetry_cell_setting 'triclinic'
loop_
_space_group_symop_operation_xyz
x,y,z
-x,-y,-z
loop_
_atom_site_type_symbol
_atom_site_label
_atom_site_fract_x
_atom_site_fract_y
_atom_site_fract_z
Si Si1 0.510396 0.758649 0.211595
Si Si2 0.817312 0.864646 0.541915
Si Si3 0.280396 0.263166 0.124229
Si Si4 0.578694 0.387381 0.104114
Si Si5 0.894692 0.476806 0.663755
Si Si6 0.911312 0.668330 0.898663
Si Si7 0.547750 0.280848 0.520564
Si Si8 0.892708 0.096934 0.732282
O O1 0.359475 0.557375 0.236683
O O2 0.537201 0.545361 0.149101
O O3 0.515322 0.091742 0.386306
O O4 0.622227 0.847806 0.071268
O O5 0.714144 0.506316 0.457176
O O6 0.979705 0.976303 0.418243
O O7 0.793832 0.112723 0.625734
O O8 0.789749 0.892507 0.673438
O O9 0.197263 0.362616 0.195466
O O10 0.184830 0.963432 0.135812
O O11 0.528256 0.499341 0.284800
O O12 0.744617 0.533467 0.005590
O O13 0.500000 0.000000 0.000000
O O14 0.969854 0.667517 0.752880
O O15 0.000000 0.500000 0.500000
O O16 0.953384 0.461735 0.816655
O O17 0.000000 0.000000 0.000000
O O18 0.500000 0.000000 0.500000
#
# Coordination Sequence:
#
# PCOD8010829 Si02
#       8
#     2   2   2   2   2   2   2   2
#     4  10  23  39  64  91 129 170 217 270 315 391
#     4  10  21  39  63  93 123 166 217 266 317 402
#     4  11  21  41  66  91 128 175 221 258 330 393
#     4  11  21  41  69  92 129 170 218 266 328 395
#     4  11  22  42  65  95 131 172 210 271 332 392
#     4  11  25  41  64  98 130 167 219 273 324 389
#     4  10  22  38  63  92 123 164 218 267 325 373
#     4  10  21  38  64  89 125 168 215 256 326 398
#
# _framework density 20.087786000000001
#
# number of rings (size 3 to 8) (size 9 to 14) (size 15 to 20)
#    0.000    1.500    2.500    3.750    3.500    1.000 
#    2.250    1.875    0.000    0.000    0.000    0.000 
#    0.000    0.000    0.000    0.000    0.000    0.000 
#
# Total GULP energy -198269.206166 kJ/mol
# GULP energy per Si atom -12391.825385 kJ/mol
# Density = 2.004207 g / cm^3
# Si number density = 20.087786 Si / 1000 Ang^3
#
#
#
# Elastic Constant Matrix: (Units=GPa)
#
#
# Indices 1 2 3 4 5 6 
#
# 1 80.5962 51.4954 33.8259 7.7420 15.4887 -12.8858
# 2 51.4954 101.5522 44.0894 9.7372 28.1924 2.8153
# 3 33.8259 44.0894 110.3274 14.5615 26.8930 3.2873
# 4 7.7420 9.7372 14.5615 37.3679 6.0561 7.1273
# 5 15.4887 28.1924 26.8930 6.0561 30.4876 5.4449
# 6 -12.8858 2.8153 3.2873 7.1273 5.4449 34.6241
#
#
#
# Elastic Compliance Matrix: (Units=1/GPa)
#
#
# Indices 1 2 3 4 5 6 
#
# 1 0.021606 -0.009582 -0.002444 -0.002705 -0.001172 0.009793
# 2 -0.009582 0.018346 -0.001920 0.000190 -0.009840 -0.003367
# 3 -0.002444 -0.001920 0.012826 -0.002701 -0.007724 -0.000201
# 4 -0.002705 0.000190 -0.002701 0.029790 -0.001136 -0.006719
# 5 -0.001172 -0.009840 -0.007724 -0.001136 0.050720 -0.006645
# 6 0.009793 -0.003367 -0.000201 -0.006719 -0.006645 0.035247
#
#
# Mechanical properties :
#
#
# Convention : Reuss Voigt Hill
#
# Bulk Modulus (GPa) = 40.18300 61.25523 50.71912
# Shear Modulus (GPa) = 24.42304 31.36692 27.89498
#
# Velocity S-wave (km/s) = 3.49064 3.95586 3.73051
# Velocity P-wave (km/s) = 6.02438 7.17113 6.62262
#
# Compressibility (1/GPa) = 0.02488615
#
# Stress axis : x y z
#
# Youngs Moduli (GPa) = 46.28272 54.50657 77.96702
#
# Poissons Ratio (x) = 0.52227 0.19059
# Poissons Ratio (y) = 0.44347 0.14970
# Poissons Ratio (z) = 0.11314 0.10466
#
# Static dielectric constant tensor:
#      x y z
#    x 3.497310 -0.017220 0.149420 
#    y -0.017220 3.676430 0.044100 
#    z 0.149420 0.044100 4.119710 
# 
# 
# High freq. dielectric constant tensor:
#      x y z
#    x 1.775540 -0.007480 0.002410 
#    y -0.007480 1.783520 -0.006060 
#    z 0.002410 -0.006060 1.792390 
# 
# From -- ./inp_files/577659.got.cif
#   From: 2010.06.25/outbox.cif.g09.slc.cpg/sg2_289_cif.got.tgz:577659.got - 2010.06.27 13:26:56.
