data_PCOD8010244
_publ_section_title
;
Structure prediction by ZEFSAII (Michael W. Deem and Ramdas Pophale) SiO2 
 PCOD8010244
Probable space group: P -1
;
_chemical_formula_sum "Si O2"
_cell_formula_units_Z 16
_cell_length_a 11.918026
_cell_length_b 12.291382
_cell_length_c 5.130812
_cell_angle_alpha 98.248783
_cell_angle_beta 82.868405
_cell_angle_gamma 96.911232
_cell_volume 734.043978
_symmetry_space_group_name_H-M "P -1"
_symmetry_group_IT_number 2
_symmetry_cell_setting 'triclinic'
loop_
_space_group_symop_operation_xyz
x,y,z
-x,-y,-z
loop_
_atom_site_type_symbol
_atom_site_label
_atom_site_fract_x
_atom_site_fract_y
_atom_site_fract_z
Si Si1 0.621424 0.946815 0.659604
Si Si2 0.055037 0.631452 0.275552
Si Si3 0.500710 0.857410 0.163745
Si Si4 0.149516 0.547578 0.709726
Si Si5 0.981777 0.856810 0.212031
Si Si6 0.629206 0.557545 0.481767
Si Si7 0.439178 0.374626 0.970673
Si Si8 0.868833 0.926958 0.784371
O O1 0.600417 0.895393 0.358563
O O2 0.740644 0.922177 0.728962
O O3 0.608650 0.079935 0.698140
O O4 0.529413 0.891936 0.870772
O O5 0.117576 0.640548 0.542361
O O6 0.933019 0.564510 0.345680
O O7 0.035961 0.743523 0.176891
O O8 0.136532 0.577583 0.026676
O O9 0.476903 0.722751 0.113026
O O10 0.279060 0.529978 0.593816
O O11 0.938956 0.878775 0.518486
O O12 0.882922 0.855185 0.018946
O O13 0.083792 0.947033 0.125696
O O14 0.500000 0.500000 0.500000
O O15 0.642517 0.637981 0.756966
O O16 0.645308 0.637835 0.255584
O O17 0.500000 0.500000 0.000000
#
# Coordination Sequence:
#
# PCOD8010244 Si02
#       8
#     2   2   2   2   2   2   2   2
#     4  10  21  38  59  88 118 158 201 243 302 353
#     4  10  21  38  60  86 113 159 195 245 299 354
#     4  10  21  38  60  85 123 156 200 248 288 365
#     4  10  21  38  58  84 122 150 203 243 288 363
#     4  10  21  38  60  85 119 147 196 249 305 357
#     4  10  21  38  56  84 122 160 194 249 296 359
#     4  10  21  38  59  83 123 158 198 247 299 358
#     4  10  21  38  58  87 118 147 195 252 297 363
#
# _framework density 21.797059999999998
#
# number of rings (size 3 to 8) (size 9 to 14) (size 15 to 20)
#    0.000    2.000    0.000    3.000    0.000    3.000 
#    9.000    0.000    0.000    0.000    0.000    0.000 
#    0.000    0.000    0.000    0.000    0.000    0.000 
#
# Total GULP energy -198217.861782 kJ/mol
# GULP energy per Si atom -12388.616361 kJ/mol
# Density = 2.174745 g / cm^3
# Si number density = 21.797060 Si / 1000 Ang^3
#
#
#
# Elastic Constant Matrix: (Units=GPa)
#
#
# Indices 1 2 3 4 5 6 
#
# 1 74.1799 16.0099 15.5430 -1.9298 -4.3903 -19.3861
# 2 16.0099 125.2709 26.3606 0.6693 -1.5018 -20.4414
# 3 15.5430 26.3606 134.7596 -13.6213 17.9192 -6.4314
# 4 -1.9298 0.6693 -13.6213 30.3384 -13.8809 5.6334
# 5 -4.3903 -1.5018 17.9192 -13.8809 26.9847 -3.0570
# 6 -19.3861 -20.4414 -6.4314 5.6334 -3.0570 21.1361
#
#
#
# Elastic Compliance Matrix: (Units=1/GPa)
#
#
# Indices 1 2 3 4 5 6 
#
# 1 0.019107 0.001279 -0.002484 -0.000357 0.006808 0.019085
# 2 0.001279 0.010139 -0.002122 -0.002094 0.002377 0.011234
# 3 -0.002484 -0.002122 0.008943 0.001752 -0.005891 -0.002929
# 4 -0.000357 -0.002094 0.001752 0.045272 0.020716 -0.010890
# 5 0.006808 0.002377 -0.005891 0.020716 0.053888 0.009023
# 6 0.019085 0.011234 -0.002929 -0.010890 0.009023 0.078999
#
#
# Mechanical properties :
#
#
# Convention : Reuss Voigt Hill
#
# Bulk Modulus (GPa) = 31.71327 50.00416 40.85872
# Shear Modulus (GPa) = 21.41189 34.11163 27.76176
#
# Velocity S-wave (km/s) = 3.13761 3.96026 3.57269
# Velocity P-wave (km/s) = 5.26375 6.62586 5.98369
#
# Compressibility (1/GPa) = 0.03153255
#
# Stress axis : x y z
#
# Youngs Moduli (GPa) = 52.33769 98.63123 111.81888
#
# Poissons Ratio (x) = -0.12612 0.27780
# Poissons Ratio (y) = -0.06693 0.23732
# Poissons Ratio (z) = 0.13003 0.20933
#
# Static dielectric constant tensor:
#      x y z
#    x 3.619320 -0.278650 0.756090 
#    y -0.278650 3.967870 -0.569520 
#    z 0.756090 -0.569520 10.167290 
# 
# 
# High freq. dielectric constant tensor:
#      x y z
#    x 1.820520 -0.026800 0.013170 
#    y -0.026800 1.850040 -0.006300 
#    z 0.013170 -0.006300 1.889180 
# 
# From -- ./inp_files/70455.got.cif
#   From: 2010.06.25/outbox.cif.g09.slc.cpg/sg2_36_cif.got.tgz:70455.got - 2010.06.27 13:26:56.
