data_PCOD8010129
_publ_section_title
;
Structure prediction by ZEFSAII (Michael W. Deem and Ramdas Pophale) SiO2 
 PCOD8010129
Probable space group: P -1
;
_chemical_formula_sum "Si O2"
_cell_formula_units_Z 16
_cell_length_a 12.401502
_cell_length_b 9.543003
_cell_length_c 11.198594
_cell_angle_alpha 74.435218
_cell_angle_beta 51.040439
_cell_angle_gamma 53.525777
_cell_volume 816.828690
_symmetry_space_group_name_H-M "P -1"
_symmetry_group_IT_number 2
_symmetry_cell_setting 'triclinic'
loop_
_space_group_symop_operation_xyz
x,y,z
-x,-y,-z
loop_
_atom_site_type_symbol
_atom_site_label
_atom_site_fract_x
_atom_site_fract_y
_atom_site_fract_z
Si Si1 0.420146 0.884696 0.209662
Si Si2 0.292905 0.263035 0.543304
Si Si3 0.734697 0.733976 0.868193
Si Si4 0.062302 0.539505 0.828156
Si Si5 0.371075 0.912454 0.510618
Si Si6 0.161587 0.502536 0.367640
Si Si7 0.838890 0.196826 0.592843
Si Si8 0.700856 0.351282 0.402029
O O1 0.447083 0.849455 0.339795
O O2 0.304286 0.825054 0.250916
O O3 0.334992 0.090853 0.199771
O O4 0.601764 0.761491 0.052432
O O5 0.160924 0.366044 0.717330
O O6 0.481622 0.163775 0.479625
O O7 0.288689 0.381236 0.412035
O O8 0.253331 0.124300 0.553988
O O9 0.765110 0.577906 0.795656
O O10 0.902129 0.689102 0.829129
O O11 0.188456 0.597512 0.760303
O O12 0.000000 0.500000 0.000000
O O13 0.262551 0.832098 0.633000
O O14 0.121029 0.699558 0.362445
O O15 0.000000 0.500000 0.500000
O O16 0.769910 0.320307 0.495661
O O17 0.000000 0.000000 0.500000
O O18 0.500000 0.500000 0.500000
#
# Coordination Sequence:
#
# PCOD8010129 Si02
#       8
#     2   2   2   2   2   2   2   2
#     4  10  22  40  61  93 120 163 205 249 320 359
#     4  11  21  38  60  95 116 165 202 256 299 375
#     4  11  23  39  61  87 129 163 199 258 308 374
#     4  12  24  40  62  90 125 161 208 250 317 365
#     4  10  21  37  66  89 122 153 215 251 305 361
#     4  12  21  38  61  88 124 158 207 250 307 363
#     4  11  23  37  66  93 121 159 211 258 303 371
#     4  11  21  39  63  93 119 161 209 254 299 366
#
# _framework density 19.587952999999999
#
# number of rings (size 3 to 8) (size 9 to 14) (size 15 to 20)
#    0.000    1.000    5.000    2.250    3.500    0.500 
#    0.000    0.625    0.000    0.000    0.000    0.000 
#    0.000    0.000    0.000    0.000    0.000    0.000 
#
# Total GULP energy -198363.912638 kJ/mol
# GULP energy per Si atom -12397.744540 kJ/mol
# Density = 1.954337 g / cm^3
# Si number density = 19.587953 Si / 1000 Ang^3
#
#
#
# Elastic Constant Matrix: (Units=GPa)
#
#
# Indices 1 2 3 4 5 6 
#
# 1 98.1848 48.6395 36.9583 1.7932 -9.3900 18.1957
# 2 48.6395 110.4524 41.7912 6.1657 -5.2546 32.0763
# 3 36.9583 41.7912 102.6268 -0.2774 -8.9861 19.3664
# 4 1.7932 6.1657 -0.2774 30.0466 3.2973 -0.2193
# 5 -9.3900 -5.2546 -8.9861 3.2973 35.5653 -4.5792
# 6 18.1957 32.0763 19.3664 -0.2193 -4.5792 50.6810
#
#
#
# Elastic Compliance Matrix: (Units=1/GPa)
#
#
# Indices 1 2 3 4 5 6 
#
# 1 0.013930 -0.004771 -0.002743 -0.000124 0.002197 -0.000735
# 2 -0.004771 0.014193 -0.002939 -0.002650 -0.000458 -0.006200
# 3 -0.002743 -0.002939 0.012407 0.000683 0.001689 -0.001741
# 4 -0.000124 -0.002650 0.000683 0.034206 -0.003254 0.001315
# 5 0.002197 -0.000458 0.001689 -0.003254 0.029553 0.001512
# 6 -0.000735 -0.006200 -0.001741 0.001315 0.001512 0.024727
#
#
# Mechanical properties :
#
#
# Convention : Reuss Voigt Hill
#
# Bulk Modulus (GPa) = 50.95806 62.89355 56.92580
# Shear Modulus (GPa) = 31.95670 35.51689 33.73680
#
# Velocity S-wave (km/s) = 4.04350 4.26279 4.15459
# Velocity P-wave (km/s) = 6.91891 7.51042 7.22073
#
# Compressibility (1/GPa) = 0.01962398
#
# Stress axis : x y z
#
# Youngs Moduli (GPa) = 71.78984 70.45515 80.60201
#
# Poissons Ratio (x) = 0.33617 0.22106
# Poissons Ratio (y) = 0.34254 0.23687
# Poissons Ratio (z) = 0.19689 0.20705
#
# Static dielectric constant tensor:
#      x y z
#    x 3.869280 0.083090 -0.032170 
#    y 0.083090 4.289610 -0.179640 
#    z -0.032170 -0.179640 3.501330 
# 
# 
# High freq. dielectric constant tensor:
#      x y z
#    x 1.777360 -0.001360 -0.006030 
#    y -0.001360 1.779200 -0.000540 
#    z -0.006030 -0.000540 1.734580 
# 
# From -- ./inp_files/417056.got.cif
#   From: 2010.06.25/outbox.cif.g09.slc.cpg/sg2_209_cif.got.tgz:417056.got - 2010.06.27 13:26:56.
