data_PCOD8010238
_publ_section_title
;
Structure prediction by ZEFSAII (Michael W. Deem and Ramdas Pophale) SiO2 
 PCOD8010238
Probable space group: P -1
;
_chemical_formula_sum "Si O2"
_cell_formula_units_Z 14
_cell_length_a 22.962564
_cell_length_b 8.602695
_cell_length_c 11.055131
_cell_angle_alpha 38.789633
_cell_angle_beta 148.152045
_cell_angle_gamma 131.096742
_cell_volume 721.819619
_symmetry_space_group_name_H-M "P -1"
_symmetry_group_IT_number 2
_symmetry_cell_setting 'triclinic'
loop_
_space_group_symop_operation_xyz
x,y,z
-x,-y,-z
loop_
_atom_site_type_symbol
_atom_site_label
_atom_site_fract_x
_atom_site_fract_y
_atom_site_fract_z
Si Si1 0.920360 0.486689 0.539912
Si Si2 0.881736 0.435028 0.773593
Si Si3 0.542287 0.146500 0.873002
Si Si4 0.358910 0.335627 0.264578
Si Si5 0.252936 0.066738 0.777923
Si Si6 0.150711 0.605807 0.784718
Si Si7 0.223589 0.048070 0.006810
O O1 0.897702 0.359967 0.706053
O O2 0.855111 0.355148 0.395307
O O3 0.048849 0.463543 0.748803
O O4 0.883527 0.774435 0.304453
O O5 0.795237 0.660868 0.497932
O O6 0.823254 0.209804 0.872994
O O7 0.000000 0.500000 0.000000
O O8 0.441543 0.167826 0.589384
O O9 0.580359 0.415682 0.824428
O O10 0.500000 0.000000 0.000000
O O11 0.639298 0.985955 0.079609
O O12 0.316621 0.164684 0.185203
O O13 0.256145 0.430441 0.108226
O O14 0.157355 0.875433 0.691202
O O15 0.283098 0.019687 0.999786
#
# Coordination Sequence:
#
# PCOD8010238 Si02
#       7
#     2   2   2   2   2   2   2
#     4   9  19  35  55  82 112 146 184 226 270 320
#     4  11  22  35  56  84 115 152 186 218 268 329
#     4  10  22  40  61  83 107 139 185 236 278 326
#     4   9  21  39  59  81 109 146 183 227 280 325
#     4  10  22  37  55  81 111 144 182 229 279 323
#     4   9  17  36  58  78 113 146 180 230 275 321
#     4  10  21  38  56  81 116 147 181 225 272 329
#
# _framework density 19.395426
#
# number of rings (size 3 to 8) (size 9 to 14) (size 15 to 20)
#    0.000    2.286    0.000    1.714    0.000   12.000 
#    0.000   12.857    0.000    0.000    0.000    0.000 
#    0.000    0.000    0.000    0.000    0.000    0.000 
#
# Total GULP energy -173579.334329 kJ/mol
# GULP energy per Si atom -12398.523881 kJ/mol
# Density = 1.935128 g / cm^3
# Si number density = 19.395426 Si / 1000 Ang^3
#
#
#
# Elastic Constant Matrix: (Units=GPa)
#
#
# Indices 1 2 3 4 5 6 
#
# 1 122.3179 53.5349 55.4079 -3.1665 -11.7225 1.9401
# 2 53.5349 116.7857 49.6149 2.6919 -12.8174 -5.4707
# 3 55.4079 49.6149 103.0919 3.8869 -9.7686 12.1878
# 4 -3.1665 2.6919 3.8869 30.2735 6.9391 0.6050
# 5 -11.7225 -12.8174 -9.7686 6.9391 24.3913 0.2277
# 6 1.9401 -5.4707 12.1878 0.6050 0.2277 30.4497
#
#
#
# Elastic Compliance Matrix: (Units=1/GPa)
#
#
# Indices 1 2 3 4 5 6 
#
# 1 0.011999 -0.003282 -0.004851 0.001796 0.001583 0.000540
# 2 -0.003282 0.012573 -0.004359 -0.001850 0.003771 0.004221
# 3 -0.004851 -0.004359 0.015511 -0.002521 0.002369 -0.006650
# 4 0.001796 -0.001850 -0.002521 0.036336 -0.011455 -0.000074
# 5 0.001583 0.003771 0.002369 -0.011455 0.047953 -0.000503
# 6 0.000540 0.004221 -0.006650 -0.000074 -0.000503 0.036232
#
#
# Mechanical properties :
#
#
# Convention : Reuss Voigt Hill
#
# Bulk Modulus (GPa) = 66.22918 73.25676 69.74297
# Shear Modulus (GPa) = 26.22999 29.26543 27.74771
#
# Velocity S-wave (km/s) = 3.68146 3.88865 3.78647
# Velocity P-wave (km/s) = 7.23131 7.61671 7.42651
#
# Compressibility (1/GPa) = 0.01509909
#
# Stress axis : x y z
#
# Youngs Moduli (GPa) = 83.34138 79.53351 64.46986
#
# Poissons Ratio (x) = 0.26101 0.31275
# Poissons Ratio (y) = 0.27350 0.28104
# Poissons Ratio (z) = 0.40429 0.34671
#
# Static dielectric constant tensor:
#      x y z
#    x 3.601500 -0.157440 0.038420 
#    y -0.157440 3.592760 0.122130 
#    z 0.038420 0.122130 3.591470 
# 
# 
# High freq. dielectric constant tensor:
#      x y z
#    x 1.756300 -0.009290 0.005280 
#    y -0.009290 1.755740 0.008830 
#    z 0.005280 0.008830 1.756900 
# 
# From -- ./inp_files/26731.got.cif
#   From: 2010.06.25/outbox.cif.g09.slc.cpg/sg2_14_cif.got.tgz:26731.got - 2010.06.27 13:26:56.
