data_PCOD8010146
_publ_section_title
;
Structure prediction by ZEFSAII (Michael W. Deem and Ramdas Pophale) SiO2 
 PCOD8010146
Probable space group: P -1
;
_chemical_formula_sum "Si O2"
_cell_formula_units_Z 16
_cell_length_a 8.025183
_cell_length_b 24.491774
_cell_length_c 20.977657
_cell_angle_alpha 15.902121
_cell_angle_beta 145.261983
_cell_angle_gamma 140.246573
_cell_volume 637.606818
_symmetry_space_group_name_H-M "P -1"
_symmetry_group_IT_number 2
_symmetry_cell_setting 'triclinic'
loop_
_space_group_symop_operation_xyz
x,y,z
-x,-y,-z
loop_
_atom_site_type_symbol
_atom_site_label
_atom_site_fract_x
_atom_site_fract_y
_atom_site_fract_z
Si Si1 0.300462 0.496547 0.135714
Si Si2 0.663204 0.108225 0.126447
Si Si3 0.434453 0.124083 0.163599
Si Si4 0.324157 0.197741 0.798982
Si Si5 0.124920 0.534568 0.713551
Si Si6 0.244741 0.059407 0.303181
Si Si7 0.798243 0.208568 0.837045
Si Si8 0.294714 0.440250 0.338710
O O1 0.564177 0.391059 0.291010
O O2 0.282765 0.375312 0.333503
O O3 0.352626 0.724960 0.910973
O O4 0.000000 0.500000 0.000000
O O5 0.584894 0.998086 0.291353
O O6 0.945120 0.981314 0.322061
O O7 0.379093 0.145264 0.949444
O O8 0.744926 0.320530 0.937558
O O9 0.354195 0.972597 0.364954
O O10 0.131559 0.258996 0.891797
O O11 0.640853 0.227324 0.835501
O O12 0.101415 0.403427 0.486384
O O13 0.175231 0.023671 0.914290
O O14 0.972035 0.633218 0.620300
O O15 0.177940 0.296809 0.004821
O O16 0.500000 0.000000 0.500000
O O17 0.611964 0.348153 0.569775
#
# Coordination Sequence:
#
# PCOD8010146 Si02
#       8
#     2   2   2   2   2   2   2   2
#     4  10  22  41  61  92 127 164 219 259 306 377
#     4  10  21  37  66  96 124 165 208 257 318 378
#     4  10  22  40  64  95 124 166 210 260 319 369
#     4  10  21  39  64  98 134 159 205 263 320 382
#     4   9  21  40  64  91 121 169 205 258 319 368
#     4  10  21  41  62  90 126 167 216 259 309 369
#     4  10  21  39  63  97 135 160 204 262 323 379
#     4   9  21  38  65  95 123 165 208 258 315 379
#
# _framework density 25.093834999999999
#
# number of rings (size 3 to 8) (size 9 to 14) (size 15 to 20)
#    0.000    2.250    1.250    0.000    5.250    4.000 
#    4.500    3.750    0.000    0.000    0.000    0.000 
#    0.000    0.000    0.000    0.000    0.000    0.000 
#
# Total GULP energy -198275.271659 kJ/mol
# GULP energy per Si atom -12392.204479 kJ/mol
# Density = 2.503672 g / cm^3
# Si number density = 25.093835 Si / 1000 Ang^3
#
#
#
# Elastic Constant Matrix: (Units=GPa)
#
#
# Indices 1 2 3 4 5 6 
#
# 1 206.0956 34.9755 37.1845 42.6969 -16.7653 -6.4828
# 2 34.9755 62.8891 14.6674 34.5495 1.8786 10.1008
# 3 37.1845 14.6674 73.0444 36.8333 -10.3201 -6.2688
# 4 42.6969 34.5495 36.8333 47.7462 -2.8639 -2.7311
# 5 -16.7653 1.8786 -10.3201 -2.8639 33.4402 12.2061
# 6 -6.4828 10.1008 -6.2688 -2.7311 12.2061 29.7751
#
#
#
# Elastic Compliance Matrix: (Units=1/GPa)
#
#
# Indices 1 2 3 4 5 6 
#
# 1 0.006219 -0.001129 -0.000401 -0.004267 0.002625 0.000185
# 2 -0.001129 0.033164 0.008202 -0.029941 0.002477 -0.013531
# 3 -0.000401 0.008202 0.025509 -0.025029 0.005871 -0.002202
# 4 -0.004267 -0.029941 -0.025029 0.066041 -0.007270 0.012996
# 5 0.002625 0.002477 0.005871 -0.007270 0.037820 -0.015203
# 6 0.000185 -0.013531 -0.002202 0.012996 -0.015203 0.045177
#
#
# Mechanical properties :
#
#
# Convention : Reuss Voigt Hill
#
# Bulk Modulus (GPa) = 12.78176 57.29822 35.03999
# Shear Modulus (GPa) = 22.05902 39.20576 30.63239
#
# Velocity S-wave (km/s) = 2.96811 3.95697 3.49766
# Velocity P-wave (km/s) = 4.10499 6.61513 5.50504
#
# Compressibility (1/GPa) = 0.07823651
#
# Stress axis : x y z
#
# Youngs Moduli (GPa) = 160.78468 30.15330 39.20178
#
# Poissons Ratio (x) = 0.03405 0.01571
# Poissons Ratio (y) = 0.18157 -0.32153
# Poissons Ratio (z) = 0.06443 -0.24732
#
# Static dielectric constant tensor:
#      x y z
#    x 6.024930 0.007560 -0.207930 
#    y 0.007560 3.991520 0.086180 
#    z -0.207930 0.086180 4.228960 
# 
# 
# High freq. dielectric constant tensor:
#      x y z
#    x 2.023970 -0.000390 -0.008100 
#    y -0.000390 1.973610 0.009580 
#    z -0.008100 0.009580 1.981190 
# 
# From -- ./inp_files/592118.got.cif
#   From: 2010.06.25/outbox.cif.g09.slc.cpg/sg2_297_cif.got.tgz:592118.got - 2010.06.27 13:26:56.
