data_PCOD8010198
_publ_section_title
;
Structure prediction by ZEFSAII (Michael W. Deem and Ramdas Pophale) SiO2 
 PCOD8010198
Probable space group: P -1
;
_chemical_formula_sum "Si O2"
_cell_formula_units_Z 16
_cell_length_a 5.385561
_cell_length_b 8.302320
_cell_length_c 26.245626
_cell_angle_alpha 34.207096
_cell_angle_beta 93.786494
_cell_angle_gamma 96.939066
_cell_volume 653.691454
_symmetry_space_group_name_H-M "P -1"
_symmetry_group_IT_number 2
_symmetry_cell_setting 'triclinic'
loop_
_space_group_symop_operation_xyz
x,y,z
-x,-y,-z
loop_
_atom_site_type_symbol
_atom_site_label
_atom_site_fract_x
_atom_site_fract_y
_atom_site_fract_z
Si Si1 0.962005 0.074708 0.743581
Si Si2 0.885885 0.196098 0.026645
Si Si3 0.532382 0.793200 0.455644
Si Si4 0.565940 0.408060 0.254193
Si Si5 0.288782 0.731025 0.891216
Si Si6 0.621776 0.519695 0.871632
Si Si7 0.978177 0.392644 0.470045
Si Si8 0.902491 0.295023 0.792815
O O1 0.994339 0.340393 0.637088
O O2 0.827986 0.148617 0.775634
O O3 0.810529 0.800919 0.784473
O O4 0.236008 0.988579 0.784509
O O5 0.675177 0.142819 0.083675
O O6 0.746814 0.222200 0.962771
O O7 0.067388 0.944796 0.099780
O O8 0.037217 0.511669 0.949577
O O9 0.500000 0.500000 0.500000
O O10 0.797859 0.804872 0.486516
O O11 0.297331 0.788811 0.492978
O O12 0.533021 0.062253 0.347242
O O13 0.582184 0.521397 0.165797
O O14 0.319446 0.519560 0.245439
O O15 0.826764 0.513114 0.258168
O O16 0.514280 0.581129 0.910397
O O17 0.000000 0.500000 0.500000
#
# Coordination Sequence:
#
# PCOD8010198 Si02
#       8
#     2   2   2   2   2   2   2   2
#     4  10  24  42  69 103 133 186 229 277 341 404
#     4   9  21  41  62  99 135 185 226 280 336 395
#     4  10  22  42  67  96 131 169 214 283 335 395
#     4  12  28  46  68 103 141 178 224 287 344 406
#     4   9  20  37  67 100 135 171 241 285 323 395
#     4  11  23  38  75  97 134 178 247 283 320 397
#     4  10  21  37  69 100 128 160 220 285 333 388
#     4  11  28  47  66  96 151 184 217 276 354 413
#
# _framework density 24.476382999999998
#
# number of rings (size 3 to 8) (size 9 to 14) (size 15 to 20)
#    0.000    1.750    0.000    3.375   14.000    1.000 
#    0.000    3.750    0.000    0.000    0.000    0.000 
#    0.000    0.000    0.000    0.000    0.000    0.000 
#
# Total GULP energy -198211.147103 kJ/mol
# GULP energy per Si atom -12388.196694 kJ/mol
# Density = 2.442067 g / cm^3
# Si number density = 24.476383 Si / 1000 Ang^3
#
#
#
# Elastic Constant Matrix: (Units=GPa)
#
#
# Indices 1 2 3 4 5 6 
#
# 1 142.4804 6.5848 32.2206 2.5380 17.9700 -14.7049
# 2 6.5848 34.5942 4.0899 -0.3691 7.3157 -3.8459
# 3 32.2206 4.0899 167.4454 10.7181 33.3994 -8.8256
# 4 2.5380 -0.3691 10.7181 28.0880 -5.1535 6.9842
# 5 17.9700 7.3157 33.3994 -5.1535 32.0357 0.8379
# 6 -14.7049 -3.8459 -8.8256 6.9842 0.8379 22.0798
#
#
#
# Elastic Compliance Matrix: (Units=1/GPa)
#
#
# Indices 1 2 3 4 5 6 
#
# 1 0.008501 0.000334 0.000106 -0.003626 -0.005725 0.007126
# 2 0.000334 0.031676 0.001939 -0.004309 -0.010352 0.008271
# 3 0.000106 0.001939 0.008926 -0.007081 -0.011120 0.006637
# 4 -0.003626 -0.004309 -0.007081 0.047379 0.018589 -0.021688
# 5 -0.005725 -0.010352 -0.011120 0.018589 0.051843 -0.017908
# 6 0.007126 0.008271 0.006637 -0.021688 -0.017908 0.061670
#
#
# Mechanical properties :
#
#
# Convention : Reuss Voigt Hill
#
# Bulk Modulus (GPa) = 18.56700 47.81229 33.18964
# Shear Modulus (GPa) = 22.40220 36.54901 29.47560
#
# Velocity S-wave (km/s) = 3.02861 3.86843 3.47399
# Velocity P-wave (km/s) = 4.45332 6.28725 5.44801
#
# Compressibility (1/GPa) = 0.05385900
#
# Stress axis : x y z
#
# Youngs Moduli (GPa) = 117.62870 31.56919 112.03764
#
# Poissons Ratio (x) = -0.01053 -0.01183
# Poissons Ratio (y) = -0.03924 -0.21720
# Poissons Ratio (z) = -0.01242 -0.06120
#
# Static dielectric constant tensor:
#      x y z
#    x 5.652130 0.061720 0.238890 
#    y 0.061720 3.986580 0.011810 
#    z 0.238890 0.011810 4.487240 
# 
# 
# High freq. dielectric constant tensor:
#      x y z
#    x 1.982080 -0.000990 0.013980 
#    y -0.000990 1.931700 -0.000720 
#    z 0.013980 -0.000720 1.986290 
# 
# From -- ./inp_files/76223.got.cif
#   From: 2010.06.25/outbox.cif.g09.slc.cpg/sg2_39_cif.got.tgz:76223.got - 2010.06.27 13:26:56.
