data_PCOD8010801
_publ_section_title
;
Structure prediction by ZEFSAII (Michael W. Deem and Ramdas Pophale) SiO2 
 PCOD8010801
Probable space group: P -1
;
_chemical_formula_sum "Si O2"
_cell_formula_units_Z 16
_cell_length_a 12.036046
_cell_length_b 16.224991
_cell_length_c 8.554547
_cell_angle_alpha 53.692382
_cell_angle_beta 148.311300
_cell_angle_gamma 127.192030
_cell_volume 686.902004
_symmetry_space_group_name_H-M "P -1"
_symmetry_group_IT_number 2
_symmetry_cell_setting 'triclinic'
loop_
_space_group_symop_operation_xyz
x,y,z
-x,-y,-z
loop_
_atom_site_type_symbol
_atom_site_label
_atom_site_fract_x
_atom_site_fract_y
_atom_site_fract_z
Si Si1 0.245212 0.059881 0.254208
Si Si2 0.915964 0.337177 0.545054
Si Si3 0.198346 0.242954 0.206159
Si Si4 0.572793 0.565499 0.359834
Si Si5 0.024789 0.681139 0.888907
Si Si6 0.548262 0.131851 0.258082
Si Si7 0.560920 0.263374 0.858640
Si Si8 0.179882 0.522938 0.467935
O O1 0.235735 0.134899 0.304973
O O2 0.358331 0.127132 0.164253
O O3 0.392106 0.979776 0.561916
O O4 0.000000 0.000000 0.000000
O O5 0.766834 0.222514 0.454185
O O6 0.777990 0.398632 0.421962
O O7 0.007883 0.413110 0.424786
O O8 0.137272 0.319219 0.914969
O O9 0.418277 0.292697 0.511792
O O10 0.002756 0.232143 0.110855
O O11 0.500000 0.500000 0.500000
O O12 0.411247 0.645422 0.072144
O O13 0.589120 0.497822 0.298362
O O14 0.811329 0.641811 0.575834
O O15 0.208253 0.743420 0.923103
O O16 0.079259 0.577617 0.145619
O O17 0.459434 0.155760 0.953301
#
# Coordination Sequence:
#
# PCOD8010801 Si02
#       8
#     2   2   2   2   2   2   2   2
#     4  11  25  47  74 100 131 168 224 282 346 398
#     4  10  22  42  67  98 137 179 221 277 327 391
#     4  10  24  43  69  96 133 175 218 276 340 396
#     4  11  22  35  60  94 133 183 224 269 323 388
#     4  10  22  40  63  93 144 177 220 277 326 386
#     4  11  26  44  73 100 132 173 223 281 337 397
#     4  11  25  43  66  99 136 178 221 271 337 396
#     4  10  21  38  63  96 136 181 224 263 322 391
#
# _framework density 23.292988999999999
#
# number of rings (size 3 to 8) (size 9 to 14) (size 15 to 20)
#    0.000    1.500    2.500    1.125    7.000    2.500 
#    0.000    2.500    0.000    0.000    0.000    0.000 
#    0.000    0.000    0.000    0.000    0.000    0.000 
#
# Total GULP energy -198224.169077 kJ/mol
# GULP energy per Si atom -12389.010567 kJ/mol
# Density = 2.323997 g / cm^3
# Si number density = 23.292989 Si / 1000 Ang^3
#
#
#
# Elastic Constant Matrix: (Units=GPa)
#
#
# Indices 1 2 3 4 5 6 
#
# 1 179.0192 66.7619 33.1677 -15.8290 25.9866 -7.2668
# 2 66.7619 93.7796 16.8039 -11.8442 8.0216 1.2055
# 3 33.1677 16.8039 50.5446 -6.2208 8.8090 4.7354
# 4 -15.8290 -11.8442 -6.2208 32.6389 -1.0669 3.9970
# 5 25.9866 8.0216 8.8090 -1.0669 36.2578 -9.8933
# 6 -7.2668 1.2055 4.7354 3.9970 -9.8933 51.3474
#
#
#
# Elastic Compliance Matrix: (Units=1/GPa)
#
#
# Indices 1 2 3 4 5 6 
#
# 1 0.008913 -0.005212 -0.003262 0.001580 -0.004190 0.000754
# 2 -0.005212 0.014910 -0.001176 0.002810 0.000505 -0.001101
# 3 -0.003262 -0.001176 0.023712 0.002822 -0.004069 -0.003624
# 4 0.001580 0.002810 0.002822 0.033271 -0.002317 -0.003139
# 5 -0.004190 0.000505 -0.004069 -0.002317 0.033120 0.006332
# 6 0.000754 -0.001101 -0.003624 -0.003139 0.006332 0.021406
#
#
# Mechanical properties :
#
#
# Convention : Reuss Voigt Hill
#
# Bulk Modulus (GPa) = 35.41651 61.86783 48.64217
# Shear Modulus (GPa) = 30.47982 37.82281 34.15131
#
# Velocity S-wave (km/s) = 3.62130 4.03399 3.83320
# Velocity P-wave (km/s) = 5.72039 6.95096 6.36548
#
# Compressibility (1/GPa) = 0.02823542
#
# Stress axis : x y z
#
# Youngs Moduli (GPa) = 112.20015 67.06700 42.17327
#
# Poissons Ratio (x) = 0.34957 0.13756
# Poissons Ratio (y) = 0.58481 0.04959
# Poissons Ratio (z) = 0.36596 0.07886
#
# Static dielectric constant tensor:
#      x y z
#    x 4.973850 -0.499830 0.051480 
#    y -0.499830 4.483580 -0.167050 
#    z 0.051480 -0.167050 4.633300 
# 
# 
# High freq. dielectric constant tensor:
#      x y z
#    x 1.947020 -0.006460 0.010840 
#    y -0.006460 1.897230 -0.015900 
#    z 0.010840 -0.015900 1.915270 
# 
# From -- ./inp_files/279167.got.cif
#   From: 2010.06.25/outbox.cif.g09.slc.cpg/sg2_140_cif.got.tgz:279167.got - 2010.06.27 13:26:56.
