data_PCOD8010810
_publ_section_title
;
Structure prediction by ZEFSAII (Michael W. Deem and Ramdas Pophale) SiO2 
 PCOD8010810
Probable space group: P -1
;
_chemical_formula_sum "Si O2"
_cell_formula_units_Z 12
_cell_length_a 5.263709
_cell_length_b 10.579807
_cell_length_c 9.159317
_cell_angle_alpha 119.482576
_cell_angle_beta 82.655755
_cell_angle_gamma 86.583663
_cell_volume 435.923285
_symmetry_space_group_name_H-M "P -1"
_symmetry_group_IT_number 2
_symmetry_cell_setting 'triclinic'
loop_
_space_group_symop_operation_xyz
x,y,z
-x,-y,-z
loop_
_atom_site_type_symbol
_atom_site_label
_atom_site_fract_x
_atom_site_fract_y
_atom_site_fract_z
Si Si1 0.836879 0.092909 0.198463
Si Si2 0.995320 0.817587 0.223823
Si Si3 0.367313 0.609357 0.452955
Si Si4 0.557101 0.659304 0.038406
Si Si5 0.141228 0.305570 0.562564
Si Si6 0.666249 0.808790 0.832746
O O1 0.772179 0.243877 0.376243
O O2 0.590747 0.071321 0.103941
O O3 0.088494 0.110858 0.083765
O O4 0.898905 0.972256 0.248598
O O5 0.824270 0.695975 0.108804
O O6 0.936632 0.826373 0.407723
O O7 0.302563 0.774425 0.157847
O O8 0.500000 0.500000 0.500000
O O9 0.610215 0.633587 0.343568
O O10 0.116205 0.567395 0.358135
O O11 0.500000 0.500000 0.000000
O O12 0.600686 0.678254 0.869698
O O13 0.254421 0.255372 0.368261
#
# Coordination Sequence:
#
# PCOD8010810 Si02
#       6
#     2   2   2   2   2   2
#     4  10  23  41  68 102 137 178 230 281 338 411
#     4  12  26  44  70 102 138 179 229 288 345 404
#     4  10  21  38  63  99 139 176 220 277 338 399
#     4  12  28  48  68  98 139 182 230 287 350 411
#     4  10  23  41  68 100 133 177 228 281 340 405
#     4  10  23  44  70  97 137 182 227 280 343 413
#
# _framework density 27.527781000000001
#
# number of rings (size 3 to 8) (size 9 to 14) (size 15 to 20)
#    0.000    1.333    0.000    4.000    0.000   17.333 
#    0.000    0.000    0.000    0.000    0.000    0.000 
#    0.000    0.000    0.000    0.000    0.000    0.000 
#
# Total GULP energy -148661.261514 kJ/mol
# GULP energy per Si atom -12388.438459 kJ/mol
# Density = 2.746513 g / cm^3
# Si number density = 27.527781 Si / 1000 Ang^3
#
#
#
# Elastic Constant Matrix: (Units=GPa)
#
#
# Indices 1 2 3 4 5 6 
#
# 1 220.2867 59.3701 2.7549 -2.7132 -35.3422 -6.6392
# 2 59.3701 212.8960 48.3672 -29.8074 -38.4555 -5.2516
# 3 2.7549 48.3672 81.7825 -36.6829 -19.6909 3.4010
# 4 -2.7132 -29.8074 -36.6829 52.0527 10.0756 -10.7425
# 5 -35.3422 -38.4555 -19.6909 10.0756 40.2123 -0.5035
# 6 -6.6392 -5.2516 3.4010 -10.7425 -0.5035 47.8177
#
#
#
# Elastic Compliance Matrix: (Units=1/GPa)
#
#
# Indices 1 2 3 4 5 6 
#
# 1 0.005565 -0.001045 0.001518 -0.000015 0.004647 0.000596
# 2 -0.001045 0.006414 -0.002193 0.001574 0.003761 0.001108
# 3 0.001518 -0.002193 0.020418 0.012296 0.006171 0.001345
# 4 -0.000015 0.001574 0.012296 0.030010 0.000069 0.006039
# 5 0.004647 0.003761 0.006171 0.000069 0.035566 0.001009
# 6 0.000596 0.001108 0.001345 0.006039 0.001009 0.022389
#
#
# Mechanical properties :
#
#
# Convention : Reuss Voigt Hill
#
# Bulk Modulus (GPa) = 34.53299 81.77217 58.15258
# Shear Modulus (GPa) = 37.46603 54.98141 46.22372
#
# Velocity S-wave (km/s) = 3.69321 4.47397 4.10221
# Velocity P-wave (km/s) = 5.54603 7.51388 6.60367
#
# Compressibility (1/GPa) = 0.02895782
#
# Stress axis : x y z
#
# Youngs Moduli (GPa) = 179.68074 155.91621 48.97559
#
# Poissons Ratio (x) = 0.16293 -0.07433
# Poissons Ratio (y) = 0.18776 0.10738
# Poissons Ratio (z) = -0.27270 0.34185
#
# Static dielectric constant tensor:
#      x y z
#    x 36.528230 -0.364690 -0.252090 
#    y -0.364690 5.250510 -0.141360 
#    z -0.252090 -0.141360 5.287670 
# 
# 
# High freq. dielectric constant tensor:
#      x y z
#    x 2.163970 -0.006550 -0.013620 
#    y -0.006550 2.109560 -0.012530 
#    z -0.013620 -0.012530 2.116420 
# 
# From -- ./inp_files/360289.got.cif
#   From: 2010.06.25/outbox.cif.g09.slc.cpg/sg2_181_cif.got.tgz:360289.got - 2010.06.27 13:26:56.
