data_PCOD8010840
_publ_section_title
;
Structure prediction by ZEFSAII (Michael W. Deem and Ramdas Pophale) SiO2 
 PCOD8010840
Probable space group: P -1
;
_chemical_formula_sum "Si O2"
_cell_formula_units_Z 16
_cell_length_a 13.965985
_cell_length_b 24.031764
_cell_length_c 5.102190
_cell_angle_alpha 90.141476
_cell_angle_beta 71.218332
_cell_angle_gamma 150.106983
_cell_volume 654.537487
_symmetry_space_group_name_H-M "P -1"
_symmetry_group_IT_number 2
_symmetry_cell_setting 'triclinic'
loop_
_space_group_symop_operation_xyz
x,y,z
-x,-y,-z
loop_
_atom_site_type_symbol
_atom_site_label
_atom_site_fract_x
_atom_site_fract_y
_atom_site_fract_z
Si Si1 0.360808 0.758347 0.360603
Si Si2 0.892666 0.577505 0.550163
Si Si3 0.533343 0.784540 0.718842
Si Si4 0.841351 0.066991 0.950230
Si Si5 0.454819 0.533985 0.783819
Si Si6 0.509256 0.666167 0.423570
Si Si7 0.091231 0.303685 0.708662
Si Si8 0.013571 0.093418 0.305447
O O1 0.393636 0.751071 0.621305
O O2 0.082737 0.643454 0.580214
O O3 0.397821 0.728139 0.113780
O O4 0.557819 0.906907 0.127567
O O5 0.775563 0.475494 0.441999
O O6 0.025665 0.697975 0.299729
O O7 0.641786 0.474415 0.905923
O O8 0.512015 0.708975 0.669572
O O9 0.829012 0.947328 0.479839
O O10 0.027362 0.130961 0.576100
O O11 0.865654 0.146036 0.921206
O O12 0.904752 0.080851 0.187198
O O13 0.569060 0.632798 0.459256
O O14 0.220186 0.380292 0.877078
O O15 0.681597 0.607102 0.674003
O O16 0.711840 0.788632 0.028022
#
# Coordination Sequence:
#
# PCOD8010840 Si02
#       8
#     2   2   2   2   2   2   2   2
#     4  10  25  45  62  91 130 164 216 252 299 374
#     4  11  25  39  62  90 128 170 209 255 304 376
#     4  10  24  43  67  91 125 168 206 261 310 360
#     4  10  21  40  66  91 126 166 201 258 311 367
#     4  10  22  39  59  96 126 155 211 256 314 373
#     4  11  23  38  65  95 124 164 207 258 318 370
#     4  10  21  38  64  90 125 160 205 259 323 357
#     4  10  21  40  64  97 125 156 207 261 313 371
#
# _framework density 24.444741
#
# number of rings (size 3 to 8) (size 9 to 14) (size 15 to 20)
#    0.000    1.750    1.250    1.500    7.000    1.500 
#    0.000    4.375    0.000    0.000    0.000    0.000 
#    0.000    0.000    0.000    0.000    0.000    0.000 
#
# Total GULP energy -198409.841554 kJ/mol
# GULP energy per Si atom -12400.615097 kJ/mol
# Density = 2.438910 g / cm^3
# Si number density = 24.444741 Si / 1000 Ang^3
#
#
#
# Elastic Constant Matrix: (Units=GPa)
#
#
# Indices 1 2 3 4 5 6 
#
# 1 62.3223 24.1784 -10.1356 -8.6445 -18.3933 4.8293
# 2 24.1784 112.8166 2.8688 0.7418 -4.0464 -22.2759
# 3 -10.1356 2.8688 38.5421 4.8496 -1.9330 -0.2858
# 4 -8.6445 0.7418 4.8496 27.6009 7.8153 0.5691
# 5 -18.3933 -4.0464 -1.9330 7.8153 19.2986 -1.7951
# 6 4.8293 -22.2759 -0.2858 0.5691 -1.7951 39.9306
#
#
#
# Elastic Compliance Matrix: (Units=1/GPa)
#
#
# Indices 1 2 3 4 5 6 
#
# 1 0.028105 -0.006478 0.009092 0.000218 0.025712 -0.005795
# 2 -0.006478 0.011635 -0.002500 -0.001253 -0.002813 0.007148
# 3 0.009092 -0.002500 0.029959 -0.006133 0.013478 -0.001587
# 4 0.000218 -0.001253 -0.006133 0.042586 -0.018119 -0.002191
# 5 0.025712 -0.002813 0.013478 -0.018119 0.084372 -0.000531
# 6 -0.005795 0.007148 -0.001587 -0.002191 -0.000531 0.029728
#
#
# Mechanical properties :
#
#
# Convention : Reuss Voigt Hill
#
# Bulk Modulus (GPa) = 14.30065 27.50046 20.90055
# Shear Modulus (GPa) = 20.04296 30.48397 25.26346
#
# Velocity S-wave (km/s) = 2.86655 3.53520 3.21829
# Velocity P-wave (km/s) = 4.10110 5.28564 4.73059
#
# Compressibility (1/GPa) = 0.06992690
#
# Stress axis : x y z
#
# Youngs Moduli (GPa) = 35.58053 85.95106 33.37933
#
# Poissons Ratio (x) = 0.55680 -0.30349
# Poissons Ratio (y) = 0.23049 0.08345
# Poissons Ratio (z) = -0.32351 0.21487
#
# Static dielectric constant tensor:
#      x y z
#    x 4.156620 -0.127450 0.251530 
#    y -0.127450 4.610170 0.016870 
#    z 0.251530 0.016870 4.136440 
# 
# 
# High freq. dielectric constant tensor:
#      x y z
#    x 1.958300 -0.006470 0.020950 
#    y -0.006470 1.991560 0.005630 
#    z 0.020950 0.005630 1.947170 
# 
# From -- ./inp_files/69208.got.cif
#   From: 2010.06.25/outbox.cif.g09.slc.cpg/sg2_35_cif.got.tgz:69208.got - 2010.06.27 13:26:56.
