data_PCOD8010640
_publ_section_title
;
Structure prediction by ZEFSAII (Michael W. Deem and Ramdas Pophale) SiO2 
 PCOD8010640
Probable space group: P -1
;
_chemical_formula_sum "Si O2"
_cell_formula_units_Z 12
_cell_length_a 14.414080
_cell_length_b 9.892588
_cell_length_c 8.633841
_cell_angle_alpha 101.366564
_cell_angle_beta 145.076577
_cell_angle_gamma 95.438087
_cell_volume 614.676332
_symmetry_space_group_name_H-M "P -1"
_symmetry_group_IT_number 2
_symmetry_cell_setting 'triclinic'
loop_
_space_group_symop_operation_xyz
x,y,z
-x,-y,-z
loop_
_atom_site_type_symbol
_atom_site_label
_atom_site_fract_x
_atom_site_fract_y
_atom_site_fract_z
Si Si1 0.324609 0.391138 0.837847
Si Si2 0.484383 0.887252 0.589590
Si Si3 0.209967 0.064298 0.754202
Si Si4 0.810261 0.069822 0.620317
Si Si5 0.173364 0.233303 0.307514
Si Si6 0.537259 0.403829 0.658205
O O1 0.321433 0.240038 0.882696
O O2 0.162448 0.320084 0.472011
O O3 0.500000 0.500000 0.000000
O O4 0.305846 0.492763 0.977057
O O5 0.348297 0.890479 0.533287
O O6 0.406076 0.716648 0.370329
O O7 0.500000 0.000000 0.500000
O O8 0.683647 0.945306 0.950230
O O9 0.210336 0.947050 0.596404
O O10 0.000000 0.000000 0.500000
O O11 0.808338 0.920438 0.663311
O O12 0.002647 0.210745 0.964503
O O13 0.349607 0.332414 0.474412
O O14 0.500000 0.500000 0.500000
#
# Coordination Sequence:
#
# PCOD8010640 Si02
#       6
#     2   2   2   2   2   2
#     4   9  20  37  64  87 121 167 213 248 309 386
#     4  12  24  39  63  98 129 160 211 270 313 368
#     4  11  23  40  68  95 123 168 218 258 314 385
#     4  10  21  38  62  90 126 157 209 262 308 365
#     4   9  19  38  62  89 118 166 207 250 313 376
#     4  11  20  38  62  88 124 167 211 248 316 384
#
# _framework density 19.522469999999998
#
# number of rings (size 3 to 8) (size 9 to 14) (size 15 to 20)
#    0.000    1.667    3.333    1.500    4.667    0.000 
#    0.000    1.667    0.000    0.000    0.000    0.000 
#    0.000    0.000    0.000    0.000    0.000    0.000 
#
# Total GULP energy -148656.654873 kJ/mol
# GULP energy per Si atom -12388.054573 kJ/mol
# Density = 1.947804 g / cm^3
# Si number density = 19.522470 Si / 1000 Ang^3
#
#
#
# Elastic Constant Matrix: (Units=GPa)
#
#
# Indices 1 2 3 4 5 6 
#
# 1 120.7953 43.0140 48.1293 8.9475 -19.1926 -25.9705
# 2 43.0140 81.6317 40.4971 8.1527 -10.5847 -6.8865
# 3 48.1293 40.4971 123.3147 11.2654 -24.7830 -21.6262
# 4 8.9475 8.1527 11.2654 25.9841 -7.7631 -8.5530
# 5 -19.1926 -10.5847 -24.7830 -7.7631 42.0617 7.1582
# 6 -25.9705 -6.8865 -21.6262 -8.5530 7.1582 42.5369
#
#
#
# Elastic Compliance Matrix: (Units=1/GPa)
#
#
# Indices 1 2 3 4 5 6 
#
# 1 0.012244 -0.004844 -0.001780 0.000630 0.002501 0.005492
# 2 -0.004844 0.016749 -0.003899 -0.002911 -0.000362 -0.002753
# 3 -0.001780 -0.003899 0.011607 -0.000818 0.004335 0.003289
# 4 0.000630 -0.002911 -0.000818 0.043698 0.005897 0.007292
# 5 0.002501 -0.000362 0.004335 0.005897 0.028456 0.000070
# 6 0.005492 -0.002753 0.003289 0.007292 0.000070 0.029543
#
#
# Mechanical properties :
#
#
# Convention : Reuss Voigt Hill
#
# Bulk Modulus (GPa) = 51.14121 65.44693 58.29407
# Shear Modulus (GPa) = 29.43584 35.05663 32.24623
#
# Velocity S-wave (km/s) = 3.88724 4.24218 4.06858
# Velocity P-wave (km/s) = 6.81179 7.58890 7.21082
#
# Compressibility (1/GPa) = 0.01955370
#
# Stress axis : x y z
#
# Youngs Moduli (GPa) = 81.67264 59.70651 86.15251
#
# Poissons Ratio (x) = 0.28923 0.15333
# Poissons Ratio (y) = 0.39563 0.33593
# Poissons Ratio (z) = 0.14535 0.23281
#
# Static dielectric constant tensor:
#      x y z
#    x 4.168130 0.343010 -0.144210 
#    y 0.343010 4.002910 0.835100 
#    z -0.144210 0.835100 4.432350 
# 
# 
# High freq. dielectric constant tensor:
#      x y z
#    x 1.770770 0.010640 -0.032810 
#    y 0.010640 1.744500 0.023350 
#    z -0.032810 0.023350 1.764040 
# 
# From -- ./inp_files/146304.got.cif
#   From: 2010.06.25/outbox.cif.g09.slc.cpg/sg2_74_cif.got.tgz:146304.got - 2010.06.27 13:26:56.
