data_PCOD8010139
_publ_section_title
;
Structure prediction by ZEFSAII (Michael W. Deem and Ramdas Pophale) SiO2 
 PCOD8010139
Probable space group: P -1
;
_chemical_formula_sum "Si O2"
_cell_formula_units_Z 14
_cell_length_a 14.927674
_cell_length_b 9.038571
_cell_length_c 9.059198
_cell_angle_alpha 76.704638
_cell_angle_beta 68.014876
_cell_angle_gamma 36.449132
_cell_volume 667.736615
_symmetry_space_group_name_H-M "P -1"
_symmetry_group_IT_number 2
_symmetry_cell_setting 'triclinic'
loop_
_space_group_symop_operation_xyz
x,y,z
-x,-y,-z
loop_
_atom_site_type_symbol
_atom_site_label
_atom_site_fract_x
_atom_site_fract_y
_atom_site_fract_z
Si Si1 0.527161 0.176318 0.057268
Si Si2 0.620152 0.770089 0.590095
Si Si3 0.824613 0.244173 0.488911
Si Si4 0.752271 0.615982 0.980384
Si Si5 0.240470 0.912121 0.215200
Si Si6 0.954475 0.148721 0.140386
Si Si7 0.150729 0.325869 0.344994
O O1 0.472499 0.234888 0.247279
O O2 0.374022 0.350337 0.006253
O O3 0.606732 0.236598 0.946245
O O4 0.658792 0.881793 0.025713
O O5 0.760380 0.497662 0.487666
O O6 0.693128 0.819759 0.625413
O O7 0.500000 0.000000 0.500000
O O8 0.711651 0.269391 0.644138
O O9 0.842185 0.192142 0.313058
O O10 0.000000 0.000000 0.500000
O O11 0.875000 0.508639 0.798156
O O12 0.854621 0.422818 0.095311
O O13 0.175547 0.136619 0.292438
O O14 0.111716 0.004675 0.161521
O O15 0.000000 0.000000 0.000000
O O16 0.000000 0.500000 0.500000
#
# Coordination Sequence:
#
# PCOD8010139 Si02
#       7
#     2   2   2   2   2   2   2
#     4   9  20  39  63  89 124 166 204 258 325 373
#     4  11  23  41  68  95 131 170 211 265 322 381
#     4  10  23  42  64  92 130 167 210 260 325 379
#     4   9  20  38  60  88 126 164 207 257 315 374
#     4  10  23  41  62  95 126 167 214 262 311 384
#     4  11  24  39  64  90 128 169 211 259 317 374
#     4  10  21  37  66  93 127 170 213 260 319 380
#
# _framework density 20.966352000000001
#
# number of rings (size 3 to 8) (size 9 to 14) (size 15 to 20)
#    0.000    2.000    0.000    3.429   10.000    4.000 
#    0.000    1.429    0.000    0.000    0.000    0.000 
#    0.000    0.000    0.000    0.000    0.000    0.000 
#
# Total GULP energy -173478.676841 kJ/mol
# GULP energy per Si atom -12391.334060 kJ/mol
# Density = 2.091863 g / cm^3
# Si number density = 20.966352 Si / 1000 Ang^3
#
#
#
# Elastic Constant Matrix: (Units=GPa)
#
#
# Indices 1 2 3 4 5 6 
#
# 1 97.5238 25.9250 61.6661 -1.6807 -4.0304 9.3818
# 2 25.9250 89.0902 48.7472 -4.5353 1.4891 3.0365
# 3 61.6661 48.7472 176.0250 -4.6843 -9.2039 -2.3523
# 4 -1.6807 -4.5353 -4.6843 34.3097 1.8650 1.5960
# 5 -4.0304 1.4891 -9.2039 1.8650 41.0289 5.0598
# 6 9.3818 3.0365 -2.3523 1.5960 5.0598 18.2449
#
#
#
# Elastic Compliance Matrix: (Units=1/GPa)
#
#
# Indices 1 2 3 4 5 6 
#
# 1 0.014450 -0.001358 -0.004717 0.000190 0.001416 -0.008222
# 2 -0.001358 0.013601 -0.003341 0.001425 -0.001221 -0.001782
# 3 -0.004717 -0.003341 0.008371 0.000238 0.001063 0.003745
# 4 0.000190 0.001425 0.000238 0.029552 -0.001001 -0.002612
# 5 0.001416 -0.001221 0.001063 -0.001001 0.025758 -0.007444
# 6 -0.008222 -0.001782 0.003745 -0.002612 -0.007444 0.062110
#
#
# Mechanical properties :
#
#
# Convention : Reuss Voigt Hill
#
# Bulk Modulus (GPa) = 56.84700 70.59061 63.71881
# Shear Modulus (GPa) = 28.00525 33.80341 30.90433
#
# Velocity S-wave (km/s) = 3.65872 4.01966 3.84343
# Velocity P-wave (km/s) = 6.70974 7.43540 7.08187
#
# Compressibility (1/GPa) = 0.01759108
#
# Stress axis : x y z
#
# Youngs Moduli (GPa) = 69.20275 73.52234 119.46471
#
# Poissons Ratio (x) = 0.09982 0.56353
# Poissons Ratio (y) = 0.09396 0.39911
# Poissons Ratio (z) = 0.32644 0.24562
#
# Static dielectric constant tensor:
#      x y z
#    x 3.762070 0.060730 -0.373710 
#    y 0.060730 3.701550 -0.053920 
#    z -0.373710 -0.053920 4.757530 
# 
# 
# High freq. dielectric constant tensor:
#      x y z
#    x 1.797510 0.005300 -0.010110 
#    y 0.005300 1.813940 0.002640 
#    z -0.010110 0.002640 1.850700 
# 
# From -- ./inp_files/206292.got.cif
#   From: 2010.06.25/outbox.cif.g09.slc.cpg/sg2_104_cif.got.tgz:206292.got - 2010.06.27 13:26:56.
