data_PCOD8010158
_publ_section_title
;
Structure prediction by ZEFSAII (Michael W. Deem and Ramdas Pophale) SiO2 
 PCOD8010158
Probable space group: P -1
;
_chemical_formula_sum "Si O2"
_cell_formula_units_Z 16
_cell_length_a 9.112750
_cell_length_b 14.600710
_cell_length_c 10.848190
_cell_angle_alpha 64.865270
_cell_angle_beta 67.331090
_cell_angle_gamma 121.585619
_cell_volume 685.006823
_symmetry_space_group_name_H-M "P -1"
_symmetry_group_IT_number 2
_symmetry_cell_setting 'triclinic'
loop_
_space_group_symop_operation_xyz
x,y,z
-x,-y,-z
loop_
_atom_site_type_symbol
_atom_site_label
_atom_site_fract_x
_atom_site_fract_y
_atom_site_fract_z
Si Si1 0.919598 0.270565 0.046287
Si Si2 0.305738 0.887868 0.496891
Si Si3 0.550190 0.295941 0.925646
Si Si4 0.895803 0.427958 0.279393
Si Si5 0.915837 0.741442 0.247044
Si Si6 0.534391 0.354135 0.627749
Si Si7 0.242622 0.323039 0.103582
Si Si8 0.338657 0.971233 0.175165
O O1 0.188270 0.362379 0.975882
O O2 0.626147 0.089387 0.318718
O O3 0.975222 0.420039 0.940757
O O4 0.892269 0.209430 0.951285
O O5 0.222751 0.732001 0.664403
O O6 0.299201 0.876294 0.357322
O O7 0.057620 0.837400 0.638161
O O8 0.548549 0.294726 0.779294
O O9 0.859171 0.486980 0.761126
O O10 0.317666 0.249148 0.081991
O O11 0.488271 0.150302 0.075990
O O12 0.641828 0.342555 0.487414
O O13 0.707155 0.547272 0.474987
O O14 0.780856 0.773662 0.220502
O O15 0.056447 0.853579 0.263277
O O16 0.500000 0.500000 0.000000
O O17 0.500000 0.000000 0.000000
#
# Coordination Sequence:
#
# PCOD8010158 Si02
#       8
#     2   2   2   2   2   2   2   2
#     4  11  24  49  72 105 145 184 244 295 352 431
#     4  12  25  46  74 102 145 191 242 290 358 418
#     4  12  23  44  68 104 142 190 235 292 355 426
#     4  11  23  43  73 105 137 189 234 293 366 421
#     4  10  21  39  67 103 144 179 221 295 366 422
#     4  10  21  37  67 100 139 180 228 289 360 427
#     4  12  28  49  73  99 146 196 243 297 348 422
#     4  12  23  41  72 108 142 179 230 297 362 429
#
# _framework density 23.357434000000001
#
# number of rings (size 3 to 8) (size 9 to 14) (size 15 to 20)
#    0.000    0.750    5.000    3.000    0.000    2.500 
#    0.000    0.000    0.000    0.000    0.000    0.000 
#    0.000    0.000    0.000    0.000    0.000    0.000 
#
# Total GULP energy -198394.950573 kJ/mol
# GULP energy per Si atom -12399.684411 kJ/mol
# Density = 2.330427 g / cm^3
# Si number density = 23.357434 Si / 1000 Ang^3
#
#
#
# Elastic Constant Matrix: (Units=GPa)
#
#
# Indices 1 2 3 4 5 6 
#
# 1 116.9214 35.7627 40.2789 -12.3115 -8.6423 -15.2630
# 2 35.7627 97.4032 31.7095 -21.9992 -4.2517 -7.2140
# 3 40.2789 31.7095 101.6616 -6.5076 -4.7252 -20.5880
# 4 -12.3115 -21.9992 -6.5076 31.2705 -2.3669 -8.2460
# 5 -8.6423 -4.2517 -4.7252 -2.3669 42.8636 1.3297
# 6 -15.2630 -7.2140 -20.5880 -8.2460 1.3297 45.9829
#
#
#
# Elastic Compliance Matrix: (Units=1/GPa)
#
#
# Indices 1 2 3 4 5 6 
#
# 1 0.010982 -0.002148 -0.002901 0.003001 0.001770 0.002496
# 2 -0.002148 0.014149 -0.002516 0.009198 0.001139 0.001997
# 3 -0.002901 -0.002516 0.012772 0.000974 0.000487 0.004521
# 4 0.003001 0.009198 0.000974 0.042869 0.003668 0.010457
# 5 0.001770 0.001139 0.000487 0.003668 0.024026 0.000947
# 6 0.002496 0.001997 0.004521 0.010457 0.000947 0.026761
#
#
# Mechanical properties :
#
#
# Convention : Reuss Voigt Hill
#
# Bulk Modulus (GPa) = 43.91330 59.05425 51.48378
# Shear Modulus (GPa) = 32.40848 37.90576 35.15712
#
# Velocity S-wave (km/s) = 3.72896 4.03284 3.88387
# Velocity P-wave (km/s) = 6.11405 6.85732 6.49632
#
# Compressibility (1/GPa) = 0.02277214
#
# Stress axis : x y z
#
# Youngs Moduli (GPa) = 91.05970 70.67480 78.29923
#
# Poissons Ratio (x) = 0.15178 0.22717
# Poissons Ratio (y) = 0.19556 0.19703
# Poissons Ratio (z) = 0.26419 0.17784
#
# Static dielectric constant tensor:
#      x y z
#    x 4.947690 1.292160 -0.348320 
#    y 1.292160 6.492350 -0.450910 
#    z -0.348320 -0.450910 4.308730 
# 
# 
# High freq. dielectric constant tensor:
#      x y z
#    x 1.938280 0.012860 -0.004910 
#    y 0.012860 1.931090 0.008420 
#    z -0.004910 0.008420 1.921720 
# 
# From -- ./inp_files/345408.got.cif
#   From: 2010.06.25/outbox.cif.g09.slc.cpg/sg2_173_cif.got.tgz:345408.got - 2010.06.27 13:26:56.
