data_PCOD8010102
_publ_section_title
;
Structure prediction by ZEFSAII (Michael W. Deem and Ramdas Pophale) SiO2 
 PCOD8010102
Probable space group: P -1
;
_chemical_formula_sum "Si O2"
_cell_formula_units_Z 16
_cell_length_a 5.176414
_cell_length_b 21.376581
_cell_length_c 11.967970
_cell_angle_alpha 140.059251
_cell_angle_beta 70.687829
_cell_angle_gamma 115.430442
_cell_volume 767.816365
_symmetry_space_group_name_H-M "P -1"
_symmetry_group_IT_number 2
_symmetry_cell_setting 'triclinic'
loop_
_space_group_symop_operation_xyz
x,y,z
-x,-y,-z
loop_
_atom_site_type_symbol
_atom_site_label
_atom_site_fract_x
_atom_site_fract_y
_atom_site_fract_z
Si Si1 0.606069 0.184564 0.194107
Si Si2 0.047397 0.487502 0.780084
Si Si3 0.272186 0.314740 0.502614
Si Si4 0.521624 0.339084 0.736706
Si Si5 0.700732 0.153173 0.385164
Si Si6 0.951438 0.813229 0.035614
Si Si7 0.336783 0.384244 0.055727
Si Si8 0.555466 0.926353 0.147888
O O1 0.521034 0.290657 0.360211
O O2 0.578008 0.133427 0.249909
O O3 0.395160 0.105043 0.030416
O O4 0.929810 0.212851 0.137544
O O5 0.828780 0.425797 0.823003
O O6 0.873504 0.544231 0.802543
O O7 0.141089 0.398125 0.576173
O O8 0.331777 0.565630 0.894534
O O9 0.385343 0.362706 0.672687
O O10 0.038645 0.205829 0.403684
O O11 0.553192 0.225522 0.573957
O O12 0.317688 0.347605 0.879569
O O13 0.637297 0.047515 0.314953
O O14 0.750116 0.885728 0.148752
O O15 0.221871 0.874360 0.156820
O O16 0.773426 0.710093 0.976332
#
# Coordination Sequence:
#
# PCOD8010102 Si02
#       8
#     2   2   2   2   2   2   2   2
#     4   9  21  38  63  89 128 153 201 249 303 351
#     4  11  23  40  65  92 117 158 207 252 303 354
#     4  10  21  38  62  96 125 148 198 265 300 354
#     4  10  23  39  63  98 121 151 202 260 300 357
#     4  10  21  37  65  95 122 155 198 257 308 345
#     4  10  24  41  59  90 122 165 206 241 288 371
#     4  12  24  42  65  85 125 166 200 246 306 354
#     4  10  22  41  64  89 122 161 205 243 298 361
#
# _framework density 20.838317
#
# number of rings (size 3 to 8) (size 9 to 14) (size 15 to 20)
#    0.750    1.000    1.250    2.625    7.000    1.000 
#    0.000    2.500    0.000    0.000    0.000    0.000 
#    0.000    0.000    0.000    0.000    0.000    0.000 
#
# Total GULP energy -198287.901843 kJ/mol
# GULP energy per Si atom -12392.993865 kJ/mol
# Density = 2.079089 g / cm^3
# Si number density = 20.838317 Si / 1000 Ang^3
#
#
#
# Elastic Constant Matrix: (Units=GPa)
#
#
# Indices 1 2 3 4 5 6 
#
# 1 135.5765 40.4185 33.5055 23.2336 -16.2362 -5.3325
# 2 40.4185 91.3206 45.8716 37.2841 -23.1660 -5.7062
# 3 33.5055 45.8716 61.0036 28.0503 -7.9817 0.7997
# 4 23.2336 37.2841 28.0503 28.4596 -6.3216 -4.2900
# 5 -16.2362 -23.1660 -7.9817 -6.3216 30.7088 13.1432
# 6 -5.3325 -5.7062 0.7997 -4.2900 13.1432 25.1692
#
#
#
# Elastic Compliance Matrix: (Units=1/GPa)
#
#
# Indices 1 2 3 4 5 6 
#
# 1 0.009149 -0.000469 -0.002550 -0.003683 0.003235 -0.000404
# 2 -0.000469 0.031580 -0.006298 -0.031807 0.018807 -0.007982
# 3 -0.002550 -0.006298 0.033718 -0.023823 0.001029 -0.007637
# 4 -0.003683 -0.031807 -0.023823 0.101964 -0.019943 0.020559
# 5 0.003235 0.018807 0.001029 -0.019943 0.056631 -0.028055
# 6 -0.000404 -0.007982 -0.007637 0.020559 -0.028055 0.056233
#
#
# Mechanical properties :
#
#
# Convention : Reuss Voigt Hill
#
# Bulk Modulus (GPa) = 17.91728 58.61022 38.26375
# Shear Modulus (GPa) = 15.31335 28.07453 21.69394
#
# Velocity S-wave (km/s) = 2.71378 3.67448 3.23005
# Velocity P-wave (km/s) = 4.29376 6.79630 5.68445
#
# Compressibility (1/GPa) = 0.05581205
#
# Stress axis : x y z
#
# Youngs Moduli (GPa) = 109.30585 31.66564 29.65808
#
# Poissons Ratio (x) = 0.01486 0.07562
# Poissons Ratio (y) = 0.05129 0.18679
# Poissons Ratio (z) = 0.27871 0.19943
#
# Static dielectric constant tensor:
#      x y z
#    x 3.966670 0.042840 -0.160020 
#    y 0.042840 3.325130 0.174800 
#    z -0.160020 0.174800 3.651780 
# 
# 
# High freq. dielectric constant tensor:
#      x y z
#    x 1.835140 0.003250 -0.011930 
#    y 0.003250 1.774110 0.025100 
#    z -0.011930 0.025100 1.806310 
# 
# From -- ./inp_files/370102.got.cif
#   From: 2010.06.25/outbox.cif.g09.slc.cpg/sg2_186_cif.got.tgz:370102.got - 2010.06.27 13:26:56.
