data_PCOD8010828
_publ_section_title
;
Structure prediction by ZEFSAII (Michael W. Deem and Ramdas Pophale) SiO2 
 PCOD8010828
Probable space group: P -1
;
_chemical_formula_sum "Si O2"
_cell_formula_units_Z 16
_cell_length_a 23.455208
_cell_length_b 17.628460
_cell_length_c 15.740074
_cell_angle_alpha 148.489387
_cell_angle_beta 20.328137
_cell_angle_gamma 159.462115
_cell_volume 775.532163
_symmetry_space_group_name_H-M "P -1"
_symmetry_group_IT_number 2
_symmetry_cell_setting 'triclinic'
loop_
_space_group_symop_operation_xyz
x,y,z
-x,-y,-z
loop_
_atom_site_type_symbol
_atom_site_label
_atom_site_fract_x
_atom_site_fract_y
_atom_site_fract_z
Si Si1 0.364034 0.851245 0.133793
Si Si2 0.449327 0.004469 0.699469
Si Si3 0.896379 0.981852 0.747281
Si Si4 0.824866 0.383819 0.414480
Si Si5 0.238858 0.967831 0.578439
Si Si6 0.277162 0.322709 0.902695
Si Si7 0.621391 0.750716 0.742414
Si Si8 0.644590 0.561525 0.773623
O O1 0.282911 0.926630 0.384086
O O2 0.124960 0.586105 0.198720
O O3 0.563777 0.880603 0.928506
O O4 0.500000 0.000000 0.000000
O O5 0.283745 0.822088 0.683447
O O6 0.671301 0.260914 0.600532
O O7 0.559325 0.959606 0.567797
O O8 0.240822 0.958213 0.993422
O O9 0.788071 0.841543 0.679253
O O10 0.841280 0.824168 0.744780
O O11 0.198437 0.199537 0.533854
O O12 0.781976 0.502071 0.536264
O O13 0.242454 0.144637 0.735647
O O14 0.964911 0.754873 0.796316
O O15 0.372273 0.490230 0.854190
O O16 0.465509 0.427467 0.816141
O O17 0.500000 0.500000 0.000000
#
# Coordination Sequence:
#
# PCOD8010828 Si02
#       8
#     2   2   2   2   2   2   2   2
#     4  12  26  44  64  95 129 169 213 265 323 375
#     4  11  22  42  65  95 126 167 212 259 319 372
#     4  10  21  38  64  89 123 166 210 254 308 380
#     4  11  24  39  63  98 131 161 208 265 317 380
#     4  11  23  43  67  92 127 166 217 265 309 385
#     4  10  23  40  65  95 121 168 213 258 319 373
#     4  10  22  41  61  91 124 162 210 257 314 380
#     4  11  19  36  60  94 129 162 203 255 316 372
#
# _framework density 20.630994999999999
#
# number of rings (size 3 to 8) (size 9 to 14) (size 15 to 20)
#    0.000    1.250    3.750    2.250    1.750    2.000 
#    0.000    2.500    0.000    0.000    0.000    0.000 
#    0.000    0.000    0.000    0.000    0.000    0.000 
#
# Total GULP energy -198237.184006 kJ/mol
# GULP energy per Si atom -12389.824000 kJ/mol
# Density = 2.058404 g / cm^3
# Si number density = 20.630995 Si / 1000 Ang^3
#
#
#
# Elastic Constant Matrix: (Units=GPa)
#
#
# Indices 1 2 3 4 5 6 
#
# 1 65.8897 33.9268 34.7311 -4.9813 8.0903 -13.6978
# 2 33.9268 83.1631 49.2159 -16.3950 13.5825 -16.7116
# 3 34.7311 49.2159 155.3328 -14.8511 6.5462 -18.1280
# 4 -4.9813 -16.3950 -14.8511 30.7855 -8.8097 0.8174
# 5 8.0903 13.5825 6.5462 -8.8097 30.1832 0.7869
# 6 -13.6978 -16.7116 -18.1280 0.8174 0.7869 33.0734
#
#
#
# Elastic Compliance Matrix: (Units=1/GPa)
#
#
# Indices 1 2 3 4 5 6 
#
# 1 0.020624 -0.006124 -0.002226 -0.001965 -0.002976 0.004346
# 2 -0.006124 0.019675 -0.003418 0.006328 -0.004767 0.005489
# 3 -0.002226 -0.003418 0.008400 0.002070 0.000868 0.001883
# 4 -0.001965 0.006328 0.002070 0.038911 0.008526 0.002354
# 5 -0.002976 -0.004767 0.000868 0.008526 0.038486 -0.004292
# 6 0.004346 0.005489 0.001883 0.002354 -0.004292 0.035885
#
#
# Mechanical properties :
#
#
# Convention : Reuss Voigt Hill
#
# Bulk Modulus (GPa) = 39.74296 60.01479 49.87888
# Shear Modulus (GPa) = 25.78587 31.24253 28.51420
#
# Velocity S-wave (km/s) = 3.53917 3.89569 3.72170
# Velocity P-wave (km/s) = 6.00054 7.02766 6.53431
#
# Compressibility (1/GPa) = 0.02516169
#
# Stress axis : x y z
#
# Youngs Moduli (GPa) = 48.48683 50.82652 119.05334
#
# Poissons Ratio (x) = 0.31127 0.26504
# Poissons Ratio (y) = 0.29694 0.40692
# Poissons Ratio (z) = 0.10794 0.17373
#
# Static dielectric constant tensor:
#      x y z
#    x 3.684700 -0.120750 0.139170 
#    y -0.120750 3.792940 -0.311890 
#    z 0.139170 -0.311890 3.920280 
# 
# 
# High freq. dielectric constant tensor:
#      x y z
#    x 1.805470 -0.014560 -0.006730 
#    y -0.014560 1.802890 -0.007060 
#    z -0.006730 -0.007060 1.817170 
# 
# From -- ./inp_files/419669.got.cif
#   From: 2010.06.25/outbox.cif.g09.slc.cpg/sg2_210_cif.got.tgz:419669.got - 2010.06.27 13:26:56.
