data_PCOD8010077
_publ_section_title
;
Structure prediction by ZEFSAII (Michael W. Deem and Ramdas Pophale) SiO2 
 PCOD8010077
Probable space group: P -1
;
_chemical_formula_sum "Si O2"
_cell_formula_units_Z 16
_cell_length_a 11.608752
_cell_length_b 11.656663
_cell_length_c 18.587295
_cell_angle_alpha 148.789773
_cell_angle_beta 135.826176
_cell_angle_gamma 30.754551
_cell_volume 664.976504
_symmetry_space_group_name_H-M "P -1"
_symmetry_group_IT_number 2
_symmetry_cell_setting 'triclinic'
loop_
_space_group_symop_operation_xyz
x,y,z
-x,-y,-z
loop_
_atom_site_type_symbol
_atom_site_label
_atom_site_fract_x
_atom_site_fract_y
_atom_site_fract_z
Si Si1 0.995047 0.136677 0.366616
Si Si2 0.878605 0.547410 0.075457
Si Si3 0.211125 0.797084 0.430798
Si Si4 0.269960 0.041828 0.888987
Si Si5 0.509126 0.325671 0.081385
Si Si6 0.216726 0.308807 0.204831
Si Si7 0.382071 0.242855 0.399357
Si Si8 0.575961 0.110341 0.650375
O O1 0.804701 0.486464 0.486957
O O2 0.132913 0.933352 0.389496
O O3 0.163463 0.079504 0.352097
O O4 0.869116 0.053824 0.227514
O O5 0.698990 0.887866 0.140495
O O6 0.946220 0.542738 0.185864
O O7 0.735718 0.452555 0.949590
O O8 0.114314 0.348629 0.031736
O O9 0.309663 0.455308 0.290539
O O10 0.413299 0.774324 0.534552
O O11 0.000000 0.000000 0.500000
O O12 0.498843 0.782084 0.898824
O O13 0.572327 0.526728 0.225238
O O14 0.686333 0.018090 0.951096
O O15 0.250763 0.291500 0.295253
O O16 0.466953 0.945903 0.319010
O O17 0.500000 0.000000 0.500000
#
# Coordination Sequence:
#
# PCOD8010077 Si02
#       8
#     2   2   2   2   2   2   2   2
#     4  12  24  44  76 106 146 189 241 300 362 427
#     4  10  21  40  62 100 146 180 230 292 363 428
#     4  12  26  47  73 111 148 189 240 300 371 437
#     4  10  21  37  65 103 138 184 230 292 364 422
#     4  11  25  42  71 101 146 192 241 298 360 427
#     4  11  26  43  70 109 144 188 240 299 368 433
#     4  12  28  46  75 106 145 201 245 294 359 430
#     4  12  26  51  74 105 147 195 251 295 353 435
#
# _framework density 24.061001000000001
#
# number of rings (size 3 to 8) (size 9 to 14) (size 15 to 20)
#    0.000    0.750    5.000    1.875    3.500    0.500 
#    0.000    0.625    0.000    0.000    0.000    0.000 
#    0.000    0.000    0.000    0.000    0.000    0.000 
#
# Total GULP energy -198213.938204 kJ/mol
# GULP energy per Si atom -12388.371138 kJ/mol
# Density = 2.400624 g / cm^3
# Si number density = 24.061001 Si / 1000 Ang^3
#
#
#
# Elastic Constant Matrix: (Units=GPa)
#
#
# Indices 1 2 3 4 5 6 
#
# 1 73.8130 33.4429 42.0421 -4.9153 8.8075 16.5895
# 2 33.4429 138.4780 52.5535 -27.3569 -0.8991 26.0855
# 3 42.0421 52.5535 129.9040 5.9486 8.2570 4.6300
# 4 -4.9153 -27.3569 5.9486 57.9571 7.0917 -7.6048
# 5 8.8075 -0.8991 8.2570 7.0917 20.5919 7.6174
# 6 16.5895 26.0855 4.6300 -7.6048 7.6174 40.3563
#
#
#
# Elastic Compliance Matrix: (Units=1/GPa)
#
#
# Indices 1 2 3 4 5 6 
#
# 1 0.018912 -0.001414 -0.005132 0.001360 -0.004662 -0.005135
# 2 -0.001414 0.011215 -0.004290 0.004393 0.003526 -0.006013
# 3 -0.005132 -0.004290 0.011277 -0.002791 -0.002888 0.003608
# 4 0.001360 0.004393 -0.002791 0.020918 -0.007304 0.002242
# 5 -0.004662 0.003526 -0.002888 -0.007304 0.059026 -0.012549
# 6 -0.005135 -0.006013 0.003608 0.002242 -0.012549 0.033154
#
#
# Mechanical properties :
#
#
# Convention : Reuss Voigt Hill
#
# Bulk Modulus (GPa) = 50.67899 66.47468 58.57684
# Shear Modulus (GPa) = 27.35956 38.05816 32.70886
#
# Velocity S-wave (km/s) = 3.37574 3.98142 3.69102
# Velocity P-wave (km/s) = 6.02516 6.98736 6.52402
#
# Compressibility (1/GPa) = 0.01973204
#
# Stress axis : x y z
#
# Youngs Moduli (GPa) = 52.87571 89.16940 88.67458
#
# Poissons Ratio (x) = 0.12610 0.45504
# Poissons Ratio (y) = 0.07478 0.38044
# Poissons Ratio (z) = 0.27133 0.38256
#
# Static dielectric constant tensor:
#      x y z
#    x 4.190050 0.095340 0.182730 
#    y 0.095340 4.948390 -0.211680 
#    z 0.182730 -0.211680 4.767730 
# 
# 
# High freq. dielectric constant tensor:
#      x y z
#    x 1.913020 0.005630 0.004990 
#    y 0.005630 1.975780 -0.011490 
#    z 0.004990 -0.011490 1.972230 
# 
# From -- ./inp_files/595159.got.cif
#   From: 2010.06.25/outbox.cif.g09.slc.cpg/sg2_298_cif.got.tgz:595159.got - 2010.06.27 13:26:56.
