data_PCOD8010809
_publ_section_title
;
Structure prediction by ZEFSAII (Michael W. Deem and Ramdas Pophale) SiO2 
 PCOD8010809
Probable space group: P -1
;
_chemical_formula_sum "Si O2"
_cell_formula_units_Z 14
_cell_length_a 14.649561
_cell_length_b 23.918884
_cell_length_c 5.138211
_cell_angle_alpha 77.195936
_cell_angle_beta 75.450693
_cell_angle_gamma 20.841228
_cell_volume 619.563628
_symmetry_space_group_name_H-M "P -1"
_symmetry_group_IT_number 2
_symmetry_cell_setting 'triclinic'
loop_
_space_group_symop_operation_xyz
x,y,z
-x,-y,-z
loop_
_atom_site_type_symbol
_atom_site_label
_atom_site_fract_x
_atom_site_fract_y
_atom_site_fract_z
Si Si1 0.002869 0.807494 0.038454
Si Si2 0.778936 0.370895 0.429855
Si Si3 0.464373 0.854332 0.045759
Si Si4 0.259860 0.482017 0.493634
Si Si5 0.741395 0.215986 0.120987
Si Si6 0.807989 0.660854 0.502485
Si Si7 0.273273 0.842518 0.310000
O O1 0.083337 0.716920 0.853914
O O2 0.174799 0.766537 0.924435
O O3 0.042451 0.757049 0.342452
O O4 0.701712 0.994110 0.033298
O O5 0.500000 0.500000 0.500000
O O6 0.752460 0.453500 0.396578
O O7 0.653954 0.758355 0.247745
O O8 0.261245 0.917261 0.179343
O O9 0.615804 0.754452 0.776942
O O10 0.430147 0.394475 0.198521
O O11 0.416719 0.345455 0.689512
O O12 0.971174 0.625536 0.484808
O O13 0.863383 0.103050 0.374841
O O14 0.831237 0.138948 0.864348
O O15 0.000000 0.500000 0.500000
#
# Coordination Sequence:
#
# PCOD8010809 Si02
#       7
#     2   2   2   2   2   2   2
#     4  12  26  44  65  98 141 177 211 273 344 395
#     4  12  24  44  71  98 132 174 230 272 321 395
#     4  12  26  44  65  98 141 177 211 273 344 395
#     4  10  24  38  70 100 124 168 232 280 318 372
#     4  10  21  38  63  99 127 164 221 271 339 378
#     4  12  24  44  71  98 132 174 230 272 321 395
#     4  10  21  38  63  99 127 164 221 271 339 378
#
# _framework density 22.596550000000001
#
# number of rings (size 3 to 8) (size 9 to 14) (size 15 to 20)
#    0.857    0.000    2.857    5.143    4.000    1.143 
#    0.000    4.286    0.000    0.000    0.000    0.000 
#    0.000    0.000    0.000    0.000    0.000    0.000 
#
# Total GULP energy -173655.762485 kJ/mol
# GULP energy per Si atom -12403.983035 kJ/mol
# Density = 2.254512 g / cm^3
# Si number density = 22.596550 Si / 1000 Ang^3
#
#
#
# Elastic Constant Matrix: (Units=GPa)
#
#
# Indices 1 2 3 4 5 6 
#
# 1 71.4477 19.4079 -11.3624 7.3923 18.5161 16.7369
# 2 19.4079 101.3965 37.1221 4.2496 9.2093 0.2706
# 3 -11.3624 37.1221 89.9601 -1.0149 29.8957 11.7604
# 4 7.3923 4.2496 -1.0149 45.7470 2.3504 3.5302
# 5 18.5161 9.2093 29.8957 2.3504 37.4582 2.4345
# 6 16.7369 0.2706 11.7604 3.5302 2.4345 24.0941
#
#
#
# Elastic Compliance Matrix: (Units=1/GPa)
#
#
# Indices 1 2 3 4 5 6 
#
# 1 0.041604 -0.015111 0.029090 0.000278 -0.037539 -0.039178
# 2 -0.015111 0.017397 -0.016409 -0.001636 0.015286 0.017006
# 3 0.029090 -0.016409 0.039423 0.002484 -0.039650 -0.035624
# 4 0.000278 -0.001636 0.002484 0.022507 -0.002845 -0.004398
# 5 -0.037539 0.015286 -0.039650 -0.002845 0.070814 0.038520
# 6 -0.039178 0.017006 -0.035624 -0.004398 0.038520 0.082668
#
#
# Mechanical properties :
#
#
# Convention : Reuss Voigt Hill
#
# Bulk Modulus (GPa) = 10.68780 39.23770 24.96275
# Shear Modulus (GPa) = 16.10504 35.96896 26.03700
#
# Velocity S-wave (km/s) = 2.67258 3.99405 3.39817
# Velocity P-wave (km/s) = 3.77673 6.21869 5.14470
#
# Compressibility (1/GPa) = 0.09356464
#
# Stress axis : x y z
#
# Youngs Moduli (GPa) = 24.03591 57.48134 25.36582
#
# Poissons Ratio (x) = 0.86861 -0.73790
# Poissons Ratio (y) = 0.36321 0.41623
# Poissons Ratio (z) = -0.69921 0.94321
#
# Static dielectric constant tensor:
#      x y z
#    x 4.010580 -0.034670 0.067770 
#    y -0.034670 4.475780 -0.077400 
#    z 0.067770 -0.077400 4.082000 
# 
# 
# High freq. dielectric constant tensor:
#      x y z
#    x 1.879620 0.005490 0.010770 
#    y 0.005490 1.916640 -0.004010 
#    z 0.010770 -0.004010 1.898610 
# 
# From -- ./inp_files/74261.got.cif
#   From: 2010.06.25/outbox.cif.g09.slc.cpg/sg2_38_cif.got.tgz:74261.got - 2010.06.27 13:26:56.
