data_PCOD8010466
_publ_section_title
;
Structure prediction by ZEFSAII (Michael W. Deem and Ramdas Pophale) SiO2 
 PCOD8010466
Probable space group: P -1
;
_chemical_formula_sum "Si O2"
_cell_formula_units_Z 16
_cell_length_a 7.621456
_cell_length_b 13.453254
_cell_length_c 8.936553
_cell_angle_alpha 77.212959
_cell_angle_beta 83.881928
_cell_angle_gamma 123.049149
_cell_volume 719.458493
_symmetry_space_group_name_H-M "P -1"
_symmetry_group_IT_number 2
_symmetry_cell_setting 'triclinic'
loop_
_space_group_symop_operation_xyz
x,y,z
-x,-y,-z
loop_
_atom_site_type_symbol
_atom_site_label
_atom_site_fract_x
_atom_site_fract_y
_atom_site_fract_z
Si Si1 0.852632 0.350198 0.821712
Si Si2 0.012523 0.704945 0.463785
Si Si3 0.704820 0.524156 0.782234
Si Si4 0.570958 0.914735 0.971356
Si Si5 0.786901 0.657125 0.038617
Si Si6 0.082706 0.936367 0.875513
Si Si7 0.097377 0.952826 0.334526
Si Si8 0.743986 0.094949 0.401641
O O1 0.838370 0.465083 0.817031
O O2 0.619621 0.228830 0.936053
O O3 0.891437 0.346277 0.642000
O O4 0.050667 0.367374 0.889040
O O5 0.777991 0.594603 0.590977
O O6 0.004299 0.809548 0.337439
O O7 0.170089 0.770456 0.575021
O O8 0.444878 0.422055 0.830413
O O9 0.762606 0.621133 0.878325
O O10 0.793699 0.968012 0.029502
O O11 0.500000 0.000000 0.000000
O O12 0.654630 0.943978 0.784039
O O13 0.869956 0.802453 0.993490
O O14 0.225905 0.899343 0.783016
O O15 0.054522 0.011161 0.726031
O O16 0.119917 0.952702 0.512949
O O17 0.500000 0.000000 0.500000
#
# Coordination Sequence:
#
# PCOD8010466 Si02
#       8
#     2   2   2   2   2   2   2   2
#     4  12  24  43  68  95 130 174 215 267 327 388
#     4  10  22  42  63  90 136 165 215 267 313 390
#     4  11  25  45  66  93 128 176 224 259 320 384
#     4  12  21  39  64  95 128 162 207 268 332 380
#     4  11  24  44  68  95 129 170 218 278 311 381
#     4  12  21  40  67  94 131 164 211 272 330 385
#     4  10  22  36  62  95 127 166 208 263 331 382
#     4  10  21  38  60  93 129 170 202 260 324 383
#
# _framework density 22.238945999999999
#
# number of rings (size 3 to 8) (size 9 to 14) (size 15 to 20)
#    0.750    0.250    3.750    3.750    0.000    1.500 
#    0.000    3.750    0.000    0.000    0.000    0.000 
#    0.000    0.000    0.000    0.000    0.000    0.000 
#
# Total GULP energy -198257.280322 kJ/mol
# GULP energy per Si atom -12391.080020 kJ/mol
# Density = 2.218833 g / cm^3
# Si number density = 22.238946 Si / 1000 Ang^3
#
#
#
# Elastic Constant Matrix: (Units=GPa)
#
#
# Indices 1 2 3 4 5 6 
#
# 1 68.6088 28.8348 2.0143 -21.6482 5.2342 6.0654
# 2 28.8348 87.8041 36.4488 -13.7166 -7.6526 4.9486
# 3 2.0143 36.4488 114.7723 -16.6465 -23.6249 4.6500
# 4 -21.6482 -13.7166 -16.6465 36.7123 2.2416 -3.9820
# 5 5.2342 -7.6526 -23.6249 2.2416 32.2647 -5.1502
# 6 6.0654 4.9486 4.6500 -3.9820 -5.1502 33.8613
#
#
#
# Elastic Compliance Matrix: (Units=1/GPa)
#
#
# Indices 1 2 3 4 5 6 
#
# 1 0.021377 -0.006549 0.002553 0.011305 -0.004345 -0.002554
# 2 -0.006549 0.015530 -0.004556 -0.000241 0.001380 -0.000289
# 3 0.002553 -0.004556 0.012311 0.004967 0.007206 0.000198
# 4 0.011305 -0.000241 0.004967 0.036263 -0.000532 0.001512
# 5 -0.004345 0.001380 0.007206 -0.000532 0.038190 0.005333
# 6 -0.002554 -0.000289 0.000198 0.001512 0.005333 0.030994
#
#
# Mechanical properties :
#
#
# Convention : Reuss Voigt Hill
#
# Bulk Modulus (GPa) = 31.13868 45.08679 38.11273
# Shear Modulus (GPa) = 27.40132 34.16014 30.78073
#
# Velocity S-wave (km/s) = 3.51398 3.92350 3.72437
# Velocity P-wave (km/s) = 5.52235 6.39085 5.97241
#
# Compressibility (1/GPa) = 0.03211440
#
# Stress axis : x y z
#
# Youngs Moduli (GPa) = 46.77923 64.39197 81.23073
#
# Poissons Ratio (x) = 0.42169 -0.20741
# Poissons Ratio (y) = 0.30635 0.37009
# Poissons Ratio (z) = -0.11944 0.29337
#
# Static dielectric constant tensor:
#      x y z
#    x 3.928740 0.022640 -0.015480 
#    y 0.022640 3.988230 0.051450 
#    z -0.015480 0.051450 4.420500 
# 
# 
# High freq. dielectric constant tensor:
#      x y z
#    x 1.866320 -0.003670 -0.015020 
#    y -0.003670 1.869900 0.000780 
#    z -0.015020 0.000780 1.892360 
# 
# From -- ./inp_files/206893.got.cif
#   From: 2010.06.25/outbox.cif.g09.slc.cpg/sg2_104_cif.got.tgz:206893.got - 2010.06.27 13:26:56.
