data_PCOD8010530
_publ_section_title
;
Structure prediction by ZEFSAII (Michael W. Deem and Ramdas Pophale) SiO2 
 PCOD8010530
Probable space group: P -1
;
_chemical_formula_sum "Si O2"
_cell_formula_units_Z 16
_cell_length_a 8.583165
_cell_length_b 10.002341
_cell_length_c 22.256055
_cell_angle_alpha 56.467477
_cell_angle_beta 120.370404
_cell_angle_gamma 148.910591
_cell_volume 820.091815
_symmetry_space_group_name_H-M "P -1"
_symmetry_group_IT_number 2
_symmetry_cell_setting 'triclinic'
loop_
_space_group_symop_operation_xyz
x,y,z
-x,-y,-z
loop_
_atom_site_type_symbol
_atom_site_label
_atom_site_fract_x
_atom_site_fract_y
_atom_site_fract_z
Si Si1 0.862830 0.963592 0.543062
Si Si2 0.903555 0.784181 0.217230
Si Si3 0.204001 0.289510 0.212332
Si Si4 0.831364 0.545055 0.955729
Si Si5 0.754121 0.304697 0.680172
Si Si6 0.815361 0.475103 0.515347
Si Si7 0.950631 0.203202 0.307408
Si Si8 0.137633 0.047406 0.952670
O O1 0.507304 0.728332 0.526642
O O2 0.940373 0.893418 0.626943
O O3 0.000000 0.000000 0.500000
O O4 0.012629 0.236571 0.520282
O O5 0.558670 0.517100 0.237470
O O6 0.928543 0.870259 0.133051
O O7 0.063037 0.726056 0.263081
O O8 0.061437 0.013933 0.239111
O O9 0.147734 0.367483 0.127531
O O10 0.038704 0.267053 0.239060
O O11 0.489848 0.274073 0.976190
O O12 0.992037 0.773708 0.977728
O O13 0.000000 0.500000 0.000000
O O14 0.789788 0.375910 0.599933
O O15 0.876612 0.534484 0.688443
O O16 0.405159 0.025221 0.696551
O O17 0.000000 0.500000 0.500000
O O18 0.000000 0.000000 0.000000
#
# Coordination Sequence:
#
# PCOD8010530 Si02
#       8
#     2   2   2   2   2   2   2   2
#     4  12  23  44  62  85 121 152 193 250 296 342
#     4  10  23  41  61  85 125 156 193 245 287 347
#     4  10  23  41  60  88 118 160 196 234 299 347
#     4  10  21  38  61  89 122 153 196 245 284 344
#     4  12  24  41  59  90 118 152 199 245 290 350
#     4  12  26  41  62  90 116 152 200 243 296 352
#     4  12  25  39  64  87 117 157 197 241 298 350
#     4  10  21  38  61  90 119 159 196 234 296 344
#
# _framework density 19.510012
#
# number of rings (size 3 to 8) (size 9 to 14) (size 15 to 20)
#    0.000    1.000    2.500    3.750    3.500    2.000 
#    0.000    0.000    0.000    0.000    0.000    0.000 
#    0.000    0.000    0.000    0.000    0.000    0.000 
#
# Total GULP energy -198464.685946 kJ/mol
# GULP energy per Si atom -12404.042872 kJ/mol
# Density = 1.946561 g / cm^3
# Si number density = 19.510012 Si / 1000 Ang^3
#
#
#
# Elastic Constant Matrix: (Units=GPa)
#
#
# Indices 1 2 3 4 5 6 
#
# 1 151.3822 58.6818 62.2790 0.4367 -6.1685 0.1991
# 2 58.6818 145.4173 30.9128 -2.3908 -1.1434 12.8028
# 3 62.2790 30.9128 67.6700 -1.4288 0.7788 1.3538
# 4 0.4367 -2.3908 -1.4288 23.2039 -5.2929 8.1474
# 5 -6.1685 -1.1434 0.7788 -5.2929 50.0621 3.8195
# 6 0.1991 12.8028 1.3538 8.1474 3.8195 23.6798
#
#
#
# Elastic Compliance Matrix: (Units=1/GPa)
#
#
# Indices 1 2 3 4 5 6 
#
# 1 0.011717 -0.002933 -0.009542 -0.001699 0.001160 0.002430
# 2 -0.002933 0.008886 -0.001184 0.003110 0.000638 -0.005885
# 3 -0.009542 -0.001184 0.024169 0.001590 -0.001335 -0.000993
# 4 -0.001699 0.003110 0.001590 0.052494 0.006985 -0.020946
# 5 0.001160 0.000638 -0.001335 0.006985 0.021359 -0.006127
# 6 0.002430 -0.005885 -0.000993 -0.020946 -0.006127 0.053643
#
#
# Mechanical properties :
#
#
# Convention : Reuss Voigt Hill
#
# Bulk Modulus (GPa) = 57.29065 74.24631 65.76848
# Shear Modulus (GPa) = 24.34213 33.56223 28.95218
#
# Velocity S-wave (km/s) = 3.53607 4.15210 3.85641
# Velocity P-wave (km/s) = 6.78972 7.81823 7.32205
#
# Compressibility (1/GPa) = 0.01745486
#
# Stress axis : x y z
#
# Youngs Moduli (GPa) = 85.34522 112.53363 41.37530
#
# Poissons Ratio (x) = 0.33003 0.39479
# Poissons Ratio (y) = 0.25029 0.04900
# Poissons Ratio (z) = 0.81435 0.13327
#
# Static dielectric constant tensor:
#      x y z
#    x 3.653920 0.088960 -0.024380 
#    y 0.088960 4.022150 -0.023190 
#    z -0.024380 -0.023190 3.643680 
# 
# 
# High freq. dielectric constant tensor:
#      x y z
#    x 1.773930 0.001750 -0.001080 
#    y 0.001750 1.786250 0.001010 
#    z -0.001080 0.001010 1.764120 
# 
# From -- ./inp_files/120063.got.cif
#   From: 2010.06.25/outbox.cif.g09.slc.cpg/sg2_61_cif.got.tgz:120063.got - 2010.06.27 13:26:56.
