data_PCOD8010064
_publ_section_title
;
Structure prediction by ZEFSAII (Michael W. Deem and Ramdas Pophale) SiO2 
 PCOD8010064
Probable space group: P -1
;
_chemical_formula_sum "Si O2"
_cell_formula_units_Z 16
_cell_length_a 25.872261
_cell_length_b 17.215827
_cell_length_c 25.921409
_cell_angle_alpha 20.002437
_cell_angle_beta 168.966890
_cell_angle_gamma 160.065908
_cell_volume 727.409637
_symmetry_space_group_name_H-M "P -1"
_symmetry_group_IT_number 2
_symmetry_cell_setting 'triclinic'
loop_
_space_group_symop_operation_xyz
x,y,z
-x,-y,-z
loop_
_atom_site_type_symbol
_atom_site_label
_atom_site_fract_x
_atom_site_fract_y
_atom_site_fract_z
Si Si1 0.634758 0.977678 0.090919
Si Si2 0.849980 0.240324 0.414292
Si Si3 0.536888 0.991686 0.427383
Si Si4 0.926694 0.273606 0.352733
Si Si5 0.926982 0.711105 0.018255
Si Si6 0.943097 0.500040 0.055450
Si Si7 0.563125 0.786062 0.470846
Si Si8 0.405649 0.484821 0.857662
O O1 0.820946 0.789675 0.392681
O O2 0.377921 0.902400 0.846717
O O3 0.500000 0.000000 0.000000
O O4 0.848559 0.219901 0.130045
O O5 0.994588 0.258228 0.489003
O O6 0.101663 0.297313 0.667903
O O7 0.646327 0.977964 0.387324
O O8 0.654154 0.417959 0.112131
O O9 0.687238 0.848483 0.702642
O O10 0.602785 0.935026 0.469145
O O11 0.638222 0.271939 0.359093
O O12 0.210587 0.916781 0.166370
O O13 0.918452 0.538641 0.165575
O O14 0.888696 0.549349 0.030905
O O15 0.765474 0.618259 0.770308
O O16 0.257723 0.609008 0.277043
O O17 0.500000 0.500000 0.000000
#
# Coordination Sequence:
#
# PCOD8010064 Si02
#       8
#     2   2   2   2   2   2   2   2
#     4  12  24  42  70  99 129 171 235 272 313 389
#     4  12  26  44  65  98 140 178 211 269 343 397
#     4  10  21  37  64  97 124 163 223 278 313 373
#     4  12  26  44  65  98 140 178 211 269 343 397
#     4  10  21  38  62  93 134 164 212 272 331 376
#     4  10  21  37  64  97 124 163 223 278 313 373
#     4  10  21  38  62  93 134 164 212 272 331 376
#     4  12  24  42  70  99 129 171 235 272 313 389
#
# _framework density 21.995858999999999
#
# number of rings (size 3 to 8) (size 9 to 14) (size 15 to 20)
#    0.000    1.000    2.500    4.500    7.000    0.000 
#    0.000    7.500    0.000    0.000    0.000    0.000 
#    0.000    0.000    0.000    0.000    0.000    0.000 
#
# Total GULP energy -198449.755435 kJ/mol
# GULP energy per Si atom -12403.109715 kJ/mol
# Density = 2.194580 g / cm^3
# Si number density = 21.995859 Si / 1000 Ang^3
#
#
#
# Elastic Constant Matrix: (Units=GPa)
#
#
# Indices 1 2 3 4 5 6 
#
# 1 72.5811 27.6696 22.0080 -11.5205 -7.5165 14.9660
# 2 27.6696 103.6204 36.6760 -9.8052 -5.3610 10.2046
# 3 22.0080 36.6760 154.8819 -9.7898 4.7749 -3.3935
# 4 -11.5205 -9.8052 -9.7898 38.9326 1.2053 -10.3163
# 5 -7.5165 -5.3610 4.7749 1.2053 30.0080 -2.7048
# 6 14.9660 10.2046 -3.3935 -10.3163 -2.7048 19.6916
#
#
#
# Elastic Compliance Matrix: (Units=1/GPa)
#
#
# Indices 1 2 3 4 5 6 
#
# 1 0.018490 -0.002664 -0.002310 0.000899 0.003393 -0.012133
# 2 -0.002664 0.011770 -0.002517 0.000414 0.001450 -0.004092
# 3 -0.002310 -0.002517 0.007682 0.002050 -0.001864 0.005202
# 4 0.000899 0.000414 0.002050 0.030688 0.000142 0.015552
# 5 0.003393 0.001450 -0.001864 0.000142 0.034833 0.001207
# 6 -0.012133 -0.004092 0.005202 0.015552 0.001207 0.071335
#
#
# Mechanical properties :
#
#
# Convention : Reuss Voigt Hill
#
# Bulk Modulus (GPa) = 43.55483 55.97673 49.76578
# Shear Modulus (GPa) = 25.32510 34.04175 29.68342
#
# Velocity S-wave (km/s) = 3.39685 3.93828 3.67754
# Velocity P-wave (km/s) = 5.93541 6.79588 6.38017
#
# Compressibility (1/GPa) = 0.02295956
#
# Stress axis : x y z
#
# Youngs Moduli (GPa) = 54.08434 84.96145 130.17796
#
# Poissons Ratio (x) = 0.22635 0.30071
# Poissons Ratio (y) = 0.14409 0.32763
# Poissons Ratio (z) = 0.12494 0.21383
#
# Static dielectric constant tensor:
#      x y z
#    x 3.542380 0.021580 0.012780 
#    y 0.021580 4.061440 -0.067400 
#    z 0.012780 -0.067400 4.170590 
# 
# 
# High freq. dielectric constant tensor:
#      x y z
#    x 1.827160 0.012860 0.001950 
#    y 0.012860 1.874880 0.000790 
#    z 0.001950 0.000790 1.886050 
# 
# From -- ./inp_files/433921.got.cif
#   From: 2010.06.25/outbox.cif.g09.slc.cpg/sg2_217_cif.got.tgz:433921.got - 2010.06.27 13:26:56.
