data_PCOD8010307
_publ_section_title
;
Structure prediction by ZEFSAII (Michael W. Deem and Ramdas Pophale) SiO2 
 PCOD8010307
Probable space group: P -1
;
_chemical_formula_sum "Si O2"
_cell_formula_units_Z 16
_cell_length_a 9.002772
_cell_length_b 17.733984
_cell_length_c 9.906521
_cell_angle_alpha 90.082993
_cell_angle_beta 43.416195
_cell_angle_gamma 65.124938
_cell_volume 858.380468
_symmetry_space_group_name_H-M "P -1"
_symmetry_group_IT_number 2
_symmetry_cell_setting 'triclinic'
loop_
_space_group_symop_operation_xyz
x,y,z
-x,-y,-z
loop_
_atom_site_type_symbol
_atom_site_label
_atom_site_fract_x
_atom_site_fract_y
_atom_site_fract_z
Si Si1 0.796036 0.950289 0.744499
Si Si2 0.127532 0.774967 0.095651
Si Si3 0.890086 0.969662 0.383878
Si Si4 0.903199 0.466310 0.681388
Si Si5 0.693415 0.250833 0.531866
Si Si6 0.426253 0.170761 0.607190
Si Si7 0.533924 0.704628 0.591993
Si Si8 0.630041 0.369637 0.824056
O O1 0.787844 0.951544 0.587915
O O2 0.989147 0.840919 0.667656
O O3 0.897360 0.009228 0.729571
O O4 0.500000 0.000000 0.000000
O O5 0.191002 0.714144 0.186750
O O6 0.045273 0.876988 0.188116
O O7 0.884881 0.788842 0.169840
O O8 0.394407 0.718226 0.826465
O O9 0.624930 0.056276 0.478997
O O10 0.773280 0.419000 0.701360
O O11 0.000000 0.500000 0.500000
O O12 0.158356 0.392510 0.608643
O O13 0.679713 0.554920 0.921663
O O14 0.509527 0.213102 0.670733
O O15 0.629515 0.299576 0.425529
O O16 0.612926 0.328523 0.696043
O O17 0.461042 0.206054 0.439803
#
# Coordination Sequence:
#
# PCOD8010307 Si02
#       8
#     2   2   2   2   2   2   2   2
#     4  10  21  38  58  90 129 160 202 255 290 349
#     4  12  21  38  65  90 123 165 200 249 302 353
#     4  10  22  36  60  92 123 166 210 234 297 360
#     4  11  23  43  65  93 117 153 204 256 308 367
#     4   9  21  44  58  89 125 159 200 246 301 357
#     4   9  22  40  57  87 133 157 201 249 289 357
#     4  10  23  41  59  89 126 153 204 250 301 358
#     4  11  22  41  69  88 119 158 200 255 306 361
#
# _framework density 18.639754
#
# number of rings (size 3 to 8) (size 9 to 14) (size 15 to 20)
#    0.750    1.000    3.750    0.375    1.750    3.000 
#    2.250    0.625    0.000    0.000    0.000    0.000 
#    0.000    0.000    0.000    0.000    0.000    0.000 
#
# Total GULP energy -198358.233745 kJ/mol
# GULP energy per Si atom -12397.389609 kJ/mol
# Density = 1.859733 g / cm^3
# Si number density = 18.639754 Si / 1000 Ang^3
#
#
#
# Elastic Constant Matrix: (Units=GPa)
#
#
# Indices 1 2 3 4 5 6 
#
# 1 78.7437 39.9832 56.0167 10.6863 3.8817 -2.6374
# 2 39.9832 92.8036 42.1375 7.9360 2.0953 -10.4677
# 3 56.0167 42.1375 113.4188 7.1753 -3.4430 5.4714
# 4 10.6863 7.9360 7.1753 33.1470 1.4905 0.1735
# 5 3.8817 2.0953 -3.4430 1.4905 32.4274 6.7101
# 6 -2.6374 -10.4677 5.4714 0.1735 6.7101 36.4034
#
#
#
# Elastic Compliance Matrix: (Units=1/GPa)
#
#
# Indices 1 2 3 4 5 6 
#
# 1 0.022582 -0.004798 -0.009347 -0.003955 -0.003692 0.002361
# 2 -0.004798 0.015099 -0.003445 -0.001271 -0.001709 0.004833
# 3 -0.009347 -0.003445 0.015027 0.000435 0.003878 -0.004643
# 4 -0.003955 -0.001271 0.000435 0.031689 -0.000702 -0.000739
# 5 -0.003692 -0.001709 0.003878 -0.000702 0.033385 -0.007492
# 6 0.002361 0.004833 -0.004643 -0.000739 -0.007492 0.031113
#
#
# Mechanical properties :
#
#
# Convention : Reuss Voigt Hill
#
# Bulk Modulus (GPa) = 57.04351 62.36009 59.70180
# Shear Modulus (GPa) = 26.32741 30.18413 28.25577
#
# Velocity S-wave (km/s) = 3.76231 4.02847 3.89766
# Velocity P-wave (km/s) = 7.03867 7.42739 7.23564
#
# Compressibility (1/GPa) = 0.01753048
#
# Stress axis : x y z
#
# Youngs Moduli (GPa) = 44.28262 66.23022 66.54686
#
# Poissons Ratio (x) = 0.31775 0.62198
# Poissons Ratio (y) = 0.21245 0.22923
# Poissons Ratio (z) = 0.41389 0.22814
#
# Static dielectric constant tensor:
#      x y z
#    x 3.399310 -0.110790 -0.112010 
#    y -0.110790 3.536010 0.059950 
#    z -0.112010 0.059950 3.188610 
# 
# 
# High freq. dielectric constant tensor:
#      x y z
#    x 1.722480 -0.010840 -0.012410 
#    y -0.010840 1.732250 0.007150 
#    z -0.012410 0.007150 1.710020 
# 
# From -- ./inp_files/217608.got.cif
#   From: 2010.06.25/outbox.cif.g09.slc.cpg/sg2_109_cif.got.tgz:217608.got - 2010.06.27 13:26:56.
