data_PCOD8010186
_publ_section_title
;
Structure prediction by ZEFSAII (Michael W. Deem and Ramdas Pophale) SiO2 
 PCOD8010186
Probable space group: P -1
;
_chemical_formula_sum "Si O2"
_cell_formula_units_Z 14
_cell_length_a 14.899963
_cell_length_b 8.637482
_cell_length_c 9.738375
_cell_angle_alpha 60.677930
_cell_angle_beta 83.174061
_cell_angle_gamma 42.292876
_cell_volume 669.063440
_symmetry_space_group_name_H-M "P -1"
_symmetry_group_IT_number 2
_symmetry_cell_setting 'triclinic'
loop_
_space_group_symop_operation_xyz
x,y,z
-x,-y,-z
loop_
_atom_site_type_symbol
_atom_site_label
_atom_site_fract_x
_atom_site_fract_y
_atom_site_fract_z
Si Si1 0.855359 0.222118 0.840128
Si Si2 0.664854 0.562659 0.238723
Si Si3 0.185575 0.072293 0.909851
Si Si4 0.908649 0.239379 0.528441
Si Si5 0.332566 0.103134 0.073440
Si Si6 0.839675 0.629404 0.739191
Si Si7 0.175578 0.043684 0.610903
O O1 0.893568 0.137990 0.708980
O O2 0.778129 0.532734 0.741905
O O3 0.760496 0.200834 0.917664
O O4 0.000000 0.000000 0.000000
O O5 0.749228 0.524114 0.369215
O O6 0.497926 0.791689 0.215024
O O7 0.735430 0.266261 0.316846
O O8 0.675445 0.674766 0.055753
O O9 0.222346 0.022881 0.764153
O O10 0.013776 0.364861 0.842677
O O11 0.278711 0.081314 0.959304
O O12 0.998611 0.278588 0.537274
O O13 0.000000 0.000000 0.500000
O O14 0.230576 0.211972 0.171899
O O15 0.785642 0.855772 0.540062
#
# Coordination Sequence:
#
# PCOD8010186 Si02
#       7
#     2   2   2   2   2   2   2
#     4  10  21  39  62  96 127 158 203 257 316 359
#     4  10  25  44  65  86 129 171 208 251 313 368
#     4  11  23  39  68  94 126 160 208 262 311 365
#     4  10  21  37  68  92 122 162 209 257 309 364
#     4  11  25  43  64  91 125 170 213 249 305 383
#     4  11  23  38  65  98 126 159 209 258 314 368
#     4  11  22  41  66  95 125 159 206 268 312 363
#
# _framework density 20.924772000000001
#
# number of rings (size 3 to 8) (size 9 to 14) (size 15 to 20)
#    0.000    1.429    2.857    2.571   12.000    1.143 
#    0.000    0.714    0.000    0.000    0.000    0.000 
#    0.000    0.000    0.000    0.000    0.000    0.000 
#
# Total GULP energy -173607.351455 kJ/mol
# GULP energy per Si atom -12400.525104 kJ/mol
# Density = 2.087715 g / cm^3
# Si number density = 20.924772 Si / 1000 Ang^3
#
#
#
# Elastic Constant Matrix: (Units=GPa)
#
#
# Indices 1 2 3 4 5 6 
#
# 1 82.7441 38.3882 53.2291 -8.7848 -9.2632 14.4298
# 2 38.3882 72.1191 68.2250 -4.8745 4.5943 7.1325
# 3 53.2291 68.2250 147.9895 18.8492 -10.5647 3.0968
# 4 -8.7848 -4.8745 18.8492 38.4034 4.0736 2.7436
# 5 -9.2632 4.5943 -10.5647 4.0736 43.1631 -4.1769
# 6 14.4298 7.1325 3.0968 2.7436 -4.1769 27.5043
#
#
#
# Elastic Compliance Matrix: (Units=1/GPa)
#
#
# Indices 1 2 3 4 5 6 
#
# 1 0.020592 -0.003273 -0.006621 0.008092 0.001435 -0.009798
# 2 -0.003273 0.033724 -0.016649 0.013385 -0.010411 -0.008070
# 3 -0.006621 -0.016649 0.018971 -0.014279 0.007132 0.008163
# 4 0.008092 0.013385 -0.014279 0.038227 -0.007866 -0.011117
# 5 0.001435 -0.010411 0.007132 -0.007866 0.027665 0.006130
# 6 -0.009798 -0.008070 0.008163 -0.011117 0.006130 0.044712
#
#
# Mechanical properties :
#
#
# Convention : Reuss Voigt Hill
#
# Bulk Modulus (GPa) = 49.50185 69.17080 59.33633
# Shear Modulus (GPa) = 20.51612 31.34818 25.93215
#
# Velocity S-wave (km/s) = 3.13464 3.87478 3.52419
# Velocity P-wave (km/s) = 6.06710 7.29021 6.70660
#
# Compressibility (1/GPa) = 0.02020127
#
# Stress axis : x y z
#
# Youngs Moduli (GPa) = 48.56372 29.65209 52.71119
#
# Poissons Ratio (x) = 0.09704 0.34900
# Poissons Ratio (y) = 0.15893 0.87761
# Poissons Ratio (z) = 0.32154 0.49369
#
# Static dielectric constant tensor:
#      x y z
#    x 4.223340 0.186270 -0.112830 
#    y 0.186270 3.589250 -0.039250 
#    z -0.112830 -0.039250 4.149720 
# 
# 
# High freq. dielectric constant tensor:
#      x y z
#    x 1.815270 0.017660 -0.010190 
#    y 0.017660 1.800110 0.011980 
#    z -0.010190 0.011980 1.831740 
# 
# From -- ./inp_files/157585.got.cif
#   From: 2010.06.25/outbox.cif.g09.slc.cpg/sg2_79_cif.got.tgz:157585.got - 2010.06.27 13:26:56.
