data_PCOD8010355
_publ_section_title
;
Structure prediction by ZEFSAII (Michael W. Deem and Ramdas Pophale) SiO2 
 PCOD8010355
Probable space group: P -1
;
_chemical_formula_sum "Si O2"
_cell_formula_units_Z 16
_cell_length_a 26.273338
_cell_length_b 10.701304
_cell_length_c 13.370597
_cell_angle_alpha 32.590035
_cell_angle_beta 158.124117
_cell_angle_gamma 146.983261
_cell_volume 723.782463
_symmetry_space_group_name_H-M "P -1"
_symmetry_group_IT_number 2
_symmetry_cell_setting 'triclinic'
loop_
_space_group_symop_operation_xyz
x,y,z
-x,-y,-z
loop_
_atom_site_type_symbol
_atom_site_label
_atom_site_fract_x
_atom_site_fract_y
_atom_site_fract_z
Si Si1 0.387683 0.858984 0.750752
Si Si2 0.921573 0.324971 0.266973
Si Si3 0.262133 0.906453 0.288589
Si Si4 0.959996 0.960840 0.718713
Si Si5 0.633968 0.327513 0.836847
Si Si6 0.415822 0.444230 0.221544
Si Si7 0.868823 0.443408 0.873000
Si Si8 0.094491 0.834600 0.322226
O O1 0.340878 0.796489 0.592520
O O2 0.259641 0.926555 0.530345
O O3 0.523339 0.091843 0.842036
O O4 0.430424 0.635611 0.029609
O O5 0.029947 0.565396 0.345864
O O6 0.979894 0.098030 0.555752
O O7 0.766671 0.265902 0.072784
O O8 0.908913 0.323520 0.126288
O O9 0.259438 0.745756 0.292048
O O10 0.346672 0.179342 0.229384
O O11 0.107480 0.901944 0.054265
O O12 0.838117 0.700239 0.668988
O O13 0.913396 0.141735 0.588229
O O14 0.567465 0.456100 0.541073
O O15 0.683325 0.507386 0.900626
O O16 0.000000 0.500000 0.000000
O O17 0.000000 0.000000 0.000000
#
# Coordination Sequence:
#
# PCOD8010355 Si02
#       8
#     2   2   2   2   2   2   2   2
#     4  11  22  40  61  92 124 164 198 244 304 366
#     4  12  24  40  64  93 123 159 203 252 308 362
#     4  10  21  38  59  88 119 158 208 251 297 359
#     4  11  22  37  62  93 126 158 199 253 308 359
#     4  10  24  39  61  94 125 156 202 247 303 369
#     4  10  21  38  65  85 124 164 199 244 303 359
#     4  10  23  40  59  88 122 161 206 253 301 357
#     4  12  21  37  65  93 128 158 192 251 308 359
#
# _framework density 22.106090999999999
#
# number of rings (size 3 to 8) (size 9 to 14) (size 15 to 20)
#    0.000    1.250    2.500    3.750    3.500    4.000 
#    0.000    2.500    0.000    4.500    0.000    0.000 
#    0.000    0.000    0.000    0.000    0.000    0.000 
#
# Total GULP energy -198364.579832 kJ/mol
# GULP energy per Si atom -12397.786239 kJ/mol
# Density = 2.205578 g / cm^3
# Si number density = 22.106091 Si / 1000 Ang^3
#
#
#
# Elastic Constant Matrix: (Units=GPa)
#
#
# Indices 1 2 3 4 5 6 
#
# 1 82.0449 40.5690 30.0035 8.3213 -26.6785 -0.7548
# 2 40.5690 120.6919 43.9744 -3.3611 -27.8146 -6.1633
# 3 30.0035 43.9744 78.6068 -15.4023 -29.8308 13.8217
# 4 8.3213 -3.3611 -15.4023 31.6708 16.2557 -8.5745
# 5 -26.6785 -27.8146 -29.8308 16.2557 46.8333 6.9360
# 6 -0.7548 -6.1633 13.8217 -8.5745 6.9360 43.7051
#
#
#
# Elastic Compliance Matrix: (Units=1/GPa)
#
#
# Indices 1 2 3 4 5 6 
#
# 1 0.021261 -0.003378 -0.003119 -0.016072 0.014371 -0.004557
# 2 -0.003378 0.011857 -0.005452 -0.000351 0.001313 0.003061
# 3 -0.003119 -0.005452 0.022886 0.004179 0.009405 -0.008733
# 4 -0.016072 -0.000351 0.004179 0.055997 -0.028183 0.013810
# 5 0.014371 0.001313 0.009405 -0.028183 0.048425 -0.015755
# 6 -0.004557 0.003061 -0.008733 0.013810 -0.015755 0.031205
#
#
# Mechanical properties :
#
#
# Convention : Reuss Voigt Hill
#
# Bulk Modulus (GPa) = 31.14877 56.71527 43.93202
# Shear Modulus (GPa) = 22.10126 35.56161 28.83143
#
# Velocity S-wave (km/s) = 3.16536 4.01519 3.61533
# Velocity P-wave (km/s) = 5.24219 6.87075 6.11097
#
# Compressibility (1/GPa) = 0.03210400
#
# Stress axis : x y z
#
# Youngs Moduli (GPa) = 47.03488 84.34012 43.69535
#
# Poissons Ratio (x) = 0.28493 0.13630
# Poissons Ratio (y) = 0.15890 0.23823
# Poissons Ratio (z) = 0.14672 0.45983
#
# Static dielectric constant tensor:
#      x y z
#    x 4.366900 -0.374280 -0.396780 
#    y -0.374280 4.458020 -0.000720 
#    z -0.396780 -0.000720 4.019720 
# 
# 
# High freq. dielectric constant tensor:
#      x y z
#    x 1.856510 0.001750 -0.027150 
#    y 0.001750 1.876180 -0.003540 
#    z -0.027150 -0.003540 1.866140 
# 
# From -- ./inp_files/544948.got.cif
#   From: 2010.06.25/outbox.cif.g09.slc.cpg/sg2_273_cif.got.tgz:544948.got - 2010.06.27 13:26:56.
