data_PCOD8010757
_publ_section_title
;
Structure prediction by ZEFSAII (Michael W. Deem and Ramdas Pophale) SiO2 
 PCOD8010757
Probable space group: P -1
;
_chemical_formula_sum "Si O2"
_cell_formula_units_Z 16
_cell_length_a 21.778731
_cell_length_b 12.206795
_cell_length_c 5.889323
_cell_angle_alpha 76.579248
_cell_angle_beta 76.922150
_cell_angle_gamma 27.134620
_cell_volume 693.887401
_symmetry_space_group_name_H-M "P -1"
_symmetry_group_IT_number 2
_symmetry_cell_setting 'triclinic'
loop_
_space_group_symop_operation_xyz
x,y,z
-x,-y,-z
loop_
_atom_site_type_symbol
_atom_site_label
_atom_site_fract_x
_atom_site_fract_y
_atom_site_fract_z
Si Si1 0.816552 0.870421 0.080193
Si Si2 0.900055 0.548757 0.830816
Si Si3 0.788789 0.326171 0.106780
Si Si4 0.955598 0.152986 0.658416
Si Si5 0.804776 0.523208 0.276757
Si Si6 0.683373 0.899775 0.459984
Si Si7 0.390864 0.668935 0.202669
Si Si8 0.462300 0.377993 0.628109
O O1 0.701237 0.984942 0.256519
O O2 0.938726 0.708674 0.227272
O O3 0.869050 0.712730 0.905506
O O4 0.752914 0.082888 0.917739
O O5 0.813997 0.677702 0.614216
O O6 0.874076 0.479917 0.036552
O O7 0.763018 0.466924 0.244285
O O8 0.648228 0.479359 0.155546
O O9 0.824436 0.317600 0.832300
O O10 0.912329 0.045544 0.197840
O O11 0.911239 0.339043 0.485037
O O12 0.000000 0.000000 0.500000
O O13 0.679418 0.795503 0.349474
O O14 0.542446 0.138285 0.596311
O O15 0.385655 0.558681 0.393982
O O16 0.424248 0.717818 0.324254
O O17 0.500000 0.500000 0.000000
#
# Coordination Sequence:
#
# PCOD8010757 Si02
#       8
#     2   2   2   2   2   2   2   2
#     4  10  21  39  64  89 126 172 214 267 320 376
#     4  10  21  38  63  91 127 167 214 267 323 374
#     4  10  22  43  65  95 129 169 214 266 323 386
#     4   9  20  42  64  90 128 160 215 267 316 383
#     4  10  22  39  64  95 129 168 214 271 315 382
#     4  11  21  41  62  95 136 170 214 265 315 390
#     4  11  23  44  61  94 131 167 222 264 320 386
#     4  11  25  41  67  92 132 176 212 268 322 384
#
# _framework density 23.058498
#
# number of rings (size 3 to 8) (size 9 to 14) (size 15 to 20)
#    0.000    1.750    2.500    1.125    1.750    2.500 
#    6.750    2.500    0.000    0.000    0.000    0.000 
#    0.000    0.000    0.000    0.000    0.000    0.000 
#
# Total GULP energy -198309.277766 kJ/mol
# GULP energy per Si atom -12394.329860 kJ/mol
# Density = 2.300602 g / cm^3
# Si number density = 23.058498 Si / 1000 Ang^3
#
#
#
# Elastic Constant Matrix: (Units=GPa)
#
#
# Indices 1 2 3 4 5 6 
#
# 1 44.0683 31.0153 7.0994 1.5284 -3.9275 3.1598
# 2 31.0153 119.5011 38.2429 -3.0232 -11.6555 -2.0221
# 3 7.0994 38.2429 87.1332 -4.3518 -3.9495 3.8627
# 4 1.5284 -3.0232 -4.3518 47.9537 0.4485 -3.9819
# 5 -3.9275 -11.6555 -3.9495 0.4485 20.1093 1.2138
# 6 3.1598 -2.0221 3.8627 -3.9819 1.2138 32.0509
#
#
#
# Elastic Compliance Matrix: (Units=1/GPa)
#
#
# Indices 1 2 3 4 5 6 
#
# 1 0.028379 -0.007707 0.001225 -0.001600 0.001575 -0.003690
# 2 -0.007707 0.012355 -0.004639 0.000728 0.004607 0.002014
# 3 0.001225 -0.004639 0.013551 0.000732 0.000315 -0.001968
# 4 -0.001600 0.000728 0.000732 0.021250 -0.000388 0.002770
# 5 0.001575 0.004607 0.000315 -0.000388 0.052894 -0.001954
# 6 -0.003690 0.002014 -0.001968 0.002770 -0.001954 0.032347
#
#
# Mechanical properties :
#
#
# Convention : Reuss Voigt Hill
#
# Bulk Modulus (GPa) = 31.20696 44.82420 38.01558
# Shear Modulus (GPa) = 25.81334 31.64577 28.72956
#
# Velocity S-wave (km/s) = 3.34948 3.70863 3.53362
# Velocity P-wave (km/s) = 5.34059 6.14981 5.75943
#
# Compressibility (1/GPa) = 0.03204414
#
# Stress axis : x y z
#
# Youngs Moduli (GPa) = 35.23695 80.94078 73.79630
#
# Poissons Ratio (x) = 0.62381 -0.09043
# Poissons Ratio (y) = 0.27157 0.34232
# Poissons Ratio (z) = -0.04318 0.37546
#
# Static dielectric constant tensor:
#      x y z
#    x 3.871120 0.163670 0.044780 
#    y 0.163670 4.553440 -0.290350 
#    z 0.044780 -0.290350 4.341340 
# 
# 
# High freq. dielectric constant tensor:
#      x y z
#    x 1.872750 0.020790 -0.000150 
#    y 0.020790 1.920450 -0.001160 
#    z -0.000150 -0.001160 1.919220 
# 
# From -- ./inp_files/118648.got.cif
#   From: 2010.06.25/outbox.cif.g09.slc.cpg/sg2_60_cif.got.tgz:118648.got - 2010.06.27 13:26:56.
