data_PCOD8010993
_publ_section_title
;
Structure prediction by ZEFSAII (Michael W. Deem and Ramdas Pophale) SiO2 
 PCOD8010993
Probable space group: P -1
;
_chemical_formula_sum "Si O2"
_cell_formula_units_Z 10
_cell_length_a 11.760859
_cell_length_b 15.242392
_cell_length_c 9.696394
_cell_angle_alpha 127.057752
_cell_angle_beta 128.293538
_cell_angle_gamma 17.991471
_cell_volume 420.748522
_symmetry_space_group_name_H-M "P -1"
_symmetry_group_IT_number 2
_symmetry_cell_setting 'triclinic'
loop_
_space_group_symop_operation_xyz
x,y,z
-x,-y,-z
loop_
_atom_site_type_symbol
_atom_site_label
_atom_site_fract_x
_atom_site_fract_y
_atom_site_fract_z
Si Si1 0.635774 0.655339 0.995329
Si Si2 0.320538 0.138830 0.850590
Si Si3 0.414188 0.422136 0.513973
Si Si4 0.893078 0.129015 0.324836
Si Si5 0.871606 0.600704 0.653807
O O1 0.507819 0.870396 0.091092
O O2 0.867779 0.491488 0.158563
O O3 0.272124 0.831687 0.886166
O O4 0.875375 0.452427 0.845785
O O5 0.443942 0.947826 0.668131
O O6 0.500000 0.000000 0.000000
O O7 0.673344 0.258175 0.422305
O O8 0.164320 0.706227 0.616676
O O9 0.121669 0.522962 0.378927
O O10 0.673727 0.207876 0.639421
O O11 0.000000 0.500000 0.500000
#
# Coordination Sequence:
#
# PCOD8010993 Si02
#       5
#     2   2   2   2   2
#     4  10  21  38  65  95 118 171 218 270 318 377
#     4   9  19  35  64  90 123 153 224 264 312 372
#     4  10  23  39  63  99 131 166 212 274 332 379
#     4  10  22  39  67  96 131 161 217 279 329 377
#     4  11  25  42  62  92 133 176 215 261 322 395
#
# _framework density 23.767167000000001
#
# number of rings (size 3 to 8) (size 9 to 14) (size 15 to 20)
#    0.000    2.000    0.000    3.600   16.800    0.800 
#    0.000    2.000    0.000    0.000    0.000    0.000 
#    0.000    0.000    0.000    0.000    0.000    0.000 
#
# Total GULP energy -123897.295559 kJ/mol
# GULP energy per Si atom -12389.729556 kJ/mol
# Density = 2.371307 g / cm^3
# Si number density = 23.767167 Si / 1000 Ang^3
#
#
#
# Elastic Constant Matrix: (Units=GPa)
#
#
# Indices 1 2 3 4 5 6 
#
# 1 72.0254 36.7248 36.1080 19.3703 8.6276 21.1325
# 2 36.7248 110.4966 56.9602 -3.3289 16.1275 32.4486
# 3 36.1080 56.9602 121.8115 -1.0356 9.6884 -0.6505
# 4 19.3703 -3.3289 -1.0356 41.4918 -9.6165 8.7568
# 5 8.6276 16.1275 9.6884 -9.6165 45.6658 5.6551
# 6 21.1325 32.4486 -0.6505 8.7568 5.6551 31.2395
#
#
#
# Elastic Compliance Matrix: (Units=1/GPa)
#
#
# Indices 1 2 3 4 5 6 
#
# 1 0.024336 -0.000740 -0.006746 -0.009744 -0.003411 -0.012485
# 2 -0.000740 0.021905 -0.010010 0.006701 -0.001071 -0.024145
# 3 -0.006746 -0.010010 0.015002 -0.000660 -0.000436 0.015537
# 4 -0.009744 0.006701 -0.000660 0.033397 0.008034 -0.011198
# 5 -0.003411 -0.001071 -0.000436 0.008034 0.025125 -0.003389
# 6 -0.012485 -0.024145 0.015537 -0.011198 -0.003389 0.069612
#
#
# Mechanical properties :
#
#
# Convention : Reuss Voigt Hill
#
# Bulk Modulus (GPa) = 38.09521 62.65771 50.37646
# Shear Modulus (GPa) = 21.44828 35.31544 28.38186
#
# Velocity S-wave (km/s) = 3.00731 3.85891 3.45941
# Velocity P-wave (km/s) = 5.30301 6.80259 6.09906
#
# Compressibility (1/GPa) = 0.02625002
#
# Stress axis : x y z
#
# Youngs Moduli (GPa) = 41.09215 45.65167 66.65766
#
# Poissons Ratio (x) = 0.03379 0.44966
# Poissons Ratio (y) = 0.03041 0.66727
# Poissons Ratio (z) = 0.27720 0.45699
#
# Static dielectric constant tensor:
#      x y z
#    x 3.941740 0.281470 0.319430 
#    y 0.281470 4.413010 0.278250 
#    z 0.319430 0.278250 4.370670 
# 
# 
# High freq. dielectric constant tensor:
#      x y z
#    x 1.905860 0.032080 0.023070 
#    y 0.032080 1.948310 -0.025800 
#    z 0.023070 -0.025800 1.937660 
# 
# From -- ./inp_files/15488.got.cif
#   From: 2010.06.25/outbox.cif.g09.slc.cpg/sg2_8_cif.got.tgz:15488.got - 2010.06.27 13:26:56.
