data_PCOD8010652
_publ_section_title
;
Structure prediction by ZEFSAII (Michael W. Deem and Ramdas Pophale) SiO2 
 PCOD8010652
Probable space group: P -1
;
_chemical_formula_sum "Si O2"
_cell_formula_units_Z 14
_cell_length_a 12.033598
_cell_length_b 14.542657
_cell_length_c 11.621907
_cell_angle_alpha 150.607119
_cell_angle_beta 132.439860
_cell_angle_gamma 41.594477
_cell_volume 660.973339
_symmetry_space_group_name_H-M "P -1"
_symmetry_group_IT_number 2
_symmetry_cell_setting 'triclinic'
loop_
_space_group_symop_operation_xyz
x,y,z
-x,-y,-z
loop_
_atom_site_type_symbol
_atom_site_label
_atom_site_fract_x
_atom_site_fract_y
_atom_site_fract_z
Si Si1 0.807942 0.568160 0.126926
Si Si2 0.553804 0.305764 0.906212
Si Si3 0.178101 0.802522 0.409219
Si Si4 0.927809 0.700003 0.788047
Si Si5 0.226225 0.995466 0.450006
Si Si6 0.826508 0.360670 0.301455
Si Si7 0.135313 0.894801 0.726722
O O1 0.611467 0.692109 0.153819
O O2 0.843436 0.756437 0.308563
O O3 0.924087 0.459249 0.199030
O O4 0.836263 0.404627 0.866610
O O5 0.647753 0.093666 0.666385
O O6 0.500000 0.500000 0.000000
O O7 0.668001 0.334338 0.115387
O O8 0.239271 0.772335 0.552342
O O9 0.299809 0.858353 0.469815
O O10 0.000000 0.000000 0.500000
O O11 0.803178 0.599147 0.555575
O O12 0.011488 0.752239 0.790917
O O13 0.806094 0.927218 0.003186
O O14 0.062779 0.958110 0.271725
O O15 0.852227 0.269698 0.347706
#
# Coordination Sequence:
#
# PCOD8010652 Si02
#       7
#     2   2   2   2   2   2   2
#     4  12  22  40  64  94 121 159 207 244 303 362
#     4  12  22  42  63  87 127 162 194 253 309 359
#     4  10  21  38  62  91 123 159 203 255 291 348
#     4  11  21  37  62  91 121 156 197 256 300 351
#     4  11  22  38  63  91 123 158 204 251 297 357
#     4  11  23  37  61  89 124 157 197 253 305 358
#     4  11  21  38  61  92 123 157 203 249 302 347
#
# _framework density 21.180885
#
# number of rings (size 3 to 8) (size 9 to 14) (size 15 to 20)
#    0.000    0.857    8.571    0.857    0.000    3.429 
#    2.571    0.714    0.000    1.714    0.000    0.000 
#    0.000    0.000    0.000    0.000    0.000    0.000 
#
# Total GULP energy -173488.954530 kJ/mol
# GULP energy per Si atom -12392.068181 kJ/mol
# Density = 2.113268 g / cm^3
# Si number density = 21.180885 Si / 1000 Ang^3
#
#
#
# Elastic Constant Matrix: (Units=GPa)
#
#
# Indices 1 2 3 4 5 6 
#
# 1 69.0087 29.1650 38.3667 -11.8292 -10.8112 21.4786
# 2 29.1650 42.6598 15.6806 -5.1894 -5.2015 20.9001
# 3 38.3667 15.6806 155.3536 10.3086 -13.7824 16.4532
# 4 -11.8292 -5.1894 10.3086 26.8657 8.0260 -3.9024
# 5 -10.8112 -5.2015 -13.7824 8.0260 35.4782 -0.1384
# 6 21.4786 20.9001 16.4532 -3.9024 -0.1384 40.9130
#
#
#
# Elastic Compliance Matrix: (Units=1/GPa)
#
#
# Indices 1 2 3 4 5 6 
#
# 1 0.025861 -0.012254 -0.005187 0.009842 0.001826 -0.004286
# 2 -0.012254 0.038321 0.000878 -0.001022 0.002403 -0.013585
# 3 -0.005187 0.000878 0.008561 -0.006668 0.003375 -0.001793
# 4 0.009842 -0.001022 -0.006668 0.047407 -0.010456 0.002523
# 5 0.001826 0.002403 0.003375 -0.010456 0.032754 -0.004430
# 6 -0.004286 -0.013585 -0.001793 0.002523 -0.004430 0.034579
#
#
# Mechanical properties :
#
#
# Convention : Reuss Voigt Hill
#
# Bulk Modulus (GPa) = 25.24180 48.16073 36.70127
# Shear Modulus (GPa) = 21.38460 32.90536 27.14498
#
# Velocity S-wave (km/s) = 3.18090 3.94577 3.58380
# Velocity P-wave (km/s) = 5.04321 6.59894 5.87282
#
# Compressibility (1/GPa) = 0.03961683
#
# Stress axis : x y z
#
# Youngs Moduli (GPa) = 38.66900 26.09565 116.80751
#
# Poissons Ratio (x) = 0.31977 0.60588
# Poissons Ratio (y) = 0.47384 -0.10258
# Poissons Ratio (z) = 0.20058 -0.02292
#
# Static dielectric constant tensor:
#      x y z
#    x 5.012330 1.159290 -0.938770 
#    y 1.159290 3.785360 -0.504770 
#    z -0.938770 -0.504770 4.476730 
# 
# 
# High freq. dielectric constant tensor:
#      x y z
#    x 1.818160 0.030140 0.000380 
#    y 0.030140 1.795050 0.001850 
#    z 0.000380 0.001850 1.853400 
# 
# From -- ./inp_files/398087.got.cif
#   From: 2010.06.25/outbox.cif.g09.slc.cpg/sg2_200_cif.got.tgz:398087.got - 2010.06.27 13:26:56.
