data_PCOD8010484
_publ_section_title
;
Structure prediction by ZEFSAII (Michael W. Deem and Ramdas Pophale) SiO2 
 PCOD8010484
Probable space group: P -1
;
_chemical_formula_sum "Si O2"
_cell_formula_units_Z 14
_cell_length_a 11.629173
_cell_length_b 15.250528
_cell_length_c 23.492286
_cell_angle_alpha 17.974066
_cell_angle_beta 147.463063
_cell_angle_gamma 139.995441
_cell_volume 675.121462
_symmetry_space_group_name_H-M "P -1"
_symmetry_group_IT_number 2
_symmetry_cell_setting 'triclinic'
loop_
_space_group_symop_operation_xyz
x,y,z
-x,-y,-z
loop_
_atom_site_type_symbol
_atom_site_label
_atom_site_fract_x
_atom_site_fract_y
_atom_site_fract_z
Si Si1 0.161029 0.194161 0.967940
Si Si2 0.678571 0.527672 0.870232
Si Si3 0.187639 0.709225 0.580261
Si Si4 0.933690 0.460159 0.821298
Si Si5 0.419938 0.287512 0.553869
Si Si6 0.966398 0.151422 0.140107
Si Si7 0.917224 0.072587 0.332954
O O1 0.174556 0.399409 0.792721
O O2 0.084059 0.356106 0.894025
O O3 0.395910 0.996808 0.204354
O O4 0.000000 0.000000 0.000000
O O5 0.427610 0.693159 0.664783
O O6 0.830707 0.757373 0.799107
O O7 0.738323 0.349025 0.946156
O O8 0.724449 0.300364 0.081234
O O9 0.011477 0.812778 0.390054
O O10 0.127084 0.952875 0.454288
O O11 0.671702 0.526286 0.655950
O O12 0.998473 0.759662 0.683306
O O13 0.975504 0.201392 0.045521
O O14 0.500000 0.500000 0.500000
O O15 0.191741 0.199174 0.530787
#
# Coordination Sequence:
#
# PCOD8010484 Si02
#       7
#     2   2   2   2   2   2   2
#     4  12  25  42  66  92 123 170 219 260 320 382
#     4   9  18  36  61  89 133 170 206 250 319 383
#     4  11  20  37  67  91 131 168 209 253 322 382
#     4  11  24  41  63  97 134 157 215 270 309 381
#     4  12  23  41  65  85 128 172 206 258 322 373
#     4   9  21  37  58  94 131 165 205 263 315 370
#     4  10  21  38  61 100 126 164 209 264 309 368
#
# _framework density 20.737010000000001
#
# number of rings (size 3 to 8) (size 9 to 14) (size 15 to 20)
#    0.000    1.429    4.286    1.714    0.000    4.000 
#    0.000    0.714    0.000    8.571    0.000    0.000 
#    0.000    0.000    0.000    0.000    0.000    0.000 
#
# Total GULP energy -173452.274259 kJ/mol
# GULP energy per Si atom -12389.448161 kJ/mol
# Density = 2.068981 g / cm^3
# Si number density = 20.737010 Si / 1000 Ang^3
#
#
#
# Elastic Constant Matrix: (Units=GPa)
#
#
# Indices 1 2 3 4 5 6 
#
# 1 112.0472 41.0827 62.5263 7.7251 5.0064 0.0645
# 2 41.0827 95.3868 32.4123 1.4917 -3.2731 -6.1707
# 3 62.5263 32.4123 158.1551 15.3408 3.4472 -2.5183
# 4 7.7251 1.4917 15.3408 26.9552 0.9362 -0.0173
# 5 5.0064 -3.2731 3.4472 0.9362 43.8307 5.7922
# 6 0.0645 -6.1707 -2.5183 -0.0173 5.7922 15.5722
#
#
#
# Elastic Compliance Matrix: (Units=1/GPa)
#
#
# Indices 1 2 3 4 5 6 
#
# 1 0.012945 -0.004324 -0.004133 -0.001079 -0.001190 -0.001994
# 2 -0.004324 0.013004 -0.001004 0.001063 0.000904 0.004674
# 3 -0.004133 -0.001004 0.008538 -0.003606 -0.000346 0.001125
# 4 -0.001079 0.001063 -0.003606 0.039414 -0.000358 0.000019
# 5 -0.001190 0.000904 -0.000346 -0.000358 0.024202 -0.008696
# 6 -0.001994 0.004674 0.001125 0.000019 -0.008696 0.069494
#
#
# Mechanical properties :
#
#
# Convention : Reuss Voigt Hill
#
# Bulk Modulus (GPa) = 64.24554 70.84797 67.54676
# Shear Modulus (GPa) = 26.08147 32.57611 29.32879
#
# Velocity S-wave (km/s) = 3.55029 3.96778 3.76483
# Velocity P-wave (km/s) = 6.91769 7.43170 7.17930
#
# Compressibility (1/GPa) = 0.01556528
#
# Stress axis : x y z
#
# Youngs Moduli (GPa) = 77.24851 76.90042 117.12575
#
# Poissons Ratio (x) = 0.33252 0.48407
# Poissons Ratio (y) = 0.33403 0.11757
# Poissons Ratio (z) = 0.31926 0.07720
#
# Static dielectric constant tensor:
#      x y z
#    x 3.943380 -0.036040 -0.116790 
#    y -0.036040 3.410500 -0.007570 
#    z -0.116790 -0.007570 4.457560 
# 
# 
# High freq. dielectric constant tensor:
#      x y z
#    x 1.812480 0.003680 -0.010080 
#    y 0.003680 1.766680 0.000140 
#    z -0.010080 0.000140 1.845990 
# 
# From -- ./inp_files/455813.got.cif
#   From: 2010.06.25/outbox.cif.g09.slc.cpg/sg2_228_cif.got.tgz:455813.got - 2010.06.27 13:26:56.
