data_PCOD8010677
_publ_section_title
;
Structure prediction by ZEFSAII (Michael W. Deem and Ramdas Pophale) SiO2 
 PCOD8010677
Probable space group: P -1
;
_chemical_formula_sum "Si O2"
_cell_formula_units_Z 16
_cell_length_a 5.013472
_cell_length_b 23.366428
_cell_length_c 11.736131
_cell_angle_alpha 30.996238
_cell_angle_beta 96.736037
_cell_angle_gamma 97.895704
_cell_volume 701.311104
_symmetry_space_group_name_H-M "P -1"
_symmetry_group_IT_number 2
_symmetry_cell_setting 'triclinic'
loop_
_space_group_symop_operation_xyz
x,y,z
-x,-y,-z
loop_
_atom_site_type_symbol
_atom_site_label
_atom_site_fract_x
_atom_site_fract_y
_atom_site_fract_z
Si Si1 0.737874 0.943405 0.963975
Si Si2 0.263795 0.861176 0.220766
Si Si3 0.809800 0.938495 0.721630
Si Si4 0.453980 0.623855 0.129399
Si Si5 0.745078 0.149943 0.235423
Si Si6 0.030912 0.363372 0.440310
Si Si7 0.459941 0.510019 0.846256
Si Si8 0.814687 0.583239 0.407882
O O1 0.682738 0.923428 0.864247
O O2 0.665605 0.068334 0.781364
O O3 0.539360 0.853141 0.176177
O O4 0.051920 0.929577 0.023639
O O5 0.125196 0.741365 0.450801
O O6 0.572656 0.885681 0.719231
O O7 0.082083 0.873273 0.830079
O O8 0.874680 0.071133 0.471650
O O9 0.516571 0.604316 0.031628
O O10 0.690668 0.660626 0.171281
O O11 0.382860 0.498970 0.385615
O O12 0.232717 0.716568 0.965035
O O13 0.847368 0.465462 0.235878
O O14 0.322721 0.391472 0.351375
O O15 0.043946 0.337053 0.622970
O O16 0.500000 0.500000 0.000000
O O17 0.000000 0.500000 0.500000
#
# Coordination Sequence:
#
# PCOD8010677 Si02
#       8
#     2   2   2   2   2   2   2   2
#     4  10  21  39  60  88 126 158 205 261 315 372
#     4  10  22  38  62  92 119 162 208 256 315 377
#     4  10  22  41  58  91 123 160 207 260 306 380
#     4  10  23  40  61  95 125 169 211 260 325 377
#     4  10  23  39  62  88 122 161 212 253 310 378
#     4  11  23  41  63  95 127 165 217 259 320 386
#     4  11  24  43  64  91 132 168 212 263 312 385
#     4  10  21  38  62  92 131 161 210 269 312 386
#
# _framework density 22.814412000000001
#
# number of rings (size 3 to 8) (size 9 to 14) (size 15 to 20)
#    0.000    1.750    1.250    1.875    3.500    2.000 
#    0.000    3.750    0.000    0.000    0.000    0.000 
#    0.000    0.000    0.000    0.000    0.000    0.000 
#
# Total GULP energy -198216.681663 kJ/mol
# GULP energy per Si atom -12388.542604 kJ/mol
# Density = 2.276248 g / cm^3
# Si number density = 22.814412 Si / 1000 Ang^3
#
#
#
# Elastic Constant Matrix: (Units=GPa)
#
#
# Indices 1 2 3 4 5 6 
#
# 1 86.0697 18.9801 11.1333 6.0283 -1.3550 -8.6535
# 2 18.9801 114.8659 46.4045 17.4436 4.1158 -17.5600
# 3 11.1333 46.4045 69.8967 -9.6249 11.2765 -14.1968
# 4 6.0283 17.4436 -9.6249 36.3581 -0.5277 -3.5941
# 5 -1.3550 4.1158 11.2765 -0.5277 34.8189 -3.4874
# 6 -8.6535 -17.5600 -14.1968 -3.5941 -3.4874 34.4593
#
#
#
# Elastic Compliance Matrix: (Units=1/GPa)
#
#
# Indices 1 2 3 4 5 6 
#
# 1 0.012347 -0.000973 -0.001348 -0.001723 0.001205 0.001992
# 2 -0.000973 0.015073 -0.011078 -0.009775 0.001824 0.002038
# 3 -0.001348 -0.011078 0.025741 0.012786 -0.006354 0.005312
# 4 -0.001723 -0.009775 0.012786 0.036170 -0.002163 0.003407
# 5 0.001205 0.001824 -0.006354 -0.002163 0.030726 0.001499
# 6 0.001992 0.002038 0.005312 0.003407 0.001499 0.033254
#
#
# Mechanical properties :
#
#
# Convention : Reuss Voigt Hill
#
# Bulk Modulus (GPa) = 37.93235 47.09645 42.51440
# Shear Modulus (GPa) = 26.46962 34.08155 30.27559
#
# Velocity S-wave (km/s) = 3.40989 3.86924 3.64681
# Velocity P-wave (km/s) = 5.67148 6.37570 6.03387
#
# Compressibility (1/GPa) = 0.02636272
#
# Stress axis : x y z
#
# Youngs Moduli (GPa) = 80.98942 66.34587 38.84875
#
# Poissons Ratio (x) = 0.06453 0.05237
# Poissons Ratio (y) = 0.07877 0.43037
# Poissons Ratio (z) = 0.10919 0.73499
#
# Static dielectric constant tensor:
#      x y z
#    x 4.011790 0.043790 0.221530 
#    y 0.043790 4.309230 -0.085240 
#    z 0.221530 -0.085240 3.686620 
# 
# 
# High freq. dielectric constant tensor:
#      x y z
#    x 1.909740 -0.007990 0.003190 
#    y -0.007990 1.897050 -0.011440 
#    z 0.003190 -0.011440 1.873050 
# 
# From -- ./inp_files/370823.got.cif
#   From: 2010.06.25/outbox.cif.g09.slc.cpg/sg2_186_cif.got.tgz:370823.got - 2010.06.27 13:26:56.
