data_PCOD8010790
_publ_section_title
;
Structure prediction by ZEFSAII (Michael W. Deem and Ramdas Pophale) SiO2 
 PCOD8010790
Probable space group: P -1
;
_chemical_formula_sum "Si O2"
_cell_formula_units_Z 16
_cell_length_a 13.507397
_cell_length_b 16.331862
_cell_length_c 6.354409
_cell_angle_alpha 52.516840
_cell_angle_beta 101.246342
_cell_angle_gamma 135.059218
_cell_volume 712.897512
_symmetry_space_group_name_H-M "P -1"
_symmetry_group_IT_number 2
_symmetry_cell_setting 'triclinic'
loop_
_space_group_symop_operation_xyz
x,y,z
-x,-y,-z
loop_
_atom_site_type_symbol
_atom_site_label
_atom_site_fract_x
_atom_site_fract_y
_atom_site_fract_z
Si Si1 0.360101 0.174452 0.648195
Si Si2 0.693428 0.411677 0.278111
Si Si3 0.389847 0.041932 0.214491
Si Si4 0.698117 0.233478 0.252389
Si Si5 0.898335 0.497201 0.603038
Si Si6 0.082492 0.306254 0.400718
Si Si7 0.196548 0.036461 0.388054
Si Si8 0.167649 0.171640 0.849671
O O1 0.525131 0.333775 0.366047
O O2 0.215137 0.049433 0.624768
O O3 0.306428 0.223731 0.701205
O O4 0.376821 0.075433 0.920463
O O5 0.667054 0.281379 0.363564
O O6 0.770073 0.452600 0.474377
O O7 0.797924 0.562536 0.932180
O O8 0.558915 0.128625 0.191373
O O9 0.353849 0.108160 0.252365
O O10 0.271317 0.856291 0.499465
O O11 0.843374 0.378081 0.949316
O O12 0.979316 0.651742 0.531982
O O13 0.000000 0.500000 0.500000
O O14 0.174027 0.297923 0.607124
O O15 0.944818 0.141813 0.479345
O O16 0.189309 0.151697 0.133321
O O17 0.000000 0.000000 0.000000
#
# Coordination Sequence:
#
# PCOD8010790 Si02
#       8
#     2   2   2   2   2   2   2   2
#     4  11  22  41  70  99 129 172 218 273 334 387
#     4  11  24  41  65  98 135 170 222 270 323 398
#     4  10  21  38  63  94 130 166 216 275 322 376
#     4  10  22  41  62  93 132 167 221 274 318 378
#     4  11  26  44  67  92 136 180 220 261 328 401
#     4  10  25  44  65  96 135 173 217 274 327 386
#     4  10  22  41  69  97 130 165 222 271 328 389
#     4   9  22  44  65  97 134 169 217 278 324 388
#
# _framework density 22.443622000000001
#
# number of rings (size 3 to 8) (size 9 to 14) (size 15 to 20)
#    0.000    1.750    2.500    0.000    3.500    9.000 
#    0.000    1.250    0.000    0.000    0.000    0.000 
#    0.000    0.000    0.000    0.000    0.000    0.000 
#
# Total GULP energy -198227.787765 kJ/mol
# GULP energy per Si atom -12389.236735 kJ/mol
# Density = 2.239254 g / cm^3
# Si number density = 22.443622 Si / 1000 Ang^3
#
#
#
# Elastic Constant Matrix: (Units=GPa)
#
#
# Indices 1 2 3 4 5 6 
#
# 1 84.4762 16.3548 34.2711 -9.8800 -2.0652 4.6710
# 2 16.3548 94.2194 40.3435 15.1551 9.3796 1.4499
# 3 34.2711 40.3435 127.3901 6.4989 16.2287 -2.1626
# 4 -9.8800 15.1551 6.4989 26.1633 2.9681 3.2205
# 5 -2.0652 9.3796 16.2287 2.9681 40.6133 0.9178
# 6 4.6710 1.4499 -2.1626 3.2205 0.9178 24.2292
#
#
#
# Elastic Compliance Matrix: (Units=1/GPa)
#
#
# Indices 1 2 3 4 5 6 
#
# 1 0.015291 -0.002408 -0.004174 0.008465 0.002482 -0.004396
# 2 -0.002408 0.013795 -0.003114 -0.008017 -0.001489 0.000483
# 3 -0.004174 -0.003114 0.010575 -0.002282 -0.003606 0.002375
# 4 0.008465 -0.008017 -0.002282 0.047587 -0.000110 -0.007677
# 5 0.002482 -0.001489 -0.003606 -0.000110 0.026580 -0.001703
# 6 -0.004396 0.000483 0.002375 -0.007677 -0.001703 0.043388
#
#
# Mechanical properties :
#
#
# Convention : Reuss Voigt Hill
#
# Bulk Modulus (GPa) = 49.33573 54.22496 51.78035
# Shear Modulus (GPa) = 27.26812 32.54224 29.90518
#
# Velocity S-wave (km/s) = 3.48941 3.81196 3.65424
# Velocity P-wave (km/s) = 6.18583 6.60210 6.39735
#
# Compressibility (1/GPa) = 0.02026928
#
# Stress axis : x y z
#
# Youngs Moduli (GPa) = 65.39828 72.48803 94.56245
#
# Poissons Ratio (x) = 0.17457 0.39467
# Poissons Ratio (y) = 0.15750 0.29448
# Poissons Ratio (z) = 0.27295 0.22574
#
# Static dielectric constant tensor:
#      x y z
#    x 4.168880 0.109610 0.272810 
#    y 0.109610 3.900060 0.140000 
#    z 0.272810 0.140000 4.431970 
# 
# 
# High freq. dielectric constant tensor:
#      x y z
#    x 1.885390 0.013240 0.006500 
#    y 0.013240 1.868470 0.011970 
#    z 0.006500 0.011970 1.898100 
# 
# From -- ./inp_files/48301.got.cif
#   From: 2010.06.25/outbox.cif.g09.slc.cpg/sg2_25_cif.got.tgz:48301.got - 2010.06.27 13:26:56.
