data_PCOD8010672
_publ_section_title
;
Structure prediction by ZEFSAII (Michael W. Deem and Ramdas Pophale) SiO2 
 PCOD8010672
Probable space group: P -1
;
_chemical_formula_sum "Si O2"
_cell_formula_units_Z 16
_cell_length_a 6.697850
_cell_length_b 19.007172
_cell_length_c 8.049385
_cell_angle_alpha 83.848808
_cell_angle_beta 89.727051
_cell_angle_gamma 134.851077
_cell_volume 717.595500
_symmetry_space_group_name_H-M "P -1"
_symmetry_group_IT_number 2
_symmetry_cell_setting 'triclinic'
loop_
_space_group_symop_operation_xyz
x,y,z
-x,-y,-z
loop_
_atom_site_type_symbol
_atom_site_label
_atom_site_fract_x
_atom_site_fract_y
_atom_site_fract_z
Si Si1 0.136442 0.708775 0.633670
Si Si2 0.716258 0.410680 0.423532
Si Si3 0.573194 0.583741 0.862280
Si Si4 0.885523 0.754010 0.390843
Si Si5 0.412702 0.883387 0.825253
Si Si6 0.990173 0.062133 0.612432
Si Si7 0.138982 0.221726 0.993637
Si Si8 0.721563 0.890242 0.082176
O O1 0.272154 0.667657 0.608864
O O2 0.360448 0.804447 0.725020
O O3 0.835870 0.623555 0.743925
O O4 0.089083 0.742915 0.458466
O O5 0.678552 0.453038 0.251838
O O6 0.442718 0.350652 0.557655
O O7 0.000000 0.500000 0.500000
O O8 0.500000 0.500000 0.000000
O O9 0.651322 0.668027 0.959789
O O10 0.956421 0.780938 0.190846
O O11 0.955296 0.843867 0.475609
O O12 0.687001 0.992761 0.725525
O O13 0.459603 0.869086 0.019493
O O14 0.129810 0.858715 0.859569
O O15 0.259463 0.114677 0.718954
O O16 0.000000 0.000000 0.500000
O O17 0.305820 0.190837 0.993206
O O18 0.000000 0.000000 0.000000
#
# Coordination Sequence:
#
# PCOD8010672 Si02
#       8
#     2   2   2   2   2   2   2   2
#     4  10  23  42  64  92 126 165 211 264 319 386
#     4  11  25  43  65  91 128 170 211 263 329 385
#     4  10  24  43  66  94 127 164 214 273 321 372
#     4  10  24  41  62  94 129 166 210 270 319 370
#     4  10  21  39  63  88 123 168 208 253 316 371
#     4  10  21  38  62  92 128 167 211 259 314 381
#     4  10  22  40  62  91 127 161 212 265 309 381
#     4   9  20  37  59  86 122 164 203 258 307 363
#
# _framework density 22.296682000000001
#
# number of rings (size 3 to 8) (size 9 to 14) (size 15 to 20)
#    0.000    2.000    0.000    1.500    3.500   14.500 
#    4.500    1.250    0.000    0.000    0.000    0.000 
#    0.000    0.000    0.000    0.000    0.000    0.000 
#
# Total GULP energy -198259.602651 kJ/mol
# GULP energy per Si atom -12391.225166 kJ/mol
# Density = 2.224593 g / cm^3
# Si number density = 22.296682 Si / 1000 Ang^3
#
#
#
# Elastic Constant Matrix: (Units=GPa)
#
#
# Indices 1 2 3 4 5 6 
#
# 1 67.8037 26.9992 25.6951 0.0266 15.4862 -0.0694
# 2 26.9992 98.5455 29.8587 3.7274 5.8628 6.7278
# 3 25.6951 29.8587 76.9321 -0.0046 10.1748 -0.4741
# 4 0.0266 3.7274 -0.0046 38.4030 -5.8870 3.5382
# 5 15.4862 5.8628 10.1748 -5.8870 37.0892 3.5578
# 6 -0.0694 6.7278 -0.4741 3.5382 3.5578 31.6803
#
#
#
# Elastic Compliance Matrix: (Units=1/GPa)
#
#
# Indices 1 2 3 4 5 6 
#
# 1 0.019308 -0.003728 -0.004116 -0.000816 -0.006627 0.001608
# 2 -0.003728 0.012465 -0.003706 -0.000848 0.000727 -0.002698
# 3 -0.004116 -0.003706 0.016118 -0.000100 -0.002256 0.001284
# 4 -0.000816 -0.000848 -0.000100 0.027230 0.005155 -0.003443
# 5 -0.006627 0.000727 -0.002256 0.005155 0.031465 -0.004312
# 6 0.001608 -0.002698 0.001284 -0.003443 -0.004312 0.033030
#
#
# Mechanical properties :
#
#
# Convention : Reuss Voigt Hill
#
# Bulk Modulus (GPa) = 40.33451 45.37636 42.85543
# Shear Modulus (GPa) = 29.24369 32.14971 30.69670
#
# Velocity S-wave (km/s) = 3.62549 3.80136 3.71447
# Velocity P-wave (km/s) = 5.97116 6.29782 6.13666
#
# Compressibility (1/GPa) = 0.02479267
#
# Stress axis : x y z
#
# Youngs Moduli (GPa) = 51.79175 80.22715 62.04385
#
# Poissons Ratio (x) = 0.29905 0.25536
# Poissons Ratio (y) = 0.19306 0.22991
# Poissons Ratio (z) = 0.21316 0.29729
#
# Static dielectric constant tensor:
#      x y z
#    x 4.161920 0.037320 0.425910 
#    y 0.037320 4.060630 0.160210 
#    z 0.425910 0.160210 4.302570 
# 
# 
# High freq. dielectric constant tensor:
#      x y z
#    x 1.877900 -0.001330 0.008850 
#    y -0.001330 1.880740 0.006550 
#    z 0.008850 0.006550 1.878620 
# 
# From -- ./inp_files/138960.got.cif
#   From: 2010.06.25/outbox.cif.g09.slc.cpg/sg2_70_cif.got.tgz:138960.got - 2010.06.27 13:26:56.
