data_PCOD8010117
_publ_section_title
;
Structure prediction by ZEFSAII (Michael W. Deem and Ramdas Pophale) SiO2 
 PCOD8010117
Probable space group: P -1
;
_chemical_formula_sum "Si O2"
_cell_formula_units_Z 16
_cell_length_a 8.887427
_cell_length_b 12.123039
_cell_length_c 11.651137
_cell_angle_alpha 46.026563
_cell_angle_beta 120.269972
_cell_angle_gamma 104.385824
_cell_volume 769.755247
_symmetry_space_group_name_H-M "P -1"
_symmetry_group_IT_number 2
_symmetry_cell_setting 'triclinic'
loop_
_space_group_symop_operation_xyz
x,y,z
-x,-y,-z
loop_
_atom_site_type_symbol
_atom_site_label
_atom_site_fract_x
_atom_site_fract_y
_atom_site_fract_z
Si Si1 0.965005 0.284753 0.612978
Si Si2 0.813880 0.723100 0.506382
Si Si3 0.406551 0.679418 0.023777
Si Si4 0.190938 0.901118 0.160165
Si Si5 0.182981 0.410452 0.790770
Si Si6 0.673262 0.416052 0.687437
Si Si7 0.472856 0.003792 0.850661
Si Si8 0.084147 0.568434 0.871747
O O1 0.103915 0.213764 0.621767
O O2 0.073231 0.292567 0.769244
O O3 0.821256 0.172017 0.664483
O O4 0.849723 0.441182 0.411827
O O5 0.805950 0.538374 0.627380
O O6 0.946443 0.722515 0.666231
O O7 0.627258 0.835346 0.360847
O O8 0.607633 0.641891 0.087342
O O9 0.374914 0.596292 0.189849
O O10 0.365037 0.866709 0.878060
O O11 0.271908 0.622396 0.924378
O O12 0.245221 0.755655 0.199232
O O13 0.335473 0.015161 0.123278
O O14 0.000000 0.000000 0.000000
O O15 0.116354 0.441090 0.873756
O O16 0.500000 0.500000 0.500000
O O17 0.500000 0.000000 0.000000
O O18 0.000000 0.500000 0.000000
#
# Coordination Sequence:
#
# PCOD8010117 Si02
#       8
#     2   2   2   2   2   2   2   2
#     4  10  21  37  65  98 130 162 213 284 337 389
#     4  11  23  43  68  96 134 172 225 270 333 399
#     4  12  24  40  65  92 134 172 223 269 329 400
#     4  12  23  35  61  99 138 165 209 273 351 387
#     4  10  21  40  65  95 130 166 220 276 335 386
#     4  12  21  38  69  97 126 173 220 275 331 396
#     4  12  24  41  63  97 136 173 212 277 344 397
#     4  11  24  42  65  96 127 181 226 269 320 400
#
# _framework density 20.785827999999999
#
# number of rings (size 3 to 8) (size 9 to 14) (size 15 to 20)
#    0.000    0.750    3.750    6.375    0.000    0.500 
#    0.000    0.000    0.000    3.750    0.000    0.000 
#    0.000    0.000    0.000    0.000    0.000    0.000 
#
# Total GULP energy -198218.464346 kJ/mol
# GULP energy per Si atom -12388.654022 kJ/mol
# Density = 2.073852 g / cm^3
# Si number density = 20.785828 Si / 1000 Ang^3
#
#
#
# Elastic Constant Matrix: (Units=GPa)
#
#
# Indices 1 2 3 4 5 6 
#
# 1 124.4052 30.3612 43.3748 11.5675 -15.7168 -0.7879
# 2 30.3612 72.4103 39.8389 12.4063 -1.0389 3.5080
# 3 43.3748 39.8389 114.5289 11.0436 10.3964 -5.1133
# 4 11.5675 12.4063 11.0436 31.1957 -2.6581 -0.5229
# 5 -15.7168 -1.0389 10.3964 -2.6581 51.9670 -2.7980
# 6 -0.7879 3.5080 -5.1133 -0.5229 -2.7980 35.1258
#
#
#
# Elastic Compliance Matrix: (Units=1/GPa)
#
#
# Indices 1 2 3 4 5 6 
#
# 1 0.010343 -0.002213 -0.003331 -0.001458 0.003688 0.000240
# 2 -0.002213 0.018621 -0.005342 -0.004707 0.000384 -0.002726
# 3 -0.003331 -0.005342 0.012386 -0.001295 -0.003553 0.001960
# 4 -0.001458 -0.004707 -0.001295 0.035075 0.001567 0.000896
# 5 0.003688 0.000384 -0.003553 0.001567 0.021224 0.001241
# 6 0.000240 -0.002726 0.001960 0.000896 0.001241 0.029144
#
#
# Mechanical properties :
#
#
# Convention : Reuss Voigt Hill
#
# Bulk Modulus (GPa) = 51.07723 59.83269 55.45496
# Shear Modulus (GPa) = 32.23921 36.84233 34.54077
#
# Velocity S-wave (km/s) = 3.94257 4.21464 4.08087
# Velocity P-wave (km/s) = 6.73436 7.24790 6.99585
#
# Compressibility (1/GPa) = 0.01957819
#
# Stress axis : x y z
#
# Youngs Moduli (GPa) = 96.68677 53.70226 80.73680
#
# Poissons Ratio (x) = 0.11885 0.26891
# Poissons Ratio (y) = 0.21398 0.43129
# Poissons Ratio (z) = 0.32204 0.28688
#
# Static dielectric constant tensor:
#      x y z
#    x 4.234420 0.369950 -0.047250 
#    y 0.369950 3.942060 0.016120 
#    z -0.047250 0.016120 4.278360 
# 
# 
# High freq. dielectric constant tensor:
#      x y z
#    x 1.841510 0.008690 0.003830 
#    y 0.008690 1.775940 -0.010010 
#    z 0.003830 -0.010010 1.823140 
# 
# From -- ./inp_files/392168.got.cif
#   From: 2010.06.25/outbox.cif.g09.slc.cpg/sg2_197_cif.got.tgz:392168.got - 2010.06.27 13:26:56.
