data_PCOD8010386
_publ_section_title
;
Structure prediction by ZEFSAII (Michael W. Deem and Ramdas Pophale) SiO2 
 PCOD8010386
Probable space group: P -1
;
_chemical_formula_sum "Si O2"
_cell_formula_units_Z 12
_cell_length_a 5.139909
_cell_length_b 5.148050
_cell_length_c 23.299680
_cell_angle_alpha 113.830815
_cell_angle_beta 106.871508
_cell_angle_gamma 61.309584
_cell_volume 491.146871
_symmetry_space_group_name_H-M "P -1"
_symmetry_group_IT_number 2
_symmetry_cell_setting 'triclinic'
loop_
_space_group_symop_operation_xyz
x,y,z
-x,-y,-z
loop_
_atom_site_type_symbol
_atom_site_label
_atom_site_fract_x
_atom_site_fract_y
_atom_site_fract_z
Si Si1 0.550030 0.282722 0.733839
Si Si2 0.356096 0.490439 0.119702
Si Si3 0.097170 0.545658 0.447977
Si Si4 0.004493 0.916312 0.926897
Si Si5 0.811618 0.125441 0.312508
Si Si6 0.302324 0.876503 0.574298
O O1 0.549836 0.359111 0.807343
O O2 0.373827 0.068200 0.696222
O O3 0.887803 0.102791 0.718377
O O4 0.386138 0.603442 0.717933
O O5 0.652612 0.263682 0.085716
O O6 0.175117 0.296624 0.113824
O O7 0.145572 0.763747 0.089178
O O8 0.268486 0.766283 0.497735
O O9 0.340945 0.247838 0.402939
O O10 0.000000 0.500000 0.500000
O O11 0.843567 0.744797 0.402995
O O12 0.000000 0.000000 0.000000
O O13 0.851070 0.241676 0.391185
#
# Coordination Sequence:
#
# PCOD8010386 Si02
#       6
#     2   2   2   2   2   2
#     4  12  26  45  68  98 130 180 217 272 322 387
#     4  12  24  44  67  96 139 173 221 268 326 383
#     4  10  21  38  60  83 119 152 205 247 340 372
#     4  12  24  42  69 101 134 175 219 270 324 385
#     4  12  26  44  69  96 132 168 229 266 328 381
#     4  10  23  37  58  89 114 161 200 268 308 395
#
# _framework density 24.432607000000001
#
# number of rings (size 3 to 8) (size 9 to 14) (size 15 to 20)
#    0.000    0.667    0.000    8.000    4.667    0.000 
#    0.000    0.000    0.000    0.000    0.000    0.000 
#    0.000    0.000    0.000    0.000    0.000    0.000 
#
# Total GULP energy -148781.988808 kJ/mol
# GULP energy per Si atom -12398.499067 kJ/mol
# Density = 2.437700 g / cm^3
# Si number density = 24.432607 Si / 1000 Ang^3
#
#
#
# Elastic Constant Matrix: (Units=GPa)
#
#
# Indices 1 2 3 4 5 6 
#
# 1 112.0400 65.2508 -6.1097 3.0931 -19.4608 -1.8161
# 2 65.2508 239.8532 35.0255 -26.9610 -31.4302 -30.7135
# 3 -6.1097 35.0255 132.5954 -6.9729 -22.0379 -6.9370
# 4 3.0931 -26.9610 -6.9729 36.4669 2.2387 -11.7344
# 5 -19.4608 -31.4302 -22.0379 2.2387 39.4337 6.5161
# 6 -1.8161 -30.7135 -6.9370 -11.7344 6.5161 32.9157
#
#
#
# Elastic Compliance Matrix: (Units=1/GPa)
#
#
# Indices 1 2 3 4 5 6 
#
# 1 0.012712 -0.004658 0.001978 -0.006579 0.005128 -0.006589
# 2 -0.004658 0.008134 -0.001113 0.009389 0.001347 0.010179
# 3 0.001978 -0.001113 0.008777 0.000411 0.004956 0.000085
# 4 -0.006579 0.009389 0.000411 0.042896 -0.001962 0.024165
# 5 0.005128 0.001347 0.004956 -0.001962 0.032600 -0.004568
# 6 -0.006589 0.010179 0.000085 0.024165 -0.004568 0.049052
#
#
# Mechanical properties :
#
#
# Convention : Reuss Voigt Hill
#
# Bulk Modulus (GPa) = 45.38079 74.75797 60.06938
# Shear Modulus (GPa) = 29.56765 47.78474 38.67620
#
# Velocity S-wave (km/s) = 3.48253 4.42722 3.98298
# Velocity P-wave (km/s) = 5.89787 7.53642 6.76692
#
# Compressibility (1/GPa) = 0.02203575
#
# Stress axis : x y z
#
# Youngs Moduli (GPa) = 78.66777 122.93511 113.93745
#
# Poissons Ratio (x) = 0.57266 -0.22535
# Poissons Ratio (y) = 0.36645 0.12683
# Poissons Ratio (z) = -0.15559 0.13684
#
# Static dielectric constant tensor:
#      x y z
#    x 5.224480 -0.074430 1.379830 
#    y -0.074430 5.728400 0.719410 
#    z 1.379830 0.719410 7.480880 
# 
# 
# High freq. dielectric constant tensor:
#      x y z
#    x 1.994390 -0.001380 0.001540 
#    y -0.001380 1.998830 0.000420 
#    z 0.001540 0.000420 1.988050 
# 
# From -- ./inp_files/9336.got.cif
#   From: 2010.06.25/outbox.cif.g09.slc.cpg/sg2_5_cif.got.tgz:9336.got - 2010.06.27 13:26:56.
