data_PCOD8010160
_publ_section_title
;
Structure prediction by ZEFSAII (Michael W. Deem and Ramdas Pophale) SiO2 
 PCOD8010160
Probable space group: P -1
;
_chemical_formula_sum "Si O2"
_cell_formula_units_Z 16
_cell_length_a 9.401438
_cell_length_b 11.729875
_cell_length_c 15.181706
_cell_angle_alpha 132.298688
_cell_angle_beta 66.398729
_cell_angle_gamma 75.353564
_cell_volume 723.180786
_symmetry_space_group_name_H-M "P -1"
_symmetry_group_IT_number 2
_symmetry_cell_setting 'triclinic'
loop_
_space_group_symop_operation_xyz
x,y,z
-x,-y,-z
loop_
_atom_site_type_symbol
_atom_site_label
_atom_site_fract_x
_atom_site_fract_y
_atom_site_fract_z
Si Si1 0.577821 0.360371 0.820683
Si Si2 0.992885 0.342007 0.467357
Si Si3 0.841915 0.862710 0.160437
Si Si4 0.876894 0.394702 0.720473
Si Si5 0.504140 0.127478 0.823104
Si Si6 0.642423 0.509008 0.220514
Si Si7 0.278623 0.060340 0.578991
Si Si8 0.645926 0.355020 0.475700
O O1 0.829565 0.246671 0.666533
O O2 0.591354 0.166177 0.737971
O O3 0.371537 0.573658 0.910964
O O4 0.500000 0.500000 0.000000
O O5 0.868562 0.453066 0.651599
O O6 0.845657 0.331778 0.438441
O O7 0.000000 0.500000 0.500000
O O8 0.269122 0.079217 0.277308
O O9 0.614733 0.938069 0.219534
O O10 0.891065 0.787476 0.212466
O O11 0.778622 0.091419 0.289706
O O12 0.080705 0.637317 0.923911
O O13 0.137890 0.220997 0.610170
O O14 0.683451 0.643326 0.949272
O O15 0.573513 0.476112 0.309845
O O16 0.401903 0.798459 0.410610
O O17 0.500000 0.000000 0.500000
O O18 0.500000 0.500000 0.500000
#
# Coordination Sequence:
#
# PCOD8010160 Si02
#       8
#     2   2   2   2   2   2   2   2
#     4  10  21  37  67 104 138 174 222 270 347 415
#     4  12  27  47  73  97 134 180 240 296 344 409
#     4  11  24  43  68 104 143 184 228 282 351 422
#     4  11  24  42  69 102 144 181 227 285 352 411
#     4  11  25  42  71 105 142 178 229 285 348 419
#     4  11  23  41  67  96 141 182 225 279 342 412
#     4  11  23  38  64 103 143 183 225 273 346 416
#     4  11  27  47  71  97 133 185 242 294 349 410
#
# _framework density 22.124479999999998
#
# number of rings (size 3 to 8) (size 9 to 14) (size 15 to 20)
#    0.000    1.000    1.250    5.250    7.000    6.500 
#    0.000    0.000    0.000    0.000    0.000    0.000 
#    0.000    0.000    0.000    0.000    0.000    0.000 
#
# Total GULP energy -198224.891324 kJ/mol
# GULP energy per Si atom -12389.055708 kJ/mol
# Density = 2.207412 g / cm^3
# Si number density = 22.124480 Si / 1000 Ang^3
#
#
#
# Elastic Constant Matrix: (Units=GPa)
#
#
# Indices 1 2 3 4 5 6 
#
# 1 168.1435 78.0933 40.9949 -2.3085 -11.6272 -0.1276
# 2 78.0933 172.7525 47.9190 -13.3711 -6.5086 -8.2708
# 3 40.9949 47.9190 107.8513 -11.5719 -10.3007 4.0142
# 4 -2.3085 -13.3711 -11.5719 30.0445 -1.0170 -2.5043
# 5 -11.6272 -6.5086 -10.3007 -1.0170 34.0470 1.5202
# 6 -0.1276 -8.2708 4.0142 -2.5043 1.5202 45.3333
#
#
#
# Elastic Compliance Matrix: (Units=1/GPa)
#
#
# Indices 1 2 3 4 5 6 
#
# 1 0.007914 -0.003222 -0.001555 -0.001417 0.001599 -0.000560
# 2 -0.003222 0.008140 -0.002193 0.002676 -0.000209 0.001825
# 3 -0.001555 -0.002193 0.011499 0.003314 0.002687 -0.001330
# 4 -0.001417 0.002676 0.003314 0.035886 0.002008 0.002106
# 5 0.001599 -0.000209 0.002687 0.002008 0.030803 -0.001194
# 6 -0.000560 0.001825 -0.001330 0.002106 -0.001194 0.022664
#
#
# Mechanical properties :
#
#
# Convention : Reuss Voigt Hill
#
# Bulk Modulus (GPa) = 73.45995 86.97353 80.21674
# Shear Modulus (GPa) = 36.93209 40.66763 38.79986
#
# Velocity S-wave (km/s) = 4.09012 4.29199 4.19227
# Velocity P-wave (km/s) = 7.45524 7.99737 7.73106
#
# Compressibility (1/GPa) = 0.01361286
#
# Stress axis : x y z
#
# Youngs Moduli (GPa) = 126.36339 122.84826 86.96453
#
# Poissons Ratio (x) = 0.39587 0.13522
# Poissons Ratio (y) = 0.40719 0.19069
# Poissons Ratio (z) = 0.19648 0.26937
#
# Static dielectric constant tensor:
#      x y z
#    x 4.464900 0.105460 0.155500 
#    y 0.105460 4.184990 -0.292390 
#    z 0.155500 -0.292390 3.713690 
# 
# 
# High freq. dielectric constant tensor:
#      x y z
#    x 1.890480 -0.010000 -0.002050 
#    y -0.010000 1.862270 -0.017600 
#    z -0.002050 -0.017600 1.878790 
# 
# From -- ./inp_files/467676.got.cif
#   From: 2010.06.25/outbox.cif.g09.slc.cpg/sg2_234_cif.got.tgz:467676.got - 2010.06.27 13:26:56.
