data_PCOD8010797
_publ_section_title
;
Structure prediction by ZEFSAII (Michael W. Deem and Ramdas Pophale) SiO2 
 PCOD8010797
Probable space group: P -1
;
_chemical_formula_sum "Si O2"
_cell_formula_units_Z 16
_cell_length_a 11.373571
_cell_length_b 11.587655
_cell_length_c 8.782375
_cell_angle_alpha 76.161711
_cell_angle_beta 136.221189
_cell_angle_gamma 119.182544
_cell_volume 686.855540
_symmetry_space_group_name_H-M "P -1"
_symmetry_group_IT_number 2
_symmetry_cell_setting 'triclinic'
loop_
_space_group_symop_operation_xyz
x,y,z
-x,-y,-z
loop_
_atom_site_type_symbol
_atom_site_label
_atom_site_fract_x
_atom_site_fract_y
_atom_site_fract_z
Si Si1 0.180187 0.505683 0.473893
Si Si2 0.915615 0.901016 0.590802
Si Si3 0.447249 0.908887 0.830788
Si Si4 0.239449 0.984877 0.363164
Si Si5 0.794909 0.125649 0.948973
Si Si6 0.413096 0.734194 0.407336
Si Si7 0.250570 0.602598 0.838474
Si Si8 0.572883 0.635558 0.341669
O O1 0.278243 0.656554 0.448444
O O2 0.209510 0.509310 0.681154
O O3 0.289042 0.432457 0.517618
O O4 0.949998 0.431825 0.251990
O O5 0.917598 0.977424 0.725351
O O6 0.703643 0.793200 0.371785
O O7 0.000000 0.000000 0.500000
O O8 0.036810 0.825034 0.782390
O O9 0.370123 0.756568 0.854913
O O10 0.285998 0.917292 0.572740
O O11 0.643849 0.971463 0.898067
O O12 0.500000 0.000000 0.000000
O O13 0.424843 0.119484 0.432149
O O14 0.146644 0.879518 0.171608
O O15 0.711073 0.232914 0.846026
O O16 0.499033 0.640943 0.442859
O O17 0.386161 0.564762 0.082553
#
# Coordination Sequence:
#
# PCOD8010797 Si02
#       8
#     2   2   2   2   2   2   2   2
#     4  11  25  44  69  93 133 177 221 273 323 403
#     4  11  24  39  62  99 134 169 219 278 334 400
#     4  11  21  38  69  97 131 171 217 277 334 388
#     4  10  21  38  63  95 134 172 218 273 334 398
#     4  11  21  39  66  94 131 178 217 271 338 398
#     4  10  22  43  64  94 130 172 222 268 328 390
#     4  11  24  44  67 100 130 173 223 270 337 389
#     4  11  25  43  65  94 132 169 225 275 327 393
#
# _framework density 23.294563
#
# number of rings (size 3 to 8) (size 9 to 14) (size 15 to 20)
#    0.000    1.250    0.000    7.875    5.250    0.500 
#    4.500    0.000    0.000    0.000    0.000    0.000 
#    0.000    0.000    0.000    0.000    0.000    0.000 
#
# Total GULP energy -198305.679296 kJ/mol
# GULP energy per Si atom -12394.104956 kJ/mol
# Density = 2.324154 g / cm^3
# Si number density = 23.294563 Si / 1000 Ang^3
#
#
#
# Elastic Constant Matrix: (Units=GPa)
#
#
# Indices 1 2 3 4 5 6 
#
# 1 108.5451 33.7171 36.0009 -5.3897 11.7365 4.2277
# 2 33.7171 52.3509 0.7545 -1.5108 0.3801 5.8373
# 3 36.0009 0.7545 114.5139 -6.1255 5.6051 -0.3607
# 4 -5.3897 -1.5108 -6.1255 26.5336 -1.7664 -0.8700
# 5 11.7365 0.3801 5.6051 -1.7664 36.8457 -3.0828
# 6 4.2277 5.8373 -0.3607 -0.8700 -3.0828 40.3339
#
#
#
# Elastic Compliance Matrix: (Units=1/GPa)
#
#
# Indices 1 2 3 4 5 6 
#
# 1 0.013701 -0.008655 -0.004014 0.001105 -0.003651 -0.000475
# 2 -0.008655 0.024916 0.002469 0.000276 0.001926 -0.002523
# 3 -0.004014 0.002469 0.010076 0.001645 -0.000186 0.000175
# 4 0.001105 0.000276 0.001645 0.038421 0.001303 0.000787
# 5 -0.003651 0.001926 -0.000186 0.001303 0.028568 0.002314
# 6 -0.000475 -0.002523 0.000175 0.000787 0.002314 0.025403
#
#
# Mechanical properties :
#
#
# Convention : Reuss Voigt Hill
#
# Bulk Modulus (GPa) = 35.34386 46.26167 40.80276
# Shear Modulus (GPa) = 29.25453 34.40512 31.82983
#
# Velocity S-wave (km/s) = 3.54764 3.84729 3.70050
# Velocity P-wave (km/s) = 5.65567 6.29588 5.98434
#
# Compressibility (1/GPa) = 0.02829346
#
# Stress axis : x y z
#
# Youngs Moduli (GPa) = 72.98974 40.13509 99.24759
#
# Poissons Ratio (x) = 0.34736 0.39836
# Poissons Ratio (y) = 0.63171 -0.24507
# Poissons Ratio (z) = 0.29297 -0.09910
#
# Static dielectric constant tensor:
#      x y z
#    x 4.371560 0.075620 0.097980 
#    y 0.075620 3.989860 0.000440 
#    z 0.097980 0.000440 4.205780 
# 
# 
# High freq. dielectric constant tensor:
#      x y z
#    x 1.933650 0.000370 -0.002270 
#    y 0.000370 1.903900 -0.003040 
#    z -0.002270 -0.003040 1.918150 
# 
# From -- ./inp_files/262426.got.cif
#   From: 2010.06.25/outbox.cif.g09.slc.cpg/sg2_132_cif.got.tgz:262426.got - 2010.06.27 13:26:56.
