data_PCOD8010519
_publ_section_title
;
Structure prediction by ZEFSAII (Michael W. Deem and Ramdas Pophale) SiO2 
 PCOD8010519
Probable space group: P -1
;
_chemical_formula_sum "Si O2"
_cell_formula_units_Z 16
_cell_length_a 16.430272
_cell_length_b 7.008293
_cell_length_c 7.586704
_cell_angle_alpha 74.812567
_cell_angle_beta 121.479533
_cell_angle_gamma 109.859352
_cell_volume 696.811354
_symmetry_space_group_name_H-M "P -1"
_symmetry_group_IT_number 2
_symmetry_cell_setting 'triclinic'
loop_
_space_group_symop_operation_xyz
x,y,z
-x,-y,-z
loop_
_atom_site_type_symbol
_atom_site_label
_atom_site_fract_x
_atom_site_fract_y
_atom_site_fract_z
Si Si1 0.867494 0.003090 0.725884
Si Si2 0.543869 0.256251 0.709130
Si Si3 0.480069 0.620771 0.705893
Si Si4 0.280777 0.639223 0.875762
Si Si5 0.926319 0.300734 0.390949
Si Si6 0.351193 0.300944 0.881791
Si Si7 0.991072 0.266147 0.093503
Si Si8 0.670516 0.988881 0.369145
O O1 0.904418 0.132011 0.559617
O O2 0.747529 0.942289 0.611778
O O3 0.902906 0.131100 0.910755
O O4 0.907679 0.798758 0.821135
O O5 0.539420 0.482763 0.702045
O O6 0.556879 0.239587 0.515506
O O7 0.443595 0.095172 0.692242
O O8 0.642954 0.233903 0.922754
O O9 0.390977 0.481719 0.743796
O O10 0.559135 0.758697 0.896011
O O11 0.170613 0.636587 0.804783
O O12 0.282231 0.401172 0.904701
O O13 0.311003 0.768500 0.696868
O O14 0.971249 0.219317 0.289139
O O15 0.000000 0.500000 0.500000
O O16 0.297935 0.103875 0.757765
O O17 0.000000 0.500000 0.000000
#
# Coordination Sequence:
#
# PCOD8010519 Si02
#       8
#     2   2   2   2   2   2   2   2
#     4  10  24  44  67  99 128 172 210 265 329 380
#     4   9  17  36  55  86 125 158 201 255 298 362
#     4   8  16  33  56  82 115 162 209 246 296 361
#     4  10  22  39  59  89 121 161 211 247 308 377
#     4  11  23  44  68  96 128 172 212 267 328 382
#     4   9  18  36  58  80 118 165 201 249 306 358
#     4  11  23  46  70  95 131 163 216 274 320 383
#     4  10  21  38  61  88 124 161 202 252 309 375
#
# _framework density 22.961736999999999
#
# number of rings (size 3 to 8) (size 9 to 14) (size 15 to 20)
#    0.000    2.250    1.250    1.500    1.750    0.000 
#   18.000    1.250    0.000    0.000    0.000    0.000 
#    0.000    0.000    0.000    0.000    0.000    0.000 
#
# Total GULP energy -198287.921220 kJ/mol
# GULP energy per Si atom -12392.995076 kJ/mol
# Density = 2.290947 g / cm^3
# Si number density = 22.961737 Si / 1000 Ang^3
#
#
#
# Elastic Constant Matrix: (Units=GPa)
#
#
# Indices 1 2 3 4 5 6 
#
# 1 55.5990 16.6035 43.3796 11.4380 8.3202 -4.0146
# 2 16.6035 59.4627 31.9205 11.3894 13.4459 -12.2175
# 3 43.3796 31.9205 144.7590 16.0175 14.8798 -1.4262
# 4 11.4380 11.3894 16.0175 32.7429 2.0476 2.9212
# 5 8.3202 13.4459 14.8798 2.0476 46.4926 4.2284
# 6 -4.0146 -12.2175 -1.4262 2.9212 4.2284 28.6405
#
#
#
# Elastic Compliance Matrix: (Units=1/GPa)
#
#
# Indices 1 2 3 4 5 6 
#
# 1 0.025015 -0.001358 -0.006353 -0.005335 -0.002131 0.003470
# 2 -0.001358 0.024172 -0.003385 -0.006912 -0.006416 0.011605
# 3 -0.006353 -0.003385 0.009756 -0.001182 -0.000808 -0.001609
# 4 -0.005335 -0.006912 -0.001182 0.035928 0.002457 -0.007783
# 5 -0.002131 -0.006416 -0.000808 0.002457 0.024528 -0.006948
# 6 0.003470 0.011605 -0.001609 -0.007783 -0.006948 0.042092
#
#
# Mechanical properties :
#
#
# Convention : Reuss Voigt Hill
#
# Bulk Modulus (GPa) = 27.20910 49.29198 38.25054
# Shear Modulus (GPa) = 25.51881 32.76966 29.14423
#
# Velocity S-wave (km/s) = 3.33733 3.78185 3.56652
# Velocity P-wave (km/s) = 5.16970 6.37052 5.80126
#
# Compressibility (1/GPa) = 0.03675241
#
# Stress axis : x y z
#
# Youngs Moduli (GPa) = 39.97549 41.36944 102.49801
#
# Poissons Ratio (x) = 0.05617 0.65121
# Poissons Ratio (y) = 0.05428 0.34692
# Poissons Ratio (z) = 0.25398 0.14002
#
# Static dielectric constant tensor:
#      x y z
#    x 4.012130 -0.289220 -0.112470 
#    y -0.289220 3.983000 0.109180 
#    z -0.112470 0.109180 4.623110 
# 
# 
# High freq. dielectric constant tensor:
#      x y z
#    x 1.885060 -0.016990 0.000460 
#    y -0.016990 1.894320 0.004330 
#    z 0.000460 0.004330 1.922620 
# 
# From -- ./inp_files/325986.got.cif
#   From: 2010.06.25/outbox.cif.g09.slc.cpg/sg2_163_cif.got.tgz:325986.got - 2010.06.27 13:26:56.
