data_PCOD8010668
_publ_section_title
;
Structure prediction by ZEFSAII (Michael W. Deem and Ramdas Pophale) SiO2 
 PCOD8010668
Probable space group: P -1
;
_chemical_formula_sum "Si O2"
_cell_formula_units_Z 16
_cell_length_a 8.660493
_cell_length_b 13.595880
_cell_length_c 16.966607
_cell_angle_alpha 23.450759
_cell_angle_beta 79.925367
_cell_angle_gamma 81.475514
_cell_volume 782.391632
_symmetry_space_group_name_H-M "P -1"
_symmetry_group_IT_number 2
_symmetry_cell_setting 'triclinic'
loop_
_space_group_symop_operation_xyz
x,y,z
-x,-y,-z
loop_
_atom_site_type_symbol
_atom_site_label
_atom_site_fract_x
_atom_site_fract_y
_atom_site_fract_z
Si Si1 0.206280 0.570108 0.359702
Si Si2 0.785304 0.136004 0.529782
Si Si3 0.803757 0.466820 0.134090
Si Si4 0.150525 0.553740 0.552428
Si Si5 0.824292 0.984714 0.058361
Si Si6 0.456669 0.267830 0.118912
Si Si7 0.945020 0.163998 0.220121
Si Si8 0.261696 0.039650 0.740205
O O1 0.194893 0.662346 0.382843
O O2 0.317539 0.330821 0.520426
O O3 0.036920 0.490618 0.396666
O O4 0.275907 0.805197 0.131156
O O5 0.791926 0.348352 0.308063
O O6 0.783267 0.255686 0.528793
O O7 0.633456 0.954597 0.662140
O O8 0.938319 0.971143 0.631506
O O9 0.804196 0.262730 0.214346
O O10 0.656130 0.640152 0.008335
O O11 0.967821 0.619479 0.997482
O O12 0.238850 0.294213 0.748863
O O13 0.817685 0.034520 0.115517
O O14 0.000000 0.000000 0.000000
O O15 0.605500 0.153766 0.147595
O O16 0.500000 0.500000 0.000000
O O17 0.872299 0.974620 0.303349
#
# Coordination Sequence:
#
# PCOD8010668 Si02
#       8
#     2   2   2   2   2   2   2   2
#     4   9  18  35  57  92 122 153 197 257 305 362
#     4  11  23  39  64  92 122 168 209 252 316 372
#     4  10  23  41  60  90 125 165 209 259 311 364
#     4   9  18  34  58  90 121 150 202 255 310 357
#     4   9  20  33  58  95 122 154 201 255 309 369
#     4  11  25  45  60  86 131 173 208 253 307 373
#     4  10  21  38  62  92 125 156 207 270 308 355
#     4  11  21  38  63  90 126 164 205 252 314 365
#
# _framework density 20.450116000000001
#
# number of rings (size 3 to 8) (size 9 to 14) (size 15 to 20)
#    0.000    2.000    2.500    1.125    3.500    2.500 
#    2.250    2.500    0.000    4.500    0.000    0.000 
#    0.000    0.000    0.000    0.000    0.000    0.000 
#
# Total GULP energy -198312.949684 kJ/mol
# GULP energy per Si atom -12394.559355 kJ/mol
# Density = 2.040357 g / cm^3
# Si number density = 20.450116 Si / 1000 Ang^3
#
#
#
# Elastic Constant Matrix: (Units=GPa)
#
#
# Indices 1 2 3 4 5 6 
#
# 1 51.6370 34.2032 20.7200 1.3411 2.3680 -5.3531
# 2 34.2032 109.8456 40.7435 -9.9964 8.5391 -2.3083
# 3 20.7200 40.7435 118.3339 4.5110 22.4981 4.0378
# 4 1.3411 -9.9964 4.5110 32.5221 2.0083 3.9519
# 5 2.3680 8.5391 22.4981 2.0083 21.2557 -8.3993
# 6 -5.3531 -2.3083 4.0378 3.9519 -8.3993 28.8240
#
#
#
# Elastic Compliance Matrix: (Units=1/GPa)
#
#
# Indices 1 2 3 4 5 6 
#
# 1 0.026427 -0.007762 -0.003395 -0.004347 0.007115 0.007431
# 2 -0.007762 0.013210 -0.002874 0.005098 -0.002430 -0.001388
# 3 -0.003395 -0.002874 0.013175 -0.000788 -0.015104 -0.007000
# 4 -0.004347 0.005098 -0.000788 0.033848 -0.006641 -0.006864
# 5 0.007115 -0.002430 -0.015104 -0.006641 0.074007 0.025719
# 6 0.007431 -0.001388 -0.007000 -0.006864 0.025719 0.045378
#
#
# Mechanical properties :
#
#
# Convention : Reuss Voigt Hill
#
# Bulk Modulus (GPa) = 40.40512 52.34998 46.37755
# Shear Modulus (GPa) = 20.63063 28.79702 24.71383
#
# Velocity S-wave (km/s) = 3.17965 3.75662 3.48011
# Velocity P-wave (km/s) = 5.76897 6.66863 6.23505
#
# Compressibility (1/GPa) = 0.02474934
#
# Stress axis : x y z
#
# Youngs Moduli (GPa) = 37.84062 75.69850 75.89922
#
# Poissons Ratio (x) = 0.58755 0.25771
# Poissons Ratio (y) = 0.29371 0.21816
# Poissons Ratio (z) = 0.12849 0.21758
#
# Static dielectric constant tensor:
#      x y z
#    x 3.388470 -0.045760 0.232440 
#    y -0.045760 3.672620 -0.247160 
#    z 0.232440 -0.247160 4.131050 
# 
# 
# High freq. dielectric constant tensor:
#      x y z
#    x 1.761180 -0.001270 0.018020 
#    y -0.001270 1.803650 -0.015780 
#    z 0.018020 -0.015780 1.810630 
# 
# From -- ./inp_files/281544.got.cif
#   From: 2010.06.25/outbox.cif.g09.slc.cpg/sg2_141_cif.got.tgz:281544.got - 2010.06.27 13:26:56.
