data_PCOD8010318
_publ_section_title
;
Structure prediction by ZEFSAII (Michael W. Deem and Ramdas Pophale) SiO2 
 PCOD8010318
Probable space group: P -1
;
_chemical_formula_sum "Si O2"
_cell_formula_units_Z 16
_cell_length_a 10.795764
_cell_length_b 18.535620
_cell_length_c 8.909263
_cell_angle_alpha 109.705180
_cell_angle_beta 110.922844
_cell_angle_gamma 129.877720
_cell_volume 783.830924
_symmetry_space_group_name_H-M "P -1"
_symmetry_group_IT_number 2
_symmetry_cell_setting 'triclinic'
loop_
_space_group_symop_operation_xyz
x,y,z
-x,-y,-z
loop_
_atom_site_type_symbol
_atom_site_label
_atom_site_fract_x
_atom_site_fract_y
_atom_site_fract_z
Si Si1 0.780751 0.111923 0.375919
Si Si2 0.470563 0.789414 0.771122
Si Si3 0.757824 0.932842 0.308747
Si Si4 0.782910 0.607830 0.658986
Si Si5 0.689608 0.369588 0.934007
Si Si6 0.770191 0.450290 0.706039
Si Si7 0.072677 0.391703 0.590888
Si Si8 0.274309 0.943080 0.038423
O O1 0.005700 0.290494 0.611794
O O2 0.748403 0.082799 0.165532
O O3 0.855291 0.069995 0.461741
O O4 0.502860 0.002808 0.247873
O O5 0.414114 0.679594 0.593152
O O6 0.199026 0.698925 0.633804
O O7 0.640240 0.857733 0.040673
O O8 0.640007 0.924786 0.818488
O O9 0.532841 0.803492 0.243109
O O10 0.000000 0.000000 0.500000
O O11 0.500000 0.500000 0.500000
O O12 0.844378 0.573948 0.784454
O O13 0.793062 0.575265 0.476123
O O14 0.999515 0.784685 0.891420
O O15 0.618445 0.372769 0.745738
O O16 0.966349 0.466298 0.108178
O O17 0.710724 0.445077 0.124434
#
# Coordination Sequence:
#
# PCOD8010318 Si02
#       8
#     2   2   2   2   2   2   2   2
#     4   8  15  31  56  81 103 135 184 233 270 314
#     4   9  18  37  64  84 102 140 192 236 273 319
#     4  11  21  33  52  83 117 148 180 218 274 338
#     4  11  21  33  52  83 117 148 180 218 274 338
#     4  10  21  38  59  83 110 142 186 236 277 318
#     4  10  21  38  59  83 110 142 186 236 277 318
#     4   9  18  37  64  84 102 140 192 236 273 319
#     4   8  15  31  56  81 103 135 184 233 270 314
#
# _framework density 20.412565000000001
#
# number of rings (size 3 to 8) (size 9 to 14) (size 15 to 20)
#    0.000    2.500    0.000    4.500    0.000    5.000 
#    0.000    8.750    0.000    6.000    0.000    0.000 
#    0.000    0.000    0.000    0.000    0.000    1.500 
#
# Total GULP energy -198316.954963 kJ/mol
# GULP energy per Si atom -12394.809685 kJ/mol
# Density = 2.036610 g / cm^3
# Si number density = 20.412565 Si / 1000 Ang^3
#
#
#
# Elastic Constant Matrix: (Units=GPa)
#
#
# Indices 1 2 3 4 5 6 
#
# 1 62.0856 39.5356 32.9139 -2.9075 8.3177 -1.2028
# 2 39.5356 147.6738 34.3000 6.5106 8.1243 -9.3120
# 3 32.9139 34.3000 53.2663 -2.0080 7.2324 4.5036
# 4 -2.9075 6.5106 -2.0080 24.9935 1.4447 -6.0565
# 5 8.3177 8.1243 7.2324 1.4447 13.2625 -0.4582
# 6 -1.2028 -9.3120 4.5036 -6.0565 -0.4582 22.3499
#
#
#
# Elastic Compliance Matrix: (Units=1/GPa)
#
#
# Indices 1 2 3 4 5 6 
#
# 1 0.026764 -0.003612 -0.013317 0.004306 -0.007654 0.003629
# 2 -0.003612 0.009008 -0.003858 -0.002124 -0.000788 0.003745
# 3 -0.013317 -0.003858 0.031122 0.000237 -0.006581 -0.008666
# 4 0.004306 -0.002124 0.000237 0.044126 -0.005951 0.011135
# 5 -0.007654 -0.000788 -0.006581 -0.005951 0.084946 0.000715
# 6 0.003629 0.003745 -0.008666 0.011135 0.000715 0.051277
#
#
# Mechanical properties :
#
#
# Convention : Reuss Voigt Hill
#
# Bulk Modulus (GPa) = 39.49555 52.94718 46.22136
# Shear Modulus (GPa) = 16.82041 22.53959 19.68000
#
# Velocity S-wave (km/s) = 2.87369 3.32656 3.10838
# Velocity P-wave (km/s) = 5.51375 6.38353 5.96452
#
# Compressibility (1/GPa) = 0.02531931
#
# Stress axis : x y z
#
# Youngs Moduli (GPa) = 37.36302 111.01264 32.13140
#
# Poissons Ratio (x) = 0.40100 0.42790
# Poissons Ratio (y) = 0.13496 0.12397
# Poissons Ratio (z) = 0.49757 0.42831
#
# Static dielectric constant tensor:
#      x y z
#    x 3.614350 -0.492810 -0.247740 
#    y -0.492810 4.793910 0.539070 
#    z -0.247740 0.539070 3.683030 
# 
# 
# High freq. dielectric constant tensor:
#      x y z
#    x 1.770810 -0.015270 -0.003730 
#    y -0.015270 1.815270 0.016370 
#    z -0.003730 0.016370 1.770680 
# 
# From -- ./inp_files/279529.got.cif
#   From: 2010.06.25/outbox.cif.g09.slc.cpg/sg2_140_cif.got.tgz:279529.got - 2010.06.27 13:26:56.
