data_PCOD8010311
_publ_section_title
;
Structure prediction by ZEFSAII (Michael W. Deem and Ramdas Pophale) SiO2 
 PCOD8010311
Probable space group: P -1
;
_chemical_formula_sum "Si O2"
_cell_formula_units_Z 14
_cell_length_a 15.484627
_cell_length_b 11.824946
_cell_length_c 8.819274
_cell_angle_alpha 113.393089
_cell_angle_beta 63.646930
_cell_angle_gamma 150.855159
_cell_volume 704.569688
_symmetry_space_group_name_H-M "P -1"
_symmetry_group_IT_number 2
_symmetry_cell_setting 'triclinic'
loop_
_space_group_symop_operation_xyz
x,y,z
-x,-y,-z
loop_
_atom_site_type_symbol
_atom_site_label
_atom_site_fract_x
_atom_site_fract_y
_atom_site_fract_z
Si Si1 0.047073 0.838793 0.366122
Si Si2 0.475775 0.966542 0.252200
Si Si3 0.625273 0.959254 0.883465
Si Si4 0.324468 0.412374 0.226284
Si Si5 0.591018 0.500408 0.138570
Si Si6 0.088530 0.095947 0.684619
Si Si7 0.285179 0.629750 0.484509
O O1 0.909702 0.770769 0.332708
O O2 0.929072 0.614673 0.439622
O O3 0.184603 0.908729 0.193367
O O4 0.153332 0.053053 0.503591
O O5 0.317932 0.738185 0.359407
O O6 0.371341 0.938644 0.199340
O O7 0.615556 0.196359 0.363006
O O8 0.595713 0.993690 0.086442
O O9 0.462229 0.685383 0.838216
O O10 0.429082 0.422457 0.246614
O O11 0.364354 0.578895 0.377285
O O12 0.398465 0.511678 0.053998
O O13 0.114062 0.151028 0.233524
O O14 0.778297 0.753702 0.196027
#
# Coordination Sequence:
#
# PCOD8010311 Si02
#       7
#     2   2   2   2   2   2   2
#     4  10  22  38  60  90 129 152 207 255 303 373
#     4  10  23  40  64  84 120 168 211 245 305 356
#     4  11  22  40  61  92 121 161 209 253 298 373
#     4  10  21  38  61  94 123 157 206 256 304 376
#     4  11  21  36  65  91 124 162 198 256 318 359
#     4  10  21  38  58  95 128 159 194 253 316 373
#     4  10  21  42  61  86 122 162 205 258 300 362
#
# _framework density 19.870284000000002
#
# number of rings (size 3 to 8) (size 9 to 14) (size 15 to 20)
#    0.000    1.714    2.857    1.286    2.000    1.714 
#    0.000    0.000    3.143    0.000    0.000    0.000 
#    0.000    0.000    0.000    0.000    0.000    0.000 
#
# Total GULP energy -173576.600014 kJ/mol
# GULP energy per Si atom -12398.328572 kJ/mol
# Density = 1.982506 g / cm^3
# Si number density = 19.870284 Si / 1000 Ang^3
#
#
#
# Elastic Constant Matrix: (Units=GPa)
#
#
# Indices 1 2 3 4 5 6 
#
# 1 77.1568 50.3525 53.6446 8.4782 -8.6415 -2.9727
# 2 50.3525 111.8735 53.4397 3.1821 -8.6508 -7.8872
# 3 53.6446 53.4397 109.4781 5.2659 -13.8997 -0.6163
# 4 8.4782 3.1821 5.2659 29.1504 -2.5671 4.8140
# 5 -8.6415 -8.6508 -13.8997 -2.5671 30.9133 -3.7073
# 6 -2.9727 -7.8872 -0.6163 4.8140 -3.7073 31.7719
#
#
#
# Elastic Compliance Matrix: (Units=1/GPa)
#
#
# Indices 1 2 3 4 5 6 
#
# 1 0.023359 -0.006414 -0.007962 -0.004785 0.000910 0.001270
# 2 -0.006414 0.013721 -0.003458 0.000615 0.000872 0.002748
# 3 -0.007962 -0.003458 0.015147 0.000427 0.003537 -0.000962
# 4 -0.004785 0.000615 0.000427 0.036611 0.001387 -0.005672
# 5 0.000910 0.000872 0.003537 0.001387 0.035063 0.004251
# 6 0.001270 0.002748 -0.000962 -0.005672 0.004251 0.033612
#
#
# Mechanical properties :
#
#
# Convention : Reuss Voigt Hill
#
# Bulk Modulus (GPa) = 60.39372 68.15354 64.27363
# Shear Modulus (GPa) = 25.16348 27.77189 26.46768
#
# Velocity S-wave (km/s) = 3.56249 3.74258 3.65365
# Velocity P-wave (km/s) = 6.88344 7.28352 7.08630
#
# Compressibility (1/GPa) = 0.01655801
#
# Stress axis : x y z
#
# Youngs Moduli (GPa) = 42.81025 72.88050 66.02011
#
# Poissons Ratio (x) = 0.46746 0.52567
# Poissons Ratio (y) = 0.27459 0.22831
# Poissons Ratio (z) = 0.34086 0.25203
#
# Static dielectric constant tensor:
#      x y z
#    x 3.523120 -0.316100 -0.144010 
#    y -0.316100 3.570910 -0.119580 
#    z -0.144010 -0.119580 3.766220 
# 
# 
# High freq. dielectric constant tensor:
#      x y z
#    x 1.761590 -0.023720 -0.007800 
#    y -0.023720 1.775620 -0.010180 
#    z -0.007800 -0.010180 1.786920 
# 
# From -- ./inp_files/206797.got.cif
#   From: 2010.06.25/outbox.cif.g09.slc.cpg/sg2_104_cif.got.tgz:206797.got - 2010.06.27 13:26:56.
