data_PCOD8010880
_publ_section_title
;
Structure prediction by ZEFSAII (Michael W. Deem and Ramdas Pophale) SiO2 
 PCOD8010880
Probable space group: P -1
;
_chemical_formula_sum "Si O2"
_cell_formula_units_Z 14
_cell_length_a 20.086961
_cell_length_b 8.447437
_cell_length_c 7.373012
_cell_angle_alpha 58.102971
_cell_angle_beta 40.780124
_cell_angle_gamma 49.710643
_cell_volume 621.426422
_symmetry_space_group_name_H-M "P -1"
_symmetry_group_IT_number 2
_symmetry_cell_setting 'triclinic'
loop_
_space_group_symop_operation_xyz
x,y,z
-x,-y,-z
loop_
_atom_site_type_symbol
_atom_site_label
_atom_site_fract_x
_atom_site_fract_y
_atom_site_fract_z
Si Si1 0.963110 0.062973 0.332593
Si Si2 0.515190 0.701188 0.146346
Si Si3 0.902388 0.483042 0.098081
Si Si4 0.679777 0.871119 0.782485
Si Si5 0.478786 0.722909 0.633970
Si Si6 0.915651 0.832877 0.279090
Si Si7 0.674298 0.825711 0.234387
O O1 0.873972 0.308523 0.361524
O O2 0.070148 0.024938 0.999962
O O3 0.000000 0.000000 0.500000
O O4 0.902007 0.932444 0.448441
O O5 0.507797 0.696665 0.379784
O O6 0.535975 0.480201 0.148444
O O7 0.398377 0.879590 0.199393
O O8 0.618962 0.760103 0.852679
O O9 0.790075 0.695042 0.182773
O O10 0.000000 0.500000 0.000000
O O11 0.968999 0.387936 0.826868
O O12 0.801656 0.812211 0.477106
O O13 0.700933 0.784391 0.993661
O O14 0.578512 0.746952 0.527994
O O15 0.364238 0.935057 0.774226
#
# Coordination Sequence:
#
# PCOD8010880 Si02
#       7
#     2   2   2   2   2   2   2
#     4   9  21  44  67  93 130 176 227 270 333 402
#     4   9  20  39  65  95 122 170 228 267 338 392
#     4  10  23  41  62  97 135 175 217 277 328 407
#     4  10  21  38  64  93 133 170 214 277 337 401
#     4   9  20  40  66  89 128 173 221 282 322 394
#     4   9  22  41  66  95 136 174 213 285 323 407
#     4  10  22  39  61  96 134 173 218 273 336 393
#
# _framework density 22.528815000000002
#
# number of rings (size 3 to 8) (size 9 to 14) (size 15 to 20)
#    0.857    1.714    0.000    0.000    6.000    1.143 
#    0.000    2.857    0.000    0.000    0.000    0.000 
#    0.000    0.000    0.000    0.000    0.000    0.000 
#
# Total GULP energy -173448.426980 kJ/mol
# GULP energy per Si atom -12389.173356 kJ/mol
# Density = 2.247754 g / cm^3
# Si number density = 22.528815 Si / 1000 Ang^3
#
#
#
# Elastic Constant Matrix: (Units=GPa)
#
#
# Indices 1 2 3 4 5 6 
#
# 1 109.9439 65.7779 31.5528 2.7166 -6.9092 -6.5608
# 2 65.7779 172.9262 39.4159 -3.7059 -23.9251 -9.1971
# 3 31.5528 39.4159 66.4690 1.9223 -22.6154 -5.5472
# 4 2.7166 -3.7059 1.9223 25.6751 -0.4088 -9.2461
# 5 -6.9092 -23.9251 -22.6154 -0.4088 35.1274 5.2704
# 6 -6.5608 -9.1971 -5.5472 -9.2461 5.2704 40.8681
#
#
#
# Elastic Compliance Matrix: (Units=1/GPa)
#
#
# Indices 1 2 3 4 5 6 
#
# 1 0.012865 -0.004321 -0.004647 -0.001484 -0.003509 0.000579
# 2 -0.004321 0.008417 -0.001667 0.002216 0.003685 0.001000
# 3 -0.004647 -0.001667 0.022503 -0.001215 0.012416 0.000057
# 4 -0.001484 0.002216 -0.001215 0.043077 -0.000551 0.009912
# 5 -0.003509 0.003685 0.012416 -0.000551 0.038751 -0.003171
# 6 0.000579 0.001000 0.000057 0.009912 -0.003171 0.027446
#
#
# Mechanical properties :
#
#
# Convention : Reuss Voigt Hill
#
# Bulk Modulus (GPa) = 44.41380 69.20359 56.80870
# Shear Modulus (GPa) = 27.49759 34.50696 31.00227
#
# Velocity S-wave (km/s) = 3.49743 3.91792 3.71363
# Velocity P-wave (km/s) = 6.00553 7.15900 6.60748
#
# Compressibility (1/GPa) = 0.02251552
#
# Stress axis : x y z
#
# Youngs Moduli (GPa) = 77.72965 118.80904 44.43777
#
# Poissons Ratio (x) = 0.51335 0.20652
# Poissons Ratio (y) = 0.33586 0.07407
# Poissons Ratio (z) = 0.36124 0.19802
#
# Static dielectric constant tensor:
#      x y z
#    x 3.965380 0.306850 -0.188800 
#    y 0.306850 4.435670 -0.086950 
#    z -0.188800 -0.086950 4.013450 
# 
# 
# High freq. dielectric constant tensor:
#      x y z
#    x 1.888470 0.015340 -0.002130 
#    y 0.015340 1.879190 -0.005280 
#    z -0.002130 -0.005280 1.871780 
# 
# From -- ./inp_files/351326.got.cif
#   From: 2010.06.25/outbox.cif.g09.slc.cpg/sg2_176_cif.got.tgz:351326.got - 2010.06.27 13:26:56.
