data_PCOD8010281
_publ_section_title
;
Structure prediction by ZEFSAII (Michael W. Deem and Ramdas Pophale) SiO2 
 PCOD8010281
Probable space group: P -1
;
_chemical_formula_sum "Si O2"
_cell_formula_units_Z 16
_cell_length_a 22.866824
_cell_length_b 9.052230
_cell_length_c 20.061584
_cell_angle_alpha 40.448406
_cell_angle_beta 19.523551
_cell_angle_gamma 33.388722
_cell_volume 756.080730
_symmetry_space_group_name_H-M "P -1"
_symmetry_group_IT_number 2
_symmetry_cell_setting 'triclinic'
loop_
_space_group_symop_operation_xyz
x,y,z
-x,-y,-z
loop_
_atom_site_type_symbol
_atom_site_label
_atom_site_fract_x
_atom_site_fract_y
_atom_site_fract_z
Si Si1 0.641299 0.617702 0.678467
Si Si2 0.436911 0.604909 0.605487
Si Si3 0.067975 0.663533 0.415056
Si Si4 0.219377 0.997606 0.066945
Si Si5 0.797729 0.492348 0.341725
Si Si6 0.678065 0.212258 0.676875
Si Si7 0.138722 0.210660 0.720578
Si Si8 0.315569 0.337277 0.935550
O O1 0.762169 0.537608 0.645585
O O2 0.640560 0.363597 0.735692
O O3 0.742417 0.728732 0.483208
O O4 0.405570 0.863618 0.860200
O O5 0.500000 0.500000 0.500000
O O6 0.623891 0.629760 0.424400
O O7 0.413431 0.394811 0.746570
O O8 0.219776 0.895165 0.739766
O O9 0.171813 0.775741 0.216995
O O10 0.000000 0.500000 0.500000
O O11 0.867701 0.902207 0.587676
O O12 0.020311 0.250992 0.156230
O O13 0.269021 0.111541 0.040889
O O14 0.733081 0.362383 0.512547
O O15 0.819475 0.724384 0.272157
O O16 0.472985 0.222962 0.868285
O O17 0.892450 0.389441 0.909010
#
# Coordination Sequence:
#
# PCOD8010281 Si02
#       8
#     2   2   2   2   2   2   2   2
#     4  11  22  38  60  89 117 151 196 238 281 341
#     4  11  21  35  59  89 115 149 194 240 284 338
#     4  11  23  40  61  85 116 154 190 237 293 344
#     4  10  21  40  60  84 116 152 190 238 291 344
#     4   8  19  38  57  78 114 153 187 231 287 336
#     4   9  20  37  59  84 114 149 189 235 284 339
#     4  10  21  38  58  83 118 157 192 234 281 339
#     4  10  21  40  60  84 118 155 190 235 292 343
#
# _framework density 21.161760999999998
#
# number of rings (size 3 to 8) (size 9 to 14) (size 15 to 20)
#    0.000    2.000    0.000    3.750    0.000    4.000 
#    0.000    8.750    0.000    0.000    0.000    0.000 
#    0.000    0.000    0.000    0.000    0.000    0.000 
#
# Total GULP energy -198451.257174 kJ/mol
# GULP energy per Si atom -12403.203573 kJ/mol
# Density = 2.111360 g / cm^3
# Si number density = 21.161761 Si / 1000 Ang^3
#
#
#
# Elastic Constant Matrix: (Units=GPa)
#
#
# Indices 1 2 3 4 5 6 
#
# 1 76.1368 15.7921 32.8487 4.9943 -0.0597 11.5233
# 2 15.7921 75.6884 19.1416 10.0264 4.7506 15.2506
# 3 32.8487 19.1416 108.7791 24.4851 -5.4856 1.8851
# 4 4.9943 10.0264 24.4851 44.4409 4.9894 0.0475
# 5 -0.0597 4.7506 -5.4856 4.9894 29.1743 -0.5869
# 6 11.5233 15.2506 1.8851 0.0475 -0.5869 28.7191
#
#
#
# Elastic Compliance Matrix: (Units=1/GPa)
#
#
# Indices 1 2 3 4 5 6 
#
# 1 0.016274 -0.001108 -0.004963 0.001279 -0.001052 -0.005639
# 2 -0.001108 0.016010 -0.002024 -0.002049 -0.002800 -0.007978
# 3 -0.004963 -0.002024 0.012637 -0.006381 0.003834 0.002326
# 4 0.001279 -0.002049 -0.006381 0.026948 -0.005455 0.000838
# 5 -0.001052 -0.002800 0.003834 -0.005455 0.036433 0.002411
# 6 -0.005639 -0.007978 0.002326 0.000838 0.002411 0.041215
#
#
# Mechanical properties :
#
#
# Convention : Reuss Voigt Hill
#
# Bulk Modulus (GPa) = 34.80501 44.01879 39.41190
# Shear Modulus (GPa) = 28.52537 33.32166 30.92352
#
# Velocity S-wave (km/s) = 3.67545 3.97245 3.82683
# Velocity P-wave (km/s) = 5.87322 6.47200 6.17987
#
# Compressibility (1/GPa) = 0.02873149
#
# Stress axis : x y z
#
# Youngs Moduli (GPa) = 61.44810 62.46145 79.13199
#
# Poissons Ratio (x) = 0.06918 0.39271
# Poissons Ratio (y) = 0.06806 0.16020
# Poissons Ratio (z) = 0.30495 0.12645
#
# Static dielectric constant tensor:
#      x y z
#    x 3.733790 0.168420 -0.285510 
#    y 0.168420 3.796500 0.180060 
#    z -0.285510 0.180060 4.015790 
# 
# 
# High freq. dielectric constant tensor:
#      x y z
#    x 1.817390 0.011420 -0.014440 
#    y 0.011420 1.829180 0.013610 
#    z -0.014440 0.013610 1.837280 
# 
# From -- ./inp_files/188039.got.cif
#   From: 2010.06.25/outbox.cif.g09.slc.cpg/sg2_95_cif.got.tgz:188039.got - 2010.06.27 13:26:56.
