data_PCOD8010759
_publ_section_title
;
Structure prediction by ZEFSAII (Michael W. Deem and Ramdas Pophale) SiO2 
 PCOD8010759
Probable space group: P -1
;
_chemical_formula_sum "Si O2"
_cell_formula_units_Z 16
_cell_length_a 9.309919
_cell_length_b 17.893385
_cell_length_c 6.331377
_cell_angle_alpha 45.252778
_cell_angle_beta 81.582845
_cell_angle_gamma 94.272506
_cell_volume 716.960699
_symmetry_space_group_name_H-M "P -1"
_symmetry_group_IT_number 2
_symmetry_cell_setting 'triclinic'
loop_
_space_group_symop_operation_xyz
x,y,z
-x,-y,-z
loop_
_atom_site_type_symbol
_atom_site_label
_atom_site_fract_x
_atom_site_fract_y
_atom_site_fract_z
Si Si1 0.124856 0.666624 0.202956
Si Si2 0.419678 0.230227 0.177827
Si Si3 0.976619 0.041555 0.649267
Si Si4 0.254766 0.022557 0.860179
Si Si5 0.152528 0.497414 0.865073
Si Si6 0.667823 0.334576 0.211925
Si Si7 0.361995 0.825711 0.090814
Si Si8 0.128017 0.285822 0.066071
O O1 0.151599 0.558112 0.519788
O O2 0.205287 0.768734 0.125805
O O3 0.186224 0.673549 0.936200
O O4 0.950526 0.669978 0.205616
O O5 0.341381 0.145124 0.544013
O O6 0.534554 0.329225 0.080039
O O7 0.293104 0.272978 0.994095
O O8 0.502477 0.173975 0.098722
O O9 0.090144 0.988110 0.860513
O O10 0.020644 0.172677 0.394814
O O11 0.000000 0.000000 0.500000
O O12 0.799383 0.996100 0.844987
O O13 0.361596 0.947908 0.908865
O O14 0.292256 0.556721 0.868016
O O15 0.158237 0.374005 0.073408
O O16 0.000000 0.500000 0.000000
O O17 0.617246 0.232053 0.580684
#
# Coordination Sequence:
#
# PCOD8010759 Si02
#       8
#     2   2   2   2   2   2   2   2
#     4  10  21  40  65  95 124 160 214 268 314 374
#     4  10  24  41  59  95 133 170 213 254 320 380
#     4  10  22  39  60  99 129 161 210 265 320 366
#     4  10  21  38  63  91 130 166 215 260 310 375
#     4  11  23  40  68  98 119 163 217 263 320 378
#     4  10  22  42  61  91 129 163 216 258 311 384
#     4  10  21  40  65  90 128 176 212 258 310 375
#     4  11  22  41  65  94 130 163 208 271 317 370
#
# _framework density 22.316426
#
# number of rings (size 3 to 8) (size 9 to 14) (size 15 to 20)
#    0.000    1.750    1.250    2.250    1.750    4.000 
#    4.500    5.625    0.000    0.000    0.000    0.000 
#    0.000    0.000    0.000    0.000    0.000    0.000 
#
# Total GULP energy -198304.268307 kJ/mol
# GULP energy per Si atom -12394.016769 kJ/mol
# Density = 2.226563 g / cm^3
# Si number density = 22.316426 Si / 1000 Ang^3
#
#
#
# Elastic Constant Matrix: (Units=GPa)
#
#
# Indices 1 2 3 4 5 6 
#
# 1 130.5444 48.6004 27.5227 9.0548 -5.4462 -4.9217
# 2 48.6004 110.0726 41.8744 -0.5702 -5.1817 -13.8792
# 3 27.5227 41.8744 87.6798 9.6696 -16.4069 -5.8411
# 4 9.0548 -0.5702 9.6696 36.1703 -0.1264 0.1589
# 5 -5.4462 -5.1817 -16.4069 -0.1264 25.8788 6.5405
# 6 -4.9217 -13.8792 -5.8411 0.1589 6.5405 29.5716
#
#
#
# Elastic Compliance Matrix: (Units=1/GPa)
#
#
# Indices 1 2 3 4 5 6 
#
# 1 0.009449 -0.003949 -0.000707 -0.002233 0.000892 -0.000606
# 2 -0.003949 0.013547 -0.005756 0.002707 -0.003076 0.005230
# 3 -0.000707 -0.005756 0.016531 -0.004292 0.009575 -0.001649
# 4 -0.002233 0.002707 -0.004292 0.029385 -0.002625 0.000474
# 5 0.000892 -0.003076 0.009575 -0.002625 0.046729 -0.009725
# 6 -0.000606 0.005230 -0.001649 0.000474 -0.009725 0.037993
#
#
# Mechanical properties :
#
#
# Convention : Reuss Voigt Hill
#
# Bulk Modulus (GPa) = 53.46845 62.69910 58.08377
# Shear Modulus (GPa) = 27.67139 32.34408 30.00773
#
# Velocity S-wave (km/s) = 3.52512 3.81115 3.67092
# Velocity P-wave (km/s) = 6.37023 6.89369 6.63712
#
# Compressibility (1/GPa) = 0.01870262
#
# Stress axis : x y z
#
# Youngs Moduli (GPa) = 105.83505 73.81836 60.49082
#
# Poissons Ratio (x) = 0.29149 0.04279
# Poissons Ratio (y) = 0.41791 0.34819
# Poissons Ratio (z) = 0.07487 0.42490
#
# Static dielectric constant tensor:
#      x y z
#    x 4.374800 0.467040 -1.669370 
#    y 0.467040 4.788410 -2.609040 
#    z -1.669370 -2.609040 14.901460 
# 
# 
# High freq. dielectric constant tensor:
#      x y z
#    x 1.875470 0.008580 -0.005840 
#    y 0.008580 1.876470 0.004330 
#    z -0.005840 0.004330 1.871920 
# 
# From -- ./inp_files/37235.got.cif
#   From: 2010.06.25/outbox.cif.g09.slc.cpg/sg2_19_cif.got.tgz:37235.got - 2010.06.27 13:26:56.
