data_PCOD8010768
_publ_section_title
;
Structure prediction by ZEFSAII (Michael W. Deem and Ramdas Pophale) SiO2 
 PCOD8010768
Probable space group: P -1
;
_chemical_formula_sum "Si O2"
_cell_formula_units_Z 16
_cell_length_a 29.702808
_cell_length_b 5.305048
_cell_length_c 9.276616
_cell_angle_alpha 95.005777
_cell_angle_beta 143.128586
_cell_angle_gamma 104.263089
_cell_volume 741.497120
_symmetry_space_group_name_H-M "P -1"
_symmetry_group_IT_number 2
_symmetry_cell_setting 'triclinic'
loop_
_space_group_symop_operation_xyz
x,y,z
-x,-y,-z
loop_
_atom_site_type_symbol
_atom_site_label
_atom_site_fract_x
_atom_site_fract_y
_atom_site_fract_z
Si Si1 0.553711 0.917546 0.738911
Si Si2 0.792966 0.416281 0.742518
Si Si3 0.690735 0.743406 0.551049
Si Si4 0.118744 0.455966 0.314427
Si Si5 0.014688 0.288405 0.625770
Si Si6 0.076419 0.901213 0.332229
Si Si7 0.411655 0.275354 0.452506
Si Si8 0.539884 0.210937 0.975535
O O1 0.488615 0.605361 0.630176
O O2 0.621616 0.903074 0.796963
O O3 0.500000 0.000000 0.500000
O O4 0.595513 0.139504 0.995882
O O5 0.755829 0.619068 0.710695
O O6 0.806677 0.464544 0.609205
O O7 0.730369 0.071769 0.605643
O O8 0.886958 0.520814 0.055154
O O9 0.667885 0.738174 0.662529
O O10 0.605166 0.540986 0.221044
O O11 0.136088 0.770368 0.430037
O O12 0.129061 0.255789 0.452164
O O13 0.018735 0.262222 0.994082
O O14 0.000000 0.500000 0.500000
O O15 0.937742 0.162588 0.539405
O O16 0.000000 0.000000 0.500000
O O17 0.454343 0.152928 0.667325
O O18 0.500000 0.000000 0.000000
#
# Coordination Sequence:
#
# PCOD8010768 Si02
#       8
#     2   2   2   2   2   2   2   2
#     4   9  20  37  62  89 122 161 231 265 307 367
#     4  11  25  40  61  96 126 165 201 260 337 388
#     4  12  24  38  65  92 137 166 207 269 333 383
#     4   9  17  34  56  85 116 143 194 243 302 367
#     4  11  22  40  67  91 121 162 218 260 302 381
#     4   9  17  31  61  87 108 147 193 253 295 341
#     4  10  21  38  63  92 123 174 217 262 316 378
#     4  11  21  37  64  97 123 165 230 272 307 375
#
# _framework density 21.577964999999999
#
# number of rings (size 3 to 8) (size 9 to 14) (size 15 to 20)
#    0.000    1.750    1.250    3.375    3.500    4.000 
#    0.000    0.000   11.000    1.500    0.000    0.000 
#    0.000    0.000    0.000    0.000    0.000    0.000 
#
# Total GULP energy -198228.018740 kJ/mol
# GULP energy per Si atom -12389.251171 kJ/mol
# Density = 2.152885 g / cm^3
# Si number density = 21.577965 Si / 1000 Ang^3
#
#
#
# Elastic Constant Matrix: (Units=GPa)
#
#
# Indices 1 2 3 4 5 6 
#
# 1 213.4004 74.0617 30.7471 -7.2636 -16.7062 3.1017
# 2 74.0617 157.9809 11.2991 -14.8504 -9.8279 11.1841
# 3 30.7471 11.2991 26.4751 -0.5631 -7.9243 11.7076
# 4 -7.2636 -14.8504 -0.5631 32.9433 -3.1283 -3.4044
# 5 -16.7062 -9.8279 -7.9243 -3.1283 32.9302 -3.5346
# 6 3.1017 11.1841 11.7076 -3.4044 -3.5346 40.7904
#
#
#
# Elastic Compliance Matrix: (Units=1/GPa)
#
#
# Indices 1 2 3 4 5 6 
#
# 1 0.006769 -0.002697 -0.007464 0.000518 0.001152 0.002510
# 2 -0.002697 0.008020 0.001027 0.002967 0.001348 -0.001924
# 3 -0.007464 0.001027 0.054970 -0.001016 0.008054 -0.014878
# 4 0.000518 0.002967 -0.001016 0.032454 0.004257 0.002516
# 5 0.001152 0.001348 0.008054 0.004257 0.033751 0.000511
# 6 0.002510 -0.001924 -0.014878 0.002516 0.000511 0.029377
#
#
# Mechanical properties :
#
#
# Convention : Reuss Voigt Hill
#
# Bulk Modulus (GPa) = 19.42132 70.00802 44.71467
# Shear Modulus (GPa) = 24.90377 40.11603 32.50990
#
# Velocity S-wave (km/s) = 3.40093 4.31643 3.88574
# Velocity P-wave (km/s) = 4.94387 7.57342 6.39526
#
# Compressibility (1/GPa) = 0.05148981
#
# Stress axis : x y z
#
# Youngs Moduli (GPa) = 147.73908 124.69369 18.19159
#
# Poissons Ratio (x) = 0.33626 0.13579
# Poissons Ratio (y) = 0.39841 -0.01867
# Poissons Ratio (z) = 1.10277 -0.12800
#
# Static dielectric constant tensor:
#      x y z
#    x 4.650260 -0.143420 -0.330930 
#    y -0.143420 4.056090 0.042140 
#    z -0.330930 0.042140 3.541860 
# 
# 
# High freq. dielectric constant tensor:
#      x y z
#    x 1.872730 -0.001410 -0.016030 
#    y -0.001410 1.869350 -0.006820 
#    z -0.016030 -0.006820 1.796710 
# 
# From -- ./inp_files/141140.got.cif
#   From: 2010.06.25/outbox.cif.g09.slc.cpg/sg2_71_cif.got.tgz:141140.got - 2010.06.27 13:26:56.
