data_PCOD8010438
_publ_section_title
;
Structure prediction by ZEFSAII (Michael W. Deem and Ramdas Pophale) SiO2 
 PCOD8010438
Probable space group: P -1
;
_chemical_formula_sum "Si O2"
_cell_formula_units_Z 14
_cell_length_a 9.741522
_cell_length_b 12.285040
_cell_length_c 8.592046
_cell_angle_alpha 53.787236
_cell_angle_beta 53.566034
_cell_angle_gamma 78.119384
_cell_volume 650.603738
_symmetry_space_group_name_H-M "P -1"
_symmetry_group_IT_number 2
_symmetry_cell_setting 'triclinic'
loop_
_space_group_symop_operation_xyz
x,y,z
-x,-y,-z
loop_
_atom_site_type_symbol
_atom_site_label
_atom_site_fract_x
_atom_site_fract_y
_atom_site_fract_z
Si Si1 0.837546 0.176948 0.322085
Si Si2 0.491727 0.202798 0.417114
Si Si3 0.115191 0.054741 0.730062
Si Si4 0.001623 0.571089 0.204225
Si Si5 0.685125 0.316611 0.884811
Si Si6 0.080499 0.749797 0.458145
Si Si7 0.604896 0.547240 0.548270
O O1 0.628370 0.135597 0.475877
O O2 0.876947 0.162852 0.487519
O O3 0.924431 0.068094 0.264913
O O4 0.908766 0.333578 0.079029
O O5 0.314580 0.087777 0.623870
O O6 0.473109 0.338131 0.409111
O O7 0.561581 0.233214 0.168625
O O8 0.071452 0.194688 0.574173
O O9 0.000000 0.000000 0.000000
O O10 0.985241 0.410221 0.313360
O O11 0.811453 0.603949 0.331027
O O12 0.124968 0.603900 0.244958
O O13 0.742211 0.222383 0.789593
O O14 0.576974 0.418619 0.793784
O O15 0.500000 0.500000 0.500000
#
# Coordination Sequence:
#
# PCOD8010438 Si02
#       7
#     2   2   2   2   2   2   2
#     4  11  24  41  63  94 123 159 204 254 304 356
#     4  11  22  40  62  87 121 163 203 247 302 367
#     4  12  25  44  64  87 121 166 207 247 302 371
#     4  10  21  41  65  90 123 163 203 247 303 364
#     4  10  21  38  60  89 121 162 202 244 301 366
#     4  11  22  41  64  91 124 160 202 253 304 355
#     4  11  21  35  59  96 127 155 199 256 304 351
#
# _framework density 21.518474000000001
#
# number of rings (size 3 to 8) (size 9 to 14) (size 15 to 20)
#    0.000    1.143    0.000    9.429    0.000    3.429 
#    0.000    5.714    0.000    0.000    0.000    0.000 
#    0.000    0.000    0.000    0.000    0.000    0.000 
#
# Total GULP energy -173622.477383 kJ/mol
# GULP energy per Si atom -12401.605527 kJ/mol
# Density = 2.146950 g / cm^3
# Si number density = 21.518474 Si / 1000 Ang^3
#
#
#
# Elastic Constant Matrix: (Units=GPa)
#
#
# Indices 1 2 3 4 5 6 
#
# 1 91.0783 23.1611 40.2912 9.5657 5.0111 3.0786
# 2 23.1611 129.6115 38.3651 22.6879 5.6472 6.8957
# 3 40.2912 38.3651 106.8023 10.6042 -17.0367 12.5135
# 4 9.5657 22.6879 10.6042 30.0375 1.4593 9.1056
# 5 5.0111 5.6472 -17.0367 1.4593 26.3701 4.5308
# 6 3.0786 6.8957 12.5135 9.1056 4.5308 38.0494
#
#
#
# Elastic Compliance Matrix: (Units=1/GPa)
#
#
# Indices 1 2 3 4 5 6 
#
# 1 0.014543 0.000050 -0.006715 -0.002713 -0.007401 0.002553
# 2 0.000050 0.010132 -0.003932 -0.006531 -0.004627 0.001567
# 3 -0.006715 -0.003932 0.016080 0.000524 0.013468 -0.005761
# 4 -0.002713 -0.006531 0.000524 0.041524 0.001481 -0.008883
# 5 -0.007401 -0.004627 0.013468 0.001481 0.050547 -0.009365
# 6 0.002553 0.001567 -0.005761 -0.008883 -0.009365 0.030927
#
#
# Mechanical properties :
#
#
# Convention : Reuss Voigt Hill
#
# Bulk Modulus (GPa) = 51.11850 59.01409 55.06630
# Shear Modulus (GPa) = 26.11429 33.93637 30.02533
#
# Velocity S-wave (km/s) = 3.48742 3.97556 3.73946
# Velocity P-wave (km/s) = 6.32640 6.96834 6.65512
#
# Compressibility (1/GPa) = 0.01956239
#
# Stress axis : x y z
#
# Youngs Moduli (GPa) = 68.76095 98.70134 62.18936
#
# Poissons Ratio (x) = -0.00497 0.41759
# Poissons Ratio (y) = -0.00346 0.24451
# Poissons Ratio (z) = 0.46172 0.38806
#
# Static dielectric constant tensor:
#      x y z
#    x 4.068340 -0.079150 -0.013860 
#    y -0.079150 3.910780 0.172860 
#    z -0.013860 0.172860 3.740560 
# 
# 
# High freq. dielectric constant tensor:
#      x y z
#    x 1.852220 -0.004970 0.005090 
#    y -0.004970 1.852730 0.015270 
#    z 0.005090 0.015270 1.837490 
# 
# From -- ./inp_files/160124.got.cif
#   From: 2010.06.25/outbox.cif.g09.slc.cpg/sg2_81_cif.got.tgz:160124.got - 2010.06.27 13:26:56.
