data_PCOD8010653
_publ_section_title
;
Structure prediction by ZEFSAII (Michael W. Deem and Ramdas Pophale) SiO2 
 PCOD8010653
Probable space group: P -1
;
_chemical_formula_sum "Si O2"
_cell_formula_units_Z 16
_cell_length_a 11.361532
_cell_length_b 8.827624
_cell_length_c 11.929764
_cell_angle_alpha 132.067274
_cell_angle_beta 86.003687
_cell_angle_gamma 66.531370
_cell_volume 708.310872
_symmetry_space_group_name_H-M "P -1"
_symmetry_group_IT_number 2
_symmetry_cell_setting 'triclinic'
loop_
_space_group_symop_operation_xyz
x,y,z
-x,-y,-z
loop_
_atom_site_type_symbol
_atom_site_label
_atom_site_fract_x
_atom_site_fract_y
_atom_site_fract_z
Si Si1 0.370013 0.549821 0.287148
Si Si2 0.086574 0.702437 0.509688
Si Si3 0.378678 0.343197 0.943834
Si Si4 0.119815 0.460200 0.610577
Si Si5 0.403878 0.962345 0.902986
Si Si6 0.591374 0.062600 0.597576
Si Si7 0.073454 0.307823 0.069350
Si Si8 0.051887 0.735690 0.158585
O O1 0.225071 0.588257 0.362013
O O2 0.510457 0.342965 0.254151
O O3 0.350785 0.814223 0.424792
O O4 0.400894 0.450996 0.108230
O O5 0.138000 0.612826 0.589873
O O6 0.001936 0.586512 0.425720
O O7 0.981554 0.008867 0.660169
O O8 0.496315 0.271382 0.804703
O O9 0.398171 0.081423 0.841956
O O10 0.217585 0.557193 0.009429
O O11 0.057225 0.637133 0.813541
O O12 0.276425 0.194235 0.482415
O O13 0.500000 0.000000 0.000000
O O14 0.232143 0.108470 0.020658
O O15 0.500000 0.000000 0.500000
O O16 0.042994 0.579588 0.181658
O O17 0.064874 0.192161 0.896125
#
# Coordination Sequence:
#
# PCOD8010653 Si02
#       8
#     2   2   2   2   2   2   2   2
#     4  11  23  41  66  90 121 163 208 249 302 368
#     4  11  24  41  65  93 120 161 207 257 304 356
#     4  10  21  40  63  88 120 160 202 251 303 362
#     4  11  24  42  63  91 127 159 205 257 304 358
#     4   9  19  36  62  90 120 157 204 250 297 361
#     4  12  26  41  61  92 129 162 200 253 306 362
#     4  10  21  38  62  91 123 162 200 252 306 361
#     4  10  21  38  62  91 123 159 205 248 305 365
#
# _framework density 22.588951000000002
#
# number of rings (size 3 to 8) (size 9 to 14) (size 15 to 20)
#    0.000    1.500    0.000    5.625    0.000    9.000 
#    0.000    1.875    0.000    0.000    0.000    0.000 
#    0.000    0.000    0.000    0.000    0.000    0.000 
#
# Total GULP energy -198365.832193 kJ/mol
# GULP energy per Si atom -12397.864512 kJ/mol
# Density = 2.253754 g / cm^3
# Si number density = 22.588951 Si / 1000 Ang^3
#
#
#
# Elastic Constant Matrix: (Units=GPa)
#
#
# Indices 1 2 3 4 5 6 
#
# 1 86.0831 36.0216 30.6419 -1.0041 -15.8056 -5.4390
# 2 36.0216 99.1312 31.6354 14.6194 -7.8306 -12.5406
# 3 30.6419 31.6354 75.2037 -2.3260 -22.6295 -4.9230
# 4 -1.0041 14.6194 -2.3260 34.4719 2.2476 -8.8158
# 5 -15.8056 -7.8306 -22.6295 2.2476 36.0243 9.1711
# 6 -5.4390 -12.5406 -4.9230 -8.8158 9.1711 38.3885
#
#
#
# Elastic Compliance Matrix: (Units=1/GPa)
#
#
# Indices 1 2 3 4 5 6 
#
# 1 0.015346 -0.004572 -0.003178 0.001889 0.003668 -0.000169
# 2 -0.004572 0.014285 -0.004826 -0.005698 -0.002246 0.002628
# 3 -0.003178 -0.004826 0.019643 0.002261 0.010112 -0.001404
# 4 0.001889 -0.005698 0.002261 0.033642 -0.002900 0.007115
# 5 0.003668 -0.002246 0.010112 -0.002900 0.037594 -0.008564
# 6 -0.000169 0.002628 -0.001404 0.007115 -0.008564 0.030384
#
#
# Mechanical properties :
#
#
# Convention : Reuss Voigt Hill
#
# Bulk Modulus (GPa) = 41.45868 50.77953 46.11911
# Shear Modulus (GPa) = 27.16106 32.58488 29.87297
#
# Velocity S-wave (km/s) = 3.47133 3.80216 3.64051
# Velocity P-wave (km/s) = 5.87028 6.46559 6.17512
#
# Compressibility (1/GPa) = 0.02412040
#
# Stress axis : x y z
#
# Youngs Moduli (GPa) = 65.16291 70.00535 50.90807
#
# Poissons Ratio (x) = 0.32009 0.16180
# Poissons Ratio (y) = 0.29795 0.24569
# Poissons Ratio (z) = 0.20711 0.33785
#
# Static dielectric constant tensor:
#      x y z
#    x 13.415000 -10.412510 -4.198960 
#    y -10.412510 16.105910 4.718540 
#    z -4.198960 4.718540 5.654180 
# 
# 
# High freq. dielectric constant tensor:
#      x y z
#    x 1.883520 -0.002590 -0.011590 
#    y -0.002590 1.901220 0.008950 
#    z -0.011590 0.008950 1.878200 
# 
# From -- ./inp_files/420022.got.cif
#   From: 2010.06.25/outbox.cif.g09.slc.cpg/sg2_211_cif.got.tgz:420022.got - 2010.06.27 13:26:56.
