data_PCOD8010730
_publ_section_title
;
Structure prediction by ZEFSAII (Michael W. Deem and Ramdas Pophale) SiO2 
 PCOD8010730
Probable space group: P -1
;
_chemical_formula_sum "Si O2"
_cell_formula_units_Z 16
_cell_length_a 24.192036
_cell_length_b 24.164168
_cell_length_c 11.290210
_cell_angle_alpha 35.423795
_cell_angle_beta 144.719976
_cell_angle_gamma 167.781463
_cell_volume 798.898608
_symmetry_space_group_name_H-M "P -1"
_symmetry_group_IT_number 2
_symmetry_cell_setting 'triclinic'
loop_
_space_group_symop_operation_xyz
x,y,z
-x,-y,-z
loop_
_atom_site_type_symbol
_atom_site_label
_atom_site_fract_x
_atom_site_fract_y
_atom_site_fract_z
Si Si1 0.796860 0.718767 0.261871
Si Si2 0.913135 0.626044 0.736001
Si Si3 0.765341 0.725416 0.919931
Si Si4 0.475317 0.019629 0.294472
Si Si5 0.461218 0.076831 0.806099
Si Si6 0.907198 0.581845 0.059194
Si Si7 0.560271 0.903662 0.532228
Si Si8 0.112680 0.360854 0.815511
O O1 0.845972 0.656238 0.490891
O O2 0.795136 0.718797 0.117628
O O3 0.522415 0.500257 0.216540
O O4 0.025414 0.997941 0.227811
O O5 0.722915 0.362951 0.824150
O O6 0.873140 0.614928 0.824459
O O7 0.212154 0.869505 0.814127
O O8 0.813221 0.680261 0.998251
O O9 0.513294 0.971968 0.348594
O O10 0.192857 0.802498 0.166204
O O11 0.500000 0.000000 0.500000
O O12 0.699246 0.304465 0.169894
O O13 0.413000 0.084287 0.582629
O O14 0.500000 0.000000 0.000000
O O15 0.868667 0.605512 0.069987
O O16 0.311474 0.613615 0.651673
O O17 0.819181 0.107357 0.696999
#
# Coordination Sequence:
#
# PCOD8010730 Si02
#       8
#     2   2   2   2   2   2   2   2
#     4  10  21  40  62  88 115 159 197 246 312 363
#     4  12  25  43  64  88 130 168 202 240 310 375
#     4  10  21  38  63  88 118 146 203 262 300 356
#     4  12  22  41  59  90 124 165 210 246 294 356
#     4  12  25  42  60  93 126 164 204 251 300 357
#     4  12  24  41  61  90 126 166 205 249 297 368
#     4  12  23  37  64  88 123 159 208 256 305 353
#     4  12  23  39  61  95 119 155 204 261 308 348
#
# _framework density 20.027571999999999
#
# number of rings (size 3 to 8) (size 9 to 14) (size 15 to 20)
#    0.000    0.500    2.500    7.500    0.000    2.000 
#    0.000    1.250    0.000    0.000    0.000    0.000 
#    0.000    0.000    0.000    0.000    0.000    0.000 
#
# Total GULP energy -198481.450527 kJ/mol
# GULP energy per Si atom -12405.090658 kJ/mol
# Density = 1.998199 g / cm^3
# Si number density = 20.027572 Si / 1000 Ang^3
#
#
#
# Elastic Constant Matrix: (Units=GPa)
#
#
# Indices 1 2 3 4 5 6 
#
# 1 115.7112 29.7257 32.5462 -8.2250 5.7058 0.2687
# 2 29.7257 129.1729 30.7315 -16.0733 8.9760 15.1095
# 3 32.5462 30.7315 88.9010 -12.6937 8.2798 4.3643
# 4 -8.2250 -16.0733 -12.6937 45.9223 1.2865 2.6071
# 5 5.7058 8.9760 8.2798 1.2865 45.6180 6.4486
# 6 0.2687 15.1095 4.3643 2.6071 6.4486 26.6650
#
#
#
# Elastic Compliance Matrix: (Units=1/GPa)
#
#
# Indices 1 2 3 4 5 6 
#
# 1 0.009974 -0.001662 -0.003052 0.000295 -0.000580 0.001452
# 2 -0.001662 0.009606 -0.001990 0.002829 -0.000663 -0.005217
# 3 -0.003052 -0.001990 0.013627 0.002622 -0.001642 -0.000931
# 4 0.000295 0.002829 0.002622 0.023808 -0.001164 -0.004082
# 5 -0.000580 -0.000663 -0.001642 -0.001164 0.023138 -0.004831
# 6 0.001452 -0.005217 -0.000931 -0.004082 -0.004831 0.042164
#
#
# Mechanical properties :
#
#
# Convention : Reuss Voigt Hill
#
# Bulk Modulus (GPa) = 50.51021 57.75466 54.13244
# Shear Modulus (GPa) = 35.13106 39.69318 37.41212
#
# Velocity S-wave (km/s) = 4.19278 4.45671 4.32676
# Velocity P-wave (km/s) = 6.97957 7.44199 7.21448
#
# Compressibility (1/GPa) = 0.01979798
#
# Stress axis : x y z
#
# Youngs Moduli (GPa) = 100.26284 104.10301 73.38435
#
# Poissons Ratio (x) = 0.17302 0.22397
# Poissons Ratio (y) = 0.16663 0.14606
# Poissons Ratio (z) = 0.30600 0.20720
#
# Static dielectric constant tensor:
#      x y z
#    x 3.826930 0.008610 -0.073940 
#    y 0.008610 3.811590 -0.059580 
#    z -0.073940 -0.059580 3.485560 
# 
# 
# High freq. dielectric constant tensor:
#      x y z
#    x 1.785010 0.002150 -0.003140 
#    y 0.002150 1.807010 -0.002070 
#    z -0.003140 -0.002070 1.777820 
# 
# From -- ./inp_files/452715.got.cif
#   From: 2010.06.25/outbox.cif.g09.slc.cpg/sg2_227_cif.got.tgz:452715.got - 2010.06.27 13:26:56.
