data_PCOD8010182
_publ_section_title
;
Structure prediction by ZEFSAII (Michael W. Deem and Ramdas Pophale) SiO2 
 PCOD8010182
Probable space group: P -1
;
_chemical_formula_sum "Si O2"
_cell_formula_units_Z 14
_cell_length_a 9.683080
_cell_length_b 11.865383
_cell_length_c 8.635930
_cell_angle_alpha 80.898130
_cell_angle_beta 52.728289
_cell_angle_gamma 54.146366
_cell_volume 609.535013
_symmetry_space_group_name_H-M "P -1"
_symmetry_group_IT_number 2
_symmetry_cell_setting 'triclinic'
loop_
_space_group_symop_operation_xyz
x,y,z
-x,-y,-z
loop_
_atom_site_type_symbol
_atom_site_label
_atom_site_fract_x
_atom_site_fract_y
_atom_site_fract_z
Si Si1 0.877551 0.809684 0.804223
Si Si2 0.543621 0.156636 0.622030
Si Si3 0.727063 0.353478 0.941300
Si Si4 0.951068 0.637298 0.086318
Si Si5 0.833798 0.172219 0.608169
Si Si6 0.508911 0.922303 0.829623
Si Si7 0.249136 0.862424 0.819976
O O1 0.092638 0.758184 0.574306
O O2 0.724383 0.787458 0.808028
O O3 0.700682 0.982396 0.930891
O O4 0.963725 0.726225 0.924746
O O5 0.587369 0.225142 0.722957
O O6 0.584301 0.009621 0.676939
O O7 0.724938 0.128432 0.382352
O O8 0.296794 0.270241 0.697696
O O9 0.888564 0.391681 0.874688
O O10 0.836427 0.224766 0.766843
O O11 0.500000 0.500000 0.000000
O O12 0.694321 0.289248 0.130462
O O13 0.000000 0.500000 0.000000
O O14 0.000000 0.000000 0.500000
O O15 0.441935 0.861790 0.758463
O O16 0.000000 0.000000 0.000000
#
# Coordination Sequence:
#
# PCOD8010182 Si02
#       7
#     2   2   2   2   2   2   2
#     4  10  22  39  67  97 135 179 230 287 348 408
#     4  11  23  41  70 101 137 180 234 294 351 412
#     4  12  29  48  70 105 148 189 236 293 362 429
#     4  11  26  48  70  95 138 189 240 288 352 428
#     4  12  23  42  72 106 142 186 234 288 353 423
#     4  10  21  37  68 102 137 173 234 289 353 402
#     4  12  25  42  70 103 146 185 239 293 353 420
#
# _framework density 22.968328
#
# number of rings (size 3 to 8) (size 9 to 14) (size 15 to 20)
#    0.000    0.857    1.429    6.429    8.000    1.143 
#    0.000    4.286    0.000    0.000    0.000    0.000 
#    0.000    0.000    0.000    0.000    0.000    0.000 
#
# Total GULP energy -173486.833536 kJ/mol
# GULP energy per Si atom -12391.916681 kJ/mol
# Density = 2.291605 g / cm^3
# Si number density = 22.968328 Si / 1000 Ang^3
#
#
#
# Elastic Constant Matrix: (Units=GPa)
#
#
# Indices 1 2 3 4 5 6 
#
# 1 207.6861 39.4534 23.8263 12.0874 -10.4584 4.1090
# 2 39.4534 77.4761 21.8108 9.7495 -4.0324 -6.8402
# 3 23.8263 21.8108 105.9860 -7.3059 -0.6277 2.0360
# 4 12.0874 9.7495 -7.3059 23.4200 2.8361 1.1615
# 5 -10.4584 -4.0324 -0.6277 2.8361 32.5913 3.7484
# 6 4.1090 -6.8402 2.0360 1.1615 3.7484 39.7119
#
#
#
# Elastic Compliance Matrix: (Units=1/GPa)
#
#
# Indices 1 2 3 4 5 6 
#
# 1 0.005608 -0.002289 -0.000924 -0.002400 0.001826 -0.001029
# 2 -0.002289 0.016264 -0.003368 -0.006977 0.001443 0.003279
# 3 -0.000924 -0.003368 0.010723 0.005382 -0.000847 -0.001112
# 4 -0.002400 -0.006977 0.005382 0.049301 -0.005573 -0.002145
# 5 0.001826 0.001443 -0.000847 -0.005573 0.032235 -0.002777
# 6 -0.001029 0.003279 -0.001112 -0.002145 -0.002777 0.026234
#
#
# Mechanical properties :
#
#
# Convention : Reuss Voigt Hill
#
# Bulk Modulus (GPa) = 51.46115 62.36992 56.91553
# Shear Modulus (GPa) = 31.24885 39.54849 35.39867
#
# Velocity S-wave (km/s) = 3.69252 4.15404 3.93006
# Velocity P-wave (km/s) = 6.37444 7.08674 6.74001
#
# Compressibility (1/GPa) = 0.01943214
#
# Stress axis : x y z
#
# Youngs Moduli (GPa) = 178.32065 61.48721 93.25449
#
# Poissons Ratio (x) = 0.14077 0.08620
# Poissons Ratio (y) = 0.40824 0.31404
# Poissons Ratio (z) = 0.16484 0.20706
#
# Static dielectric constant tensor:
#      x y z
#    x 4.765720 -0.133660 -0.086900 
#    y -0.133660 3.826880 -0.163250 
#    z -0.086900 -0.163250 4.162950 
# 
# 
# High freq. dielectric constant tensor:
#      x y z
#    x 1.943380 -0.008210 -0.006970 
#    y -0.008210 1.866370 -0.019700 
#    z -0.006970 -0.019700 1.904700 
# 
# From -- ./inp_files/177572.got.cif
#   From: 2010.06.25/outbox.cif.g09.slc.cpg/sg2_89_cif.got.tgz:177572.got - 2010.06.27 13:26:56.
