data_PCOD8010606
_publ_section_title
;
Structure prediction by ZEFSAII (Michael W. Deem and Ramdas Pophale) SiO2 
 PCOD8010606
Probable space group: P -1
;
_chemical_formula_sum "Si O2"
_cell_formula_units_Z 16
_cell_length_a 20.211303
_cell_length_b 8.275916
_cell_length_c 8.838005
_cell_angle_alpha 55.267483
_cell_angle_beta 42.010265
_cell_angle_gamma 74.701199
_cell_volume 778.159305
_symmetry_space_group_name_H-M "P -1"
_symmetry_group_IT_number 2
_symmetry_cell_setting 'triclinic'
loop_
_space_group_symop_operation_xyz
x,y,z
-x,-y,-z
loop_
_atom_site_type_symbol
_atom_site_label
_atom_site_fract_x
_atom_site_fract_y
_atom_site_fract_z
Si Si1 0.361632 0.448822 0.654617
Si Si2 0.475758 0.787230 0.481563
Si Si3 0.834030 0.163886 0.616687
Si Si4 0.075054 0.227048 0.764948
Si Si5 0.238022 0.486759 0.551680
Si Si6 0.175578 0.261078 0.257255
Si Si7 0.988072 0.559695 0.658468
Si Si8 0.631845 0.194458 0.044350
O O1 0.423160 0.683808 0.470075
O O2 0.442124 0.326661 0.537816
O O3 0.282284 0.438830 0.659492
O O4 0.297020 0.347760 0.968023
O O5 0.388310 0.760355 0.772235
O O6 0.531025 0.029595 0.231138
O O7 0.826593 0.345103 0.415326
O O8 0.921129 0.240926 0.554011
O O9 0.860440 0.983391 0.576398
O O10 0.725580 0.089359 0.932986
O O11 0.158736 0.273933 0.734896
O O12 0.147277 0.298845 0.456583
O O13 0.997085 0.366653 0.845978
O O14 0.000000 0.000000 0.000000
O O15 0.335763 0.589642 0.218624
O O16 0.118188 0.380100 0.176137
O O17 0.000000 0.500000 0.500000
#
# Coordination Sequence:
#
# PCOD8010606 Si02
#       8
#     2   2   2   2   2   2   2   2
#     4  11  22  36  59  94 116 153 206 243 299 347
#     4  10  21  38  62  86 118 157 200 251 292 354
#     4   9  19  38  59  84 118 156 197 242 295 346
#     4  10  22  41  59  86 123 161 198 237 300 357
#     4   9  21  39  59  85 125 153 195 245 295 358
#     4  11  21  38  62  87 119 158 196 246 290 353
#     4   9  20  35  58  86 112 156 196 237 293 356
#     4   9  19  41  61  81 118 161 193 244 301 344
#
# _framework density 20.561343000000001
#
# number of rings (size 3 to 8) (size 9 to 14) (size 15 to 20)
#    0.750    1.500    1.250    1.125    1.750    5.000 
#    0.000    5.000    0.000    0.000    0.000    0.000 
#    0.000    0.000    0.000    0.000    0.000    0.000 
#
# Total GULP energy -198218.659669 kJ/mol
# GULP energy per Si atom -12388.666229 kJ/mol
# Density = 2.051454 g / cm^3
# Si number density = 20.561343 Si / 1000 Ang^3
#
#
#
# Elastic Constant Matrix: (Units=GPa)
#
#
# Indices 1 2 3 4 5 6 
#
# 1 113.1061 39.0466 12.6912 -5.9344 -10.6960 14.9871
# 2 39.0466 94.3904 14.7932 -6.6809 -9.9794 5.3245
# 3 12.6912 14.7932 65.1598 -7.1311 -6.6226 3.2742
# 4 -5.9344 -6.6809 -7.1311 40.3130 2.6330 -14.2775
# 5 -10.6960 -9.9794 -6.6226 2.6330 17.5876 -4.2532
# 6 14.9871 5.3245 3.2742 -14.2775 -4.2532 30.4790
#
#
#
# Elastic Compliance Matrix: (Units=1/GPa)
#
#
# Indices 1 2 3 4 5 6 
#
# 1 0.011183 -0.003959 -0.000825 -0.001054 0.003251 -0.004759
# 2 -0.003959 0.012990 -0.001634 0.001389 0.004410 0.001119
# 3 -0.000825 -0.001634 0.016585 0.002496 0.004617 0.000723
# 4 -0.001054 0.001389 0.002496 0.030363 -0.000017 0.014228
# 5 0.003251 0.004410 0.004617 -0.000017 0.064563 0.006136
# 6 -0.004759 0.001119 0.000723 0.014228 0.006136 0.042397
#
#
# Mechanical properties :
#
#
# Convention : Reuss Voigt Hill
#
# Bulk Modulus (GPa) = 35.81517 45.07980 40.44748
# Shear Modulus (GPa) = 24.97202 31.41761 28.19481
#
# Velocity S-wave (km/s) = 3.48877 3.91320 3.70706
# Velocity P-wave (km/s) = 5.80389 6.51073 6.16745
#
# Compressibility (1/GPa) = 0.02792113
#
# Stress axis : x y z
#
# Youngs Moduli (GPa) = 89.41842 76.98424 60.29673
#
# Poissons Ratio (x) = 0.30481 0.04975
# Poissons Ratio (y) = 0.35404 0.09852
# Poissons Ratio (z) = 0.07378 0.12578
#
# Static dielectric constant tensor:
#      x y z
#    x 3.559060 -0.047230 -0.301280 
#    y -0.047230 3.866720 0.032700 
#    z -0.301280 0.032700 3.555060 
# 
# 
# High freq. dielectric constant tensor:
#      x y z
#    x 1.781800 0.011910 -0.023740 
#    y 0.011910 1.812930 0.000430 
#    z -0.023740 0.000430 1.795430 
# 
# From -- ./inp_files/325744.got.cif
#   From: 2010.06.25/outbox.cif.g09.slc.cpg/sg2_163_cif.got.tgz:325744.got - 2010.06.27 13:26:56.
