data_PCOD8010647
_publ_section_title
;
Structure prediction by ZEFSAII (Michael W. Deem and Ramdas Pophale) SiO2 
 PCOD8010647
Probable space group: P -1
;
_chemical_formula_sum "Si O2"
_cell_formula_units_Z 14
_cell_length_a 8.792384
_cell_length_b 10.792241
_cell_length_c 8.472870
_cell_angle_alpha 70.434083
_cell_angle_beta 123.601822
_cell_angle_gamma 99.528833
_cell_volume 630.775404
_symmetry_space_group_name_H-M "P -1"
_symmetry_group_IT_number 2
_symmetry_cell_setting 'triclinic'
loop_
_space_group_symop_operation_xyz
x,y,z
-x,-y,-z
loop_
_atom_site_type_symbol
_atom_site_label
_atom_site_fract_x
_atom_site_fract_y
_atom_site_fract_z
Si Si1 0.881513 0.771070 0.300143
Si Si2 0.855018 0.037002 0.032379
Si Si3 0.387196 0.304861 0.276127
Si Si4 0.058685 0.222548 0.300030
Si Si5 0.243698 0.733207 0.320385
Si Si6 0.448076 0.358012 0.960348
Si Si7 0.225250 0.592471 0.063178
O O1 0.746128 0.649290 0.242312
O O2 0.915461 0.795992 0.492295
O O3 0.078069 0.748645 0.341718
O O4 0.776404 0.901727 0.113350
O O5 0.937417 0.111331 0.199395
O O6 0.715284 0.134241 0.814615
O O7 0.000000 0.000000 0.000000
O O8 0.575667 0.319276 0.468232
O O9 0.273338 0.440743 0.134147
O O10 0.255819 0.207393 0.333856
O O11 0.434076 0.257783 0.144413
O O12 0.960734 0.366039 0.153809
O O13 0.192154 0.620111 0.216672
O O14 0.609913 0.318416 0.949426
O O15 0.500000 0.500000 0.000000
#
# Coordination Sequence:
#
# PCOD8010647 Si02
#       7
#     2   2   2   2   2   2   2
#     4  11  22  41  62  87 123 162 198 249 301 353
#     4   9  20  40  62  88 120 157 201 247 296 356
#     4  11  21  38  59  88 122 158 198 249 299 355
#     4  11  22  38  63  92 121 160 200 243 300 360
#     4  10  21  38  62  91 119 158 203 246 300 358
#     4  10  22  40  61  87 120 158 204 250 296 354
#     4  10  21  39  58  87 122 157 201 250 297 356
#
# _framework density 22.194906
#
# number of rings (size 3 to 8) (size 9 to 14) (size 15 to 20)
#    0.000    1.714    0.000    5.571    0.000    2.286 
#    0.000   20.714    0.000    0.000    0.000    0.000 
#    0.000    0.000    0.000    0.000    0.000    0.000 
#
# Total GULP energy -173443.968900 kJ/mol
# GULP energy per Si atom -12388.854921 kJ/mol
# Density = 2.214439 g / cm^3
# Si number density = 22.194906 Si / 1000 Ang^3
#
#
#
# Elastic Constant Matrix: (Units=GPa)
#
#
# Indices 1 2 3 4 5 6 
#
# 1 122.3353 15.5109 37.0337 7.2297 -18.0980 17.9393
# 2 15.5109 65.9152 25.9877 10.6829 2.6725 -1.2354
# 3 37.0337 25.9877 111.1249 8.8391 -16.1738 4.9847
# 4 7.2297 10.6829 8.8391 19.5103 -4.0002 -0.3949
# 5 -18.0980 2.6725 -16.1738 -4.0002 44.4136 7.5571
# 6 17.9393 -1.2354 4.9847 -0.3949 7.5571 25.7557
#
#
#
# Elastic Compliance Matrix: (Units=1/GPa)
#
#
# Indices 1 2 3 4 5 6 
#
# 1 0.011255 -0.002069 -0.001966 -0.001216 0.005446 -0.009174
# 2 -0.002069 0.018919 -0.003963 -0.008725 -0.004966 0.004439
# 3 -0.001966 -0.003963 0.011351 -0.001508 0.003802 -0.002156
# 4 -0.001216 -0.008725 -0.001508 0.058130 0.004675 0.000240
# 5 0.005446 -0.004966 0.003802 0.004675 0.029091 -0.013231
# 6 -0.009174 0.004439 -0.002156 0.000240 -0.013231 0.049733
#
#
# Mechanical properties :
#
#
# Convention : Reuss Voigt Hill
#
# Bulk Modulus (GPa) = 39.17100 50.71556 44.94328
# Shear Modulus (GPa) = 24.63267 32.65880 28.64574
#
# Velocity S-wave (km/s) = 3.33503 3.84012 3.59645
# Velocity P-wave (km/s) = 5.70236 6.52393 6.12693
#
# Compressibility (1/GPa) = 0.02552909
#
# Stress axis : x y z
#
# Youngs Moduli (GPa) = 88.85223 52.85736 88.09941
#
# Poissons Ratio (x) = 0.10936 0.17320
# Poissons Ratio (y) = 0.18384 0.34911
# Poissons Ratio (z) = 0.17468 0.20946
#
# Static dielectric constant tensor:
#      x y z
#    x 4.759910 0.080870 -0.250350 
#    y 0.080870 4.027890 -0.228160 
#    z -0.250350 -0.228160 4.097560 
# 
# 
# High freq. dielectric constant tensor:
#      x y z
#    x 1.887070 -0.001030 -0.018320 
#    y -0.001030 1.852090 0.004730 
#    z -0.018320 0.004730 1.876060 
# 
# From -- ./inp_files/177009.got.cif
#   From: 2010.06.25/outbox.cif.g09.slc.cpg/sg2_89_cif.got.tgz:177009.got - 2010.06.27 13:26:56.
