data_PCOD8010664
_publ_section_title
;
Structure prediction by ZEFSAII (Michael W. Deem and Ramdas Pophale) SiO2 
 PCOD8010664
Probable space group: P -1
;
_chemical_formula_sum "Si O2"
_cell_formula_units_Z 14
_cell_length_a 13.016332
_cell_length_b 6.602140
_cell_length_c 8.499925
_cell_angle_alpha 78.950979
_cell_angle_beta 64.134497
_cell_angle_gamma 65.216018
_cell_volume 596.698352
_symmetry_space_group_name_H-M "P -1"
_symmetry_group_IT_number 2
_symmetry_cell_setting 'triclinic'
loop_
_space_group_symop_operation_xyz
x,y,z
-x,-y,-z
loop_
_atom_site_type_symbol
_atom_site_label
_atom_site_fract_x
_atom_site_fract_y
_atom_site_fract_z
Si Si1 0.508049 0.096107 0.812105
Si Si2 0.705439 0.278554 0.724059
Si Si3 0.112472 0.948828 0.109492
Si Si4 0.039401 0.311980 0.867921
Si Si5 0.659852 0.486869 0.283956
Si Si6 0.885747 0.335044 0.343138
Si Si7 0.472000 0.305486 0.339015
O O1 0.512506 0.939767 0.684496
O O2 0.633056 0.143620 0.704181
O O3 0.382621 0.315283 0.844988
O O4 0.500000 0.000000 0.000000
O O5 0.821581 0.277491 0.545142
O O6 0.601811 0.528176 0.779233
O O7 0.755606 0.164299 0.875394
O O8 0.014023 0.127695 0.263465
O O9 0.130869 0.079052 0.921889
O O10 0.071104 0.743458 0.127311
O O11 0.098442 0.425028 0.679378
O O12 0.000000 0.500000 0.000000
O O13 0.806470 0.360000 0.229087
O O14 0.606369 0.304958 0.289076
O O15 0.612273 0.598898 0.467596
#
# Coordination Sequence:
#
# PCOD8010664 Si02
#       7
#     2   2   2   2   2   2   2
#     4  11  24  40  60  93 123 164 205 252 317 357
#     4  10  23  39  61  92 122 155 204 252 300 359
#     4  10  21  40  61  89 124 156 198 250 295 365
#     4   9  21  39  56  84 120 160 203 236 298 356
#     4   9  20  38  62  88 118 161 206 249 298 367
#     4  10  21  38  62  92 120 157 202 244 301 363
#     4   9  20  41  61  86 123 160 203 254 303 360
#
# _framework density 23.462443
#
# number of rings (size 3 to 8) (size 9 to 14) (size 15 to 20)
#    0.000    2.286    0.000    1.714    2.000    8.571 
#   10.286    0.000    0.000    0.000    0.000    0.000 
#    0.000    0.000    0.000    0.000    0.000    0.000 
#
# Total GULP energy -173464.367791 kJ/mol
# GULP energy per Si atom -12390.311985 kJ/mol
# Density = 2.340904 g / cm^3
# Si number density = 23.462443 Si / 1000 Ang^3
#
#
#
# Elastic Constant Matrix: (Units=GPa)
#
#
# Indices 1 2 3 4 5 6 
#
# 1 92.3137 40.3761 -7.8613 -10.8264 25.9349 2.8832
# 2 40.3761 90.5216 16.1287 -15.1127 -2.3550 33.8349
# 3 -7.8613 16.1287 50.6936 -16.8133 3.0096 8.3977
# 4 -10.8264 -15.1127 -16.8133 31.4170 -2.3059 3.2434
# 5 25.9349 -2.3550 3.0096 -2.3059 37.0010 -11.1566
# 6 2.8832 33.8349 8.3977 3.2434 -11.1566 44.5070
#
#
#
# Elastic Compliance Matrix: (Units=1/GPa)
#
#
# Indices 1 2 3 4 5 6 
#
# 1 0.021764 -0.011102 0.009792 0.006142 -0.016170 0.000682
# 2 -0.011102 0.024162 -0.004642 0.007354 0.005340 -0.015971
# 3 0.009792 -0.004642 0.030162 0.017200 -0.010559 -0.006697
# 4 0.006142 0.007354 0.017200 0.047687 -0.006595 -0.014362
# 5 -0.016170 0.005340 -0.010559 -0.006595 0.042173 0.010032
# 6 0.000682 -0.015971 -0.006697 -0.014362 0.010032 0.039391
#
#
# Mechanical properties :
#
#
# Convention : Reuss Voigt Hill
#
# Bulk Modulus (GPa) = 15.58005 36.75733 26.16869
# Shear Modulus (GPa) = 20.95210 34.91069 27.93140
#
# Velocity S-wave (km/s) = 2.99156 3.86157 3.45407
# Velocity P-wave (km/s) = 4.31131 5.96513 5.20433
#
# Compressibility (1/GPa) = 0.06418464
#
# Stress axis : x y z
#
# Youngs Moduli (GPa) = 45.94682 41.38666 33.15376
#
# Poissons Ratio (x) = 0.45949 -0.32463
# Poissons Ratio (y) = 0.51012 0.15389
# Poissons Ratio (z) = -0.44990 0.19210
#
# Static dielectric constant tensor:
#      x y z
#    x 4.492980 0.127540 0.049390 
#    y 0.127540 4.546770 -0.564360 
#    z 0.049390 -0.564360 4.099070 
# 
# 
# High freq. dielectric constant tensor:
#      x y z
#    x 1.930100 0.004350 0.008980 
#    y 0.004350 1.933090 -0.023200 
#    z 0.008980 -0.023200 1.910950 
# 
# From -- ./inp_files/51489.got.cif
#   From: 2010.06.25/outbox.cif.g09.slc.cpg/sg2_26_cif.got.tgz:51489.got - 2010.06.27 13:26:56.
