data_PCOD8010243
_publ_section_title
;
Structure prediction by ZEFSAII (Michael W. Deem and Ramdas Pophale) SiO2 
 PCOD8010243
Probable space group: P -1
;
_chemical_formula_sum "Si O2"
_cell_formula_units_Z 14
_cell_length_a 7.911824
_cell_length_b 5.169063
_cell_length_c 16.647132
_cell_angle_alpha 72.301841
_cell_angle_beta 116.498401
_cell_angle_gamma 102.460040
_cell_volume 577.885763
_symmetry_space_group_name_H-M "P -1"
_symmetry_group_IT_number 2
_symmetry_cell_setting 'triclinic'
loop_
_space_group_symop_operation_xyz
x,y,z
-x,-y,-z
loop_
_atom_site_type_symbol
_atom_site_label
_atom_site_fract_x
_atom_site_fract_y
_atom_site_fract_z
Si Si1 0.668283 0.828929 0.023215
Si Si2 0.176823 0.593904 0.248267
Si Si3 0.577974 0.871902 0.702158
Si Si4 0.911791 0.633061 0.586713
Si Si5 0.241150 0.804372 0.522791
Si Si6 0.498883 0.471431 0.137714
Si Si7 0.124489 0.715371 0.058476
O O1 0.691112 0.635933 0.125476
O O2 0.611293 0.659426 0.949103
O O3 0.500000 0.000000 0.000000
O O4 0.865334 0.999237 0.017654
O O5 0.253399 0.313741 0.260735
O O6 0.048151 0.509118 0.306510
O O7 0.052881 0.707466 0.137608
O O8 0.344980 0.820632 0.288801
O O9 0.451624 0.871540 0.595376
O O10 0.453226 0.745847 0.764038
O O11 0.763569 0.427720 0.524335
O O12 0.110727 0.685031 0.579402
O O13 0.825204 0.919852 0.554809
O O14 0.347202 0.667617 0.122223
O O15 0.000000 0.500000 0.000000
#
# Coordination Sequence:
#
# PCOD8010243 Si02
#       7
#     2   2   2   2   2   2   2
#     4   9  17  36  57  77 112 156 193 247 287 344
#     4  11  23  40  61  90 125 154 200 256 295 358
#     4  11  22  39  63  92 119 157 204 245 300 352
#     4  10  22  42  60  90 125 154 195 244 310 353
#     4  10  22  41  65  86 121 160 195 247 295 371
#     4   9  19  36  57  82 115 153 198 248 286 347
#     4  10  21  38  56  84 120 160 196 244 305 349
#
# _framework density 24.226243
#
# number of rings (size 3 to 8) (size 9 to 14) (size 15 to 20)
#    0.000    2.000    1.429    1.714    0.000    4.000 
#    7.714    2.857    0.000    0.000    0.000    0.000 
#    0.000    0.000    0.000    0.000    0.000    0.000 
#
# Total GULP energy -173457.793989 kJ/mol
# GULP energy per Si atom -12389.842428 kJ/mol
# Density = 2.417110 g / cm^3
# Si number density = 24.226243 Si / 1000 Ang^3
#
#
#
# Elastic Constant Matrix: (Units=GPa)
#
#
# Indices 1 2 3 4 5 6 
#
# 1 47.2755 11.9822 25.8353 -20.0469 -28.5307 14.7049
# 2 11.9822 119.2980 41.0682 -4.7767 -22.8401 20.0627
# 3 25.8353 41.0682 134.2040 -15.6488 -31.4476 20.6278
# 4 -20.0469 -4.7767 -15.6488 38.8851 14.0904 -8.0267
# 5 -28.5307 -22.8401 -31.4476 14.0904 38.8389 -10.6779
# 6 14.7049 20.0627 20.6278 -8.0267 -10.6779 39.7237
#
#
#
# Elastic Compliance Matrix: (Units=1/GPa)
#
#
# Indices 1 2 3 4 5 6 
#
# 1 0.044885 0.002768 -0.000373 0.011571 0.027906 -0.007981
# 2 0.002768 0.010517 -0.001856 -0.001019 0.005995 -0.003967
# 3 -0.000373 -0.001856 0.009889 0.001040 0.005622 -0.002339
# 4 0.011571 -0.001019 0.001040 0.033371 -0.002910 0.001652
# 5 0.027906 0.005995 0.005622 -0.002910 0.054793 -0.002137
# 6 -0.007981 -0.003967 -0.002339 0.001652 -0.002137 0.031106
#
#
# Mechanical properties :
#
#
# Convention : Reuss Voigt Hill
#
# Bulk Modulus (GPa) = 15.06676 50.94990 33.00833
# Shear Modulus (GPa) = 24.31853 38.28232 31.30043
#
# Velocity S-wave (km/s) = 3.17173 3.97949 3.59835
# Velocity P-wave (km/s) = 4.43237 6.49551 5.56046
#
# Compressibility (1/GPa) = 0.06637125
#
# Stress axis : x y z
#
# Youngs Moduli (GPa) = 22.27918 95.08167 101.12256
#
# Poissons Ratio (x) = -0.26322 0.03769
# Poissons Ratio (y) = -0.06168 0.18764
# Poissons Ratio (z) = 0.00830 0.17643
#
# Static dielectric constant tensor:
#      x y z
#    x 3.776190 0.369980 -0.432650 
#    y 0.369980 4.659310 -0.557940 
#    z -0.432650 -0.557940 4.625460 
# 
# 
# High freq. dielectric constant tensor:
#      x y z
#    x 1.954260 0.004770 -0.035290 
#    y 0.004770 1.974950 -0.017690 
#    z -0.035290 -0.017690 1.963860 
# 
# From -- ./inp_files/34328.got.cif
#   From: 2010.06.25/outbox.cif.g09.slc.cpg/sg2_18_cif.got.tgz:34328.got - 2010.06.27 13:26:56.
