data_PCOD8010540
_publ_section_title
;
Structure prediction by ZEFSAII (Michael W. Deem and Ramdas Pophale) SiO2 
 PCOD8010540
Probable space group: P -1
;
_chemical_formula_sum "Si O2"
_cell_formula_units_Z 12
_cell_length_a 14.978093
_cell_length_b 12.805509
_cell_length_c 8.594509
_cell_angle_alpha 133.149682
_cell_angle_beta 148.645020
_cell_angle_gamma 36.676266
_cell_volume 512.325358
_symmetry_space_group_name_H-M "P -1"
_symmetry_group_IT_number 2
_symmetry_cell_setting 'triclinic'
loop_
_space_group_symop_operation_xyz
x,y,z
-x,-y,-z
loop_
_atom_site_type_symbol
_atom_site_label
_atom_site_fract_x
_atom_site_fract_y
_atom_site_fract_z
Si Si1 0.780781 0.289617 0.582990
Si Si2 0.206529 0.075744 0.146476
Si Si3 0.914148 0.686951 0.495222
Si Si4 0.738366 0.412295 0.311051
Si Si5 0.579494 0.774512 0.538322
Si Si6 0.605131 0.672725 0.812763
O O1 0.807151 0.285509 0.432338
O O2 0.743830 0.463639 0.780286
O O3 0.591916 0.272285 0.317526
O O4 0.988771 0.123094 0.801223
O O5 0.183466 0.172285 0.371179
O O6 0.314193 0.122445 0.222538
O O7 0.363115 0.868807 0.210102
O O8 0.000000 0.500000 0.500000
O O9 0.100729 0.689584 0.694757
O O10 0.736762 0.734102 0.153467
O O11 0.749055 0.575695 0.535656
O O12 0.500000 0.500000 0.000000
O O13 0.520116 0.777634 0.632212
#
# Coordination Sequence:
#
# PCOD8010540 Si02
#       6
#     2   2   2   2   2   2
#     4  10  21  38  61  90 120 160 203 243 303 352
#     4  11  23  40  64  91 123 160 195 253 301 359
#     4  12  21  37  65  92 118 156 210 246 292 353
#     4  11  23  40  65  91 120 158 206 250 293 358
#     4  10  23  41  62  88 127 159 198 242 314 353
#     4  10  21  38  62  89 121 160 202 248 291 365
#
# _framework density 23.422615
#
# number of rings (size 3 to 8) (size 9 to 14) (size 15 to 20)
#    0.000    1.333    3.333    2.000    4.667    4.000 
#    0.000    0.833    0.000    0.000    0.000    0.000 
#    0.000    0.000    0.000    0.000    0.000    0.000 
#
# Total GULP energy -148841.693491 kJ/mol
# GULP energy per Si atom -12403.474458 kJ/mol
# Density = 2.336930 g / cm^3
# Si number density = 23.422615 Si / 1000 Ang^3
#
#
#
# Elastic Constant Matrix: (Units=GPa)
#
#
# Indices 1 2 3 4 5 6 
#
# 1 149.0900 24.6263 24.5277 -10.2198 12.3713 14.2260
# 2 24.6263 46.0514 2.6994 -24.0774 -4.5319 9.3282
# 3 24.5277 2.6994 110.8783 -29.3297 7.4740 5.3459
# 4 -10.2198 -24.0774 -29.3297 34.1611 -0.0848 -4.5489
# 5 12.3713 -4.5319 7.4740 -0.0848 38.7829 -6.5090
# 6 14.2260 9.3282 5.3459 -4.5489 -6.5090 26.9649
#
#
#
# Elastic Compliance Matrix: (Units=1/GPa)
#
#
# Indices 1 2 3 4 5 6 
#
# 1 0.008502 -0.006534 -0.002569 -0.004725 -0.003557 -0.003372
# 2 -0.006534 0.047233 0.010852 0.039693 0.004375 -0.007292
# 3 -0.002569 0.010852 0.014548 0.019058 -0.001064 -0.002325
# 4 -0.004725 0.039693 0.019058 0.071891 0.002236 -0.002349
# 5 -0.003557 0.004375 -0.001064 0.002236 0.028974 0.007945
# 6 -0.003372 -0.007292 -0.002325 -0.002349 0.007945 0.043369
#
#
# Mechanical properties :
#
#
# Convention : Reuss Voigt Hill
#
# Bulk Modulus (GPa) = 13.55356 45.52517 29.53937
# Shear Modulus (GPa) = 21.22116 36.92619 29.07368
#
# Velocity S-wave (km/s) = 3.01327 3.97485 3.52698
# Velocity P-wave (km/s) = 4.23149 6.36746 5.40601
#
# Compressibility (1/GPa) = 0.07378133
#
# Stress axis : x y z
#
# Youngs Moduli (GPa) = 117.61674 21.17155 68.73679
#
# Poissons Ratio (x) = 0.13832 0.17661
# Poissons Ratio (y) = 0.76845 -0.74591
# Poissons Ratio (z) = 0.30220 -0.22975
#
# Static dielectric constant tensor:
#      x y z
#    x 4.313190 0.039750 -0.010010 
#    y 0.039750 4.266530 -0.105810 
#    z -0.010010 -0.105810 4.202770 
# 
# 
# High freq. dielectric constant tensor:
#      x y z
#    x 1.940200 0.008720 0.000130 
#    y 0.008720 1.910910 -0.017270 
#    z 0.000130 -0.017270 1.922890 
# 
# From -- ./inp_files/144802.got.cif
#   From: 2010.06.25/outbox.cif.g09.slc.cpg/sg2_73_cif.got.tgz:144802.got - 2010.06.27 13:26:56.
