data_PCOD8010573
_publ_section_title
;
Structure prediction by ZEFSAII (Michael W. Deem and Ramdas Pophale) SiO2 
 PCOD8010573
Probable space group: P -1
;
_chemical_formula_sum "Si O2"
_cell_formula_units_Z 16
_cell_length_a 9.499899
_cell_length_b 20.216373
_cell_length_c 25.383848
_cell_angle_alpha 21.303983
_cell_angle_beta 39.041377
_cell_angle_gamma 28.757389
_cell_volume 829.431059
_symmetry_space_group_name_H-M "P -1"
_symmetry_group_IT_number 2
_symmetry_cell_setting 'triclinic'
loop_
_space_group_symop_operation_xyz
x,y,z
-x,-y,-z
loop_
_atom_site_type_symbol
_atom_site_label
_atom_site_fract_x
_atom_site_fract_y
_atom_site_fract_z
Si Si1 0.667867 0.475323 0.385086
Si Si2 0.227757 0.041747 0.400595
Si Si3 0.315916 0.858145 0.291641
Si Si4 0.652631 0.371516 0.104770
Si Si5 0.265938 0.201691 0.707112
Si Si6 0.334109 0.449870 0.417997
Si Si7 0.298749 0.216652 0.357910
Si Si8 0.744556 0.690190 0.893177
O O1 0.414799 0.728917 0.301659
O O2 0.752636 0.257114 0.558943
O O3 0.559759 0.479785 0.353786
O O4 0.969059 0.428003 0.322194
O O5 0.531338 0.783268 0.484027
O O6 0.281330 0.104512 0.394100
O O7 0.118492 0.259306 0.230812
O O8 0.000000 0.000000 0.500000
O O9 0.593871 0.832535 0.250660
O O10 0.006642 0.136527 0.168394
O O11 0.463074 0.317036 0.227302
O O12 0.500000 0.500000 0.000000
O O13 0.605400 0.577499 0.999109
O O14 0.223870 0.416097 0.529429
O O15 0.922811 0.313083 0.719832
O O16 0.480012 0.941641 0.810983
O O17 0.500000 0.000000 0.500000
O O18 0.000000 0.500000 0.000000
#
# Coordination Sequence:
#
# PCOD8010573 Si02
#       8
#     2   2   2   2   2   2   2   2
#     4  10  21  38  61  93 125 164 209 269 312 372
#     4  11  23  40  65  94 125 163 214 268 314 371
#     4  10  21  38  62  91 127 163 215 259 316 377
#     4  12  25  42  63  93 130 173 211 259 320 387
#     4   9  19  35  59  89 116 159 206 256 307 371
#     4   9  19  34  60  89 120 153 206 259 312 361
#     4  12  25  40  64  97 131 167 217 263 320 373
#     4  11  23  41  66  90 127 169 212 259 317 384
#
# _framework density 19.290330999999998
#
# number of rings (size 3 to 8) (size 9 to 14) (size 15 to 20)
#    0.000    1.500    5.000    0.000    5.250    1.000 
#    0.000    0.625    2.750    1.500    0.000    0.000 
#    0.000    0.000    0.000    0.000    0.000    0.000 
#
# Total GULP energy -198266.570445 kJ/mol
# GULP energy per Si atom -12391.660653 kJ/mol
# Density = 1.924643 g / cm^3
# Si number density = 19.290331 Si / 1000 Ang^3
#
#
#
# Elastic Constant Matrix: (Units=GPa)
#
#
# Indices 1 2 3 4 5 6 
#
# 1 134.6698 39.0184 60.2875 -1.4800 -0.5755 -7.7389
# 2 39.0184 83.6140 40.2821 -4.2708 6.7654 -10.9243
# 3 60.2875 40.2821 105.9555 1.6426 3.0091 -11.1175
# 4 -1.4800 -4.2708 1.6426 35.6997 -7.2612 -0.5418
# 5 -0.5755 6.7654 3.0091 -7.2612 38.6101 -6.4067
# 6 -7.7389 -10.9243 -11.1175 -0.5418 -6.4067 35.9595
#
#
#
# Elastic Compliance Matrix: (Units=1/GPa)
#
#
# Indices 1 2 3 4 5 6 
#
# 1 0.010404 -0.002487 -0.005000 0.000593 0.001116 0.000145
# 2 -0.002487 0.015748 -0.004271 0.001670 -0.001710 0.002649
# 3 -0.005000 -0.004271 0.014140 -0.001417 -0.000378 0.001909
# 4 0.000593 0.001670 -0.001417 0.029474 0.005643 0.001646
# 5 0.001116 -0.001710 -0.000378 0.005643 0.028086 0.004693
# 6 0.000145 0.002649 0.001909 0.001646 0.004693 0.030096
#
#
# Mechanical properties :
#
#
# Convention : Reuss Voigt Hill
#
# Bulk Modulus (GPa) = 59.61271 67.04615 63.32943
# Shear Modulus (GPa) = 31.83593 34.36396 33.09994
#
# Velocity S-wave (km/s) = 4.06687 4.22525 4.14682
# Velocity P-wave (km/s) = 7.28166 7.65738 7.47188
#
# Compressibility (1/GPa) = 0.01677495
#
# Stress axis : x y z
#
# Youngs Moduli (GPa) = 96.11529 63.50078 70.72347
#
# Poissons Ratio (x) = 0.15795 0.35361
# Poissons Ratio (y) = 0.23908 0.30207
# Poissons Ratio (z) = 0.48056 0.27122
#
# Static dielectric constant tensor:
#      x y z
#    x 4.069230 -0.184940 0.094400 
#    y -0.184940 3.536880 -0.187130 
#    z 0.094400 -0.187130 3.734990 
# 
# 
# High freq. dielectric constant tensor:
#      x y z
#    x 1.772400 -0.007590 -0.002380 
#    y -0.007590 1.743250 -0.017550 
#    z -0.002380 -0.017550 1.730970 
# 
# From -- ./inp_files/182395.got.cif
#   From: 2010.06.25/outbox.cif.g09.slc.cpg/sg2_92_cif.got.tgz:182395.got - 2010.06.27 13:26:56.
