data_PCOD8010872
_publ_section_title
;
Structure prediction by ZEFSAII (Michael W. Deem and Ramdas Pophale) SiO2 
 PCOD8010872
Probable space group: P -1
;
_chemical_formula_sum "Si O2"
_cell_formula_units_Z 14
_cell_length_a 10.711578
_cell_length_b 9.883058
_cell_length_c 9.886784
_cell_angle_alpha 131.317896
_cell_angle_beta 115.396086
_cell_angle_gamma 84.016064
_cell_volume 684.994334
_symmetry_space_group_name_H-M "P -1"
_symmetry_group_IT_number 2
_symmetry_cell_setting 'triclinic'
loop_
_space_group_symop_operation_xyz
x,y,z
-x,-y,-z
loop_
_atom_site_type_symbol
_atom_site_label
_atom_site_fract_x
_atom_site_fract_y
_atom_site_fract_z
Si Si1 0.003853 0.866148 0.041814
Si Si2 0.587175 0.716552 0.169675
Si Si3 0.137190 0.075683 0.710055
Si Si4 0.578004 0.010442 0.855197
Si Si5 0.704375 0.189194 0.280422
Si Si6 0.729028 0.861781 0.602839
Si Si7 0.107632 0.423399 0.407642
O O1 0.895448 0.865933 0.115171
O O2 0.162549 0.930136 0.224325
O O3 0.969115 0.660354 0.824063
O O4 0.000000 0.000000 0.000000
O O5 0.738448 0.750920 0.180239
O O6 0.482110 0.827458 0.130550
O O7 0.625133 0.803998 0.391601
O O8 0.500000 0.500000 0.000000
O O9 0.201571 0.898111 0.632726
O O10 0.000000 0.000000 0.500000
O O11 0.460992 0.864784 0.792053
O O12 0.627704 0.870710 0.686595
O O13 0.711982 0.114139 0.080771
O O14 0.757627 0.410323 0.460177
O O15 0.830435 0.722794 0.575974
O O16 0.000000 0.500000 0.500000
#
# Coordination Sequence:
#
# PCOD8010872 Si02
#       7
#     2   2   2   2   2   2   2
#     4  10  21  38  64  93 123 172 210 259 329 385
#     4  11  24  40  66  95 132 175 215 268 326 386
#     4  11  22  43  67  93 136 170 212 271 336 388
#     4  10  22  40  63  89 128 175 218 254 331 395
#     4  10  21  39  62  91 126 167 215 272 317 386
#     4  11  21  39  61  88 129 171 213 264 326 389
#     4  11  22  36  63  94 126 163 223 272 318 387
#
# _framework density 20.438123999999998
#
# number of rings (size 3 to 8) (size 9 to 14) (size 15 to 20)
#    0.000    1.429    1.429    5.571    0.000    1.714 
#    0.000    0.714    0.000    0.000    0.000    0.000 
#    0.000    0.000    0.000    0.000    0.000    0.000 
#
# Total GULP energy -173506.996539 kJ/mol
# GULP energy per Si atom -12393.356896 kJ/mol
# Density = 2.039161 g / cm^3
# Si number density = 20.438124 Si / 1000 Ang^3
#
#
#
# Elastic Constant Matrix: (Units=GPa)
#
#
# Indices 1 2 3 4 5 6 
#
# 1 110.2079 34.3220 55.5235 6.1562 -10.1685 12.1364
# 2 34.3220 71.8251 49.2035 0.2816 7.7217 7.8917
# 3 55.5235 49.2035 169.0444 5.1917 6.4137 18.7741
# 4 6.1562 0.2816 5.1917 31.6389 3.6383 6.9431
# 5 -10.1685 7.7217 6.4137 3.6383 45.5226 -2.3287
# 6 12.1364 7.8917 18.7741 6.9431 -2.3287 34.1470
#
#
#
# Elastic Compliance Matrix: (Units=1/GPa)
#
#
# Indices 1 2 3 4 5 6 
#
# 1 0.012445 -0.004335 -0.002781 -0.002128 0.004016 -0.001186
# 2 -0.004335 0.019264 -0.003939 0.002085 -0.003921 -0.001437
# 3 -0.002781 -0.003939 0.008331 -0.000040 -0.001265 -0.002760
# 4 -0.002128 0.002085 -0.000040 0.033965 -0.003890 -0.006875
# 5 0.004016 -0.003921 -0.001265 -0.003890 0.024152 0.002612
# 6 -0.001186 -0.001437 -0.002760 -0.006875 0.002612 0.033132
#
#
# Mechanical properties :
#
#
# Convention : Reuss Voigt Hill
#
# Bulk Modulus (GPa) = 55.77224 69.90838 62.84031
# Shear Modulus (GPa) = 31.37243 36.39692 33.88468
#
# Velocity S-wave (km/s) = 3.92215 4.22457 4.07617
# Velocity P-wave (km/s) = 6.91799 7.62071 7.27784
#
# Compressibility (1/GPa) = 0.01793007
#
# Stress axis : x y z
#
# Youngs Moduli (GPa) = 80.35363 51.91105 120.02850
#
# Poissons Ratio (x) = 0.22503 0.33383
# Poissons Ratio (y) = 0.34832 0.47278
# Poissons Ratio (z) = 0.22348 0.20447
#
# Static dielectric constant tensor:
#      x y z
#    x 3.826560 0.194580 0.151130 
#    y 0.194580 3.584010 -0.008000 
#    z 0.151130 -0.008000 4.227500 
# 
# 
# High freq. dielectric constant tensor:
#      x y z
#    x 1.808340 0.009070 0.008870 
#    y 0.009070 1.777670 -0.009120 
#    z 0.008870 -0.009120 1.817240 
# 
# From -- ./inp_files/188829.got.cif
#   From: 2010.06.25/outbox.cif.g09.slc.cpg/sg2_95_cif.got.tgz:188829.got - 2010.06.27 13:26:56.
