data_PCOD8010837
_publ_section_title
;
Structure prediction by ZEFSAII (Michael W. Deem and Ramdas Pophale) SiO2 
 PCOD8010837
Probable space group: P -1
;
_chemical_formula_sum "Si O2"
_cell_formula_units_Z 16
_cell_length_a 18.494917
_cell_length_b 11.501234
_cell_length_c 6.425834
_cell_angle_alpha 112.035564
_cell_angle_beta 45.812286
_cell_angle_gamma 129.186248
_cell_volume 754.443185
_symmetry_space_group_name_H-M "P -1"
_symmetry_group_IT_number 2
_symmetry_cell_setting 'triclinic'
loop_
_space_group_symop_operation_xyz
x,y,z
-x,-y,-z
loop_
_atom_site_type_symbol
_atom_site_label
_atom_site_fract_x
_atom_site_fract_y
_atom_site_fract_z
Si Si1 0.111427 0.487679 0.315682
Si Si2 0.919980 0.983916 0.950170
Si Si3 0.488309 0.734723 0.457085
Si Si4 0.085942 0.248045 0.511058
Si Si5 0.562966 0.893730 0.012017
Si Si6 0.744483 0.568637 0.344418
Si Si7 0.650772 0.200151 0.888057
Si Si8 0.666883 0.767241 0.431141
O O1 0.063396 0.358891 0.501414
O O2 0.218638 0.646982 0.303575
O O3 0.000000 0.500000 0.500000
O O4 0.158501 0.450845 0.987452
O O5 0.899402 0.854448 0.747705
O O6 0.787310 0.934281 0.258676
O O7 0.977028 0.141444 0.818743
O O8 0.000000 0.000000 0.000000
O O9 0.566048 0.874771 0.239363
O O10 0.380002 0.588918 0.456568
O O11 0.580600 0.700637 0.356969
O O12 0.432932 0.785629 0.773189
O O13 0.205479 0.347709 0.480077
O O14 0.426438 0.847670 0.201917
O O15 0.594616 0.781167 0.773370
O O16 0.663057 0.065634 0.854856
O O17 0.710803 0.658449 0.320026
#
# Coordination Sequence:
#
# PCOD8010837 Si02
#       8
#     2   2   2   2   2   2   2   2
#     4  11  24  42  64  92 127 170 215 264 315 379
#     4  11  23  42  63  92 129 165 210 263 315 381
#     4  10  22  38  64  92 125 167 210 256 320 380
#     4  11  23  41  69  87 124 177 208 257 334 370
#     4  10  21  38  64  90 122 166 213 254 320 375
#     4  11  23  43  62  93 133 161 212 270 316 381
#     4   9  21  41  59  88 128 164 207 268 305 368
#     4  11  23  38  62  95 127 161 209 266 317 377
#
# _framework density 21.207695999999999
#
# number of rings (size 3 to 8) (size 9 to 14) (size 15 to 20)
#    0.000    1.500    2.500    1.500    1.750    4.000 
#    0.000    2.500    0.000    0.000    0.000    0.000 
#    0.000    0.000    0.000    0.000    0.000    0.000 
#
# Total GULP energy -198380.071937 kJ/mol
# GULP energy per Si atom -12398.754496 kJ/mol
# Density = 2.115943 g / cm^3
# Si number density = 21.207696 Si / 1000 Ang^3
#
#
#
# Elastic Constant Matrix: (Units=GPa)
#
#
# Indices 1 2 3 4 5 6 
#
# 1 131.2312 50.0745 52.7184 1.1387 4.6517 -5.1185
# 2 50.0745 104.3729 23.8585 -6.6029 2.7093 -2.7304
# 3 52.7184 23.8585 60.5839 -17.7446 -2.6260 -3.7913
# 4 1.1387 -6.6029 -17.7446 29.7836 -2.4501 9.0372
# 5 4.6517 2.7093 -2.6260 -2.4501 35.8793 -0.2310
# 6 -5.1185 -2.7304 -3.7913 9.0372 -0.2310 40.7978
#
#
#
# Elastic Compliance Matrix: (Units=1/GPa)
#
#
# Indices 1 2 3 4 5 6 
#
# 1 0.016067 -0.004726 -0.015666 -0.012186 -0.003686 0.002922
# 2 -0.004726 0.011971 0.000287 0.003141 -0.000059 -0.000461
# 3 -0.015666 0.000287 0.037253 0.024563 0.006388 -0.003889
# 4 -0.012186 0.003141 0.024563 0.053195 0.006704 -0.010781
# 5 -0.003686 -0.000059 0.006388 0.006704 0.029271 -0.001192
# 6 0.002922 -0.000461 -0.003889 -0.010781 -0.001192 0.026867
#
#
# Mechanical properties :
#
#
# Convention : Reuss Voigt Hill
#
# Bulk Modulus (GPa) = 39.87171 61.05453 50.46312
# Shear Modulus (GPa) = 22.40190 32.59458 27.49824
#
# Velocity S-wave (km/s) = 3.25362 3.92461 3.60476
# Velocity P-wave (km/s) = 5.74074 7.02767 6.41655
#
# Compressibility (1/GPa) = 0.02508044
#
# Stress axis : x y z
#
# Youngs Moduli (GPa) = 62.23821 83.53444 26.84343
#
# Poissons Ratio (x) = 0.39480 0.42053
# Poissons Ratio (y) = 0.29415 -0.00770
# Poissons Ratio (z) = 0.97503 -0.02395
#
# Static dielectric constant tensor:
#      x y z
#    x 3.872610 0.150150 0.066680 
#    y 0.150150 4.162780 -0.212470 
#    z 0.066680 -0.212470 3.720530 
# 
# 
# High freq. dielectric constant tensor:
#      x y z
#    x 1.831230 0.002320 0.010110 
#    y 0.002320 1.841170 -0.008920 
#    z 0.010110 -0.008920 1.822620 
# 
# From -- ./inp_files/69386.got.cif
#   From: 2010.06.25/outbox.cif.g09.slc.cpg/sg2_35_cif.got.tgz:69386.got - 2010.06.27 13:26:56.
