data_PCOD8010996
_publ_section_title
;
Structure prediction by ZEFSAII (Michael W. Deem and Ramdas Pophale) SiO2 
 PCOD8010996
Probable space group: P -1
;
_chemical_formula_sum "Si O2"
_cell_formula_units_Z 16
_cell_length_a 27.062905
_cell_length_b 8.709094
_cell_length_c 26.587090
_cell_angle_alpha 139.603120
_cell_angle_beta 169.254442
_cell_angle_gamma 41.437708
_cell_volume 757.132066
_symmetry_space_group_name_H-M "P -1"
_symmetry_group_IT_number 2
_symmetry_cell_setting 'triclinic'
loop_
_space_group_symop_operation_xyz
x,y,z
-x,-y,-z
loop_
_atom_site_type_symbol
_atom_site_label
_atom_site_fract_x
_atom_site_fract_y
_atom_site_fract_z
Si Si1 0.193032 0.949719 0.487785
Si Si2 0.749850 0.526312 0.291271
Si Si3 0.404838 0.597988 0.376449
Si Si4 0.703007 0.720838 0.898804
Si Si5 0.210841 0.588701 0.503583
Si Si6 0.900451 0.893760 0.926483
Si Si7 0.747246 0.166933 0.289160
Si Si8 0.274429 0.639925 0.081220
O O1 0.417006 0.832482 0.648681
O O2 0.190912 0.827624 0.510041
O O3 0.250932 0.224286 0.619306
O O4 0.920427 0.920110 0.177031
O O5 0.748761 0.319475 0.278771
O O6 0.000000 0.500000 0.500000
O O7 0.500000 0.500000 0.000000
O O8 0.500000 0.500000 0.500000
O O9 0.291464 0.376637 0.176486
O O10 0.657114 0.713410 0.628632
O O11 0.157033 0.777693 0.180959
O O12 0.768156 0.498901 0.944231
O O13 0.267878 0.659797 0.635182
O O14 0.434249 0.406279 0.661184
O O15 0.934796 0.451165 0.191798
O O16 0.777275 0.086150 0.889776
O O17 0.000000 0.000000 0.000000
O O18 0.000000 0.000000 0.500000
O O19 0.500000 0.000000 0.000000
#
# Coordination Sequence:
#
# PCOD8010996 Si02
#       8
#     2   2   2   2   2   2   2   2
#     4  10  21  39  64  94 125 175 216 264 321 396
#     4  12  25  44  70 101 134 173 225 264 320 402
#     4  12  26  44  64  99 136 177 221 281 345 388
#     4  10  21  39  65  89 130 173 219 263 329 395
#     4  10  21  39  62  95 133 165 216 269 335 383
#     4  12  24  42  72  96 129 175 237 275 324 398
#     4  12  25  44  70 101 135 174 214 275 332 386
#     4  10  21  38  65  95 124 172 221 274 320 389
#
# _framework density 21.132376000000001
#
# number of rings (size 3 to 8) (size 9 to 14) (size 15 to 20)
#    0.000    1.000    1.250    6.000    3.500    2.000 
#    6.750    0.000    0.000    0.000    0.000    0.000 
#    0.000    0.000    0.000    0.000    0.000    0.000 
#
# Total GULP energy -198472.897686 kJ/mol
# GULP energy per Si atom -12404.556105 kJ/mol
# Density = 2.108428 g / cm^3
# Si number density = 21.132376 Si / 1000 Ang^3
#
#
#
# Elastic Constant Matrix: (Units=GPa)
#
#
# Indices 1 2 3 4 5 6 
#
# 1 122.7806 48.2021 39.5027 2.4033 -17.1889 0.9245
# 2 48.2021 102.2105 26.3694 0.6949 -4.9202 4.1253
# 3 39.5027 26.3694 125.2682 3.4296 -6.1010 9.8307
# 4 2.4033 0.6949 3.4296 38.4021 -3.7050 -2.9352
# 5 -17.1889 -4.9202 -6.1010 -3.7050 36.3999 3.0990
# 6 0.9245 4.1253 9.8307 -2.9352 3.0990 31.4513
#
#
#
# Elastic Compliance Matrix: (Units=1/GPa)
#
#
# Indices 1 2 3 4 5 6 
#
# 1 0.011298 -0.004515 -0.002454 0.000052 0.004267 0.000612
# 2 -0.004515 0.012210 -0.001091 0.000022 -0.000571 -0.001069
# 3 -0.002454 -0.001091 0.009247 -0.000828 0.000397 -0.002792
# 4 0.000052 0.000022 -0.000828 0.026531 0.002377 0.002496
# 5 0.004267 -0.000571 0.000397 0.002377 0.029966 -0.002905
# 6 0.000612 -0.001069 -0.002792 0.002496 -0.002905 0.033309
#
#
# Mechanical properties :
#
#
# Convention : Reuss Voigt Hill
#
# Bulk Modulus (GPa) = 60.11078 64.26753 62.18915
# Shear Modulus (GPa) = 34.66760 36.99633 35.83197
#
# Velocity S-wave (km/s) = 4.05470 4.18867 4.12223
# Velocity P-wave (km/s) = 7.10123 7.33970 7.22145
#
# Compressibility (1/GPa) = 0.01663595
#
# Stress axis : x y z
#
# Youngs Moduli (GPa) = 88.50849 81.90098 108.13735
#
# Poissons Ratio (x) = 0.36976 0.26538
# Poissons Ratio (y) = 0.39959 0.11798
# Poissons Ratio (z) = 0.21721 0.08936
#
# Static dielectric constant tensor:
#      x y z
#    x 3.737830 0.035590 -0.092330 
#    y 0.035590 4.092620 -0.034310 
#    z -0.092330 -0.034310 4.198940 
# 
# 
# High freq. dielectric constant tensor:
#      x y z
#    x 1.818670 -0.014550 -0.004080 
#    y -0.014550 1.832120 -0.004450 
#    z -0.004080 -0.004450 1.853450 
# 
# From -- ./inp_files/621160.got.cif
#   From: 2010.06.25/outbox.cif.g09.slc.cpg/sg2_311_cif.got.tgz:621160.got - 2010.06.27 13:26:56.
