data_PCOD8010820
_publ_section_title
;
Structure prediction by ZEFSAII (Michael W. Deem and Ramdas Pophale) SiO2 
 PCOD8010820
Probable space group: P -1
;
_chemical_formula_sum "Si O2"
_cell_formula_units_Z 16
_cell_length_a 6.788307
_cell_length_b 24.472659
_cell_length_c 9.620713
_cell_angle_alpha 46.826706
_cell_angle_beta 134.232865
_cell_angle_gamma 123.413194
_cell_volume 826.885962
_symmetry_space_group_name_H-M "P -1"
_symmetry_group_IT_number 2
_symmetry_cell_setting 'triclinic'
loop_
_space_group_symop_operation_xyz
x,y,z
-x,-y,-z
loop_
_atom_site_type_symbol
_atom_site_label
_atom_site_fract_x
_atom_site_fract_y
_atom_site_fract_z
Si Si1 0.808244 0.044808 0.235629
Si Si2 0.676086 0.706009 0.766256
Si Si3 0.336136 0.548642 0.935178
Si Si4 0.296563 0.461804 0.350911
Si Si5 0.833980 0.218520 0.941693
Si Si6 0.801280 0.040401 0.923419
Si Si7 0.698708 0.701139 0.465212
Si Si8 0.176044 0.788762 0.369892
O O1 0.499534 0.004282 0.169443
O O2 0.819779 0.132021 0.137021
O O3 0.905270 0.040093 0.133192
O O4 0.000000 0.000000 0.500000
O O5 0.494675 0.632939 0.868606
O O6 0.764451 0.692242 0.675672
O O7 0.492427 0.773703 0.565280
O O8 0.949633 0.726948 0.955480
O O9 0.019228 0.548986 0.727408
O O10 0.500000 0.500000 0.000000
O O11 0.330111 0.517980 0.140482
O O12 0.500000 0.500000 0.500000
O O13 0.393819 0.382128 0.496849
O O14 0.536058 0.245818 0.769438
O O15 0.926936 0.226263 0.813154
O O16 0.815253 0.125353 0.728371
O O17 0.000000 0.000000 0.000000
O O18 0.979572 0.736762 0.467368
#
# Coordination Sequence:
#
# PCOD8010820 Si02
#       8
#     2   2   2   2   2   2   2   2
#     4  10  21  40  61  90 122 154 204 248 296 356
#     4  11  23  41  63  87 124 162 195 251 300 349
#     4  11  24  43  62  92 122 155 206 244 296 359
#     4  11  26  41  65  90 121 160 200 250 298 353
#     4  10  24  38  62  91 119 160 201 245 300 358
#     4  10  21  38  64  87 120 161 195 250 299 352
#     4  11  23  41  60  90 123 157 204 245 298 360
#     4  10  22  41  59  89 124 156 202 245 301 357
#
# _framework density 19.349706999999999
#
# number of rings (size 3 to 8) (size 9 to 14) (size 15 to 20)
#    0.000    1.500    2.500    1.500    3.500    5.000 
#    0.000    0.000    0.000    0.000    0.000    0.000 
#    0.000    0.000    0.000    0.000    0.000    0.000 
#
# Total GULP energy -198458.010319 kJ/mol
# GULP energy per Si atom -12403.625645 kJ/mol
# Density = 1.930567 g / cm^3
# Si number density = 19.349707 Si / 1000 Ang^3
#
#
#
# Elastic Constant Matrix: (Units=GPa)
#
#
# Indices 1 2 3 4 5 6 
#
# 1 92.6367 37.8428 28.4187 1.1305 0.2537 -13.8155
# 2 37.8428 109.9131 31.0486 -1.7747 -1.7194 -3.2197
# 3 28.4187 31.0486 77.4949 -7.3005 6.1517 1.0301
# 4 1.1305 -1.7747 -7.3005 36.2784 2.9151 6.4446
# 5 0.2537 -1.7194 6.1517 2.9151 25.8095 -13.6330
# 6 -13.8155 -3.2197 1.0301 6.4446 -13.6330 28.9942
#
#
#
# Elastic Compliance Matrix: (Units=1/GPa)
#
#
# Indices 1 2 3 4 5 6 
#
# 1 0.015740 -0.003437 -0.005602 -0.004544 0.007801 0.011996
# 2 -0.003437 0.011315 -0.003481 -0.000348 0.002078 0.000797
# 3 -0.005602 -0.003481 0.017897 0.006213 -0.010409 -0.009967
# 4 -0.004544 -0.000348 0.006213 0.032921 -0.013735 -0.016200
# 5 0.007801 0.002078 -0.010409 -0.013735 0.062175 0.036605
# 6 0.011996 0.000797 -0.009967 -0.016200 0.036605 0.061460
#
#
# Mechanical properties :
#
#
# Convention : Reuss Voigt Hill
#
# Bulk Modulus (GPa) = 50.22040 52.74053 51.48047
# Shear Modulus (GPa) = 21.44202 30.39874 25.92038
#
# Velocity S-wave (km/s) = 3.33247 3.96791 3.66399
# Velocity P-wave (km/s) = 6.38887 6.95040 6.67554
#
# Compressibility (1/GPa) = 0.01991223
#
# Stress axis : x y z
#
# Youngs Moduli (GPa) = 63.53039 88.37781 55.87416
#
# Poissons Ratio (x) = 0.30374 0.31301
# Poissons Ratio (y) = 0.21834 0.19452
# Poissons Ratio (z) = 0.35590 0.30768
#
# Static dielectric constant tensor:
#      x y z
#    x 3.626570 -0.032410 0.003300 
#    y -0.032410 3.613380 -0.159520 
#    z 0.003300 -0.159520 3.560230 
# 
# 
# High freq. dielectric constant tensor:
#      x y z
#    x 1.761960 -0.000270 0.002040 
#    y -0.000270 1.764540 -0.013560 
#    z 0.002040 -0.013560 1.759010 
# 
# From -- ./inp_files/10964.got.cif
#   From: 2010.06.25/outbox.cif.g09.slc.cpg/sg2_6_cif.got.tgz:10964.got - 2010.06.27 13:26:56.
