data_PCOD8010270
_publ_section_title
;
Structure prediction by ZEFSAII (Michael W. Deem and Ramdas Pophale) SiO2 
 PCOD8010270
Probable space group: P -1
;
_chemical_formula_sum "Si O2"
_cell_formula_units_Z 16
_cell_length_a 10.132101
_cell_length_b 9.115855
_cell_length_c 12.148635
_cell_angle_alpha 67.964535
_cell_angle_beta 120.415854
_cell_angle_gamma 116.734285
_cell_volume 848.232181
_symmetry_space_group_name_H-M "P -1"
_symmetry_group_IT_number 2
_symmetry_cell_setting 'triclinic'
loop_
_space_group_symop_operation_xyz
x,y,z
-x,-y,-z
loop_
_atom_site_type_symbol
_atom_site_label
_atom_site_fract_x
_atom_site_fract_y
_atom_site_fract_z
Si Si1 0.734042 0.973974 0.629692
Si Si2 0.603634 0.537858 0.371479
Si Si3 0.734039 0.630373 0.629694
Si Si4 0.033502 0.996800 0.887228
Si Si5 0.966499 0.350525 0.112773
Si Si6 0.665741 0.352001 0.123389
Si Si7 0.396370 0.805706 0.628524
Si Si8 0.665742 0.690350 0.123391
O O1 0.734140 0.814001 0.606137
O O2 0.579556 0.930850 0.657722
O O3 0.730081 0.114630 0.500583
O O4 0.894253 0.044792 0.750242
O O5 0.730081 0.614861 0.500588
O O6 0.420447 0.509016 0.342277
O O7 0.625832 0.365296 0.395236
O O8 0.641395 0.666203 0.250446
O O9 0.894249 0.599217 0.750243
O O10 0.203807 0.131311 0.892647
O O11 0.034170 0.813880 0.906411
O O12 0.000000 0.000000 0.000000
O O13 0.796197 0.320148 0.107360
O O14 0.000000 0.500000 0.000000
O O15 0.641383 0.224746 0.250438
O O16 0.722504 0.544175 0.134153
O O17 0.500004 0.308389 0.999995
#
# Coordination Sequence:
#
# PCOD8010270 Si02
#       8
#     2   2   2   2   2   2   2   2
#     4   9  19  36  56  79 109 143 178 221 272 320
#     4   9  18  34  57  81 106 142 183 220 265 322
#     4   9  19  36  56  79 109 143 178 221 272 320
#     4  11  23  38  57  81 110 144 183 227 275 326
#     4  11  23  38  57  81 110 144 183 227 275 326
#     4  10  21  38  58  80 111 147 182 225 275 324
#     4   9  18  34  57  81 106 142 183 220 265 322
#     4  10  21  38  58  80 111 147 182 225 275 324
#
# _framework density 18.862760999999999
#
# number of rings (size 3 to 8) (size 9 to 14) (size 15 to 20)
#    0.000    2.250    0.000    2.250    0.000    8.500 
#    0.000   10.000    0.000    0.000    0.000    0.000 
#    0.000    0.000    0.000    0.000    0.000    0.000 
#
# Total GULP energy -198459.123868 kJ/mol
# GULP energy per Si atom -12403.695242 kJ/mol
# Density = 1.881983 g / cm^3
# Si number density = 18.862761 Si / 1000 Ang^3
#
#
#
# Elastic Constant Matrix: (Units=GPa)
#
#
# Indices 1 2 3 4 5 6 
#
# 1 98.9508 30.9984 68.3409 -4.3377 -6.2470 2.9972
# 2 30.9984 77.3214 62.3572 -3.4558 -3.1176 16.2311
# 3 68.3409 62.3572 166.7194 -7.0352 -10.8403 5.6651
# 4 -4.3377 -3.4558 -7.0352 36.5813 -0.1723 -1.1725
# 5 -6.2470 -3.1176 -10.8403 -0.1723 35.9377 -2.6395
# 6 2.9972 16.2311 5.6651 -1.1725 -2.6395 21.0419
#
#
#
# Elastic Compliance Matrix: (Units=1/GPa)
#
#
# Indices 1 2 3 4 5 6 
#
# 1 0.014248 -0.001640 -0.005175 0.000568 0.000832 0.000765
# 2 -0.001640 0.022777 -0.007428 0.000022 -0.001691 -0.015547
# 3 -0.005175 -0.007428 0.010939 0.000921 0.002041 0.003829
# 4 0.000568 0.000022 0.000921 0.027626 0.000604 0.001269
# 5 0.000832 -0.001691 0.002041 0.000604 0.028757 0.004277
# 6 0.000765 -0.015547 0.003829 0.001269 0.004277 0.058984
#
#
# Mechanical properties :
#
#
# Convention : Reuss Voigt Hill
#
# Bulk Modulus (GPa) = 51.33833 74.04274 62.69053
# Shear Modulus (GPa) = 25.21294 30.79851 28.00572
#
# Velocity S-wave (km/s) = 3.65999 4.04514 3.85737
# Velocity P-wave (km/s) = 6.71837 7.82024 7.29015
#
# Compressibility (1/GPa) = 0.01947863
#
# Stress axis : x y z
#
# Youngs Moduli (GPa) = 70.18370 43.90349 91.41622
#
# Poissons Ratio (x) = 0.07202 0.47308
# Poissons Ratio (y) = 0.11513 0.67900
# Poissons Ratio (z) = 0.36320 0.32610
#
# Static dielectric constant tensor:
#      x y z
#    x 3.489690 0.069470 -0.018620 
#    y 0.069470 3.410660 -0.017680 
#    z -0.018620 -0.017680 3.679780 
# 
# 
# High freq. dielectric constant tensor:
#      x y z
#    x 1.730750 0.002070 -0.001140 
#    y 0.002070 1.728430 -0.001160 
#    z -0.001140 -0.001160 1.749670 
# 
# From -- ./inp_files/208893.got.cif
#   From: 2010.06.25/outbox.cif.g09.slc.cpg/sg2_105_cif.got.tgz:208893.got - 2010.06.27 13:26:56.
