data_PCOD8010894
_publ_section_title
;
Structure prediction by ZEFSAII (Michael W. Deem and Ramdas Pophale) SiO2 
 PCOD8010894
Probable space group: P -1
;
_chemical_formula_sum "Si O2"
_cell_formula_units_Z 16
_cell_length_a 12.666577
_cell_length_b 9.857773
_cell_length_c 15.826691
_cell_angle_alpha 67.022753
_cell_angle_beta 154.765879
_cell_angle_gamma 105.694230
_cell_volume 758.266544
_symmetry_space_group_name_H-M "P -1"
_symmetry_group_IT_number 2
_symmetry_cell_setting 'triclinic'
loop_
_space_group_symop_operation_xyz
x,y,z
-x,-y,-z
loop_
_atom_site_type_symbol
_atom_site_label
_atom_site_fract_x
_atom_site_fract_y
_atom_site_fract_z
Si Si1 0.410525 0.677958 0.798856
Si Si2 0.509620 0.990150 0.757791
Si Si3 0.889589 0.449540 0.254637
Si Si4 0.789041 0.940723 0.810168
Si Si5 0.296158 0.630484 0.542647
Si Si6 0.969852 0.043048 0.759866
Si Si7 0.786470 0.646033 0.795471
Si Si8 0.118971 0.223386 0.343996
O O1 0.384894 0.858295 0.736977
O O2 0.174087 0.645530 0.688403
O O3 0.417491 0.605397 0.728912
O O4 0.674280 0.599917 0.051884
O O5 0.544361 0.956988 0.689153
O O6 0.325777 0.155473 0.583326
O O7 0.764562 0.996062 0.989307
O O8 0.155016 0.496733 0.451663
O O9 0.908121 0.347542 0.208307
O O10 0.879603 0.765959 0.894418
O O11 0.743854 0.032821 0.666451
O O12 0.000000 0.000000 0.000000
O O13 0.510710 0.622329 0.628750
O O14 0.090770 0.788478 0.359728
O O15 0.997086 0.918089 0.736661
O O16 0.767156 0.698045 0.670942
O O17 0.000000 0.500000 0.000000
#
# Coordination Sequence:
#
# PCOD8010894 Si02
#       8
#     2   2   2   2   2   2   2   2
#     4  11  23  45  68  89 127 171 224 265 311 377
#     4  11  20  39  67  91 125 170 214 260 315 377
#     4  11  27  43  65  94 127 172 218 268 317 373
#     4   9  19  34  60  89 123 166 204 243 308 384
#     4  12  22  42  69  93 125 173 217 257 320 388
#     4  10  21  38  64  95 128 164 212 256 320 384
#     4  11  23  38  64  99 136 164 201 266 326 381
#     4  11  24  41  61  98 133 160 208 266 320 378
#
# _framework density 21.100759
#
# number of rings (size 3 to 8) (size 9 to 14) (size 15 to 20)
#    0.000    1.250    3.750    1.875    0.000    7.000 
#    0.000    0.625    0.000    0.000    0.000    0.000 
#    0.000    0.000    0.000    0.000    0.000    0.000 
#
# Total GULP energy -198385.400914 kJ/mol
# GULP energy per Si atom -12399.087557 kJ/mol
# Density = 2.105273 g / cm^3
# Si number density = 21.100759 Si / 1000 Ang^3
#
#
#
# Elastic Constant Matrix: (Units=GPa)
#
#
# Indices 1 2 3 4 5 6 
#
# 1 109.5792 46.6664 24.0425 -0.2082 2.8594 17.8753
# 2 46.6664 103.0797 24.0091 -1.6107 11.4707 16.6453
# 3 24.0425 24.0091 77.8038 -6.1466 -1.9374 17.5201
# 4 -0.2082 -1.6107 -6.1466 27.7903 1.2757 -2.1636
# 5 2.8594 11.4707 -1.9374 1.2757 26.3680 -2.9869
# 6 17.8753 16.6453 17.5201 -2.1636 -2.9869 33.9747
#
#
#
# Elastic Compliance Matrix: (Units=1/GPa)
#
#
# Indices 1 2 3 4 5 6 
#
# 1 0.011937 -0.004541 -0.001611 -0.000794 0.000233 -0.003255
# 2 -0.004541 0.013497 -0.002062 0.000280 -0.005959 -0.003666
# 3 -0.001611 -0.002062 0.015564 0.002789 0.001416 -0.005866
# 4 -0.000794 0.000280 0.002789 0.036761 -0.001490 0.001052
# 5 0.000233 -0.005959 0.001416 -0.001490 0.041303 0.005603
# 6 -0.003255 -0.003666 -0.005866 0.001052 0.005603 0.036526
#
#
# Mechanical properties :
#
#
# Convention : Reuss Voigt Hill
#
# Bulk Modulus (GPa) = 40.70478 53.32208 47.01343
# Shear Modulus (GPa) = 27.74582 30.67625 29.21103
#
# Velocity S-wave (km/s) = 3.63012 3.81701 3.72473
# Velocity P-wave (km/s) = 6.07477 6.68963 6.38960
#
# Compressibility (1/GPa) = 0.02456714
#
# Stress axis : x y z
#
# Youngs Moduli (GPa) = 83.77494 74.08996 64.25251
#
# Poissons Ratio (x) = 0.33648 0.10353
# Poissons Ratio (y) = 0.38046 0.13252
# Poissons Ratio (z) = 0.13499 0.15280
#
# Static dielectric constant tensor:
#      x y z
#    x 3.946560 0.139250 -0.112420 
#    y 0.139250 3.846050 -0.050850 
#    z -0.112420 -0.050850 3.682590 
# 
# 
# High freq. dielectric constant tensor:
#      x y z
#    x 1.819820 0.008920 -0.012790 
#    y 0.008920 1.832410 0.000120 
#    z -0.012790 0.000120 1.824590 
# 
# From -- ./inp_files/187227.got.cif
#   From: 2010.06.25/outbox.cif.g09.slc.cpg/sg2_94_cif.got.tgz:187227.got - 2010.06.27 13:26:56.
