data_PCOD8010322
_publ_section_title
;
Structure prediction by ZEFSAII (Michael W. Deem and Ramdas Pophale) SiO2 
 PCOD8010322
Probable space group: P -1
;
_chemical_formula_sum "Si O2"
_cell_formula_units_Z 12
_cell_length_a 9.499912
_cell_length_b 15.474356
_cell_length_c 8.802274
_cell_angle_alpha 104.784734
_cell_angle_beta 45.966180
_cell_angle_gamma 133.698273
_cell_volume 606.289158
_symmetry_space_group_name_H-M "P -1"
_symmetry_group_IT_number 2
_symmetry_cell_setting 'triclinic'
loop_
_space_group_symop_operation_xyz
x,y,z
-x,-y,-z
loop_
_atom_site_type_symbol
_atom_site_label
_atom_site_fract_x
_atom_site_fract_y
_atom_site_fract_z
Si Si1 0.544484 0.340106 0.027232
Si Si2 0.670419 0.182738 0.932581
Si Si3 0.795815 0.559240 0.742639
Si Si4 0.443546 0.973231 0.779080
Si Si5 0.694703 0.599881 0.534588
Si Si6 0.054785 0.825949 0.732781
O O1 0.475282 0.378502 0.241690
O O2 0.257971 0.234967 0.089899
O O3 0.650150 0.282003 0.984707
O O4 0.811012 0.468887 0.778197
O O5 0.001031 0.260751 0.695654
O O6 0.464419 0.069261 0.908711
O O7 0.567717 0.117735 0.146662
O O8 0.767710 0.543771 0.573498
O O9 0.050625 0.715984 0.663415
O O10 0.500000 0.500000 0.000000
O O11 0.151191 0.880869 0.856428
O O12 0.720785 0.054880 0.499786
O O13 0.500000 0.500000 0.500000
#
# Coordination Sequence:
#
# PCOD8010322 Si02
#       6
#     2   2   2   2   2   2
#     4  10  22  39  61  86 114 152 192 240 281 343
#     4  11  23  38  59  89 115 149 198 232 287 338
#     4   8  17  36  59  81 111 150 182 238 284 332
#     4  10  21  38  59  83 120 158 184 238 280 343
#     4  10  21  39  58  86 121 147 185 243 295 330
#     4   9  18  40  61  80 117 156 189 228 294 332
#
# _framework density 19.792536999999999
#
# number of rings (size 3 to 8) (size 9 to 14) (size 15 to 20)
#    0.000    2.667    3.333    0.000    7.000    2.667 
#    0.000    1.667    0.000    0.000    0.000    0.000 
#    0.000    0.000    0.000    0.000    0.000    0.000 
#
# Total GULP energy -148717.067143 kJ/mol
# GULP energy per Si atom -12393.088929 kJ/mol
# Density = 1.974749 g / cm^3
# Si number density = 19.792537 Si / 1000 Ang^3
#
#
#
# Elastic Constant Matrix: (Units=GPa)
#
#
# Indices 1 2 3 4 5 6 
#
# 1 91.1025 75.1909 47.8401 4.8673 29.3424 5.8606
# 2 75.1909 109.2073 42.2150 -5.5200 24.6240 8.9496
# 3 47.8401 42.2150 69.9149 -11.2102 27.9371 -0.3170
# 4 4.8673 -5.5200 -11.2102 30.2076 -2.1580 6.1485
# 5 29.3424 24.6240 27.9371 -2.1580 30.5383 -0.9894
# 6 5.8606 8.9496 -0.3170 6.1485 -0.9894 55.9822
#
#
#
# Elastic Compliance Matrix: (Units=1/GPa)
#
#
# Indices 1 2 3 4 5 6 
#
# 1 0.037826 -0.019820 -0.012265 -0.015123 -0.010192 0.000620
# 2 -0.019820 0.023046 0.000906 0.008262 0.000135 -0.002509
# 3 -0.012265 0.000906 0.030533 0.012397 -0.016013 -0.000332
# 4 -0.015123 0.008262 0.012397 0.042492 -0.000610 -0.004345
# 5 -0.010192 0.000135 -0.016013 -0.000610 0.057102 0.002031
# 6 0.000620 -0.002509 -0.000332 -0.004345 0.002031 0.018710
#
#
# Mechanical properties :
#
#
# Convention : Reuss Voigt Hill
#
# Bulk Modulus (GPa) = 34.42604 66.74629 50.58617
# Shear Modulus (GPa) = 17.74627 30.34419 24.04523
#
# Velocity S-wave (km/s) = 2.99760 3.91975 3.48927
# Velocity P-wave (km/s) = 5.42328 7.36763 6.46893
#
# Compressibility (1/GPa) = 0.02904777
#
# Stress axis : x y z
#
# Youngs Moduli (GPa) = 26.43664 43.39198 32.75113
#
# Poissons Ratio (x) = 0.86003 0.40170
# Poissons Ratio (y) = 0.52397 -0.02969
# Poissons Ratio (z) = 0.32425 -0.03933
#
# Static dielectric constant tensor:
#      x y z
#    x 3.662440 -0.175180 0.494980 
#    y -0.175180 4.053350 -0.479770 
#    z 0.494980 -0.479770 3.731380 
# 
# 
# High freq. dielectric constant tensor:
#      x y z
#    x 1.757310 0.007310 0.029360 
#    y 0.007310 1.769650 -0.021620 
#    z 0.029360 -0.021620 1.769380 
# 
# From -- ./inp_files/161503.got.cif
#   From: 2010.06.25/outbox.cif.g09.slc.cpg/sg2_81_cif.got.tgz:161503.got - 2010.06.27 13:26:56.
