data_PCOD8010754
_publ_section_title
;
Structure prediction by ZEFSAII (Michael W. Deem and Ramdas Pophale) SiO2 
 PCOD8010754
Probable space group: P -1
;
_chemical_formula_sum "Si O2"
_cell_formula_units_Z 14
_cell_length_a 8.086685
_cell_length_b 12.760564
_cell_length_c 11.767205
_cell_angle_alpha 143.814386
_cell_angle_beta 90.524952
_cell_angle_gamma 70.751969
_cell_volume 600.653846
_symmetry_space_group_name_H-M "P -1"
_symmetry_group_IT_number 2
_symmetry_cell_setting 'triclinic'
loop_
_space_group_symop_operation_xyz
x,y,z
-x,-y,-z
loop_
_atom_site_type_symbol
_atom_site_label
_atom_site_fract_x
_atom_site_fract_y
_atom_site_fract_z
Si Si1 0.309190 0.127513 0.032100
Si Si2 0.795321 0.665989 0.204135
Si Si3 0.644041 0.461714 0.194762
Si Si4 0.251848 0.790941 0.613101
Si Si5 0.074079 0.757222 0.789375
Si Si6 0.625794 0.654770 0.981750
Si Si7 0.971765 0.173818 0.564585
O O1 0.273778 0.972586 0.823065
O O2 0.323494 0.283879 0.084047
O O3 0.116531 0.263148 0.231595
O O4 0.500000 0.000000 0.000000
O O5 0.714226 0.558695 0.187642
O O6 0.829979 0.820765 0.417326
O O7 0.637323 0.784862 0.202946
O O8 0.000000 0.500000 0.000000
O O9 0.448465 0.636620 0.411267
O O10 0.816553 0.340880 0.179069
O O11 0.592245 0.305069 0.994725
O O12 0.217578 0.657882 0.593478
O O13 0.058999 0.894170 0.619974
O O14 0.000000 0.000000 0.000000
O O15 0.780019 0.406504 0.793065
O O16 0.000000 0.000000 0.500000
#
# Coordination Sequence:
#
# PCOD8010754 Si02
#       7
#     2   2   2   2   2   2   2
#     4  11  23  43  67  95 126 166 213 259 316 385
#     4  10  21  39  63  90 121 166 210 253 309 375
#     4  11  22  41  64  94 129 166 212 264 315 371
#     4  10  23  41  61  94 130 166 209 265 315 369
#     4  10  21  38  63  91 124 168 210 255 314 378
#     4  10  21  39  63  92 125 165 210 258 310 375
#     4  10  21  39  62  90 124 163 209 262 313 365
#
# _framework density 23.307933999999999
#
# number of rings (size 3 to 8) (size 9 to 14) (size 15 to 20)
#    0.000    1.714    0.000    5.143    0.000    5.714 
#    0.000   16.429    0.000    0.000    0.000    0.000 
#    0.000    0.000    0.000    0.000    0.000    0.000 
#
# Total GULP energy -173484.513106 kJ/mol
# GULP energy per Si atom -12391.750936 kJ/mol
# Density = 2.325488 g / cm^3
# Si number density = 23.307934 Si / 1000 Ang^3
#
#
#
# Elastic Constant Matrix: (Units=GPa)
#
#
# Indices 1 2 3 4 5 6 
#
# 1 205.3329 92.0603 37.6253 -17.5898 13.1639 12.9524
# 2 92.0603 175.9692 23.1134 -8.1125 -0.7008 6.7615
# 3 37.6253 23.1134 39.0803 -14.6244 9.5993 -5.7204
# 4 -17.5898 -8.1125 -14.6244 35.5132 -3.1139 4.5022
# 5 13.1639 -0.7008 9.5993 -3.1139 41.6440 -10.9857
# 6 12.9524 6.7615 -5.7204 4.5022 -10.9857 53.1181
#
#
#
# Elastic Compliance Matrix: (Units=1/GPa)
#
#
# Indices 1 2 3 4 5 6 
#
# 1 0.007560 -0.003176 -0.004861 0.001163 -0.001882 -0.002450
# 2 -0.003176 0.007593 -0.002016 -0.000528 0.001545 -0.000045
# 3 -0.004861 -0.002016 0.037681 0.011745 -0.005412 0.003385
# 4 0.001163 -0.000528 0.011745 0.033611 -0.001106 -0.002029
# 5 -0.001882 0.001545 -0.005412 -0.001106 0.027224 0.005404
# 6 -0.002450 -0.000045 0.003385 -0.002029 0.005404 0.021083
#
#
# Mechanical properties :
#
#
# Convention : Reuss Voigt Hill
#
# Bulk Modulus (GPa) = 30.55655 80.66450 55.61053
# Shear Modulus (GPa) = 30.16265 43.89395 37.02830
#
# Velocity S-wave (km/s) = 3.60125 4.34432 3.99012
# Velocity P-wave (km/s) = 5.51638 7.73611 6.71855
#
# Compressibility (1/GPa) = 0.03272621
#
# Stress axis : x y z
#
# Youngs Moduli (GPa) = 132.27941 131.70239 26.53860
#
# Poissons Ratio (x) = 0.41832 0.12901
# Poissons Ratio (y) = 0.42015 0.05351
# Poissons Ratio (z) = 0.64302 0.26556
#
# Static dielectric constant tensor:
#      x y z
#    x 4.987310 0.196150 0.214300 
#    y 0.196150 3.788900 -0.572710 
#    z 0.214300 -0.572710 4.433800 
# 
# 
# High freq. dielectric constant tensor:
#      x y z
#    x 1.948490 -0.004430 0.014640 
#    y -0.004430 1.938220 -0.015020 
#    z 0.014640 -0.015020 1.891880 
# 
# From -- ./inp_files/391616.got.cif
#   From: 2010.06.25/outbox.cif.g09.slc.cpg/sg2_196_cif.got.tgz:391616.got - 2010.06.27 13:26:56.
