data_PCOD8010792
_publ_section_title
;
Structure prediction by ZEFSAII (Michael W. Deem and Ramdas Pophale) SiO2 
 PCOD8010792
Probable space group: P -1
;
_chemical_formula_sum "Si O2"
_cell_formula_units_Z 16
_cell_length_a 20.103934
_cell_length_b 6.532530
_cell_length_c 20.060729
_cell_angle_alpha 64.590018
_cell_angle_beta 20.864089
_cell_angle_gamma 75.025703
_cell_volume 759.758843
_symmetry_space_group_name_H-M "P -1"
_symmetry_group_IT_number 2
_symmetry_cell_setting 'triclinic'
loop_
_space_group_symop_operation_xyz
x,y,z
-x,-y,-z
loop_
_atom_site_type_symbol
_atom_site_label
_atom_site_fract_x
_atom_site_fract_y
_atom_site_fract_z
Si Si1 0.315482 0.612203 0.352341
Si Si2 0.240464 0.716127 0.551548
Si Si3 0.782810 0.375991 0.054284
Si Si4 0.462534 0.479912 0.637209
Si Si5 0.231418 0.105610 0.796059
Si Si6 0.552931 0.818396 0.873130
Si Si7 0.195656 0.460566 0.346369
Si Si8 0.529506 0.282919 0.182223
O O1 0.205466 0.582728 0.530509
O O2 0.167143 0.441748 0.455814
O O3 0.495705 0.522579 0.204031
O O4 0.401767 0.894536 0.205406
O O5 0.397856 0.663675 0.458092
O O6 0.324705 0.017248 0.424104
O O7 0.017144 0.591180 0.812943
O O8 0.636222 0.491172 0.205550
O O9 0.722860 0.299406 0.043494
O O10 0.739888 0.130402 0.171230
O O11 0.278427 0.312747 0.781651
O O12 0.605099 0.757966 0.435202
O O13 0.000000 0.000000 0.000000
O O14 0.769730 0.784274 0.675671
O O15 0.420727 0.696097 0.946161
O O16 0.410597 0.691095 0.088237
O O17 0.000000 0.500000 0.500000
#
# Coordination Sequence:
#
# PCOD8010792 Si02
#       8
#     2   2   2   2   2   2   2   2
#     4  10  21  42  62  87 129 167 203 261 309 360
#     4  11  23  41  62  94 125 162 218 257 309 378
#     4  12  24  40  68  91 122 174 204 258 324 365
#     4  11  24  43  64  93 127 160 211 261 310 379
#     4  11  24  44  66  93 126 164 207 260 318 377
#     4   9  21  41  61  88 131 161 203 260 304 364
#     4  10  21  38  63  95 123 164 207 252 308 369
#     4  10  22  42  62  91 129 166 210 262 309 368
#
# _framework density 21.059313
#
# number of rings (size 3 to 8) (size 9 to 14) (size 15 to 20)
#    0.000    1.500    3.750    0.750    1.750    3.000 
#    6.750    0.000    0.000    0.000    0.000    0.000 
#    0.000    0.000    0.000    0.000    0.000    0.000 
#
# Total GULP energy -198297.659429 kJ/mol
# GULP energy per Si atom -12393.603714 kJ/mol
# Density = 2.101138 g / cm^3
# Si number density = 21.059313 Si / 1000 Ang^3
#
#
#
# Elastic Constant Matrix: (Units=GPa)
#
#
# Indices 1 2 3 4 5 6 
#
# 1 108.1517 19.9973 32.2854 9.4404 -13.6880 -8.5131
# 2 19.9973 101.8700 33.9897 -0.5029 -5.0780 -18.6290
# 3 32.2854 33.9897 87.5463 -0.3678 -13.5613 -0.2325
# 4 9.4404 -0.5029 -0.3678 29.2925 -6.0518 3.1295
# 5 -13.6880 -5.0780 -13.5613 -6.0518 34.2991 -0.2115
# 6 -8.5131 -18.6290 -0.2325 3.1295 -0.2115 37.1779
#
#
#
# Elastic Compliance Matrix: (Units=1/GPa)
#
#
# Indices 1 2 3 4 5 6 
#
# 1 0.011213 -0.000410 -0.003613 -0.003454 0.002393 0.002644
# 2 -0.000410 0.012613 -0.004765 -0.000421 -0.000216 0.006231
# 3 -0.003613 -0.004765 0.015275 0.002519 0.004316 -0.003307
# 4 -0.003454 -0.000421 0.002519 0.036960 0.006051 -0.004063
# 5 0.002393 -0.000216 0.004316 0.006051 0.032853 0.000144
# 6 0.002644 0.006231 -0.003307 -0.004063 0.000144 0.030947
#
#
# Mechanical properties :
#
#
# Convention : Reuss Voigt Hill
#
# Bulk Modulus (GPa) = 46.45408 52.23474 49.34441
# Shear Modulus (GPa) = 30.37428 34.24027 32.30727
#
# Velocity S-wave (km/s) = 3.80191 4.03662 3.92102
# Velocity P-wave (km/s) = 6.43267 6.82519 6.63183
#
# Compressibility (1/GPa) = 0.02152663
#
# Stress axis : x y z
#
# Youngs Moduli (GPa) = 89.18191 79.28187 65.46572
#
# Poissons Ratio (x) = 0.03250 0.23652
# Poissons Ratio (y) = 0.03656 0.31192
# Poissons Ratio (z) = 0.32220 0.37774
#
# Static dielectric constant tensor:
#      x y z
#    x 4.105700 -0.109800 0.099230 
#    y -0.109800 3.931100 -0.000540 
#    z 0.099230 -0.000540 3.473120 
# 
# 
# High freq. dielectric constant tensor:
#      x y z
#    x 1.848430 -0.011580 0.010180 
#    y -0.011580 1.829810 -0.001530 
#    z 0.010180 -0.001530 1.793670 
# 
# From -- ./inp_files/12924.got.cif
#   From: 2010.06.25/outbox.cif.g09.slc.cpg/sg2_7_cif.got.tgz:12924.got - 2010.06.27 13:26:56.
