data_PCOD8010921
_publ_section_title
;
Structure prediction by ZEFSAII (Michael W. Deem and Ramdas Pophale) SiO2 
 PCOD8010921
Probable space group: P -1
;
_chemical_formula_sum "Si O2"
_cell_formula_units_Z 16
_cell_length_a 9.196754
_cell_length_b 9.323972
_cell_length_c 14.857473
_cell_angle_alpha 66.504374
_cell_angle_beta 39.181501
_cell_angle_gamma 79.627631
_cell_volume 719.646915
_symmetry_space_group_name_H-M "P -1"
_symmetry_group_IT_number 2
_symmetry_cell_setting 'triclinic'
loop_
_space_group_symop_operation_xyz
x,y,z
-x,-y,-z
loop_
_atom_site_type_symbol
_atom_site_label
_atom_site_fract_x
_atom_site_fract_y
_atom_site_fract_z
Si Si1 0.641469 0.792958 0.429139
Si Si2 0.105472 0.345662 0.509906
Si Si3 0.376520 0.845323 0.976152
Si Si4 0.907830 0.820824 0.127435
Si Si5 0.784821 0.636475 0.060282
Si Si6 0.597923 0.189859 0.822089
Si Si7 0.774972 0.156018 0.283484
Si Si8 0.460959 0.705654 0.787869
O O1 0.749772 0.659425 0.464673
O O2 0.666312 0.785040 0.310595
O O3 0.362657 0.766310 0.592536
O O4 0.775991 0.972268 0.352220
O O5 0.276135 0.313849 0.356273
O O6 0.000000 0.500000 0.500000
O O7 0.870172 0.205392 0.663734
O O8 0.477847 0.745654 0.875513
O O9 0.460336 0.035501 0.872080
O O10 0.458576 0.810720 0.044288
O O11 0.094876 0.795361 0.119300
O O12 0.903799 0.686288 0.087577
O O13 0.000000 0.000000 0.000000
O O14 0.520196 0.666542 0.188851
O O15 0.747196 0.450012 0.100623
O O16 0.954120 0.744337 0.877817
O O17 0.622635 0.155824 0.263632
#
# Coordination Sequence:
#
# PCOD8010921 Si02
#       8
#     2   2   2   2   2   2   2   2
#     4  10  21  40  66  96 133 176 219 277 327 397
#     4  11  23  45  67  94 139 183 216 278 341 397
#     4  11  23  41  67  99 127 178 233 273 330 405
#     4  12  20  38  68  98 132 176 224 272 331 400
#     4  12  23  40  68 100 137 177 223 279 336 399
#     4  11  24  42  69  96 133 176 231 273 334 410
#     4  10  21  38  64  99 132 170 221 276 335 385
#     4  11  24  43  68  96 141 175 222 283 336 396
#
# _framework density 22.233125999999999
#
# number of rings (size 3 to 8) (size 9 to 14) (size 15 to 20)
#    0.000    1.000    6.250    0.375    1.750    1.000 
#    0.000    5.000    0.000    0.000    0.000    0.000 
#    0.000    0.000    0.000    0.000    0.000    0.000 
#
# Total GULP energy -198264.169817 kJ/mol
# GULP energy per Si atom -12391.510614 kJ/mol
# Density = 2.218252 g / cm^3
# Si number density = 22.233126 Si / 1000 Ang^3
#
#
#
# Elastic Constant Matrix: (Units=GPa)
#
#
# Indices 1 2 3 4 5 6 
#
# 1 66.4603 43.2283 22.3758 6.2560 4.1498 9.2102
# 2 43.2283 105.9603 32.2057 13.5297 14.9125 9.5057
# 3 22.3758 32.2057 138.7502 26.0487 4.0032 19.0821
# 4 6.2560 13.5297 26.0487 25.6914 -4.7238 4.3564
# 5 4.1498 14.9125 4.0032 -4.7238 30.2982 6.1669
# 6 9.2102 9.5057 19.0821 4.3564 6.1669 45.0809
#
#
#
# Elastic Compliance Matrix: (Units=1/GPa)
#
#
# Indices 1 2 3 4 5 6 
#
# 1 0.021082 -0.008457 -0.001482 0.001627 0.002204 -0.002355
# 2 -0.008457 0.014903 -0.000750 -0.006436 -0.007184 0.000507
# 3 -0.001482 -0.000750 0.009695 -0.008930 -0.001579 -0.002564
# 4 0.001627 -0.006436 -0.008930 0.053715 0.012938 -0.002156
# 5 0.002204 -0.007184 -0.001579 0.012938 0.039466 -0.004916
# 6 -0.002355 0.000507 -0.002564 -0.002156 -0.004916 0.024523
#
#
# Mechanical properties :
#
#
# Convention : Reuss Voigt Hill
#
# Bulk Modulus (GPa) = 41.14796 56.31003 48.72899
# Shear Modulus (GPa) = 25.92547 34.43819 30.18183
#
# Velocity S-wave (km/s) = 3.41849 3.93995 3.68845
# Velocity P-wave (km/s) = 5.84201 6.78820 6.33280
#
# Compressibility (1/GPa) = 0.02430254
#
# Stress axis : x y z
#
# Youngs Moduli (GPa) = 47.43426 67.10150 103.14825
#
# Poissons Ratio (x) = 0.56747 0.15287
# Poissons Ratio (y) = 0.40115 0.07732
# Poissons Ratio (z) = 0.07030 0.05030
#
# Static dielectric constant tensor:
#      x y z
#    x 3.735550 -0.147210 -0.072680 
#    y -0.147210 3.864640 0.122440 
#    z -0.072680 0.122440 4.403120 
# 
# 
# High freq. dielectric constant tensor:
#      x y z
#    x 1.850060 -0.017900 -0.004270 
#    y -0.017900 1.863560 0.012520 
#    z -0.004270 0.012520 1.895080 
# 
# From -- ./inp_files/494577.got.cif
#   From: 2010.06.25/outbox.cif.g09.slc.cpg/sg2_248_cif.got.tgz:494577.got - 2010.06.27 13:26:56.
