data_PCOD8010206
_publ_section_title
;
Structure prediction by ZEFSAII (Michael W. Deem and Ramdas Pophale) SiO2 
 PCOD8010206
Probable space group: P -1
;
_chemical_formula_sum "Si O2"
_cell_formula_units_Z 16
_cell_length_a 11.859110
_cell_length_b 28.153154
_cell_length_c 6.456421
_cell_angle_alpha 134.428965
_cell_angle_beta 131.871930
_cell_angle_gamma 27.378258
_cell_volume 700.962160
_symmetry_space_group_name_H-M "P -1"
_symmetry_group_IT_number 2
_symmetry_cell_setting 'triclinic'
loop_
_space_group_symop_operation_xyz
x,y,z
-x,-y,-z
loop_
_atom_site_type_symbol
_atom_site_label
_atom_site_fract_x
_atom_site_fract_y
_atom_site_fract_z
Si Si1 0.176634 0.065122 0.731532
Si Si2 0.905042 0.965877 0.877110
Si Si3 0.502498 0.867182 0.786464
Si Si4 0.985580 0.734208 0.822317
Si Si5 0.265716 0.817858 0.220521
Si Si6 0.954871 0.416464 0.769825
Si Si7 0.819989 0.549307 0.621898
Si Si8 0.503196 0.386973 0.917283
O O1 0.174892 0.062860 0.474093
O O2 0.956624 0.090930 0.610604
O O3 0.432760 0.950267 0.791517
O O4 0.106045 0.160786 0.034809
O O5 0.132433 0.857170 0.955271
O O6 0.650397 0.070075 0.001962
O O7 0.000000 0.000000 0.000000
O O8 0.455932 0.812673 0.453243
O O9 0.800014 0.772787 0.896625
O O10 0.959820 0.689848 0.467868
O O11 0.276474 0.637565 0.941389
O O12 0.414636 0.698994 0.086196
O O13 0.894669 0.463587 0.606909
O O14 0.722491 0.498476 0.893234
O O15 0.181670 0.381944 0.035198
O O16 0.561527 0.621402 0.413937
O O17 0.000000 0.500000 0.500000
#
# Coordination Sequence:
#
# PCOD8010206 Si02
#       8
#     2   2   2   2   2   2   2   2
#     4  10  21  43  62  91 133 172 214 267 324 388
#     4  11  19  40  67  94 124 174 221 270 320 371
#     4  11  22  39  63  94 133 167 219 270 315 391
#     4  11  25  41  63  98 138 173 205 270 337 382
#     4  10  21  37  69  96 125 168 221 268 316 384
#     4  10  22  45  70  95 129 173 220 263 327 386
#     4   9  21  42  69  95 125 162 222 278 307 372
#     4  10  23  44  67  96 135 169 215 269 324 389
#
# _framework density 22.825769000000001
#
# number of rings (size 3 to 8) (size 9 to 14) (size 15 to 20)
#    0.000    1.750    2.500    1.500    5.250    3.000 
#    2.250    8.750    0.000    0.000    0.000    0.000 
#    0.000    0.000    0.000    0.000    0.000    0.000 
#
# Total GULP energy -198252.329619 kJ/mol
# GULP energy per Si atom -12390.770601 kJ/mol
# Density = 2.277382 g / cm^3
# Si number density = 22.825769 Si / 1000 Ang^3
#
#
#
# Elastic Constant Matrix: (Units=GPa)
#
#
# Indices 1 2 3 4 5 6 
#
# 1 109.3721 41.7028 57.8565 -7.6643 6.1212 -20.0362
# 2 41.7028 63.9503 64.3006 4.4680 2.1558 -2.7556
# 3 57.8565 64.3006 155.8158 6.1366 3.4918 7.3635
# 4 -7.6643 4.4680 6.1366 33.8602 7.8327 3.4218
# 5 6.1212 2.1558 3.4918 7.8327 35.3098 -9.3304
# 6 -20.0362 -2.7556 7.3635 3.4218 -9.3304 33.9207
#
#
#
# Elastic Compliance Matrix: (Units=1/GPa)
#
#
# Indices 1 2 3 4 5 6 
#
# 1 0.015434 -0.006190 -0.003750 0.004215 -0.000521 0.008859
# 2 -0.006190 0.030144 -0.010103 -0.004112 0.001633 0.001850
# 3 -0.003750 -0.010103 0.012326 -0.000830 -0.001353 -0.006000
# 4 0.004215 -0.004112 -0.000830 0.033555 -0.008754 -0.003457
# 5 -0.000521 0.001633 -0.001353 -0.008754 0.033054 0.010094
# 6 0.008859 0.001850 -0.006000 -0.003457 0.010094 0.039291
#
#
# Mechanical properties :
#
#
# Convention : Reuss Voigt Hill
#
# Bulk Modulus (GPa) = 56.12009 72.98422 64.55216
# Shear Modulus (GPa) = 23.82876 31.63670 27.73273
#
# Velocity S-wave (km/s) = 3.23451 3.72695 3.48943
# Velocity P-wave (km/s) = 6.21201 7.11085 6.67657
#
# Compressibility (1/GPa) = 0.01781893
#
# Stress axis : x y z
#
# Youngs Moduli (GPa) = 64.79110 33.17374 81.12955
#
# Poissons Ratio (x) = 0.20534 0.30420
# Poissons Ratio (y) = 0.40106 0.81968
# Poissons Ratio (z) = 0.24293 0.33516
#
# Static dielectric constant tensor:
#      x y z
#    x 4.305750 -0.212560 0.103630 
#    y -0.212560 4.027340 -0.223740 
#    z 0.103630 -0.223740 4.376790 
# 
# 
# High freq. dielectric constant tensor:
#      x y z
#    x 1.905650 -0.017620 0.012920 
#    y -0.017620 1.884170 0.005540 
#    z 0.012920 0.005540 1.900220 
# 
# From -- ./inp_files/85175.got.cif
#   From: 2010.06.25/outbox.cif.g09.slc.cpg/sg2_43_cif.got.tgz:85175.got - 2010.06.27 13:26:56.
