data_PCOD8010987
_publ_section_title
;
Structure prediction by ZEFSAII (Michael W. Deem and Ramdas Pophale) SiO2 
 PCOD8010987
Probable space group: P -1
;
_chemical_formula_sum "Si O2"
_cell_formula_units_Z 14
_cell_length_a 14.444346
_cell_length_b 13.265904
_cell_length_c 4.873043
_cell_angle_alpha 95.547538
_cell_angle_beta 106.971190
_cell_angle_gamma 136.462314
_cell_volume 543.695165
_symmetry_space_group_name_H-M "P -1"
_symmetry_group_IT_number 2
_symmetry_cell_setting 'triclinic'
loop_
_space_group_symop_operation_xyz
x,y,z
-x,-y,-z
loop_
_atom_site_type_symbol
_atom_site_label
_atom_site_fract_x
_atom_site_fract_y
_atom_site_fract_z
Si Si1 0.637881 0.207568 0.490744
Si Si2 0.567957 0.947654 0.221031
Si Si3 0.912889 0.534228 0.484944
Si Si4 0.421434 0.261175 0.742877
Si Si5 0.411610 0.528232 0.531887
Si Si6 0.921946 0.988508 0.678440
Si Si7 0.076113 0.320428 0.000486
O O1 0.592748 0.193764 0.762741
O O2 0.753227 0.382852 0.489278
O O3 0.695337 0.136165 0.495747
O O4 0.476829 0.065521 0.135640
O O5 0.646076 0.902434 0.262555
O O6 0.005023 0.683164 0.819144
O O7 0.000000 0.500000 0.500000
O O8 0.878832 0.564463 0.179011
O O9 0.545664 0.416576 0.099561
O O10 0.509723 0.318160 0.544038
O O11 0.263349 0.196275 0.545395
O O12 0.500000 0.500000 0.500000
O O13 0.224846 0.379773 0.270689
O O14 0.000000 0.000000 0.500000
O O15 0.950492 0.133372 0.740909
O O16 0.000000 0.000000 0.000000
#
# Coordination Sequence:
#
# PCOD8010987 Si02
#       7
#     2   2   2   2   2   2   2
#     4  10  21  40  62  94 136 167 231 278 342 389
#     4  10  21  38  65  94 126 178 216 293 333 404
#     4  12  26  44  69 103 148 197 242 287 351 442
#     4  12  24  42  71  99 134 176 237 281 354 424
#     4  12  25  44  73 104 135 177 238 303 362 423
#     4  12  27  49  71 103 146 188 235 297 367 435
#     4  12  26  47  73 106 148 193 237 302 368 424
#
# _framework density 25.749724000000001
#
# number of rings (size 3 to 8) (size 9 to 14) (size 15 to 20)
#    0.000    0.571    0.000    9.429    2.000    0.000 
#    5.143    0.000    0.000    0.000    0.000    0.000 
#    0.000    0.000    0.000    0.000    0.000    0.000 
#
# Total GULP energy -173479.525423 kJ/mol
# GULP energy per Si atom -12391.394673 kJ/mol
# Density = 2.569112 g / cm^3
# Si number density = 25.749724 Si / 1000 Ang^3
#
#
#
# Elastic Constant Matrix: (Units=GPa)
#
#
# Indices 1 2 3 4 5 6 
#
# 1 80.0853 -4.2623 37.5427 -0.4010 -17.0154 -10.0362
# 2 -4.2623 65.3092 21.0668 -9.7036 0.5527 -8.7993
# 3 37.5427 21.0668 137.3664 -14.4064 -10.9271 6.8317
# 4 -0.4010 -9.7036 -14.4064 43.1803 1.9108 -0.4949
# 5 -17.0154 0.5527 -10.9271 1.9108 43.8071 1.8047
# 6 -10.0362 -8.7993 6.8317 -0.4949 1.8047 52.0309
#
#
#
# Elastic Compliance Matrix: (Units=1/GPa)
#
#
# Indices 1 2 3 4 5 6 
#
# 1 0.016525 0.003029 -0.004889 -0.000972 0.005032 0.004158
# 2 0.003029 0.017595 -0.003440 0.002890 -0.000196 0.004046
# 3 -0.004889 -0.003440 0.009568 0.002318 0.000544 -0.002778
# 4 -0.000972 0.002890 0.002318 0.024616 -0.000920 0.000263
# 5 0.005032 -0.000196 0.000544 -0.000920 0.024961 -0.000009
# 6 0.004158 0.004046 -0.002778 0.000263 -0.000009 0.021073
#
#
# Mechanical properties :
#
#
# Convention : Reuss Voigt Hill
#
# Bulk Modulus (GPa) = 30.22285 43.49505 36.85895
# Shear Modulus (GPa) = 36.77312 43.03122 39.90217
#
# Velocity S-wave (km/s) = 3.78312 4.09238 3.94079
# Velocity P-wave (km/s) = 5.55385 6.26564 5.92045
#
# Compressibility (1/GPa) = 0.03308755
#
# Stress axis : x y z
#
# Youngs Moduli (GPa) = 60.51327 56.83375 104.51274
#
# Poissons Ratio (x) = -0.17214 0.51100
# Poissons Ratio (y) = -0.18329 0.35953
# Poissons Ratio (z) = 0.29587 0.19551
#
# Static dielectric constant tensor:
#      x y z
#    x 4.678220 -0.288160 -0.123110 
#    y -0.288160 5.022000 -0.179620 
#    z -0.123110 -0.179620 4.686460 
# 
# 
# High freq. dielectric constant tensor:
#      x y z
#    x 2.028040 -0.027600 -0.014760 
#    y -0.027600 2.038680 -0.014870 
#    z -0.014760 -0.014870 2.035150 
# 
# From -- ./inp_files/95025.got.cif
#   From: 2010.06.25/outbox.cif.g09.slc.cpg/sg2_48_cif.got.tgz:95025.got - 2010.06.27 13:26:56.
