data_PCOD8010859
_publ_section_title
;
Structure prediction by ZEFSAII (Michael W. Deem and Ramdas Pophale) SiO2 
 PCOD8010859
Probable space group: P -1
;
_chemical_formula_sum "Si O2"
_cell_formula_units_Z 16
_cell_length_a 9.734542
_cell_length_b 12.780319
_cell_length_c 11.353900
_cell_angle_alpha 58.088596
_cell_angle_beta 61.268566
_cell_angle_gamma 43.763573
_cell_volume 817.511180
_symmetry_space_group_name_H-M "P -1"
_symmetry_group_IT_number 2
_symmetry_cell_setting 'triclinic'
loop_
_space_group_symop_operation_xyz
x,y,z
-x,-y,-z
loop_
_atom_site_type_symbol
_atom_site_label
_atom_site_fract_x
_atom_site_fract_y
_atom_site_fract_z
Si Si1 0.283183 0.211725 0.336566
Si Si2 0.857334 0.116646 0.883847
Si Si3 0.518423 0.545578 0.089569
Si Si4 0.624042 0.615506 0.645123
Si Si5 0.556118 0.855120 0.360811
Si Si6 0.546736 0.114937 0.882238
Si Si7 0.217420 0.377375 0.029668
Si Si8 0.966201 0.724467 0.373791
O O1 0.386374 0.285941 0.297862
O O2 0.214805 0.275310 0.193701
O O3 0.103908 0.263316 0.469539
O O4 0.435098 0.021778 0.379941
O O5 0.663394 0.269981 0.932363
O O6 0.768867 0.050616 0.874797
O O7 0.972352 0.162521 0.731464
O O8 0.000000 0.000000 0.000000
O O9 0.515113 0.435925 0.250473
O O10 0.500000 0.500000 0.000000
O O11 0.729303 0.511491 0.017472
O O12 0.530322 0.735482 0.503700
O O13 0.852617 0.458428 0.620892
O O14 0.470936 0.867642 0.260611
O O15 0.790233 0.780446 0.318333
O O16 0.370395 0.278544 0.918637
O O17 0.500000 0.000000 0.000000
O O18 0.000000 0.500000 0.000000
#
# Coordination Sequence:
#
# PCOD8010859 Si02
#       8
#     2   2   2   2   2   2   2   2
#     4  11  21  39  61  90 122 155 206 242 300 358
#     4  10  23  40  62  88 120 161 200 249 298 358
#     4  10  21  40  62  88 118 152 206 248 291 360
#     4  10  21  38  64  92 117 159 204 246 301 356
#     4  11  22  38  63  89 124 160 194 254 300 356
#     4  11  23  42  60  90 123 156 204 246 305 356
#     4  11  25  39  61  90 122 159 199 251 304 353
#     4  10  22  38  63  92 117 160 204 245 300 359
#
# _framework density 19.571598000000002
#
# number of rings (size 3 to 8) (size 9 to 14) (size 15 to 20)
#    0.000    1.500    2.500    3.750    5.250    2.000 
#    2.250    2.500    0.000    0.000    0.000    0.000 
#    0.000    0.000    0.000    0.000    0.000    0.000 
#
# Total GULP energy -198255.832911 kJ/mol
# GULP energy per Si atom -12390.989557 kJ/mol
# Density = 1.952705 g / cm^3
# Si number density = 19.571598 Si / 1000 Ang^3
#
#
#
# Elastic Constant Matrix: (Units=GPa)
#
#
# Indices 1 2 3 4 5 6 
#
# 1 142.8598 46.5529 69.7392 -10.7918 -3.1942 1.2056
# 2 46.5529 84.4192 48.0769 -12.7959 4.5764 7.0279
# 3 69.7392 48.0769 126.0417 -16.6807 1.0979 -1.1915
# 4 -10.7918 -12.7959 -16.6807 37.5000 5.7866 1.5051
# 5 -3.1942 4.5764 1.0979 5.7866 38.5886 0.2865
# 6 1.2056 7.0279 -1.1915 1.5051 0.2865 27.8968
#
#
#
# Elastic Compliance Matrix: (Units=1/GPa)
#
#
# Indices 1 2 3 4 5 6 
#
# 1 0.010253 -0.003244 -0.004497 -0.000383 0.001417 0.000188
# 2 -0.003244 0.017145 -0.004287 0.003606 -0.002687 -0.004529
# 3 -0.004497 -0.004287 0.012452 0.002816 -0.000653 0.001661
# 4 -0.000383 0.003606 0.002816 0.029906 -0.005007 -0.002334
# 5 0.001417 -0.002687 -0.000653 -0.005007 0.027115 0.000579
# 6 0.000188 -0.004529 0.001661 -0.002334 0.000579 0.037170
#
#
# Mechanical properties :
#
#
# Convention : Reuss Voigt Hill
#
# Bulk Modulus (GPa) = 63.31509 75.78430 69.54969
# Shear Modulus (GPa) = 30.60677 33.39386 32.00032
#
# Velocity S-wave (km/s) = 3.95883 4.13515 4.04795
# Velocity P-wave (km/s) = 7.30186 7.84888 7.58030
#
# Compressibility (1/GPa) = 0.01579402
#
# Stress axis : x y z
#
# Youngs Moduli (GPa) = 97.52834 58.32509 80.31105
#
# Poissons Ratio (x) = 0.18918 0.36118
# Poissons Ratio (y) = 0.31634 0.34432
# Poissons Ratio (z) = 0.43861 0.25006
#
# Static dielectric constant tensor:
#      x y z
#    x 3.811220 0.097630 -0.227820 
#    y 0.097630 3.596030 -0.103130 
#    z -0.227820 -0.103130 3.269430 
# 
# 
# High freq. dielectric constant tensor:
#      x y z
#    x 1.754640 0.011110 -0.009460 
#    y 0.011110 1.767240 -0.005990 
#    z -0.009460 -0.005990 1.776230 
# 
# From -- ./inp_files/244169.got.cif
#   From: 2010.06.25/outbox.cif.g09.slc.cpg/sg2_123_cif.got.tgz:244169.got - 2010.06.27 13:26:56.
