data_PCOD8010994
_publ_section_title
;
Structure prediction by ZEFSAII (Michael W. Deem and Ramdas Pophale) SiO2 
 PCOD8010994
Probable space group: P -1
;
_chemical_formula_sum "Si O2"
_cell_formula_units_Z 16
_cell_length_a 10.985197
_cell_length_b 5.412624
_cell_length_c 15.215423
_cell_angle_alpha 105.142561
_cell_angle_beta 125.721917
_cell_angle_gamma 100.064545
_cell_volume 644.196369
_symmetry_space_group_name_H-M "P -1"
_symmetry_group_IT_number 2
_symmetry_cell_setting 'triclinic'
loop_
_space_group_symop_operation_xyz
x,y,z
-x,-y,-z
loop_
_atom_site_type_symbol
_atom_site_label
_atom_site_fract_x
_atom_site_fract_y
_atom_site_fract_z
Si Si1 0.429675 0.045781 0.383401
Si Si2 0.207222 0.201246 0.541441
Si Si3 0.189463 0.269225 0.261717
Si Si4 0.408197 0.552583 0.232946
Si Si5 0.218152 0.634136 0.456167
Si Si6 0.540220 0.657230 0.940549
Si Si7 0.859468 0.060117 0.181507
Si Si8 0.179456 0.409322 0.732758
O O1 0.296581 0.166513 0.362847
O O2 0.593708 0.249591 0.418414
O O3 0.500000 0.000000 0.500000
O O4 0.343322 0.784226 0.256140
O O5 0.405747 0.342808 0.643147
O O6 0.132654 0.341884 0.449355
O O7 0.131237 0.239590 0.605690
O O8 0.140469 0.863639 0.460570
O O9 0.274272 0.279743 0.203397
O O10 0.212738 0.569054 0.342463
O O11 0.995047 0.065542 0.167051
O O12 0.392471 0.499416 0.117315
O O13 0.369934 0.649340 0.830055
O O14 0.500000 0.500000 0.000000
O O15 0.684899 0.968528 0.047540
O O16 0.843763 0.823527 0.224448
O O17 0.916223 0.385349 0.272810
#
# Coordination Sequence:
#
# PCOD8010994 Si02
#       8
#     2   2   2   2   2   2   2   2
#     4  11  21  38  63  94 138 175 219 260 319 396
#     4  10  21  38  65  95 122 165 230 273 309 375
#     4  12  24  38  60  98 138 171 215 259 341 400
#     4  10  21  38  65  96 130 169 218 272 329 388
#     4  11  21  36  61  94 127 172 212 268 321 380
#     4   9  21  46  71  96 123 169 228 280 324 384
#     4  11  25  42  67  93 134 176 212 277 336 386
#     4  10  22  45  69  93 124 173 230 272 324 388
#
# _framework density 24.837146000000001
#
# number of rings (size 3 to 8) (size 9 to 14) (size 15 to 20)
#    0.000    1.500    2.500    3.000    1.750    1.500 
#    4.500    4.375    0.000    0.000    0.000    0.000 
#    0.000    0.000    0.000    0.000    0.000    0.000 
#
# Total GULP energy -198215.312677 kJ/mol
# GULP energy per Si atom -12388.457042 kJ/mol
# Density = 2.478062 g / cm^3
# Si number density = 24.837146 Si / 1000 Ang^3
#
#
#
# Elastic Constant Matrix: (Units=GPa)
#
#
# Indices 1 2 3 4 5 6 
#
# 1 149.9813 49.7324 37.5148 -0.8666 -24.1759 -1.9352
# 2 49.7324 129.2866 44.8457 11.0167 -12.9968 -12.4070
# 3 37.5148 44.8457 67.5271 8.8743 -37.5757 -2.0127
# 4 -0.8666 11.0167 8.8743 29.8405 0.3503 -2.8226
# 5 -24.1759 -12.9968 -37.5757 0.3503 46.4300 -2.2384
# 6 -1.9352 -12.4070 -2.0127 -2.8226 -2.2384 40.9104
#
#
#
# Elastic Compliance Matrix: (Units=1/GPa)
#
#
# Indices 1 2 3 4 5 6 
#
# 1 0.008331 -0.002412 -0.002256 0.001760 0.001813 -0.000228
# 2 -0.002412 0.011628 -0.008978 -0.001387 -0.005131 0.002594
# 3 -0.002256 -0.008978 0.038432 -0.008505 0.027478 -0.000022
# 4 0.001760 -0.001387 -0.008505 0.036816 -0.006564 0.001425
# 5 0.001813 -0.005131 0.027478 -0.006564 0.043420 0.001804
# 6 -0.000228 0.002594 -0.000022 0.001425 0.001804 0.025416
#
#
# Mechanical properties :
#
#
# Convention : Reuss Voigt Hill
#
# Bulk Modulus (GPa) = 32.15517 67.88677 50.02097
# Shear Modulus (GPa) = 24.78911 37.74965 31.26938
#
# Velocity S-wave (km/s) = 3.16265 3.90280 3.55206
# Velocity P-wave (km/s) = 5.12942 6.90661 6.08326
#
# Compressibility (1/GPa) = 0.03109920
#
# Stress axis : x y z
#
# Youngs Moduli (GPa) = 120.03446 85.99861 26.01974
#
# Poissons Ratio (x) = 0.20740 0.05870
# Poissons Ratio (y) = 0.28949 0.23361
# Poissons Ratio (z) = 0.27081 0.77212
#
# Static dielectric constant tensor:
#      x y z
#    x 5.134720 0.243650 0.279150 
#    y 0.243650 4.393590 0.347040 
#    z 0.279150 0.347040 4.769820 
# 
# 
# High freq. dielectric constant tensor:
#      x y z
#    x 2.019370 0.006400 0.014220 
#    y 0.006400 1.976070 0.019690 
#    z 0.014220 0.019690 1.971100 
# 
# From -- ./inp_files/564249.got.cif
#   From: 2010.06.25/outbox.cif.g09.slc.cpg/sg2_283_cif.got.tgz:564249.got - 2010.06.27 13:26:56.
