data_PCOD8010972
_publ_section_title
;
Structure prediction by ZEFSAII (Michael W. Deem and Ramdas Pophale) SiO2 
 PCOD8010972
Probable space group: P -1
;
_chemical_formula_sum "Si O2"
_cell_formula_units_Z 16
_cell_length_a 21.117976
_cell_length_b 12.324945
_cell_length_c 17.315178
_cell_angle_alpha 136.152640
_cell_angle_beta 158.971773
_cell_angle_gamma 32.166383
_cell_volume 802.914583
_symmetry_space_group_name_H-M "P -1"
_symmetry_group_IT_number 2
_symmetry_cell_setting 'triclinic'
loop_
_space_group_symop_operation_xyz
x,y,z
-x,-y,-z
loop_
_atom_site_type_symbol
_atom_site_label
_atom_site_fract_x
_atom_site_fract_y
_atom_site_fract_z
Si Si1 0.322265 0.725814 0.286140
Si Si2 0.680792 0.638392 0.896614
Si Si3 0.711473 0.264398 0.084128
Si Si4 0.224373 0.115183 0.620195
Si Si5 0.849417 0.203821 0.039653
Si Si6 0.957725 0.497129 0.286367
Si Si7 0.282214 0.324170 0.216141
Si Si8 0.444037 0.132317 0.725969
O O1 0.305536 0.554859 0.198758
O O2 0.589002 0.608441 0.562054
O O3 0.301615 0.765825 0.191048
O O4 0.115940 0.953448 0.214228
O O5 0.704254 0.700424 0.872566
O O6 0.422698 0.868043 0.752777
O O7 0.903343 0.552752 0.162038
O O8 0.699321 0.255161 0.972322
O O9 0.974822 0.170106 0.358290
O O10 0.500000 0.500000 0.000000
O O11 0.655117 0.127887 0.986503
O O12 0.199859 0.274922 0.732132
O O13 0.296828 0.148624 0.638458
O O14 0.874479 0.375370 0.154408
O O15 0.246129 0.340686 0.552071
O O16 0.420983 0.084138 0.282445
O O17 0.000000 0.500000 0.000000
#
# Coordination Sequence:
#
# PCOD8010972 Si02
#       8
#     2   2   2   2   2   2   2   2
#     4  10  21  41  64  88 120 165 208 249 315 364
#     4  10  24  38  65  88 119 166 205 251 318 367
#     4  12  23  37  64  98 121 164 206 254 314 364
#     4  11  22  42  63  88 131 162 205 256 307 374
#     4  10  21  38  65  93 121 157 211 262 298 366
#     4  11  19  41  64  89 118 163 207 254 303 362
#     4  11  24  40  57  87 126 161 197 259 310 367
#     4  11  23  39  64  91 123 163 212 251 304 372
#
# _framework density 19.927399999999999
#
# number of rings (size 3 to 8) (size 9 to 14) (size 15 to 20)
#    0.000    1.250    3.750    2.625    3.500    1.000 
#    0.000    1.250    0.000    3.750    0.000    0.000 
#    0.000    0.000    0.000    0.000    0.000    0.000 
#
# Total GULP energy -198320.630137 kJ/mol
# GULP energy per Si atom -12395.039384 kJ/mol
# Density = 1.988204 g / cm^3
# Si number density = 19.927400 Si / 1000 Ang^3
#
#
#
# Elastic Constant Matrix: (Units=GPa)
#
#
# Indices 1 2 3 4 5 6 
#
# 1 62.1241 27.4121 48.9683 -6.1202 -7.1265 -13.8759
# 2 27.4121 115.1903 43.9178 -4.1581 -4.0111 -16.2317
# 3 48.9683 43.9178 130.1989 1.2650 0.4179 -5.9256
# 4 -6.1202 -4.1581 1.2650 33.3448 0.6574 -1.3280
# 5 -7.1265 -4.0111 0.4179 0.6574 29.8220 0.0722
# 6 -13.8759 -16.2317 -5.9256 -1.3280 0.0722 30.1946
#
#
#
# Elastic Compliance Matrix: (Units=1/GPa)
#
#
# Indices 1 2 3 4 5 6 
#
# 1 0.027894 -0.000996 -0.009748 0.005659 0.006518 0.010603
# 2 -0.000996 0.010875 -0.003091 0.001459 0.001224 0.004843
# 3 -0.009748 -0.003091 0.012250 -0.002737 -0.002847 -0.003851
# 4 0.005659 0.001459 -0.002737 0.031465 0.000883 0.004230
# 5 0.006518 0.001224 -0.002847 0.000883 0.035268 0.003049
# 6 0.010603 0.004843 -0.003851 0.004230 0.003049 0.040018
#
#
# Mechanical properties :
#
#
# Convention : Reuss Voigt Hill
#
# Bulk Modulus (GPa) = 42.83118 60.90107 51.86612
# Shear Modulus (GPa) = 25.87691 31.15329 28.51510
#
# Velocity S-wave (km/s) = 3.60746 3.95820 3.78689
# Velocity P-wave (km/s) = 6.23634 7.17758 6.72345
#
# Compressibility (1/GPa) = 0.02334748
#
# Stress axis : x y z
#
# Youngs Moduli (GPa) = 35.85024 91.95757 81.63177
#
# Poissons Ratio (x) = 0.09158 0.79578
# Poissons Ratio (y) = 0.03570 0.25235
# Poissons Ratio (z) = 0.34948 0.28427
#
# Static dielectric constant tensor:
#      x y z
#    x 3.580560 -0.077380 -0.361010 
#    y -0.077380 3.949550 0.496270 
#    z -0.361010 0.496270 4.113210 
# 
# 
# High freq. dielectric constant tensor:
#      x y z
#    x 1.756580 -0.008240 -0.012720 
#    y -0.008240 1.802700 0.002330 
#    z -0.012720 0.002330 1.777130 
# 
# From -- ./inp_files/218856.got.cif
#   From: 2010.06.25/outbox.cif.g09.slc.cpg/sg2_110_cif.got.tgz:218856.got - 2010.06.27 13:26:56.
