data_PCOD8010260
_publ_section_title
;
Structure prediction by ZEFSAII (Michael W. Deem and Ramdas Pophale) SiO2 
 PCOD8010260
Probable space group: P -1
;
_chemical_formula_sum "Si O2"
_cell_formula_units_Z 14
_cell_length_a 22.702153
_cell_length_b 5.019928
_cell_length_c 11.741089
_cell_angle_alpha 114.558896
_cell_angle_beta 32.832482
_cell_angle_gamma 110.416837
_cell_volume 659.840831
_symmetry_space_group_name_H-M "P -1"
_symmetry_group_IT_number 2
_symmetry_cell_setting 'triclinic'
loop_
_space_group_symop_operation_xyz
x,y,z
-x,-y,-z
loop_
_atom_site_type_symbol
_atom_site_label
_atom_site_fract_x
_atom_site_fract_y
_atom_site_fract_z
Si Si1 0.912744 0.286449 0.473551
Si Si2 0.801193 0.897907 0.763368
Si Si3 0.830765 0.077034 0.216488
Si Si4 0.996874 0.396344 0.126609
Si Si5 0.111657 0.958878 0.123588
Si Si6 0.388196 0.129864 0.086300
Si Si7 0.631502 0.203141 0.718737
O O1 0.852853 0.586657 0.655281
O O2 0.915977 0.237880 0.323131
O O3 0.852567 0.024042 0.588072
O O4 0.040681 0.261578 0.300861
O O5 0.672976 0.887920 0.939641
O O6 0.822807 0.097651 0.875797
O O7 0.718679 0.089659 0.466938
O O8 0.914654 0.364231 0.144101
O O9 0.803943 0.040435 0.119023
O O10 0.894843 0.790761 0.103493
O O11 0.021983 0.709221 0.197313
O O12 0.370077 0.448648 0.225956
O O13 0.341494 0.897616 0.213639
O O14 0.515273 0.068259 0.846724
#
# Coordination Sequence:
#
# PCOD8010260 Si02
#       7
#     2   2   2   2   2   2   2
#     4  11  23  38  59  86 121 160 193 243 286 344
#     4  12  23  37  61  87 123 154 197 242 295 341
#     4  10  22  37  58  86 118 160 192 244 288 351
#     4  10  21  38  57  87 117 158 203 235 286 351
#     4  11  24  36  57  87 126 159 199 230 289 361
#     4  10  22  41  64  93 109 148 196 252 295 347
#     4  10  22  42  66  86 117 145 198 248 300 339
#
# _framework density 21.217236
#
# number of rings (size 3 to 8) (size 9 to 14) (size 15 to 20)
#    0.000    1.429    1.429    3.857    6.000    0.000 
#    0.000    0.714    0.000    0.857    0.000    0.000 
#    0.000    0.000    0.000    0.000    0.000    0.000 
#
# Total GULP energy -173483.416867 kJ/mol
# GULP energy per Si atom -12391.672633 kJ/mol
# Density = 2.116895 g / cm^3
# Si number density = 21.217236 Si / 1000 Ang^3
#
#
#
# Elastic Constant Matrix: (Units=GPa)
#
#
# Indices 1 2 3 4 5 6 
#
# 1 147.0107 17.1941 56.9559 8.7393 -6.9529 13.9144
# 2 17.1941 66.0610 22.8469 6.3253 -8.2609 -8.8697
# 3 56.9559 22.8469 128.9738 -7.0610 -6.8679 0.6554
# 4 8.7393 6.3253 -7.0610 15.3612 1.8877 -3.9211
# 5 -6.9529 -8.2609 -6.8679 1.8877 7.5985 3.9949
# 6 13.9144 -8.8697 0.6554 -3.9211 3.9949 23.5240
#
#
#
# Elastic Compliance Matrix: (Units=1/GPa)
#
#
# Indices 1 2 3 4 5 6 
#
# 1 0.011285 0.000544 -0.004933 -0.013743 0.015820 -0.011310
# 2 0.000544 0.020296 -0.003368 -0.012465 0.021745 0.001654
# 3 -0.004933 -0.003368 0.010936 0.010468 -0.002761 0.003556
# 4 -0.013743 -0.012465 0.010468 0.097093 -0.055939 0.028821
# 5 0.015820 0.021745 -0.002761 -0.055939 0.204886 -0.045199
# 6 -0.011310 0.001654 0.003556 0.028821 -0.045199 0.062204
#
#
# Mechanical properties :
#
#
# Convention : Reuss Voigt Hill
#
# Bulk Modulus (GPa) = 37.03189 59.55992 48.29591
# Shear Modulus (GPa) = 11.59515 25.63331 18.61423
#
# Velocity S-wave (km/s) = 2.34026 3.47960 2.96517
# Velocity P-wave (km/s) = 4.97936 6.65401 5.87664
#
# Compressibility (1/GPa) = 0.02700375
#
# Stress axis : x y z
#
# Youngs Moduli (GPa) = 88.61157 49.27156 91.43725
#
# Poissons Ratio (x) = -0.02682 0.45102
# Poissons Ratio (y) = -0.04823 0.30801
# Poissons Ratio (z) = 0.43708 0.16597
#
# Static dielectric constant tensor:
#      x y z
#    x 4.075580 -0.295440 0.050230 
#    y -0.295440 3.889730 -0.056480 
#    z 0.050230 -0.056480 3.782970 
# 
# 
# High freq. dielectric constant tensor:
#      x y z
#    x 1.830240 -0.021430 0.008900 
#    y -0.021430 1.833640 -0.000950 
#    z 0.008900 -0.000950 1.814420 
# 
# From -- ./inp_files/80888.got.cif
#   From: 2010.06.25/outbox.cif.g09.slc.cpg/sg2_41_cif.got.tgz:80888.got - 2010.06.27 13:26:56.
