data_PCOD8010242
_publ_section_title
;
Structure prediction by ZEFSAII (Michael W. Deem and Ramdas Pophale) SiO2 
 PCOD8010242
Probable space group: P -1
;
_chemical_formula_sum "Si O2"
_cell_formula_units_Z 14
_cell_length_a 11.947312
_cell_length_b 9.141732
_cell_length_c 12.069473
_cell_angle_alpha 78.293359
_cell_angle_beta 126.457401
_cell_angle_gamma 128.777395
_cell_volume 795.863132
_symmetry_space_group_name_H-M "P -1"
_symmetry_group_IT_number 2
_symmetry_cell_setting 'triclinic'
loop_
_space_group_symop_operation_xyz
x,y,z
-x,-y,-z
loop_
_atom_site_type_symbol
_atom_site_label
_atom_site_fract_x
_atom_site_fract_y
_atom_site_fract_z
Si Si1 0.004867 0.008580 0.822348
Si Si2 0.928158 0.056502 0.354594
Si Si3 0.848641 0.091069 0.888206
Si Si4 0.522250 0.955235 0.843762
Si Si5 0.526413 0.788885 0.088879
Si Si6 0.841513 0.585150 0.112356
Si Si7 0.883107 0.358484 0.352272
O O1 0.952334 0.897675 0.691805
O O2 0.832969 0.955382 0.800657
O O3 0.138515 0.242083 0.839503
O O4 0.103235 0.951891 0.961179
O O5 0.958528 0.251057 0.371305
O O6 0.717071 0.867468 0.239784
O O7 0.000000 0.000000 0.500000
O O8 0.008399 0.317850 0.913563
O O9 0.657065 0.040356 0.804252
O O10 0.320688 0.805179 0.698012
O O11 0.553839 0.128878 0.901744
O O12 0.559381 0.849213 0.969971
O O13 0.363498 0.556200 0.035369
O O14 0.882662 0.473690 0.232994
O O15 0.000000 0.500000 0.500000
#
# Coordination Sequence:
#
# PCOD8010242 Si02
#       7
#     2   2   2   2   2   2   2
#     4   9  19  35  52  85 114 143 174 218 285 323
#     4  11  21  36  58  77 116 148 176 228 277 322
#     4   9  18  35  55  83 113 147 169 224 281 325
#     4   9  17  34  57  79 109 143 175 235 269 314
#     4   9  18  32  54  86 105 135 192 225 265 313
#     4   9  19  34  56  85 106 138 185 229 257 328
#     4  10  21  38  56  83 106 142 193 226 264 318
#
# _framework density 17.590962999999999
#
# number of rings (size 3 to 8) (size 9 to 14) (size 15 to 20)
#    0.857    1.714    1.429    1.714    0.000    1.143 
#    2.571    0.714    0.000    1.714    0.000    0.000 
#    0.000    0.000    0.000    0.000    0.000    0.000 
#
# Total GULP energy -173435.239501 kJ/mol
# GULP energy per Si atom -12388.231393 kJ/mol
# Density = 1.755093 g / cm^3
# Si number density = 17.590963 Si / 1000 Ang^3
#
#
#
# Elastic Constant Matrix: (Units=GPa)
#
#
# Indices 1 2 3 4 5 6 
#
# 1 115.1500 24.2328 34.7953 9.3334 -17.4119 10.3582
# 2 24.2328 81.9354 34.7956 0.5830 -3.9275 -1.3209
# 3 34.7953 34.7956 96.9380 2.8638 -8.3810 -5.2990
# 4 9.3334 0.5830 2.8638 31.0768 -2.3781 0.7996
# 5 -17.4119 -3.9275 -8.3810 -2.3781 23.3126 3.9770
# 6 10.3582 -1.3209 -5.2990 0.7996 3.9770 22.1555
#
#
#
# Elastic Compliance Matrix: (Units=1/GPa)
#
#
# Indices 1 2 3 4 5 6 
#
# 1 0.012386 -0.001924 -0.003364 -0.002484 0.008865 -0.008212
# 2 -0.001924 0.014714 -0.004627 0.000656 -0.000686 0.000770
# 3 -0.003364 -0.004627 0.013499 -0.000199 0.000791 0.004391
# 4 -0.002484 0.000656 -0.000199 0.033062 0.001612 -0.000330
# 5 0.008865 -0.000686 0.000791 0.001612 0.052138 -0.013413
# 6 -0.008212 0.000770 0.004391 -0.000330 -0.013413 0.052491
#
#
# Mechanical properties :
#
#
# Convention : Reuss Voigt Hill
#
# Bulk Modulus (GPa) = 48.15371 53.51898 50.83634
# Shear Modulus (GPa) = 24.38496 28.65564 26.52030
#
# Velocity S-wave (km/s) = 3.72724 4.04046 3.88701
# Velocity P-wave (km/s) = 6.77913 7.22892 7.00764
#
# Compressibility (1/GPa) = 0.02076683
#
# Stress axis : x y z
#
# Youngs Moduli (GPa) = 80.73315 67.96321 74.08086
#
# Poissons Ratio (x) = 0.13079 0.24923
# Poissons Ratio (y) = 0.15536 0.34280
# Poissons Ratio (z) = 0.27161 0.31449
#
# Static dielectric constant tensor:
#      x y z
#    x 3.294090 -0.030570 0.001230 
#    y -0.030570 3.237790 0.056090 
#    z 0.001230 0.056090 3.057810 
# 
# 
# High freq. dielectric constant tensor:
#      x y z
#    x 1.684250 -0.007410 -0.001830 
#    y -0.007410 1.670180 -0.003010 
#    z -0.001830 -0.003010 1.655900 
# 
# From -- ./inp_files/417202.got.cif
#   From: 2010.06.25/outbox.cif.g09.slc.cpg/sg2_209_cif.got.tgz:417202.got - 2010.06.27 13:26:56.
