data_PCOD8010710
_publ_section_title
;
Structure prediction by ZEFSAII (Michael W. Deem and Ramdas Pophale) SiO2 
 PCOD8010710
Probable space group: P -1
;
_chemical_formula_sum "Si O2"
_cell_formula_units_Z 16
_cell_length_a 14.850722
_cell_length_b 9.256003
_cell_length_c 9.509343
_cell_angle_alpha 67.170812
_cell_angle_beta 112.654940
_cell_angle_gamma 142.491880
_cell_volume 726.526043
_symmetry_space_group_name_H-M "P -1"
_symmetry_group_IT_number 2
_symmetry_cell_setting 'triclinic'
loop_
_space_group_symop_operation_xyz
x,y,z
-x,-y,-z
loop_
_atom_site_type_symbol
_atom_site_label
_atom_site_fract_x
_atom_site_fract_y
_atom_site_fract_z
Si Si1 0.244276 0.570427 0.182652
Si Si2 0.474814 0.607141 0.815908
Si Si3 0.922762 0.056966 0.863335
Si Si4 0.351231 0.465737 0.071536
Si Si5 0.074774 0.277110 0.586994
Si Si6 0.068760 0.908403 0.713921
Si Si7 0.380386 0.723925 0.500828
Si Si8 0.226595 0.915190 0.030906
O O1 0.334567 0.609313 0.088242
O O2 0.357138 0.680642 0.337480
O O3 0.209997 0.709540 0.080690
O O4 0.089057 0.291582 0.221113
O O5 0.491082 0.438639 0.863515
O O6 0.449205 0.648482 0.632687
O O7 0.615988 0.856085 0.888494
O O8 0.332410 0.468104 0.889061
O O9 0.909081 0.184243 0.915948
O O10 0.004086 0.229082 0.713053
O O11 0.759156 0.794931 0.825918
O O12 0.000000 0.000000 0.000000
O O13 0.221258 0.563110 0.542078
O O14 0.956201 0.175449 0.430872
O O15 0.123381 0.154229 0.653928
O O16 0.198010 0.960360 0.843845
O O17 0.500000 0.000000 0.500000
#
# Coordination Sequence:
#
# PCOD8010710 Si02
#       8
#     2   2   2   2   2   2   2   2
#     4  11  22  42  66  89 130 168 210 266 316 369
#     4  10  23  41  64  93 128 167 213 253 316 384
#     4  11  19  37  63  95 123 163 213 257 311 372
#     4  10  22  39  64  95 121 164 220 255 309 382
#     4  10  21  38  67  92 126 164 211 261 311 373
#     4  10  21  38  62  98 121 161 212 262 314 363
#     4  11  23  43  63  91 133 169 204 261 322 373
#     4  11  22  38  64  91 133 165 207 264 313 376
#
# _framework density 22.02261
#
# number of rings (size 3 to 8) (size 9 to 14) (size 15 to 20)
#    0.000    1.500    3.750    1.125    3.500    1.000 
#    0.000    6.250    0.000    0.000    0.000    0.000 
#    0.000    0.000    0.000    0.000    0.000    0.000 
#
# Total GULP energy -198246.537708 kJ/mol
# GULP energy per Si atom -12390.408607 kJ/mol
# Density = 2.197249 g / cm^3
# Si number density = 22.022610 Si / 1000 Ang^3
#
#
#
# Elastic Constant Matrix: (Units=GPa)
#
#
# Indices 1 2 3 4 5 6 
#
# 1 134.7709 29.2133 59.4673 -3.2661 -17.6535 -24.7533
# 2 29.2133 85.5780 17.9422 0.3840 -4.3059 3.6459
# 3 59.4673 17.9422 141.1142 5.6027 7.8684 -5.3847
# 4 -3.2661 0.3840 5.6027 28.9086 6.2060 3.0076
# 5 -17.6535 -4.3059 7.8684 6.2060 36.6563 -4.6102
# 6 -24.7533 3.6459 -5.3847 3.0076 -4.6102 30.9528
#
#
#
# Elastic Compliance Matrix: (Units=1/GPa)
#
#
# Indices 1 2 3 4 5 6 
#
# 1 0.014047 -0.003703 -0.005474 -0.000522 0.009118 0.012126
# 2 -0.003703 0.013161 -0.000252 0.000113 -0.000791 -0.004684
# 3 -0.005474 -0.000252 0.009618 -0.001069 -0.004966 -0.003310
# 4 -0.000522 0.000113 -0.001069 0.036760 -0.006888 -0.005214
# 5 0.009118 -0.000791 -0.004966 -0.006888 0.035378 0.012460
# 6 0.012126 -0.004684 -0.003310 -0.005214 0.012460 0.044343
#
#
# Mechanical properties :
#
#
# Convention : Reuss Voigt Hill
#
# Bulk Modulus (GPa) = 55.65132 63.85653 59.75392
# Shear Modulus (GPa) = 28.06557 36.29291 32.17924
#
# Velocity S-wave (km/s) = 3.57374 4.06394 3.82670
# Velocity P-wave (km/s) = 6.50798 7.14700 6.83496
#
# Compressibility (1/GPa) = 0.01796903
#
# Stress axis : x y z
#
# Youngs Moduli (GPa) = 71.19010 75.97980 103.96967
#
# Poissons Ratio (x) = 0.28135 0.56910
# Poissons Ratio (y) = 0.26362 0.02620
# Poissons Ratio (z) = 0.38967 0.01915
#
# Static dielectric constant tensor:
#      x y z
#    x 4.196180 0.388870 -0.095050 
#    y 0.388870 4.141970 -0.118370 
#    z -0.095050 -0.118370 4.498850 
# 
# 
# High freq. dielectric constant tensor:
#      x y z
#    x 1.841290 0.013060 0.004480 
#    y 0.013060 1.864120 -0.001160 
#    z 0.004480 -0.001160 1.877350 
# 
# From -- ./inp_files/297964.got.cif
#   From: 2010.06.25/outbox.cif.g09.slc.cpg/sg2_149_cif.got.tgz:297964.got - 2010.06.27 13:26:56.
