data_PCOD8010470
_publ_section_title
;
Structure prediction by ZEFSAII (Michael W. Deem and Ramdas Pophale) SiO2 
 PCOD8010470
Probable space group: P -1
;
_chemical_formula_sum "Si O2"
_cell_formula_units_Z 16
_cell_length_a 6.962669
_cell_length_b 25.884969
_cell_length_c 4.915594
_cell_angle_alpha 79.709804
_cell_angle_beta 107.119999
_cell_angle_gamma 120.955364
_cell_volume 725.680908
_symmetry_space_group_name_H-M "P -1"
_symmetry_group_IT_number 2
_symmetry_cell_setting 'triclinic'
loop_
_space_group_symop_operation_xyz
x,y,z
-x,-y,-z
loop_
_atom_site_type_symbol
_atom_site_label
_atom_site_fract_x
_atom_site_fract_y
_atom_site_fract_z
Si Si1 0.244727 0.946740 0.951390
Si Si2 0.971712 0.815654 0.054819
Si Si3 0.176520 0.731006 0.212858
Si Si4 0.004020 0.950175 0.355054
Si Si5 0.291073 0.180249 0.569914
Si Si6 0.974015 0.353020 0.268367
Si Si7 0.499065 0.559268 0.542725
Si Si8 0.223366 0.559337 0.937665
O O1 0.169802 0.933694 0.617508
O O2 0.198724 0.882588 0.111871
O O3 0.105668 0.970341 0.071149
O O4 0.500000 0.000000 0.000000
O O5 0.844778 0.797487 0.309128
O O6 0.046023 0.767530 0.042037
O O7 0.787659 0.817202 0.770451
O O8 0.439144 0.776810 0.343712
O O9 0.055660 0.690391 0.458055
O O10 0.154498 0.686885 0.005801
O O11 0.761015 0.887476 0.302707
O O12 0.000000 0.000000 0.500000
O O13 0.246851 0.392914 0.294607
O O14 0.850217 0.392457 0.237388
O O15 0.500000 0.500000 0.500000
O O16 0.327482 0.542017 0.741225
O O17 0.410994 0.585187 0.235528
O O18 0.000000 0.500000 0.000000
#
# Coordination Sequence:
#
# PCOD8010470 Si02
#       8
#     2   2   2   2   2   2   2   2
#     4  10  21  38  60  94 125 162 213 272 332 393
#     4  10  23  43  65  91 132 172 219 275 330 386
#     4  12  26  44  68  96 132 182 222 266 322 406
#     4  10  21  38  60  94 125 162 213 272 332 393
#     4  10  23  43  65  91 132 172 219 275 330 386
#     4  12  28  44  68 106 132 172 234 258 328 400
#     4  12  26  45  74 103 141 177 215 276 331 383
#     4  12  26  45  74 103 141 177 215 276 331 383
#
# _framework density 22.048259999999999
#
# number of rings (size 3 to 8) (size 9 to 14) (size 15 to 20)
#    0.000    1.000    1.250    4.500    3.500    6.000 
#    2.250    0.000    0.000    0.000    0.000    0.000 
#    0.000    0.000    0.000    0.000    0.000    0.000 
#
# Total GULP energy -198377.690996 kJ/mol
# GULP energy per Si atom -12398.605687 kJ/mol
# Density = 2.199808 g / cm^3
# Si number density = 22.048260 Si / 1000 Ang^3
#
#
#
# Elastic Constant Matrix: (Units=GPa)
#
#
# Indices 1 2 3 4 5 6 
#
# 1 113.0687 62.4448 27.1631 2.7543 -11.3618 4.7346
# 2 62.4448 117.3667 9.5971 18.2910 -6.3051 14.9851
# 3 27.1631 9.5971 89.2259 19.3705 -18.1772 11.4882
# 4 2.7543 18.2910 19.3705 29.1905 0.4342 0.0409
# 5 -11.3618 -6.3051 -18.1772 0.4342 43.0855 4.2347
# 6 4.7346 14.9851 11.4882 0.0409 4.2347 45.0456
#
#
#
# Elastic Compliance Matrix: (Units=1/GPa)
#
#
# Indices 1 2 3 4 5 6 
#
# 1 0.014919 -0.009118 -0.005740 0.008114 -0.000193 0.002940
# 2 -0.009118 0.015788 0.005092 -0.012445 0.002754 -0.005840
# 3 -0.005740 0.005092 0.017956 -0.014669 0.007581 -0.006370
# 4 0.008114 -0.012445 -0.014669 0.051120 -0.007137 0.007653
# 5 -0.000193 0.002754 0.007581 -0.007137 0.027362 -0.005395
# 6 0.002940 -0.005840 -0.006370 0.007653 -0.005395 0.025958
#
#
# Mechanical properties :
#
#
# Convention : Reuss Voigt Hill
#
# Bulk Modulus (GPa) = 34.32786 57.56348 45.94567
# Shear Modulus (GPa) = 27.42028 38.16141 32.79084
#
# Velocity S-wave (km/s) = 3.53037 4.16482 3.86065
# Velocity P-wave (km/s) = 5.67637 7.02084 6.38410
#
# Compressibility (1/GPa) = 0.02913086
#
# Stress axis : x y z
#
# Youngs Moduli (GPa) = 67.02877 63.33756 55.69081
#
# Poissons Ratio (x) = 0.57754 0.31968
# Poissons Ratio (y) = 0.61120 -0.28360
# Poissons Ratio (z) = 0.38477 -0.32254
#
# Static dielectric constant tensor:
#      x y z
#    x 3.962790 0.033900 -0.018830 
#    y 0.033900 4.229600 -0.098930 
#    z -0.018830 -0.098930 4.450320 
# 
# 
# High freq. dielectric constant tensor:
#      x y z
#    x 1.860260 0.001250 -0.007870 
#    y 0.001250 1.878340 0.003780 
#    z -0.007870 0.003780 1.884910 
# 
# From -- ./inp_files/13169.got.cif
#   From: 2010.06.25/outbox.cif.g09.slc.cpg/sg2_7_cif.got.tgz:13169.got - 2010.06.27 13:26:56.
