data_PCOD8010492
_publ_section_title
;
Structure prediction by ZEFSAII (Michael W. Deem and Ramdas Pophale) SiO2 
 PCOD8010492
Probable space group: P -1
;
_chemical_formula_sum "Si O2"
_cell_formula_units_Z 14
_cell_length_a 9.368143
_cell_length_b 11.263254
_cell_length_c 12.681218
_cell_angle_alpha 58.079981
_cell_angle_beta 39.970726
_cell_angle_gamma 52.072612
_cell_volume 673.614366
_symmetry_space_group_name_H-M "P -1"
_symmetry_group_IT_number 2
_symmetry_cell_setting 'triclinic'
loop_
_space_group_symop_operation_xyz
x,y,z
-x,-y,-z
loop_
_atom_site_type_symbol
_atom_site_label
_atom_site_fract_x
_atom_site_fract_y
_atom_site_fract_z
Si Si1 0.608821 0.730194 0.577146
Si Si2 0.149203 0.824982 0.506921
Si Si3 0.929709 0.137177 0.234515
Si Si4 0.034043 0.600435 0.022694
Si Si5 0.624657 0.619753 0.394155
Si Si6 0.563292 0.487430 0.848600
Si Si7 0.947148 0.202890 0.655071
O O1 0.333299 0.845789 0.667542
O O2 0.675854 0.625022 0.485461
O O3 0.660686 0.616803 0.700696
O O4 0.784242 0.819702 0.451086
O O5 0.078997 0.781684 0.683555
O O6 0.438623 0.778242 0.374154
O O7 0.092533 0.746968 0.470661
O O8 0.000000 0.000000 0.500000
O O9 0.085089 0.956968 0.236241
O O10 0.044997 0.222400 0.049293
O O11 0.885636 0.583446 0.214699
O O12 0.000000 0.500000 0.000000
O O13 0.317453 0.523733 0.910511
O O14 0.500000 0.500000 0.500000
O O15 0.753121 0.322829 0.784321
O O16 0.500000 0.500000 0.000000
#
# Coordination Sequence:
#
# PCOD8010492 Si02
#       7
#     2   2   2   2   2   2   2
#     4  10  21  38  61  84 115 157 196 235 289 353
#     4   9  19  36  58  86 115 144 189 239 287 342
#     4   9  21  39  59  88 119 152 195 238 292 350
#     4  11  22  39  60  83 117 156 193 239 290 350
#     4  11  21  39  61  82 109 154 200 236 286 354
#     4  11  24  39  56  88 120 150 195 244 292 340
#     4  11  20  38  61  87 120 155 193 243 289 343
#
# _framework density 20.783404999999998
#
# number of rings (size 3 to 8) (size 9 to 14) (size 15 to 20)
#    0.000    1.714    0.000    6.000    0.000    2.286 
#    0.000   18.571    0.000    0.000    0.000    0.000 
#    0.000    0.000    0.000    0.000    0.000    0.000 
#
# Total GULP energy -173450.647908 kJ/mol
# GULP energy per Si atom -12389.331993 kJ/mol
# Density = 2.073610 g / cm^3
# Si number density = 20.783405 Si / 1000 Ang^3
#
#
#
# Elastic Constant Matrix: (Units=GPa)
#
#
# Indices 1 2 3 4 5 6 
#
# 1 97.3657 19.8167 25.7909 -10.4037 15.4324 7.4203
# 2 19.8167 104.3182 38.0876 1.3476 3.0945 -1.6329
# 3 25.7909 38.0876 105.8475 -5.2919 7.1159 5.8289
# 4 -10.4037 1.3476 -5.2919 31.2612 3.5610 -0.2207
# 5 15.4324 3.0945 7.1159 3.5610 37.1517 1.9609
# 6 7.4203 -1.6329 5.8289 -0.2207 1.9609 28.8758
#
#
#
# Elastic Compliance Matrix: (Units=1/GPa)
#
#
# Indices 1 2 3 4 5 6 
#
# 1 0.012556 -0.001699 -0.001741 0.004512 -0.005036 -0.002595
# 2 -0.001699 0.011368 -0.003904 -0.001770 0.000580 0.001815
# 3 -0.001741 -0.003904 0.011553 0.001669 -0.001218 -0.002010
# 4 0.004512 -0.001770 0.001669 0.034446 -0.005297 -0.000974
# 5 -0.005036 0.000580 -0.001218 -0.005297 0.029727 -0.000486
# 6 -0.002595 0.001815 -0.002010 -0.000974 -0.000486 0.035832
#
#
# Mechanical properties :
#
#
# Convention : Reuss Voigt Hill
#
# Bulk Modulus (GPa) = 48.10375 52.76911 50.43643
# Shear Modulus (GPa) = 31.82719 34.38017 33.10368
#
# Velocity S-wave (km/s) = 3.91752 4.07161 3.99531
# Velocity P-wave (km/s) = 6.60743 6.89559 6.75305
#
# Compressibility (1/GPa) = 0.02078840
#
# Stress axis : x y z
#
# Youngs Moduli (GPa) = 79.64571 87.96389 86.56038
#
# Poissons Ratio (x) = 0.14945 0.15069
# Poissons Ratio (y) = 0.13532 0.33795
# Poissons Ratio (z) = 0.13865 0.34343
#
# Static dielectric constant tensor:
#      x y z
#    x 4.160890 -0.179440 0.193020 
#    y -0.179440 3.729740 0.008970 
#    z 0.193020 0.008970 3.920680 
# 
# 
# High freq. dielectric constant tensor:
#      x y z
#    x 1.823200 -0.011870 0.010830 
#    y -0.011870 1.814810 0.005910 
#    z 0.010830 0.005910 1.801610 
# 
# From -- ./inp_files/158007.got.cif
#   From: 2010.06.25/outbox.cif.g09.slc.cpg/sg2_80_cif.got.tgz:158007.got - 2010.06.27 13:26:56.
