data_PCOD8010383
_publ_section_title
;
Structure prediction by ZEFSAII (Michael W. Deem and Ramdas Pophale) SiO2 
 PCOD8010383
Probable space group: P -1
;
_chemical_formula_sum "Si O2"
_cell_formula_units_Z 16
_cell_length_a 8.835179
_cell_length_b 19.268871
_cell_length_c 11.188990
_cell_angle_alpha 42.486636
_cell_angle_beta 42.557104
_cell_angle_gamma 71.048225
_cell_volume 764.222093
_symmetry_space_group_name_H-M "P -1"
_symmetry_group_IT_number 2
_symmetry_cell_setting 'triclinic'
loop_
_space_group_symop_operation_xyz
x,y,z
-x,-y,-z
loop_
_atom_site_type_symbol
_atom_site_label
_atom_site_fract_x
_atom_site_fract_y
_atom_site_fract_z
Si Si1 0.315428 0.016524 0.249155
Si Si2 0.129875 0.613410 0.439513
Si Si3 0.616223 0.791809 0.331158
Si Si4 0.646715 0.746846 0.097005
Si Si5 0.228239 0.281046 0.433202
Si Si6 0.248186 0.646655 0.060525
Si Si7 0.171669 0.785923 0.729932
Si Si8 0.157971 0.945268 0.175796
O O1 0.256054 0.925159 0.508292
O O2 0.139277 0.943954 0.331854
O O3 0.264793 0.123992 0.175797
O O4 0.611833 0.080089 0.960469
O O5 0.378870 0.648804 0.328871
O O6 0.221242 0.670505 0.183859
O O7 0.947342 0.657248 0.551210
O O8 0.987158 0.473855 0.693042
O O9 0.627105 0.746422 0.251929
O O10 0.715160 0.730194 0.446586
O O11 0.322959 0.760157 0.569333
O O12 0.795483 0.930908 0.060474
O O13 0.867272 0.713498 0.976695
O O14 0.098584 0.155183 0.604233
O O15 0.490838 0.358495 0.110443
O O16 0.248150 0.753773 0.852917
#
# Coordination Sequence:
#
# PCOD8010383 Si02
#       8
#     2   2   2   2   2   2   2   2
#     4   9  18  34  56  92 123 147 187 240 281 353
#     4  11  24  41  63  83 116 153 204 243 292 339
#     4   9  21  37  57  91 126 149 187 240 286 353
#     4  11  21  37  62  88 116 160 191 235 294 346
#     4  11  20  39  65  85 116 157 195 236 295 345
#     4  10  25  44  57  86 116 155 199 250 285 340
#     4  10  21  38  60  82 124 154 188 238 291 340
#     4   9  17  32  60  88 123 153 185 231 292 349
#
# _framework density 20.936323000000002
#
# number of rings (size 3 to 8) (size 9 to 14) (size 15 to 20)
#    0.000    2.000    1.250    2.625    1.750    0.500 
#    0.000    3.125    0.000    0.000    0.000    0.000 
#    0.000    0.000    0.000    0.000    0.000    0.000 
#
# Total GULP energy -198411.994936 kJ/mol
# GULP energy per Si atom -12400.749684 kJ/mol
# Density = 2.088867 g / cm^3
# Si number density = 20.936323 Si / 1000 Ang^3
#
#
#
# Elastic Constant Matrix: (Units=GPa)
#
#
# Indices 1 2 3 4 5 6 
#
# 1 67.6157 11.9202 44.4015 0.1706 -17.3114 8.1097
# 2 11.9202 40.8064 24.8408 7.2955 -11.8496 3.4253
# 3 44.4015 24.8408 87.5271 13.2811 -3.1052 10.0905
# 4 0.1706 7.2955 13.2811 23.2808 -2.4516 -10.7943
# 5 -17.3114 -11.8496 -3.1052 -2.4516 38.3394 0.9014
# 6 8.1097 3.4253 10.0905 -10.7943 0.9014 28.4319
#
#
#
# Elastic Compliance Matrix: (Units=1/GPa)
#
#
# Indices 1 2 3 4 5 6 
#
# 1 0.028204 0.003840 -0.016457 0.009633 0.013191 0.000572
# 2 0.003840 0.034023 -0.009813 -0.005914 0.011178 -0.004311
# 3 -0.016457 -0.009813 0.025887 -0.016923 -0.009227 -0.009444
# 4 0.009633 -0.005914 -0.016923 0.068777 0.004845 0.029929
# 5 0.013191 0.011178 -0.009227 0.004845 0.035082 -0.001107
# 6 0.000572 -0.004311 -0.009444 0.029929 -0.001107 0.050277
#
#
# Mechanical properties :
#
#
# Convention : Reuss Voigt Hill
#
# Bulk Modulus (GPa) = 23.11921 39.80824 31.46373
# Shear Modulus (GPa) = 16.58216 25.66284 21.12250
#
# Velocity S-wave (km/s) = 2.81735 3.50488 3.17975
# Velocity P-wave (km/s) = 4.65295 5.95266 5.34247
#
# Compressibility (1/GPa) = 0.04325407
#
# Stress axis : x y z
#
# Youngs Moduli (GPa) = 35.45641 29.39197 38.62875
#
# Poissons Ratio (x) = -0.11285 0.63570
# Poissons Ratio (y) = -0.13614 0.37906
# Poissons Ratio (z) = 0.58350 0.28842
#
# Static dielectric constant tensor:
#      x y z
#    x 3.709700 -0.133500 0.001560 
#    y -0.133500 3.565770 0.204910 
#    z 0.001560 0.204910 3.859650 
# 
# 
# High freq. dielectric constant tensor:
#      x y z
#    x 1.815100 -0.013990 -0.000220 
#    y -0.013990 1.802920 0.018630 
#    z -0.000220 0.018630 1.824040 
# 
# From -- ./inp_files/239015.got.cif
#   From: 2010.06.25/outbox.cif.g09.slc.cpg/sg2_120_cif.got.tgz:239015.got - 2010.06.27 13:26:56.
