data_PCOD8010249
_publ_section_title
;
Structure prediction by ZEFSAII (Michael W. Deem and Ramdas Pophale) SiO2 
 PCOD8010249
Probable space group: P -1
;
_chemical_formula_sum "Si O2"
_cell_formula_units_Z 16
_cell_length_a 28.811172
_cell_length_b 11.581924
_cell_length_c 13.990283
_cell_angle_alpha 29.531757
_cell_angle_beta 161.387676
_cell_angle_gamma 148.567317
_cell_volume 722.116237
_symmetry_space_group_name_H-M "P -1"
_symmetry_group_IT_number 2
_symmetry_cell_setting 'triclinic'
loop_
_space_group_symop_operation_xyz
x,y,z
-x,-y,-z
loop_
_atom_site_type_symbol
_atom_site_label
_atom_site_fract_x
_atom_site_fract_y
_atom_site_fract_z
Si Si1 0.286682 0.762252 0.891740
Si Si2 0.859074 0.826379 0.645588
Si Si3 0.814766 0.967354 0.058895
Si Si4 0.149470 0.181870 0.574215
Si Si5 0.667183 0.616004 0.588670
Si Si6 0.383896 0.038300 0.607574
Si Si7 0.338481 0.420286 0.087688
Si Si8 0.176508 0.704910 0.323278
O O1 0.152543 0.904187 0.541453
O O2 0.285936 0.576910 0.109765
O O3 0.440282 0.956358 0.049993
O O4 0.266452 0.627567 0.847406
O O5 0.777843 0.773193 0.421045
O O6 0.776137 0.638439 0.695058
O O7 0.029945 0.805913 0.991856
O O8 0.763282 0.958475 0.077439
O O9 0.762832 0.700983 0.108406
O O10 0.991408 0.019039 0.364595
O O11 0.754880 0.165546 0.735239
O O12 0.134098 0.427304 0.419846
O O13 0.674740 0.873852 0.469430
O O14 0.501140 0.531854 0.286682
O O15 0.350936 0.225890 0.331219
O O16 0.295323 0.776063 0.590697
#
# Coordination Sequence:
#
# PCOD8010249 Si02
#       8
#     2   2   2   2   2   2   2   2
#     4   9  19  36  57  81 110 138 174 221 262 316
#     4  11  22  33  53  84 110 138 179 220 267 314
#     4   9  18  36  58  75  97 141 190 217 251 314
#     4  10  22  37  54  75 106 146 183 220 263 312
#     4   9  19  35  55  81 114 138 165 220 274 317
#     4   8  17  37  59  79 106 145 179 207 264 330
#     4   8  16  35  59  79 104 144 179 210 266 325
#     4  10  21  38  57  77 106 143 182 220 262 317
#
# _framework density 22.157098000000001
#
# number of rings (size 3 to 8) (size 9 to 14) (size 15 to 20)
#    0.000    2.750    0.000    3.000    0.000    8.500 
#    0.000   12.500    0.000    6.750    0.000    0.000 
#    0.000    0.000    0.000    0.000    0.000    0.000 
#
# Total GULP energy -198267.389860 kJ/mol
# GULP energy per Si atom -12391.711866 kJ/mol
# Density = 2.210667 g / cm^3
# Si number density = 22.157098 Si / 1000 Ang^3
#
#
#
# Elastic Constant Matrix: (Units=GPa)
#
#
# Indices 1 2 3 4 5 6 
#
# 1 92.3283 17.2446 6.8982 23.7406 -15.9792 11.8823
# 2 17.2446 118.6505 12.1124 19.1958 -11.1202 -11.6526
# 3 6.8982 12.1124 24.2687 1.7622 -4.7942 -4.6309
# 4 23.7406 19.1958 1.7622 23.5161 -13.1601 -7.9431
# 5 -15.9792 -11.1202 -4.7942 -13.1601 20.6509 4.4144
# 6 11.8823 -11.6526 -4.6309 -7.9431 4.4144 28.4928
#
#
#
# Elastic Compliance Matrix: (Units=1/GPa)
#
#
# Indices 1 2 3 4 5 6 
#
# 1 0.020012 0.000302 -0.006797 -0.024326 0.002080 -0.016430
# 2 0.000302 0.010241 -0.004559 -0.008483 -0.000951 0.001104
# 3 -0.006797 -0.004559 0.048868 0.017979 0.012526 0.011984
# 4 -0.024326 -0.008483 0.017979 0.107411 0.042176 0.033007
# 5 0.002080 -0.000951 0.012526 0.042176 0.079251 0.000259
# 6 -0.016430 0.001104 0.011984 0.033007 0.000259 0.053509
#
#
# Mechanical properties :
#
#
# Convention : Reuss Voigt Hill
#
# Bulk Modulus (GPa) = 17.53939 34.19532 25.86735
# Shear Modulus (GPa) = 13.87333 27.79811 20.83572
#
# Velocity S-wave (km/s) = 2.50498 3.54586 3.06986
# Velocity P-wave (km/s) = 4.03729 5.67722 4.92598
#
# Compressibility (1/GPa) = 0.05701453
#
# Stress axis : x y z
#
# Youngs Moduli (GPa) = 49.97073 97.64498 20.46310
#
# Poissons Ratio (x) = -0.02951 0.13909
# Poissons Ratio (y) = -0.01510 0.09328
# Poissons Ratio (z) = 0.33965 0.44512
#
# Static dielectric constant tensor:
#      x y z
#    x 4.480070 -0.163570 -0.499640 
#    y -0.163570 4.351970 0.133490 
#    z -0.499640 0.133490 3.682030 
# 
# 
# High freq. dielectric constant tensor:
#      x y z
#    x 1.879230 0.004050 -0.037320 
#    y 0.004050 1.878530 -0.009710 
#    z -0.037320 -0.009710 1.837800 
# 
# From -- ./inp_files/234892.got.cif
#   From: 2010.06.25/outbox.cif.g09.slc.cpg/sg2_118_cif.got.tgz:234892.got - 2010.06.27 13:26:56.
