data_PCOD8010118
_publ_section_title
;
Structure prediction by ZEFSAII (Michael W. Deem and Ramdas Pophale) SiO2 
 PCOD8010118
Probable space group: P -1
;
_chemical_formula_sum "Si O2"
_cell_formula_units_Z 16
_cell_length_a 15.008195
_cell_length_b 15.758492
_cell_length_c 11.502832
_cell_angle_alpha 48.569218
_cell_angle_beta 65.336326
_cell_angle_gamma 26.260393
_cell_volume 764.760793
_symmetry_space_group_name_H-M "P -1"
_symmetry_group_IT_number 2
_symmetry_cell_setting 'triclinic'
loop_
_space_group_symop_operation_xyz
x,y,z
-x,-y,-z
loop_
_atom_site_type_symbol
_atom_site_label
_atom_site_fract_x
_atom_site_fract_y
_atom_site_fract_z
Si Si1 0.184793 0.904426 0.818811
Si Si2 0.392864 0.786125 0.276167
Si Si3 0.498492 0.802511 0.433585
Si Si4 0.994579 0.677335 0.403017
Si Si5 0.340831 0.513616 0.163120
Si Si6 0.979188 0.700856 0.133278
Si Si7 0.730857 0.807544 0.610958
Si Si8 0.872209 0.156867 0.549858
O O1 0.444735 0.685451 0.861281
O O2 0.027287 0.162601 0.736930
O O3 0.192138 0.786808 0.005118
O O4 0.072458 0.994580 0.672937
O O5 0.392163 0.867445 0.314427
O O6 0.655278 0.475377 0.369963
O O7 0.231677 0.848139 0.335752
O O8 0.268031 0.990656 0.058410
O O9 0.559170 0.629732 0.636893
O O10 0.730709 0.634427 0.433447
O O11 0.316306 0.078599 0.346016
O O12 0.826605 0.801910 0.477090
O O13 0.934042 0.695259 0.291152
O O14 0.183450 0.580641 0.131598
O O15 0.078202 0.491313 0.194042
O O16 0.500000 0.000000 0.500000
O O17 0.000000 0.000000 0.500000
#
# Coordination Sequence:
#
# PCOD8010118 Si02
#       8
#     2   2   2   2   2   2   2   2
#     4  11  20  38  66  97 131 165 227 263 328 388
#     4  11  25  45  62  99 139 175 218 261 338 394
#     4  11  23  41  68  91 133 176 215 270 329 387
#     4  11  23  40  69  96 125 171 219 275 327 386
#     4  10  21  37  65  99 125 170 215 275 319 383
#     4  11  24  43  65 100 136 171 222 282 321 389
#     4  12  23  44  71  96 126 170 227 278 330 375
#     4  11  24  41  67  94 139 183 211 264 333 405
#
# _framework density 20.921575000000001
#
# number of rings (size 3 to 8) (size 9 to 14) (size 15 to 20)
#    0.000    1.000    6.250    1.125    0.000    6.500 
#    2.250    0.625    0.000    0.000    0.000    0.000 
#    0.000    0.000    0.000    0.000    0.000    0.000 
#
# Total GULP energy -198406.495741 kJ/mol
# GULP energy per Si atom -12400.405984 kJ/mol
# Density = 2.087396 g / cm^3
# Si number density = 20.921575 Si / 1000 Ang^3
#
#
#
# Elastic Constant Matrix: (Units=GPa)
#
#
# Indices 1 2 3 4 5 6 
#
# 1 84.4761 40.3612 31.4504 -7.5265 -1.5705 13.3829
# 2 40.3612 106.0766 17.1816 -19.1021 -7.7632 15.0802
# 3 31.4504 17.1816 78.1591 -21.8367 2.7900 2.8156
# 4 -7.5265 -19.1021 -21.8367 24.2786 3.7583 -7.8671
# 5 -1.5705 -7.7632 2.7900 3.7583 33.1754 2.5359
# 6 13.3829 15.0802 2.8156 -7.8671 2.5359 32.9771
#
#
#
# Elastic Compliance Matrix: (Units=1/GPa)
#
#
# Indices 1 2 3 4 5 6 
#
# 1 0.018029 -0.006148 -0.008208 -0.008827 0.001566 -0.006031
# 2 -0.006148 0.013557 0.002297 0.010037 0.001676 -0.001635
# 3 -0.008208 0.002297 0.021450 0.021143 -0.004496 0.005839
# 4 -0.008827 0.010037 0.021143 0.071628 -0.009106 0.014975
# 5 0.001566 0.001676 -0.004496 -0.009106 0.032454 -0.005686
# 6 -0.006031 -0.001635 0.005839 0.014975 -0.005686 0.037030
#
#
# Mechanical properties :
#
#
# Convention : Reuss Voigt Hill
#
# Bulk Modulus (GPa) = 34.58111 49.63315 42.10713
# Shear Modulus (GPa) = 21.93904 30.06745 26.00325
#
# Velocity S-wave (km/s) = 3.24177 3.79509 3.52929
# Velocity P-wave (km/s) = 5.52964 6.55580 6.06446
#
# Compressibility (1/GPa) = 0.02891752
#
# Stress axis : x y z
#
# Youngs Moduli (GPa) = 55.46636 73.76290 46.62111
#
# Poissons Ratio (x) = 0.45349 0.38267
# Poissons Ratio (y) = 0.34101 -0.10709
# Poissons Ratio (z) = 0.45527 -0.16944
#
# Static dielectric constant tensor:
#      x y z
#    x 3.846980 0.027820 -0.180720 
#    y 0.027820 3.828200 -0.273600 
#    z -0.180720 -0.273600 3.847010 
# 
# 
# High freq. dielectric constant tensor:
#      x y z
#    x 1.822420 -0.001180 -0.012560 
#    y -0.001180 1.829360 -0.015620 
#    z -0.012560 -0.015620 1.806350 
# 
# From -- ./inp_files/454839.got.cif
#   From: 2010.06.25/outbox.cif.g09.slc.cpg/sg2_228_cif.got.tgz:454839.got - 2010.06.27 13:26:56.
