data_PCOD8010916
_publ_section_title
;
Structure prediction by ZEFSAII (Michael W. Deem and Ramdas Pophale) SiO2 
 PCOD8010916
Probable space group: P -1
;
_chemical_formula_sum "Si O2"
_cell_formula_units_Z 10
_cell_length_a 9.825203
_cell_length_b 16.260508
_cell_length_c 12.777907
_cell_angle_alpha 24.146821
_cell_angle_beta 133.523697
_cell_angle_gamma 148.204430
_cell_volume 402.651331
_symmetry_space_group_name_H-M "P -1"
_symmetry_group_IT_number 2
_symmetry_cell_setting 'triclinic'
loop_
_space_group_symop_operation_xyz
x,y,z
-x,-y,-z
loop_
_atom_site_type_symbol
_atom_site_label
_atom_site_fract_x
_atom_site_fract_y
_atom_site_fract_z
Si Si1 0.016501 0.234241 0.332604
Si Si2 0.150978 0.923669 0.860759
Si Si3 0.443987 0.820878 0.389182
Si Si4 0.788592 0.344277 0.229229
Si Si5 0.955088 0.145322 0.885879
O O1 0.306661 0.996706 0.607569
O O2 0.023758 0.367475 0.290264
O O3 0.086060 0.057896 0.592007
O O4 0.236878 0.509070 0.047894
O O5 0.435953 0.055950 0.809352
O O6 0.184480 0.029769 0.873289
O O7 0.902350 0.554959 0.147478
O O8 0.246000 0.851480 0.278803
O O9 0.261877 0.473297 0.695614
O O10 0.500000 0.000000 0.500000
O O11 0.000000 0.000000 0.000000
#
# Coordination Sequence:
#
# PCOD8010916 Si02
#       5
#     2   2   2   2   2
#     4  10  23  40  67 102 131 166 215 271 330 390
#     4  11  24  43  69  98 132 173 217 273 330 386
#     4  10  23  44  64  95 134 168 218 270 324 394
#     4  10  21  38  64  98 135 168 208 265 329 390
#     4  11  26  43  65  93 130 178 223 268 322 387
#
# _framework density 24.835381999999999
#
# number of rings (size 3 to 8) (size 9 to 14) (size 15 to 20)
#    0.000    1.600    0.000    4.200    0.000   16.800 
#    0.000    0.000    0.000    0.000    0.000    0.000 
#    0.000    0.000    0.000    0.000    0.000    0.000 
#
# Total GULP energy -123959.248456 kJ/mol
# GULP energy per Si atom -12395.924846 kJ/mol
# Density = 2.477886 g / cm^3
# Si number density = 24.835382 Si / 1000 Ang^3
#
#
#
# Elastic Constant Matrix: (Units=GPa)
#
#
# Indices 1 2 3 4 5 6 
#
# 1 168.3729 24.8345 39.4302 -10.1937 23.9218 -20.8920
# 2 24.8345 52.7156 30.5828 -6.1972 3.0053 -1.6458
# 3 39.4302 30.5828 128.0195 -21.4309 14.2486 8.2760
# 4 -10.1937 -6.1972 -21.4309 21.8859 0.1383 -3.1522
# 5 23.9218 3.0053 14.2486 0.1383 40.6749 -2.9368
# 6 -20.8920 -1.6458 8.2760 -3.1522 -2.9368 33.7484
#
#
#
# Elastic Compliance Matrix: (Units=1/GPa)
#
#
# Indices 1 2 3 4 5 6 
#
# 1 0.007885 -0.002251 -0.001411 0.002401 -0.003622 0.005027
# 2 -0.002251 0.022907 -0.004872 0.000820 0.001416 0.001118
# 3 -0.001411 -0.004872 0.011425 0.008685 -0.003085 -0.003370
# 4 0.002401 0.000820 0.008685 0.056188 -0.004398 0.004262
# 5 -0.003622 0.001416 -0.003085 -0.004398 0.027749 0.000587
# 6 0.005027 0.001118 -0.003370 0.004262 0.000587 0.034073
#
#
# Mechanical properties :
#
#
# Convention : Reuss Voigt Hill
#
# Bulk Modulus (GPa) = 39.76068 59.86701 49.81384
# Shear Modulus (GPa) = 26.92859 36.21254 31.57057
#
# Velocity S-wave (km/s) = 3.29642 3.82265 3.56925
# Velocity P-wave (km/s) = 5.52566 6.60617 6.08993
#
# Compressibility (1/GPa) = 0.02515047
#
# Stress axis : x y z
#
# Youngs Moduli (GPa) = 126.81908 43.65506 87.52891
#
# Poissons Ratio (x) = 0.09825 0.12350
# Poissons Ratio (y) = 0.28541 0.42642
# Poissons Ratio (z) = 0.17894 0.21267
#
# Static dielectric constant tensor:
#      x y z
#    x 4.818490 -0.096890 0.037100 
#    y -0.096890 4.069100 -0.192620 
#    z 0.037100 -0.192620 4.612980 
# 
# 
# High freq. dielectric constant tensor:
#      x y z
#    x 2.014080 -0.008220 0.001790 
#    y -0.008220 1.958860 -0.011890 
#    z 0.001790 -0.011890 1.993170 
# 
# From -- ./inp_files/129604.got.cif
#   From: 2010.06.25/outbox.cif.g09.slc.cpg/sg2_65_cif.got.tgz:129604.got - 2010.06.27 13:26:56.
