data_PCOD8010370
_publ_section_title
;
Structure prediction by ZEFSAII (Michael W. Deem and Ramdas Pophale) SiO2 
 PCOD8010370
Probable space group: P -1
;
_chemical_formula_sum "Si O2"
_cell_formula_units_Z 16
_cell_length_a 12.818487
_cell_length_b 21.736037
_cell_length_c 6.873690
_cell_angle_alpha 58.646777
_cell_angle_beta 62.180557
_cell_angle_gamma 30.449438
_cell_volume 828.110942
_symmetry_space_group_name_H-M "P -1"
_symmetry_group_IT_number 2
_symmetry_cell_setting 'triclinic'
loop_
_space_group_symop_operation_xyz
x,y,z
-x,-y,-z
loop_
_atom_site_type_symbol
_atom_site_label
_atom_site_fract_x
_atom_site_fract_y
_atom_site_fract_z
Si Si1 0.030457 0.189760 0.026645
Si Si2 0.999125 0.961567 0.770255
Si Si3 0.610564 0.551980 0.323053
Si Si4 0.967368 0.703707 0.500453
Si Si5 0.539411 0.869462 0.669277
Si Si6 0.280896 0.105186 0.286104
Si Si7 0.372435 0.576199 0.792239
Si Si8 0.340768 0.819284 0.003648
O O1 0.064161 0.090654 0.095526
O O2 0.233584 0.119638 0.074980
O O3 0.849205 0.282782 0.188093
O O4 0.980684 0.266051 0.764612
O O5 0.225862 0.855243 0.844296
O O6 0.000000 0.000000 0.500000
O O7 0.829924 0.088217 0.834167
O O8 0.839059 0.446225 0.390548
O O9 0.467360 0.587881 0.549257
O O10 0.632847 0.496289 0.197156
O O11 0.513107 0.676250 0.148524
O O12 0.762650 0.758216 0.548661
O O13 0.929434 0.770989 0.616156
O O14 0.552169 0.914883 0.777311
O O15 0.476240 0.822378 0.860749
O O16 0.366983 0.986017 0.482795
O O17 0.500000 0.500000 0.000000
#
# Coordination Sequence:
#
# PCOD8010370 Si02
#       8
#     2   2   2   2   2   2   2   2
#     4  12  21  37  68  90 120 153 205 263 299 351
#     4  11  25  41  62  93 123 162 197 252 312 359
#     4  11  23  37  61  88 123 165 197 248 300 368
#     4  10  21  38  59  93 115 159 203 246 306 344
#     4   9  20  42  62  86 122 162 201 251 298 358
#     4   9  20  39  61  91 119 149 211 253 293 350
#     4  11  21  36  59  90 121 156 205 247 299 354
#     4  11  24  43  61  88 131 161 199 242 308 371
#
# _framework density 19.321082000000001
#
# number of rings (size 3 to 8) (size 9 to 14) (size 15 to 20)
#    0.750    0.750    2.500    3.000    1.750    3.000 
#    2.250    0.000    0.000    1.500    0.000    0.000 
#    0.000    0.000    0.000    0.000    0.000    0.000 
#
# Total GULP energy -198333.189868 kJ/mol
# GULP energy per Si atom -12395.824367 kJ/mol
# Density = 1.927711 g / cm^3
# Si number density = 19.321082 Si / 1000 Ang^3
#
#
#
# Elastic Constant Matrix: (Units=GPa)
#
#
# Indices 1 2 3 4 5 6 
#
# 1 85.9023 18.6822 46.9720 -14.3710 0.7431 3.2093
# 2 18.6822 86.0380 39.8029 -24.9306 -6.5794 -1.9526
# 3 46.9720 39.8029 109.2638 -24.8975 4.9833 6.5871
# 4 -14.3710 -24.9306 -24.8975 39.9688 2.5315 0.5189
# 5 0.7431 -6.5794 4.9833 2.5315 32.9919 -0.4655
# 6 3.2093 -1.9526 6.5871 0.5189 -0.4655 22.9632
#
#
#
# Elastic Compliance Matrix: (Units=1/GPa)
#
#
# Indices 1 2 3 4 5 6 
#
# 1 0.015321 0.000060 -0.006234 0.001637 0.000478 -0.000375
# 2 0.000060 0.016069 -0.004614 0.006921 0.003406 0.002594
# 3 -0.006234 -0.004614 0.014922 0.004444 -0.003431 -0.003971
# 4 0.001637 0.006921 0.004444 0.032834 -0.001871 -0.001695
# 5 0.000478 0.003406 -0.003431 -0.001871 0.031667 0.001891
# 6 -0.000375 0.002594 -0.003971 -0.001695 0.001891 0.045037
#
#
# Mechanical properties :
#
#
# Convention : Reuss Voigt Hill
#
# Bulk Modulus (GPa) = 40.42940 54.67981 47.55461
# Shear Modulus (GPa) = 26.92923 30.90123 28.91523
#
# Velocity S-wave (km/s) = 3.73738 4.00353 3.87274
# Velocity P-wave (km/s) = 6.29241 7.05217 6.68309
#
# Compressibility (1/GPa) = 0.02473448
#
# Stress axis : x y z
#
# Youngs Moduli (GPa) = 65.27064 62.23121 67.01681
#
# Poissons Ratio (x) = -0.00371 0.41780
# Poissons Ratio (y) = -0.00390 0.30922
# Poissons Ratio (z) = 0.40691 0.28714
#
# Static dielectric constant tensor:
#      x y z
#    x 3.458450 -0.094880 0.193360 
#    y -0.094880 3.652030 -0.036860 
#    z 0.193360 -0.036860 3.507180 
# 
# 
# High freq. dielectric constant tensor:
#      x y z
#    x 1.742790 -0.011130 0.011750 
#    y -0.011130 1.757170 -0.004300 
#    z 0.011750 -0.004300 1.753010 
# 
# From -- ./inp_files/100828.got.cif
#   From: 2010.06.25/outbox.cif.g09.slc.cpg/sg2_51_cif.got.tgz:100828.got - 2010.06.27 13:26:56.
