data_PCOD8010114
_publ_section_title
;
Structure prediction by ZEFSAII (Michael W. Deem and Ramdas Pophale) SiO2 
 PCOD8010114
Probable space group: P -1
;
_chemical_formula_sum "Si O2"
_cell_formula_units_Z 14
_cell_length_a 14.681000
_cell_length_b 6.853999
_cell_length_c 14.113481
_cell_angle_alpha 100.635213
_cell_angle_beta 150.208438
_cell_angle_gamma 63.679894
_cell_volume 564.915141
_symmetry_space_group_name_H-M "P -1"
_symmetry_group_IT_number 2
_symmetry_cell_setting 'triclinic'
loop_
_space_group_symop_operation_xyz
x,y,z
-x,-y,-z
loop_
_atom_site_type_symbol
_atom_site_label
_atom_site_fract_x
_atom_site_fract_y
_atom_site_fract_z
Si Si1 0.576126 0.641101 0.354641
Si Si2 0.911254 0.627641 0.532897
Si Si3 0.292748 0.481913 0.333041
Si Si4 0.795071 0.830162 0.893407
Si Si5 0.456359 0.680720 0.840601
Si Si6 0.181930 0.804322 0.773730
Si Si7 0.764524 0.797443 0.072049
O O1 0.658412 0.728077 0.346854
O O2 0.737328 0.524313 0.581171
O O3 0.551838 0.434123 0.274955
O O4 0.339675 0.877886 0.199144
O O5 0.000000 0.500000 0.500000
O O6 0.938429 0.852267 0.576786
O O7 0.043076 0.431260 0.716496
O O8 0.500000 0.500000 0.500000
O O9 0.325425 0.241518 0.296714
O O10 0.057958 0.713535 0.097843
O O11 0.788124 0.721836 0.977749
O O12 0.220429 0.823523 0.697895
O O13 0.646199 0.472905 0.062487
O O14 0.521273 0.869347 0.895636
O O15 0.212690 0.980367 0.878773
#
# Coordination Sequence:
#
# PCOD8010114 Si02
#       7
#     2   2   2   2   2   2   2
#     4  12  23  46  72 104 147 189 239 300 366 424
#     4  11  24  42  65 101 151 188 239 295 341 437
#     4  11  26  49  74 107 140 182 249 305 372 443
#     4  11  25  46  73 105 143 186 242 304 368 435
#     4  10  21  37  65  97 141 184 242 292 339 422
#     4  10  21  39  62  96 139 195 238 286 348 415
#     4  11  22  42  66  96 142 191 234 296 357 417
#
# _framework density 24.782487
#
# number of rings (size 3 to 8) (size 9 to 14) (size 15 to 20)
#    0.000    1.143    4.286    1.714    0.000    3.429 
#    2.571    0.000    0.000    0.000    0.000    0.000 
#    0.000    0.000    0.000    0.000    0.000    0.000 
#
# Total GULP energy -173540.043343 kJ/mol
# GULP energy per Si atom -12395.717382 kJ/mol
# Density = 2.472608 g / cm^3
# Si number density = 24.782487 Si / 1000 Ang^3
#
#
#
# Elastic Constant Matrix: (Units=GPa)
#
#
# Indices 1 2 3 4 5 6 
#
# 1 107.5642 33.9781 26.8586 30.3846 1.8064 -0.2489
# 2 33.9781 107.0111 31.6663 41.1230 12.3502 3.6538
# 3 26.8586 31.6663 79.7659 33.4036 13.7929 -0.9873
# 4 30.3846 41.1230 33.4036 43.9208 2.5124 3.0871
# 5 1.8064 12.3502 13.7929 2.5124 57.9516 11.8672
# 6 -0.2489 3.6538 -0.9873 3.0871 11.8672 43.9247
#
#
#
# Elastic Compliance Matrix: (Units=1/GPa)
#
#
# Indices 1 2 3 4 5 6 
#
# 1 0.011667 -0.000974 -0.000812 -0.006592 0.000213 0.000534
# 2 -0.000974 0.015080 0.000607 -0.013779 -0.002830 0.000487
# 3 -0.000812 0.000607 0.019637 -0.014863 -0.004686 0.002697
# 4 -0.006592 -0.013779 -0.014863 0.051531 0.005323 -0.004285
# 5 0.000213 -0.002830 -0.004686 0.005323 0.019887 -0.005616
# 6 0.000534 0.000487 0.002697 -0.004285 -0.005616 0.024608
#
#
# Mechanical properties :
#
#
# Convention : Reuss Voigt Hill
#
# Bulk Modulus (GPa) = 22.71365 53.26083 37.98724
# Shear Modulus (GPa) = 31.35964 42.61529 36.98746
#
# Velocity S-wave (km/s) = 3.56110 4.15127 3.86746
# Velocity P-wave (km/s) = 5.10820 6.67198 5.94176
#
# Compressibility (1/GPa) = 0.04402639
#
# Stress axis : x y z
#
# Youngs Moduli (GPa) = 85.71352 66.31445 50.92490
#
# Poissons Ratio (x) = 0.06459 0.04133
# Poissons Ratio (y) = 0.08349 -0.03093
# Poissons Ratio (z) = 0.06957 -0.04027
#
# Static dielectric constant tensor:
#      x y z
#    x 4.761380 0.136200 0.180430 
#    y 0.136200 4.172390 0.171590 
#    z 0.180430 0.171590 4.651050 
# 
# 
# High freq. dielectric constant tensor:
#      x y z
#    x 1.990670 0.003860 -0.003520 
#    y 0.003860 1.972760 0.005490 
#    z -0.003520 0.005490 2.000420 
# 
# From -- ./inp_files/525884.got.cif
#   From: 2010.06.25/outbox.cif.g09.slc.cpg/sg2_263_cif.got.tgz:525884.got - 2010.06.27 13:26:56.
