data_PCOD8010845
_publ_section_title
;
Structure prediction by ZEFSAII (Michael W. Deem and Ramdas Pophale) SiO2 
 PCOD8010845
Probable space group: P -1
;
_chemical_formula_sum "Si O2"
_cell_formula_units_Z 16
_cell_length_a 15.080064
_cell_length_b 8.642111
_cell_length_c 12.475831
_cell_angle_alpha 108.593587
_cell_angle_beta 133.696532
_cell_angle_gamma 45.348852
_cell_volume 791.158034
_symmetry_space_group_name_H-M "P -1"
_symmetry_group_IT_number 2
_symmetry_cell_setting 'triclinic'
loop_
_space_group_symop_operation_xyz
x,y,z
-x,-y,-z
loop_
_atom_site_type_symbol
_atom_site_label
_atom_site_fract_x
_atom_site_fract_y
_atom_site_fract_z
Si Si1 0.971461 0.540627 0.155769
Si Si2 0.131519 0.431642 0.685815
Si Si3 0.709528 0.528147 0.873708
Si Si4 0.771798 0.994770 0.979839
Si Si5 0.158701 0.730782 0.875822
Si Si6 0.327226 0.102870 0.430577
Si Si7 0.452925 0.052769 0.744951
Si Si8 0.804445 0.094387 0.788493
O O1 0.175719 0.318780 0.277717
O O2 0.908061 0.610212 0.241271
O O3 0.880426 0.481280 0.999673
O O4 0.932784 0.742372 0.104812
O O5 0.112514 0.647527 0.724490
O O6 0.328914 0.196030 0.774289
O O7 0.000000 0.500000 0.500000
O O8 0.727208 0.350516 0.774104
O O9 0.542206 0.791328 0.762039
O O10 0.690350 0.489478 0.972992
O O11 0.593270 0.065465 0.860915
O O12 0.802439 0.021566 0.890032
O O13 0.772693 0.161004 0.088692
O O14 0.997631 0.911595 0.862906
O O15 0.323560 0.179405 0.563607
O O16 0.500000 0.000000 0.500000
O O17 0.313074 0.918776 0.383049
#
# Coordination Sequence:
#
# PCOD8010845 Si02
#       8
#     2   2   2   2   2   2   2   2
#     4  10  22  40  62  91 114 165 204 241 303 356
#     4  11  21  42  66  79 125 164 203 242 295 369
#     4   9  20  36  62  88 116 153 204 244 291 351
#     4  10  22  38  63  90 123 152 201 260 294 348
#     4  10  21  38  64  91 114 165 202 241 305 357
#     4  12  23  36  59  92 124 155 197 244 306 361
#     4  11  23  39  61  92 118 161 204 246 300 346
#     4  11  20  39  62  88 127 156 197 248 308 357
#
# _framework density 20.223521000000002
#
# number of rings (size 3 to 8) (size 9 to 14) (size 15 to 20)
#    0.000    1.500    5.000    1.500    0.000    8.000 
#    0.000    3.125    0.000    0.000    0.000    0.000 
#    0.000    0.000    0.000    0.000    0.000    0.000 
#
# Total GULP energy -198283.360470 kJ/mol
# GULP energy per Si atom -12392.710029 kJ/mol
# Density = 2.017749 g / cm^3
# Si number density = 20.223521 Si / 1000 Ang^3
#
#
#
# Elastic Constant Matrix: (Units=GPa)
#
#
# Indices 1 2 3 4 5 6 
#
# 1 81.4924 51.2304 30.3606 -1.0671 14.5139 1.3212
# 2 51.2304 133.6019 47.1914 0.1424 9.7055 14.0987
# 3 30.3606 47.1914 83.6111 4.1753 17.5664 6.8212
# 4 -1.0671 0.1424 4.1753 36.1764 -2.2777 4.5949
# 5 14.5139 9.7055 17.5664 -2.2777 23.9208 2.1021
# 6 1.3212 14.0987 6.8212 4.5949 2.1021 44.9157
#
#
#
# Elastic Compliance Matrix: (Units=1/GPa)
#
#
# Indices 1 2 3 4 5 6 
#
# 1 0.017932 -0.005915 -0.001794 0.000052 -0.007328 0.001939
# 2 -0.005915 0.011540 -0.004743 0.000874 0.002732 -0.002945
# 3 -0.001794 -0.004743 0.017577 -0.002651 -0.010114 -0.000383
# 4 0.000052 0.000874 -0.002651 0.028616 0.004551 -0.003014
# 5 -0.007328 0.002732 -0.010114 0.004551 0.053184 -0.002061
# 6 0.001939 -0.002945 -0.000383 -0.003014 -0.002061 0.023594
#
#
# Mechanical properties :
#
#
# Convention : Reuss Voigt Hill
#
# Bulk Modulus (GPa) = 45.15568 61.80782 53.48175
# Shear Modulus (GPa) = 27.06677 32.33078 29.69877
#
# Velocity S-wave (km/s) = 3.66236 4.00268 3.83629
# Velocity P-wave (km/s) = 6.34512 7.21045 6.79158
#
# Compressibility (1/GPa) = 0.02214561
#
# Stress axis : x y z
#
# Youngs Moduli (GPa) = 55.76508 86.65779 56.89267
#
# Poissons Ratio (x) = 0.51257 0.10208
# Poissons Ratio (y) = 0.32984 0.26982
# Poissons Ratio (z) = 0.10005 0.41098
#
# Static dielectric constant tensor:
#      x y z
#    x 3.705600 0.241520 0.013740 
#    y 0.241520 4.096370 0.350770 
#    z 0.013740 0.350770 4.030250 
# 
# 
# High freq. dielectric constant tensor:
#      x y z
#    x 1.776740 0.007480 0.011960 
#    y 0.007480 1.794300 0.011670 
#    z 0.011960 0.011670 1.786650 
# 
# From -- ./inp_files/447673.got.cif
#   From: 2010.06.25/outbox.cif.g09.slc.cpg/sg2_224_cif.got.tgz:447673.got - 2010.06.27 13:26:56.
