data_PCOD8010431
_publ_section_title
;
Structure prediction by ZEFSAII (Michael W. Deem and Ramdas Pophale) SiO2 
 PCOD8010431
Probable space group: P -1
;
_chemical_formula_sum "Si O2"
_cell_formula_units_Z 14
_cell_length_a 11.676061
_cell_length_b 10.225503
_cell_length_c 12.359636
_cell_angle_alpha 144.128991
_cell_angle_beta 72.685988
_cell_angle_gamma 84.979969
_cell_volume 668.001652
_symmetry_space_group_name_H-M "P -1"
_symmetry_group_IT_number 2
_symmetry_cell_setting 'triclinic'
loop_
_space_group_symop_operation_xyz
x,y,z
-x,-y,-z
loop_
_atom_site_type_symbol
_atom_site_label
_atom_site_fract_x
_atom_site_fract_y
_atom_site_fract_z
Si Si1 0.759867 0.483848 0.707350
Si Si2 0.086673 0.171477 0.473233
Si Si3 0.727154 0.837036 0.755658
Si Si4 0.741689 0.784021 0.382465
Si Si5 0.506572 0.993180 0.234354
Si Si6 0.385166 0.805742 0.490620
Si Si7 0.298521 0.656264 0.948760
O O1 0.770161 0.664616 0.736209
O O2 0.717365 0.298590 0.537681
O O3 0.917883 0.281803 0.584464
O O4 0.642905 0.677866 0.962629
O O5 0.132465 0.313888 0.467981
O O6 0.113712 0.241606 0.632587
O O7 0.196298 0.837568 0.201535
O O8 0.584115 0.874155 0.763903
O O9 0.692544 0.136736 0.995260
O O10 0.774343 0.483314 0.178489
O O11 0.604554 0.000184 0.644497
O O12 0.703873 0.901883 0.350638
O O13 0.568951 0.156385 0.377216
O O14 0.532025 0.589665 0.233635
#
# Coordination Sequence:
#
# PCOD8010431 Si02
#       7
#     2   2   2   2   2   2   2
#     4  12  22  39  57  91 123 144 191 237 294 339
#     4   9  22  39  61  84 114 162 186 230 290 344
#     4   9  20  41  61  83 116 155 190 236 281 346
#     4  10  21  42  60  84 113 154 201 231 280 345
#     4  10  21  38  60  89 111 152 191 241 285 331
#     4  11  23  37  63  86 115 151 192 246 282 334
#     4   9  19  39  60  83 112 151 197 228 280 341
#
# _framework density 20.958031999999999
#
# number of rings (size 3 to 8) (size 9 to 14) (size 15 to 20)
#    0.857    1.143    1.429    2.571    0.000    5.714 
#    5.143    2.143    0.000    0.000    0.000    0.000 
#    0.000    0.000    0.000    0.000    0.000    0.000 
#
# Total GULP energy -173463.389549 kJ/mol
# GULP energy per Si atom -12390.242111 kJ/mol
# Density = 2.091033 g / cm^3
# Si number density = 20.958032 Si / 1000 Ang^3
#
#
#
# Elastic Constant Matrix: (Units=GPa)
#
#
# Indices 1 2 3 4 5 6 
#
# 1 152.7267 10.6731 64.7821 4.6558 12.0881 -17.6203
# 2 10.6731 44.9952 19.7756 11.1644 16.1430 -4.8271
# 3 64.7821 19.7756 75.8601 6.2168 18.2717 -6.5393
# 4 4.6558 11.1644 6.2168 19.9822 2.8265 1.7511
# 5 12.0881 16.1430 18.2717 2.8265 30.4189 1.6073
# 6 -17.6203 -4.8271 -6.5393 1.7511 1.6073 22.7314
#
#
#
# Elastic Compliance Matrix: (Units=1/GPa)
#
#
# Indices 1 2 3 4 5 6 
#
# 1 0.011255 0.002842 -0.009513 -0.001778 -0.000459 0.006760
# 2 0.002842 0.034823 -0.005531 -0.017153 -0.015243 0.010406
# 3 -0.009513 -0.005531 0.024695 -0.001180 -0.007967 -0.000790
# 4 -0.001778 -0.017153 -0.001180 0.060552 0.005442 -0.010410
# 5 -0.000459 -0.015243 -0.007967 0.005442 0.045930 -0.009551
# 6 0.006760 0.010406 -0.000790 -0.010410 -0.009551 0.052692
#
#
# Mechanical properties :
#
#
# Convention : Reuss Voigt Hill
#
# Bulk Modulus (GPa) = 21.56585 51.56041 36.56313
# Shear Modulus (GPa) = 18.53176 26.51657 22.52416
#
# Velocity S-wave (km/s) = 2.97683 3.56086 3.28186
# Velocity P-wave (km/s) = 4.70401 6.44681 5.64310
#
# Compressibility (1/GPa) = 0.04636960
#
# Stress axis : x y z
#
# Youngs Moduli (GPa) = 88.85208 28.71701 40.49339
#
# Poissons Ratio (x) = -0.08163 0.38522
# Poissons Ratio (y) = -0.25256 0.22396
# Poissons Ratio (z) = 0.84526 0.15883
#
# Static dielectric constant tensor:
#      x y z
#    x 3.901260 -0.055880 0.098460 
#    y -0.055880 3.312550 -0.015260 
#    z 0.098460 -0.015260 3.669720 
# 
# 
# High freq. dielectric constant tensor:
#      x y z
#    x 1.832520 -0.002490 0.007690 
#    y -0.002490 1.783240 0.001370 
#    z 0.007690 0.001370 1.805590 
# 
# From -- ./inp_files/518406.got.cif
#   From: 2010.06.25/outbox.cif.g09.slc.cpg/sg2_260_cif.got.tgz:518406.got - 2010.06.27 13:26:56.
