data_PCOD8010741
_publ_section_title
;
Structure prediction by ZEFSAII (Michael W. Deem and Ramdas Pophale) SiO2 
 PCOD8010741
Probable space group: P -1
;
_chemical_formula_sum "Si O2"
_cell_formula_units_Z 16
_cell_length_a 12.544089
_cell_length_b 14.982489
_cell_length_c 14.906652
_cell_angle_alpha 37.947252
_cell_angle_beta 138.670935
_cell_angle_gamma 152.800208
_cell_volume 775.144907
_symmetry_space_group_name_H-M "P -1"
_symmetry_group_IT_number 2
_symmetry_cell_setting 'triclinic'
loop_
_space_group_symop_operation_xyz
x,y,z
-x,-y,-z
loop_
_atom_site_type_symbol
_atom_site_label
_atom_site_fract_x
_atom_site_fract_y
_atom_site_fract_z
Si Si1 0.089752 0.351934 0.160475
Si Si2 0.724206 0.228903 0.283676
Si Si3 0.208891 0.958274 0.386702
Si Si4 0.351950 0.236317 0.403897
Si Si5 0.430099 0.614187 0.838007
Si Si6 0.848825 0.546074 0.377422
Si Si7 0.381288 0.042121 0.725427
Si Si8 0.149457 0.601708 0.155821
O O1 0.291944 0.365890 0.260064
O O2 0.208789 0.544030 0.151828
O O3 0.851864 0.129038 0.227692
O O4 0.021404 0.380392 0.000106
O O5 0.680480 0.117080 0.439908
O O6 0.634850 0.335096 0.155107
O O7 0.004741 0.417191 0.286513
O O8 0.585829 0.060955 0.247669
O O9 0.982873 0.764815 0.338959
O O10 0.151163 0.018376 0.391026
O O11 0.371286 0.162696 0.264272
O O12 0.604995 0.360885 0.422920
O O13 0.355332 0.182137 0.551116
O O14 0.203753 0.441986 0.767175
O O15 0.500000 0.500000 0.000000
O O16 0.000000 0.500000 0.500000
O O17 0.607075 0.179722 0.823307
#
# Coordination Sequence:
#
# PCOD8010741 Si02
#       8
#     2   2   2   2   2   2   2   2
#     4  10  22  41  58  89 129 160 198 265 311 359
#     4  10  21  38  63  89 124 162 208 252 308 369
#     4  10  22  41  62  90 121 167 207 250 307 371
#     4  10  23  38  62  93 127 157 208 262 305 358
#     4  11  25  40  62  93 131 159 205 269 308 355
#     4  11  23  40  67  91 123 172 213 246 309 378
#     4  10  21  38  63  92 113 170 210 244 310 377
#     4  10  22  38  64  87 124 163 205 249 314 376
#
# _framework density 20.641302
#
# number of rings (size 3 to 8) (size 9 to 14) (size 15 to 20)
#    0.000    1.750    1.250    1.875    7.000    2.000 
#    2.250    0.000    0.000    0.000    0.000    0.000 
#    0.000    0.000    0.000    0.000    0.000    0.000 
#
# Total GULP energy -198314.261782 kJ/mol
# GULP energy per Si atom -12394.641361 kJ/mol
# Density = 2.059432 g / cm^3
# Si number density = 20.641302 Si / 1000 Ang^3
#
#
#
# Elastic Constant Matrix: (Units=GPa)
#
#
# Indices 1 2 3 4 5 6 
#
# 1 78.0363 39.3229 55.8106 4.2732 9.7543 -4.5293
# 2 39.3229 119.0257 42.5506 15.2379 -5.5835 -15.4556
# 3 55.8106 42.5506 126.3322 4.8809 14.1076 -5.7868
# 4 4.2732 15.2379 4.8809 28.3617 -1.7247 -9.6325
# 5 9.7543 -5.5835 14.1076 -1.7247 35.8192 -3.0853
# 6 -4.5293 -15.4556 -5.7868 -9.6325 -3.0853 28.6378
#
#
#
# Elastic Compliance Matrix: (Units=1/GPa)
#
#
# Indices 1 2 3 4 5 6 
#
# 1 0.020676 -0.004539 -0.007254 0.000006 -0.003569 -0.001028
# 2 -0.004539 0.011896 -0.002120 -0.003554 0.004144 0.004525
# 3 -0.007254 -0.002120 0.012184 -0.000132 -0.003179 -0.000216
# 4 0.000006 -0.003554 -0.000132 0.041522 0.002555 0.012298
# 5 -0.003569 0.004144 -0.003179 0.002555 0.031365 0.005268
# 6 -0.001028 0.004525 -0.000216 0.012298 0.005268 0.041859
#
#
# Mechanical properties :
#
#
# Convention : Reuss Voigt Hill
#
# Bulk Modulus (GPa) = 59.06455 66.52914 62.79685
# Shear Modulus (GPa) = 25.91065 30.94442 28.42753
#
# Velocity S-wave (km/s) = 3.54684 3.87609 3.71511
# Velocity P-wave (km/s) = 6.74168 7.23416 6.99226
#
# Compressibility (1/GPa) = 0.01693063
#
# Stress axis : x y z
#
# Youngs Moduli (GPa) = 48.36512 84.06307 82.07224
#
# Poissons Ratio (x) = 0.38158 0.59536
# Poissons Ratio (y) = 0.21954 0.17396
# Poissons Ratio (z) = 0.35084 0.17818
#
# Static dielectric constant tensor:
#      x y z
#    x 3.967230 -0.465880 -0.296180 
#    y -0.465880 3.936340 0.066710 
#    z -0.296180 0.066710 3.825270 
# 
# 
# High freq. dielectric constant tensor:
#      x y z
#    x 1.808070 -0.016210 -0.013790 
#    y -0.016210 1.804790 -0.009090 
#    z -0.013790 -0.009090 1.803690 
# 
# From -- ./inp_files/335329.got.cif
#   From: 2010.06.25/outbox.cif.g09.slc.cpg/sg2_168_cif.got.tgz:335329.got - 2010.06.27 13:26:56.
