data_PCOD8010688
_publ_section_title
;
Structure prediction by ZEFSAII (Michael W. Deem and Ramdas Pophale) SiO2 
 PCOD8010688
Probable space group: P -1
;
_chemical_formula_sum "Si O2"
_cell_formula_units_Z 16
_cell_length_a 8.813518
_cell_length_b 22.512268
_cell_length_c 14.733695
_cell_angle_alpha 160.460341
_cell_angle_beta 129.294166
_cell_angle_gamma 51.015606
_cell_volume 750.771042
_symmetry_space_group_name_H-M "P -1"
_symmetry_group_IT_number 2
_symmetry_cell_setting 'triclinic'
loop_
_space_group_symop_operation_xyz
x,y,z
-x,-y,-z
loop_
_atom_site_type_symbol
_atom_site_label
_atom_site_fract_x
_atom_site_fract_y
_atom_site_fract_z
Si Si1 0.821801 0.512656 0.687052
Si Si2 0.777342 0.125431 0.790251
Si Si3 0.753400 0.571909 0.215258
Si Si4 0.357845 0.739887 0.386459
Si Si5 0.646560 0.766429 0.275121
Si Si6 0.617165 0.430263 0.667388
Si Si7 0.868330 0.905298 0.244970
Si Si8 0.209374 0.552865 0.624171
O O1 0.716075 0.406981 0.572190
O O2 0.744319 0.465172 0.490816
O O3 0.049256 0.429123 0.654535
O O4 0.785280 0.729228 0.999542
O O5 0.590577 0.176247 0.724710
O O6 0.985425 0.159797 0.875624
O O7 0.776184 0.919232 0.515616
O O8 0.762910 0.243363 0.045778
O O9 0.580524 0.638363 0.316199
O O10 0.731781 0.709932 0.323547
O O11 0.762404 0.370492 0.888473
O O12 0.303239 0.720607 0.445036
O O13 0.316350 0.950319 0.649278
O O14 0.684549 0.613410 0.994483
O O15 0.382193 0.428458 0.563864
O O16 0.000000 0.000000 0.500000
O O17 0.000000 0.500000 0.500000
#
# Coordination Sequence:
#
# PCOD8010688 Si02
#       8
#     2   2   2   2   2   2   2   2
#     4  12  24  39  65  93 127 168 214 256 310 381
#     4  10  21  38  62  94 126 165 207 258 317 369
#     4  10  21  38  62  93 127 165 207 248 328 376
#     4  10  22  38  63  91 132 163 205 266 316 371
#     4   9  20  37  64  93 129 157 204 268 317 368
#     4  10  23  40  64  94 124 164 211 263 315 366
#     4  12  22  36  63  97 128 159 210 261 315 363
#     4  11  22  43  65  87 126 177 213 247 310 389
#
# _framework density 21.311425
#
# number of rings (size 3 to 8) (size 9 to 14) (size 15 to 20)
#    0.000    1.500    2.500    2.625    5.250    3.000 
#    0.000    1.250    0.000    0.000    0.000    0.000 
#    0.000    0.000    0.000    0.000    0.000    0.000 
#
# Total GULP energy -198318.935838 kJ/mol
# GULP energy per Si atom -12394.933490 kJ/mol
# Density = 2.126292 g / cm^3
# Si number density = 21.311425 Si / 1000 Ang^3
#
#
#
# Elastic Constant Matrix: (Units=GPa)
#
#
# Indices 1 2 3 4 5 6 
#
# 1 71.8236 17.2910 7.0764 -2.8077 -4.9756 11.6856
# 2 17.2910 100.8668 42.1035 5.3899 -3.0553 9.3572
# 3 7.0764 42.1035 64.0992 -6.7219 -5.8159 6.8453
# 4 -2.8077 5.3899 -6.7219 31.4209 2.6889 -1.0896
# 5 -4.9756 -3.0553 -5.8159 2.6889 26.6663 -7.4640
# 6 11.6856 9.3572 6.8453 -1.0896 -7.4640 34.4917
#
#
#
# Elastic Compliance Matrix: (Units=1/GPa)
#
#
# Indices 1 2 3 4 5 6 
#
# 1 0.015334 -0.002607 0.000782 0.001720 0.001357 -0.004295
# 2 -0.002607 0.014874 -0.009911 -0.004882 -0.000880 -0.001529
# 3 0.000782 -0.009911 0.023111 0.006409 0.003040 -0.001303
# 4 0.001720 -0.004882 0.006409 0.034386 -0.002291 0.000060
# 5 0.001357 -0.000880 0.003040 -0.002291 0.040765 0.007925
# 6 -0.004295 -0.001529 -0.001303 0.000060 0.007925 0.032838
#
#
# Mechanical properties :
#
#
# Convention : Reuss Voigt Hill
#
# Bulk Modulus (GPa) = 33.50420 41.08128 37.29274
# Shear Modulus (GPa) = 25.67669 29.87037 27.77353
#
# Velocity S-wave (km/s) = 3.47484 3.74787 3.61393
# Velocity P-wave (km/s) = 5.64399 6.16824 5.91193
#
# Compressibility (1/GPa) = 0.02984700
#
# Stress axis : x y z
#
# Youngs Moduli (GPa) = 65.21604 67.23136 43.26887
#
# Poissons Ratio (x) = 0.17529 -0.03383
# Poissons Ratio (y) = 0.17004 0.42882
# Poissons Ratio (z) = -0.05100 0.66630
#
# Static dielectric constant tensor:
#      x y z
#    x 4.005990 0.020540 -0.123200 
#    y 0.020540 3.941600 0.035940 
#    z -0.123200 0.035940 3.685170 
# 
# 
# High freq. dielectric constant tensor:
#      x y z
#    x 1.834400 0.004560 -0.007050 
#    y 0.004560 1.844370 -0.000070 
#    z -0.007050 -0.000070 1.809130 
# 
# From -- ./inp_files/508770.got.cif
#   From: 2010.06.25/outbox.cif.g09.slc.cpg/sg2_255_cif.got.tgz:508770.got - 2010.06.27 13:26:56.
