data_PCOD8010236
_publ_section_title
;
Structure prediction by ZEFSAII (Michael W. Deem and Ramdas Pophale) SiO2 
 PCOD8010236
Probable space group: P -1
;
_chemical_formula_sum "Si O2"
_cell_formula_units_Z 16
_cell_length_a 5.126106
_cell_length_b 25.539543
_cell_length_c 21.425270
_cell_angle_alpha 19.016208
_cell_angle_beta 83.996657
_cell_angle_gamma 73.792693
_cell_volume 755.378838
_symmetry_space_group_name_H-M "P -1"
_symmetry_group_IT_number 2
_symmetry_cell_setting 'triclinic'
loop_
_space_group_symop_operation_xyz
x,y,z
-x,-y,-z
loop_
_atom_site_type_symbol
_atom_site_label
_atom_site_fract_x
_atom_site_fract_y
_atom_site_fract_z
Si Si1 0.660058 0.134292 0.214548
Si Si2 0.873367 0.790577 0.946281
Si Si3 0.828875 0.592163 0.551214
Si Si4 0.952650 0.255179 0.292974
Si Si5 0.874893 0.109390 0.972284
Si Si6 0.435823 0.008121 0.153113
Si Si7 0.570007 0.689888 0.845069
Si Si8 0.732662 0.305689 0.631773
O O1 0.333362 0.187961 0.132232
O O2 0.589267 0.238317 0.165277
O O3 0.827445 0.206962 0.084533
O O4 0.893266 0.904390 0.476977
O O5 0.653756 0.968958 0.797590
O O6 0.001512 0.587468 0.204646
O O7 0.636623 0.783144 0.383746
O O8 0.603959 0.574378 0.528927
O O9 0.089334 0.590050 0.504654
O O10 0.700712 0.234779 0.284923
O O11 0.220993 0.225507 0.271910
O O12 0.789351 0.458552 0.102890
O O13 0.621533 0.110266 0.021949
O O14 0.699175 0.290151 0.724830
O O15 0.114349 0.131210 0.983043
O O16 0.064704 0.910774 0.154293
#
# Coordination Sequence:
#
# PCOD8010236 Si02
#       8
#     2   2   2   2   2   2   2   2
#     4  12  24  39  60  84 117 154 189 228 265 322
#     4  12  26  39  55  82 114 156 199 222 261 332
#     4  10  21  38  56  77 112 148 183 235 284 329
#     4  10  21  39  64  92 118 144 180 229 282 327
#     4   9  17  33  59  84 105 138 184 236 296 346
#     4  10  21  38  56  77 112 148 183 235 284 329
#     4  10  21  39  64  92 118 144 180 229 282 327
#     4   9  17  33  59  84 105 138 184 236 296 346
#
# _framework density 21.181422000000001
#
# number of rings (size 3 to 8) (size 9 to 14) (size 15 to 20)
#    0.000    1.750    0.000    4.500    0.000    5.000 
#    0.000    3.750    0.000    0.000    0.000    0.000 
#    0.000    0.000    0.000    0.000    0.000    0.000 
#
# Total GULP energy -198481.920002 kJ/mol
# GULP energy per Si atom -12405.120000 kJ/mol
# Density = 2.113321 g / cm^3
# Si number density = 21.181422 Si / 1000 Ang^3
#
#
#
# Elastic Constant Matrix: (Units=GPa)
#
#
# Indices 1 2 3 4 5 6 
#
# 1 119.1925 1.8412 26.8655 3.0064 3.3898 -6.7875
# 2 1.8412 29.0005 13.5225 6.1015 -3.7033 -7.9126
# 3 26.8655 13.5225 97.7141 11.8333 22.4683 3.7573
# 4 3.0064 6.1015 11.8333 20.0423 -1.6460 -0.2683
# 5 3.3898 -3.7033 22.4683 -1.6460 26.0237 11.3729
# 6 -6.7875 -7.9126 3.7573 -0.2683 11.3729 27.5977
#
#
#
# Elastic Compliance Matrix: (Units=1/GPa)
#
#
# Indices 1 2 3 4 5 6 
#
# 1 0.009190 0.001652 -0.002908 -0.000106 0.000214 0.003041
# 2 0.001652 0.043531 -0.007553 -0.008301 0.007232 0.010854
# 3 -0.002908 -0.007553 0.016832 -0.008531 -0.016430 0.001515
# 4 -0.000106 -0.008301 -0.008531 0.058417 0.012427 -0.005798
# 5 0.000214 0.007232 -0.016430 0.012427 0.063958 -0.021873
# 6 0.003041 0.010854 0.001515 -0.005798 -0.021873 0.048846
#
#
# Mechanical properties :
#
#
# Convention : Reuss Voigt Hill
#
# Bulk Modulus (GPa) = 19.25586 36.70727 27.98157
# Shear Modulus (GPa) = 18.13539 28.31126 23.22333
#
# Velocity S-wave (km/s) = 2.92925 3.65993 3.31479
# Velocity P-wave (km/s) = 4.53336 5.93529 5.28105
#
# Compressibility (1/GPa) = 0.05193223
#
# Stress axis : x y z
#
# Youngs Moduli (GPa) = 108.81913 22.97214 59.41212
#
# Poissons Ratio (x) = -0.03795 0.17279
# Poissons Ratio (y) = -0.17976 0.44877
# Poissons Ratio (z) = 0.31649 0.17352
#
# Static dielectric constant tensor:
#      x y z
#    x 4.069180 -0.024610 -0.004090 
#    y -0.024610 3.787680 -0.044960 
#    z -0.004090 -0.044960 3.813320 
# 
# 
# High freq. dielectric constant tensor:
#      x y z
#    x 1.848330 -0.002660 0.001450 
#    y -0.002660 1.826060 -0.003290 
#    z 0.001450 -0.003290 1.831630 
# 
# From -- ./inp_files/551192.got.cif
#   From: 2010.06.25/outbox.cif.g09.slc.cpg/sg2_276_cif.got.tgz:551192.got - 2010.06.27 13:26:56.
