data_PCOD8010442
_publ_section_title
;
Structure prediction by ZEFSAII (Michael W. Deem and Ramdas Pophale) SiO2 
 PCOD8010442
Probable space group: P -1
;
_chemical_formula_sum "Si O2"
_cell_formula_units_Z 16
_cell_length_a 7.973574
_cell_length_b 5.231517
_cell_length_c 24.024476
_cell_angle_alpha 57.255141
_cell_angle_beta 55.086676
_cell_angle_gamma 62.072456
_cell_volume 672.628484
_symmetry_space_group_name_H-M "P -1"
_symmetry_group_IT_number 2
_symmetry_cell_setting 'triclinic'
loop_
_space_group_symop_operation_xyz
x,y,z
-x,-y,-z
loop_
_atom_site_type_symbol
_atom_site_label
_atom_site_fract_x
_atom_site_fract_y
_atom_site_fract_z
Si Si1 0.563660 0.307861 0.214036
Si Si2 0.834491 0.338140 0.819960
Si Si3 0.040510 0.056703 0.256557
Si Si4 0.314705 0.206445 0.587454
Si Si5 0.716554 0.260975 0.971260
Si Si6 0.426985 0.425957 0.433399
Si Si7 0.565691 0.281371 0.711947
Si Si8 0.110384 0.381884 0.936789
O O1 0.346786 0.478414 0.207256
O O2 0.567738 0.411478 0.266274
O O3 0.759430 0.376849 0.136283
O O4 0.592369 0.935912 0.249522
O O5 0.971523 0.045411 0.793749
O O6 0.726740 0.206670 0.909018
O O7 0.986985 0.569247 0.779801
O O8 0.268355 0.904140 0.254826
O O9 0.879234 0.925270 0.340083
O O10 0.260683 0.416385 0.515968
O O11 0.386376 0.423906 0.594998
O O12 0.496886 0.916323 0.567613
O O13 0.927264 0.379985 0.927940
O O14 0.500000 0.500000 0.000000
O O15 0.729509 0.952860 0.042563
O O16 0.324971 0.634376 0.375392
O O17 0.000000 0.500000 0.000000
#
# Coordination Sequence:
#
# PCOD8010442 Si02
#       8
#     2   2   2   2   2   2   2   2
#     4  10  23  41  66  88 132 164 211 270 327 392
#     4  10  23  41  65  92 126 170 211 267 333 388
#     4  10  22  40  62  94 125 161 214 262 318 387
#     4  10  21  38  60  89 126 165 209 262 310 391
#     4  11  27  45  71  97 134 180 224 279 343 400
#     4  10  21  38  60  89 125 167 209 256 323 376
#     4  10  22  40  63  93 123 167 205 265 322 379
#     4  11  27  45  67 101 131 175 230 277 334 412
#
# _framework density 23.787275000000001
#
# number of rings (size 3 to 8) (size 9 to 14) (size 15 to 20)
#    0.000    1.750    0.000    2.250   10.500    4.500 
#    0.000    0.000    0.000    9.000    0.000    0.000 
#    0.000    0.000    0.000    0.000    0.000    0.000 
#
# Total GULP energy -198320.473924 kJ/mol
# GULP energy per Si atom -12395.029620 kJ/mol
# Density = 2.373313 g / cm^3
# Si number density = 23.787275 Si / 1000 Ang^3
#
#
#
# Elastic Constant Matrix: (Units=GPa)
#
#
# Indices 1 2 3 4 5 6 
#
# 1 58.1925 44.2706 42.6370 -4.9857 1.6767 23.5337
# 2 44.2706 102.9971 22.9810 7.0986 4.4718 18.2539
# 3 42.6370 22.9810 142.7570 11.3059 2.7587 4.6812
# 4 -4.9857 7.0986 11.3059 37.1034 6.7572 1.0157
# 5 1.6767 4.4718 2.7587 6.7572 37.7687 7.4400
# 6 23.5337 18.2539 4.6812 1.0157 7.4400 26.2006
#
#
#
# Elastic Compliance Matrix: (Units=1/GPa)
#
#
# Indices 1 2 3 4 5 6 
#
# 1 0.056661 -0.015361 -0.014444 0.015041 0.005499 -0.039755
# 2 -0.015361 0.015685 0.002438 -0.005723 -0.000903 0.002912
# 3 -0.014444 0.002438 0.011088 -0.005808 -0.001370 0.009908
# 4 0.015041 -0.005723 -0.005808 0.032751 -0.003712 -0.008700
# 5 0.005499 -0.000903 -0.001370 -0.003712 0.029528 -0.012306
# 6 -0.039755 0.002912 0.009908 -0.008700 -0.012306 0.073908
#
#
# Mechanical properties :
#
#
# Convention : Reuss Voigt Hill
#
# Bulk Modulus (GPa) = 34.84286 58.19151 46.51718
# Shear Modulus (GPa) = 17.61049 33.15175 25.38112
#
# Velocity S-wave (km/s) = 2.72386 3.73725 3.27005
# Velocity P-wave (km/s) = 4.95702 6.56803 5.81855
#
# Compressibility (1/GPa) = 0.02870029
#
# Stress axis : x y z
#
# Youngs Moduli (GPa) = 17.64886 63.75498 90.18881
#
# Poissons Ratio (x) = 0.97934 1.30267
# Poissons Ratio (y) = 0.27111 -0.21989
# Poissons Ratio (z) = 0.25492 -0.15544
#
# Static dielectric constant tensor:
#      x y z
#    x 4.478170 0.015900 0.759390 
#    y 0.015900 5.336850 -1.119170 
#    z 0.759390 -1.119170 5.666480 
# 
# 
# High freq. dielectric constant tensor:
#      x y z
#    x 1.937100 0.024470 0.015130 
#    y 0.024470 1.941780 -0.007580 
#    z 0.015130 -0.007580 1.957440 
# 
# From -- ./inp_files/582342.got.cif
#   From: 2010.06.25/outbox.cif.g09.slc.cpg/sg2_292_cif.got.tgz:582342.got - 2010.06.27 13:26:56.
