data_PCOD8010989
_publ_section_title
;
Structure prediction by ZEFSAII (Michael W. Deem and Ramdas Pophale) SiO2 
 PCOD8010989
Probable space group: P -1
;
_chemical_formula_sum "Si O2"
_cell_formula_units_Z 14
_cell_length_a 10.548988
_cell_length_b 9.408501
_cell_length_c 7.782234
_cell_angle_alpha 115.171642
_cell_angle_beta 104.776156
_cell_angle_gamma 103.327622
_cell_volume 623.147533
_symmetry_space_group_name_H-M "P -1"
_symmetry_group_IT_number 2
_symmetry_cell_setting 'triclinic'
loop_
_space_group_symop_operation_xyz
x,y,z
-x,-y,-z
loop_
_atom_site_type_symbol
_atom_site_label
_atom_site_fract_x
_atom_site_fract_y
_atom_site_fract_z
Si Si1 0.577045 0.760616 0.103117
Si Si2 0.461513 0.153374 0.506467
Si Si3 0.176499 0.256296 0.005898
Si Si4 0.271129 0.638902 0.825137
Si Si5 0.256464 0.591618 0.405718
Si Si6 0.704024 0.987498 0.968491
Si Si7 0.992091 0.619676 0.209361
O O1 0.622993 0.810102 0.342536
O O2 0.675123 0.667002 0.013348
O O3 0.408779 0.645829 0.982620
O O4 0.600406 0.925014 0.069277
O O5 0.605611 0.317121 0.613809
O O6 0.370131 0.108602 0.279511
O O7 0.500000 0.000000 0.500000
O O8 0.184545 0.393376 0.225535
O O9 0.163612 0.074175 0.987620
O O10 0.044638 0.229656 0.816086
O O11 0.302723 0.606675 0.625223
O O12 0.132739 0.482391 0.755912
O O13 0.240862 0.810662 0.928809
O O14 0.143996 0.684941 0.391554
O O15 0.000000 0.500000 0.000000
#
# Coordination Sequence:
#
# PCOD8010989 Si02
#       7
#     2   2   2   2   2   2   2
#     4  10  21  38  65  94 133 155 208 263 321 359
#     4  12  22  37  70  98 123 167 207 259 324 372
#     4   9  23  42  60  95 134 159 211 269 312 365
#     4  12  21  40  68  91 127 167 213 262 315 379
#     4  11  23  41  65  90 129 172 217 250 316 388
#     4  10  23  41  62 103 124 157 211 269 315 368
#     4  10  23  42  61  88 126 178 214 248 314 388
#
# _framework density 22.46659
#
# number of rings (size 3 to 8) (size 9 to 14) (size 15 to 20)
#    0.857    0.571    2.857    3.429    0.000    5.714 
#    0.000    3.571    0.000    0.000    0.000    0.000 
#    0.000    0.000    0.000    0.000    0.000    0.000 
#
# Total GULP energy -173475.727223 kJ/mol
# GULP energy per Si atom -12391.123373 kJ/mol
# Density = 2.241546 g / cm^3
# Si number density = 22.466590 Si / 1000 Ang^3
#
#
#
# Elastic Constant Matrix: (Units=GPa)
#
#
# Indices 1 2 3 4 5 6 
#
# 1 71.0764 4.9854 19.8874 -18.0894 -4.4069 -19.8361
# 2 4.9854 19.3728 10.0438 -21.7049 3.9636 -1.7710
# 3 19.8874 10.0438 83.4244 -23.5310 -17.7911 9.9364
# 4 -18.0894 -21.7049 -23.5310 32.3189 2.6426 -8.0538
# 5 -4.4069 3.9636 -17.7911 2.6426 20.6187 -7.5620
# 6 -19.8361 -1.7710 9.9364 -8.0538 -7.5620 28.7742
#
#
#
# Elastic Compliance Matrix: (Units=1/GPa)
#
#
# Indices 1 2 3 4 5 6 
#
# 1 -0.029676 -0.172194 -0.003327 -0.153110 0.018620 -0.067868
# 2 -0.172194 -0.502415 -0.004789 -0.509986 0.015921 -0.286533
# 3 -0.003327 -0.004789 0.018610 0.006444 0.014162 -0.003489
# 4 -0.153110 -0.509986 0.006444 -0.459889 0.034933 -0.258704
# 5 0.018620 0.015921 0.014162 0.034933 0.070850 0.037323
# 6 -0.067868 -0.286533 -0.003489 -0.258704 0.037323 -0.091065
#
#
# Mechanical properties :
#
#
# Convention : Reuss Voigt Hill
#
# Bulk Modulus (GPa) = -1.14403 27.07852 12.96725
# Shear Modulus (GPa) = -5.40931 25.60616 10.09843
#
# Velocity S-wave (km/s) = -1.55336 3.37967 2.12241
# Velocity P-wave (km/s) = 1.93069 5.22576 3.43373
#
# Compressibility (1/GPa) = -0.87409962
#
# Stress axis : x y z
#
# Youngs Moduli (GPa) = -33.69757 -1.99039 53.73503
#
# Poissons Ratio (x) = -0.34273 0.17877
# Poissons Ratio (y) = -5.80252 0.25731
# Poissons Ratio (z) = -0.11211 -0.00953
#
# Static dielectric constant tensor:
#      x y z
#    x 4.050390 -0.161500 -0.318600 
#    y -0.161500 4.095630 -0.653460 
#    z -0.318600 -0.653460 4.335890 
# 
# 
# High freq. dielectric constant tensor:
#      x y z
#    x 1.881820 -0.008260 -0.008740 
#    y -0.008260 1.878170 -0.029750 
#    z -0.008740 -0.029750 1.873630 
# 
# From -- ./inp_files/240650.got.cif
#   From: 2010.06.25/outbox.cif.g09.slc.cpg/sg2_121_cif.got.tgz:240650.got - 2010.06.27 13:26:56.
