data_PCOD8010377
_publ_section_title
;
Structure prediction by ZEFSAII (Michael W. Deem and Ramdas Pophale) SiO2 
 PCOD8010377
Probable space group: P -1
;
_chemical_formula_sum "Si O2"
_cell_formula_units_Z 16
_cell_length_a 14.649862
_cell_length_b 11.735670
_cell_length_c 14.832088
_cell_angle_alpha 132.548656
_cell_angle_beta 30.116545
_cell_angle_gamma 139.962399
_cell_volume 822.320875
_symmetry_space_group_name_H-M "P -1"
_symmetry_group_IT_number 2
_symmetry_cell_setting 'triclinic'
loop_
_space_group_symop_operation_xyz
x,y,z
-x,-y,-z
loop_
_atom_site_type_symbol
_atom_site_label
_atom_site_fract_x
_atom_site_fract_y
_atom_site_fract_z
Si Si1 0.745997 0.534574 0.608685
Si Si2 0.147493 0.049152 0.143519
Si Si3 0.673276 0.485087 0.001848
Si Si4 0.003374 0.851338 0.982493
Si Si5 0.562138 0.105563 0.910929
Si Si6 0.295196 0.815943 0.588488
Si Si7 0.095359 0.354384 0.286155
Si Si8 0.954245 0.094429 0.508639
O O1 0.563862 0.558648 0.821777
O O2 0.657907 0.347843 0.532990
O O3 0.895048 0.547228 0.573783
O O4 0.880549 0.695471 0.511989
O O5 0.204696 0.233725 0.145187
O O6 0.988814 0.016369 0.344076
O O7 0.357862 0.050919 0.995874
O O8 0.028092 0.895104 0.090071
O O9 0.676936 0.314863 0.950100
O O10 0.771563 0.505719 0.829655
O O11 0.795638 0.662702 0.050756
O O12 0.195359 0.825079 0.772861
O O13 0.000000 0.000000 0.000000
O O14 0.718767 0.060504 0.697082
O O15 0.500000 0.000000 0.000000
O O16 0.140075 0.778341 0.616509
O O17 0.500000 0.000000 0.500000
O O18 0.000000 0.000000 0.500000
#
# Coordination Sequence:
#
# PCOD8010377 Si02
#       8
#     2   2   2   2   2   2   2   2
#     4  11  22  37  60  96 124 164 221 262 316 378
#     4  11  23  42  66  99 126 171 212 265 323 380
#     4  11  21  39  64  90 134 170 201 270 322 376
#     4  11  22  41  58  91 140 170 206 254 326 392
#     4  12  24  44  71  95 123 168 222 268 321 371
#     4  11  23  35  58  91 134 174 204 256 318 389
#     4  10  21  38  59  94 128 165 214 262 322 379
#     4  11  22  43  70  94 125 161 221 275 312 370
#
# _framework density 19.457124
#
# number of rings (size 3 to 8) (size 9 to 14) (size 15 to 20)
#    0.000    1.000    6.250    3.000    0.000    3.000 
#    0.000    0.625    0.000    1.500    0.000    0.000 
#    0.000    0.000    0.000    0.000    0.000    0.000 
#
# Total GULP energy -198353.403670 kJ/mol
# GULP energy per Si atom -12397.087729 kJ/mol
# Density = 1.941284 g / cm^3
# Si number density = 19.457124 Si / 1000 Ang^3
#
#
#
# Elastic Constant Matrix: (Units=GPa)
#
#
# Indices 1 2 3 4 5 6 
#
# 1 96.7675 67.8179 45.0259 -1.6179 4.1648 -5.5719
# 2 67.8179 135.7353 51.2752 -3.9524 15.6154 -7.6360
# 3 45.0259 51.2752 129.1975 -2.2789 0.1079 6.9939
# 4 -1.6179 -3.9524 -2.2789 36.0440 6.1150 3.9808
# 5 4.1648 15.6154 0.1079 6.1150 34.4726 1.6490
# 6 -5.5719 -7.6360 6.9939 3.9808 1.6490 32.0337
#
#
#
# Elastic Compliance Matrix: (Units=1/GPa)
#
#
# Indices 1 2 3 4 5 6 
#
# 1 0.016995 -0.007384 -0.003108 -0.000678 0.001331 0.001890
# 2 -0.007384 0.012839 -0.002622 0.001542 -0.005305 0.002430
# 3 -0.003108 -0.002622 0.010057 0.000315 0.001643 -0.003485
# 4 -0.000678 0.001542 0.000315 0.029210 -0.005648 -0.003158
# 5 0.001331 -0.005305 0.001643 -0.005648 0.032360 -0.002356
# 6 0.001890 0.002430 -0.003485 -0.003158 -0.002356 0.033400
#
#
# Mechanical properties :
#
#
# Convention : Reuss Voigt Hill
#
# Bulk Modulus (GPa) = 73.18881 76.65982 74.92432
# Shear Modulus (GPa) = 30.18548 33.68213 31.93380
#
# Velocity S-wave (km/s) = 3.94303 4.16516 4.05562
# Velocity P-wave (km/s) = 7.64376 7.91304 7.77957
#
# Compressibility (1/GPa) = 0.01366329
#
# Stress axis : x y z
#
# Youngs Moduli (GPa) = 58.84004 77.88773 99.43674
#
# Poissons Ratio (x) = 0.57512 0.30903
# Poissons Ratio (y) = 0.43447 0.26073
# Poissons Ratio (z) = 0.18286 0.20423
#
# Static dielectric constant tensor:
#      x y z
#    x 3.756620 0.288650 -0.117590 
#    y 0.288650 3.994960 0.085270 
#    z -0.117590 0.085270 3.808850 
# 
# 
# High freq. dielectric constant tensor:
#      x y z
#    x 1.737450 0.000180 -0.010090 
#    y 0.000180 1.759920 0.008980 
#    z -0.010090 0.008980 1.775290 
# 
# From -- ./inp_files/455020.got.cif
#   From: 2010.06.25/outbox.cif.g09.slc.cpg/sg2_228_cif.got.tgz:455020.got - 2010.06.27 13:26:56.
