data_PCOD8010457
_publ_section_title
;
Structure prediction by ZEFSAII (Michael W. Deem and Ramdas Pophale) SiO2 
 PCOD8010457
Probable space group: P -1
;
_chemical_formula_sum "Si O2"
_cell_formula_units_Z 14
_cell_length_a 5.246020
_cell_length_b 15.283674
_cell_length_c 17.276578
_cell_angle_alpha 140.039805
_cell_angle_beta 48.926215
_cell_angle_gamma 111.212664
_cell_volume 641.283006
_symmetry_space_group_name_H-M "P -1"
_symmetry_group_IT_number 2
_symmetry_cell_setting 'triclinic'
loop_
_space_group_symop_operation_xyz
x,y,z
-x,-y,-z
loop_
_atom_site_type_symbol
_atom_site_label
_atom_site_fract_x
_atom_site_fract_y
_atom_site_fract_z
Si Si1 0.688418 0.660040 0.436665
Si Si2 0.644857 0.529289 0.729176
Si Si3 0.949866 0.167833 0.616112
Si Si4 0.280238 0.146053 0.683889
Si Si5 0.205254 0.646298 0.650016
Si Si6 0.949029 0.875892 0.978187
Si Si7 0.229102 0.825093 0.058608
O O1 0.570851 0.564723 0.331687
O O2 0.346616 0.725364 0.605341
O O3 0.043255 0.565659 0.343417
O O4 0.771069 0.795898 0.473479
O O5 0.830917 0.612406 0.686099
O O6 0.364722 0.652409 0.917244
O O7 0.548526 0.237954 0.714105
O O8 0.996421 0.231329 0.734702
O O9 0.000000 0.000000 0.500000
O O10 0.093291 0.116374 0.778550
O O11 0.500000 0.000000 0.500000
O O12 0.500000 0.500000 0.500000
O O13 0.171842 0.729335 0.793892
O O14 0.534415 0.890167 0.070856
O O15 0.095307 0.883049 0.039558
O O16 0.000000 0.000000 0.000000
#
# Coordination Sequence:
#
# PCOD8010457 Si02
#       7
#     2   2   2   2   2   2   2
#     4  11  21  37  62  91 124 160 205 256 299 362
#     4  10  21  38  60  92 123 163 202 245 311 372
#     4  10  22  40  59  89 120 154 206 259 306 355
#     4  10  22  40  62  83 111 158 207 247 299 358
#     4   9  20  38  63  92 126 162 202 248 301 371
#     4  11  24  39  61  96 127 162 204 247 313 381
#     4  11  22  42  62  83 126 165 196 256 312 361
#
# _framework density 21.831233999999998
#
# number of rings (size 3 to 8) (size 9 to 14) (size 15 to 20)
#    0.000    1.714    0.000    5.143    0.000    8.000 
#    0.000    5.714    0.000    0.000    0.000    0.000 
#    0.000    0.000    0.000    0.000    0.000    0.000 
#
# Total GULP energy -173479.779655 kJ/mol
# GULP energy per Si atom -12391.412833 kJ/mol
# Density = 2.178155 g / cm^3
# Si number density = 21.831234 Si / 1000 Ang^3
#
#
#
# Elastic Constant Matrix: (Units=GPa)
#
#
# Indices 1 2 3 4 5 6 
#
# 1 169.5611 43.1409 26.3560 -10.3762 15.0863 4.5206
# 2 43.1409 141.6541 42.4428 -26.0812 -1.3102 15.8377
# 3 26.3560 42.4428 102.3715 -27.2850 -8.6648 3.3929
# 4 -10.3762 -26.0812 -27.2850 25.5387 -0.7095 -2.2584
# 5 15.0863 -1.3102 -8.6648 -0.7095 20.6419 -8.0299
# 6 4.5206 15.8377 3.3929 -2.2584 -8.0299 35.2403
#
#
#
# Elastic Compliance Matrix: (Units=1/GPa)
#
#
# Indices 1 2 3 4 5 6 
#
# 1 0.007229 -0.001719 -0.002035 -0.001328 -0.006923 -0.001621
# 2 -0.001719 0.009792 -0.001529 0.007359 0.000114 -0.003536
# 3 -0.002035 -0.001529 0.015564 0.014726 0.009417 0.002539
# 4 -0.001328 0.007359 0.014726 0.062317 0.010471 0.001825
# 5 -0.006923 0.000114 0.009417 0.010471 0.063706 0.015118
# 6 -0.001621 -0.003536 0.002539 0.001825 0.015118 0.033491
#
#
# Mechanical properties :
#
#
# Convention : Reuss Voigt Hill
#
# Bulk Modulus (GPa) = 45.41414 70.82956 58.12185
# Shear Modulus (GPa) = 23.80887 36.39396 30.10141
#
# Velocity S-wave (km/s) = 3.30599 4.08739 3.71728
# Velocity P-wave (km/s) = 5.95149 7.40205 6.71605
#
# Compressibility (1/GPa) = 0.02201957
#
# Stress axis : x y z
#
# Youngs Moduli (GPa) = 138.32794 102.11923 64.25083
#
# Poissons Ratio (x) = 0.17558 0.13072
# Poissons Ratio (y) = 0.23783 0.09825
# Poissons Ratio (z) = 0.28144 0.15615
#
# Static dielectric constant tensor:
#      x y z
#    x 3.917120 1.167670 -1.561170 
#    y 1.167670 4.278780 -0.473580 
#    z -1.561170 -0.473580 4.281510 
# 
# 
# High freq. dielectric constant tensor:
#      x y z
#    x 1.882500 0.012540 0.005350 
#    y 0.012540 1.849610 -0.014420 
#    z 0.005350 -0.014420 1.838350 
# 
# From -- ./inp_files/484413.got.cif
#   From: 2010.06.25/outbox.cif.g09.slc.cpg/sg2_243_cif.got.tgz:484413.got - 2010.06.27 13:26:56.
