data_PCOD8010722
_publ_section_title
;
Structure prediction by ZEFSAII (Michael W. Deem and Ramdas Pophale) SiO2 
 PCOD8010722
Probable space group: P -1
;
_chemical_formula_sum "Si O2"
_cell_formula_units_Z 16
_cell_length_a 28.819629
_cell_length_b 15.251404
_cell_length_c 18.567081
_cell_angle_alpha 160.622707
_cell_angle_beta 19.485541
_cell_angle_gamma 160.567906
_cell_volume 789.707276
_symmetry_space_group_name_H-M "P -1"
_symmetry_group_IT_number 2
_symmetry_cell_setting 'triclinic'
loop_
_space_group_symop_operation_xyz
x,y,z
-x,-y,-z
loop_
_atom_site_type_symbol
_atom_site_label
_atom_site_fract_x
_atom_site_fract_y
_atom_site_fract_z
Si Si1 0.091580 0.918628 0.020426
Si Si2 0.658239 0.295701 0.519838
Si Si3 0.950176 0.177216 0.154754
Si Si4 0.286783 0.656085 0.009693
Si Si5 0.541320 0.651723 0.723895
Si Si6 0.259785 0.570916 0.822056
Si Si7 0.713600 0.411332 0.693504
Si Si8 0.409687 0.245300 0.104091
O O1 0.191709 0.744874 0.751155
O O2 0.088423 0.989629 0.995322
O O3 0.918767 0.698929 0.136338
O O4 0.168765 0.233126 0.193214
O O5 0.651268 0.357711 0.661982
O O6 0.674287 0.581210 0.673886
O O7 0.500000 0.000000 0.500000
O O8 0.804074 0.219644 0.429935
O O9 0.099508 0.510536 0.184808
O O10 0.000000 0.000000 0.000000
O O11 0.353526 0.009858 0.196853
O O12 0.364876 0.523775 0.849680
O O13 0.320042 0.574774 0.818130
O O14 0.621290 0.459268 0.430163
O O15 0.525350 0.618513 0.806864
O O16 0.273639 0.895974 0.036781
O O17 0.562716 0.287875 0.869938
#
# Coordination Sequence:
#
# PCOD8010722 Si02
#       8
#     2   2   2   2   2   2   2   2
#     4  10  23  43  64  91 124 168 201 253 318 361
#     4  11  24  43  68  89 126 159 205 262 315 364
#     4  10  23  38  61  92 129 158 206 256 302 364
#     4   9  20  39  57  89 122 169 201 246 311 360
#     4  10  21  38  63  85 128 160 210 253 298 362
#     4  10  22  40  62  90 126 162 205 253 307 363
#     4  11  24  42  65  91 126 161 208 251 316 374
#     4  11  25  38  64  97 118 161 217 252 303 369
#
# _framework density 20.260670999999999
#
# number of rings (size 3 to 8) (size 9 to 14) (size 15 to 20)
#    0.000    1.750    1.250    1.500    5.250    2.000 
#    4.500    1.250    0.000    0.000    0.000    0.000 
#    0.000    0.000    0.000    0.000    0.000    0.000 
#
# Total GULP energy -198454.564288 kJ/mol
# GULP energy per Si atom -12403.410268 kJ/mol
# Density = 2.021456 g / cm^3
# Si number density = 20.260671 Si / 1000 Ang^3
#
#
#
# Elastic Constant Matrix: (Units=GPa)
#
#
# Indices 1 2 3 4 5 6 
#
# 1 142.9144 40.0678 66.9182 9.6029 -12.0371 2.5168
# 2 40.0678 72.1774 16.2369 12.2847 0.4801 11.7688
# 3 66.9182 16.2369 98.7699 6.8635 -8.4104 -1.1698
# 4 9.6029 12.2847 6.8635 24.6731 3.2892 -0.5247
# 5 -12.0371 0.4801 -8.4104 3.2892 33.7207 5.4506
# 6 2.5168 11.7688 -1.1698 -0.5247 5.4506 30.7021
#
#
#
# Elastic Compliance Matrix: (Units=1/GPa)
#
#
# Indices 1 2 3 4 5 6 
#
# 1 0.011930 -0.005006 -0.006997 -0.000547 0.002605 0.000202
# 2 -0.005006 0.018934 0.000742 -0.007836 0.000018 -0.006956
# 3 -0.006997 0.000742 0.015002 -0.001984 0.001331 0.000590
# 4 -0.000547 -0.007836 -0.001984 0.046078 -0.005849 0.004799
# 5 0.002605 0.000018 0.001331 -0.005849 0.032463 -0.006033
# 6 0.000202 -0.006956 0.000590 0.004799 -0.006033 0.036396
#
#
# Mechanical properties :
#
#
# Convention : Reuss Voigt Hill
#
# Bulk Modulus (GPa) = 42.83701 62.25641 52.54671
# Shear Modulus (GPa) = 26.16353 30.52844 28.34598
#
# Velocity S-wave (km/s) = 3.59743 3.88594 3.74446
# Velocity P-wave (km/s) = 6.20034 7.13642 6.68478
#
# Compressibility (1/GPa) = 0.02334430
#
# Stress axis : x y z
#
# Youngs Moduli (GPa) = 83.82464 52.81420 66.65948
#
# Poissons Ratio (x) = 0.26436 0.46644
# Poissons Ratio (y) = 0.41959 -0.04948
# Poissons Ratio (z) = 0.58656 -0.03921
#
# Static dielectric constant tensor:
#      x y z
#    x 3.916980 0.165830 -0.078630 
#    y 0.165830 3.740560 -0.000550 
#    z -0.078630 -0.000550 3.710850 
# 
# 
# High freq. dielectric constant tensor:
#      x y z
#    x 1.795020 0.007790 0.001330 
#    y 0.007790 1.798590 0.001970 
#    z 0.001330 0.001970 1.794620 
# 
# From -- ./inp_files/85007.got.cif
#   From: 2010.06.25/outbox.cif.g09.slc.cpg/sg2_43_cif.got.tgz:85007.got - 2010.06.27 13:26:56.
