data_PCOD8010264
_publ_section_title
;
Structure prediction by ZEFSAII (Michael W. Deem and Ramdas Pophale) SiO2 
 PCOD8010264
Probable space group: P -1
;
_chemical_formula_sum "Si O2"
_cell_formula_units_Z 16
_cell_length_a 18.085170
_cell_length_b 5.192075
_cell_length_c 10.218122
_cell_angle_alpha 114.270619
_cell_angle_beta 53.919722
_cell_angle_gamma 109.961162
_cell_volume 700.452902
_symmetry_space_group_name_H-M "P -1"
_symmetry_group_IT_number 2
_symmetry_cell_setting 'triclinic'
loop_
_space_group_symop_operation_xyz
x,y,z
-x,-y,-z
loop_
_atom_site_type_symbol
_atom_site_label
_atom_site_fract_x
_atom_site_fract_y
_atom_site_fract_z
Si Si1 0.853632 0.950643 0.996704
Si Si2 0.966372 0.462409 0.879354
Si Si3 0.495957 0.646266 0.321746
Si Si4 0.378884 0.579754 0.658148
Si Si5 0.412380 0.162100 0.144607
Si Si6 0.327762 0.065663 0.936958
Si Si7 0.274313 0.140990 0.503715
Si Si8 0.163548 0.647350 0.657896
O O1 0.912368 0.139470 0.860680
O O2 0.904935 0.705544 0.954332
O O3 0.759722 0.791144 0.993074
O O4 0.830799 0.173466 0.176754
O O5 0.058700 0.508193 0.703609
O O6 0.000000 0.500000 0.000000
O O7 0.416383 0.751874 0.519367
O O8 0.536359 0.423726 0.330263
O O9 0.450499 0.489523 0.206768
O O10 0.578328 0.872783 0.233000
O O11 0.304475 0.731321 0.852024
O O12 0.327726 0.266262 0.605765
O O13 0.348660 0.034944 0.304899
O O14 0.500000 0.000000 0.000000
O O15 0.346362 0.143075 0.083578
O O16 0.225585 0.394360 0.545630
O O17 0.200296 0.866532 0.551126
#
# Coordination Sequence:
#
# PCOD8010264 Si02
#       8
#     2   2   2   2   2   2   2   2
#     4  11  22  36  64 101 133 163 207 264 329 383
#     4  10  21  38  64 101 135 162 197 268 334 388
#     4  10  22  38  61  85 121 166 222 263 324 367
#     4  10  21  38  57  93 121 163 212 276 317 367
#     4  11  25  44  60  90 128 176 223 263 316 379
#     4  12  23  38  63  85 129 171 214 263 318 384
#     4  11  24  39  65  96 127 170 216 266 314 378
#     4  11  20  40  66  93 130 161 210 260 328 384
#
# _framework density 22.842361
#
# number of rings (size 3 to 8) (size 9 to 14) (size 15 to 20)
#    0.000    1.250    2.500    5.250    1.750    3.000 
#    0.000    0.000    0.000    4.500    0.000    0.000 
#    0.000    0.000    0.000    0.000    0.000    0.000 
#
# Total GULP energy -198237.006146 kJ/mol
# GULP energy per Si atom -12389.812884 kJ/mol
# Density = 2.279037 g / cm^3
# Si number density = 22.842361 Si / 1000 Ang^3
#
#
#
# Elastic Constant Matrix: (Units=GPa)
#
#
# Indices 1 2 3 4 5 6 
#
# 1 124.8510 44.6502 49.0273 14.0211 0.1988 -8.2727
# 2 44.6502 99.0419 48.5978 -21.5807 -2.0881 -9.8144
# 3 49.0273 48.5978 105.5159 4.2620 -2.5464 6.8621
# 4 14.0211 -21.5807 4.2620 33.8795 10.3999 -3.0359
# 5 0.1988 -2.0881 -2.5464 10.3999 33.9216 1.2781
# 6 -8.2727 -9.8144 6.8621 -3.0359 1.2781 29.5248
#
#
#
# Elastic Compliance Matrix: (Units=1/GPa)
#
#
# Indices 1 2 3 4 5 6 
#
# 1 0.012322 -0.006244 -0.002477 -0.009358 0.002193 0.000896
# 2 -0.006244 0.023118 -0.009447 0.021349 -0.006194 0.010594
# 3 -0.002477 -0.009447 0.015989 -0.008910 0.003690 -0.008627
# 4 -0.009358 0.021349 -0.008910 0.054304 -0.016432 0.012841
# 5 0.002193 -0.006194 0.003690 -0.016432 0.034607 -0.005490
# 6 0.000896 0.010594 -0.008627 0.012841 -0.005490 0.041206
#
#
# Mechanical properties :
#
#
# Convention : Reuss Voigt Hill
#
# Bulk Modulus (GPa) = 66.25382 68.21770 67.23576
# Shear Modulus (GPa) = 22.43027 31.94075 27.18551
#
# Velocity S-wave (km/s) = 3.13702 3.74346 3.45358
# Velocity P-wave (km/s) = 6.49530 6.97238 6.73806
#
# Compressibility (1/GPa) = 0.01509347
#
# Stress axis : x y z
#
# Youngs Moduli (GPa) = 81.15664 43.25603 62.54153
#
# Poissons Ratio (x) = 0.27007 0.15492
# Poissons Ratio (y) = 0.50670 0.59086
# Poissons Ratio (z) = 0.20103 0.40866
#
# Static dielectric constant tensor:
#      x y z
#    x 4.242630 0.320710 -0.310730 
#    y 0.320710 4.175640 -0.363570 
#    z -0.310730 -0.363570 4.315600 
# 
# 
# High freq. dielectric constant tensor:
#      x y z
#    x 1.902120 0.002910 -0.019890 
#    y 0.002910 1.894100 -0.017650 
#    z -0.019890 -0.017650 1.883440 
# 
# From -- ./inp_files/340543.got.cif
#   From: 2010.06.25/outbox.cif.g09.slc.cpg/sg2_171_cif.got.tgz:340543.got - 2010.06.27 13:26:56.
