data_PCOD8010857
_publ_section_title
;
Structure prediction by ZEFSAII (Michael W. Deem and Ramdas Pophale) SiO2 
 PCOD8010857
Probable space group: P -1
;
_chemical_formula_sum "Si O2"
_cell_formula_units_Z 16
_cell_length_a 8.628225
_cell_length_b 11.757091
_cell_length_c 13.025293
_cell_angle_alpha 95.257157
_cell_angle_beta 63.169132
_cell_angle_gamma 50.993515
_cell_volume 770.077853
_symmetry_space_group_name_H-M "P -1"
_symmetry_group_IT_number 2
_symmetry_cell_setting 'triclinic'
loop_
_space_group_symop_operation_xyz
x,y,z
-x,-y,-z
loop_
_atom_site_type_symbol
_atom_site_label
_atom_site_fract_x
_atom_site_fract_y
_atom_site_fract_z
Si Si1 0.623591 0.487577 0.659320
Si Si2 0.420299 0.044130 0.881415
Si Si3 0.397262 0.367158 0.628783
Si Si4 0.774117 0.195931 0.327289
Si Si5 0.309705 0.911604 0.055534
Si Si6 0.883529 0.641134 0.133850
Si Si7 0.627567 0.532988 0.894856
Si Si8 0.999180 0.685203 0.641199
O O1 0.504916 0.426619 0.655284
O O2 0.419941 0.688022 0.701891
O O3 0.676492 0.458711 0.761527
O O4 0.903288 0.375116 0.510239
O O5 0.496253 0.123171 0.924311
O O6 0.229270 0.182778 0.860317
O O7 0.681120 0.846183 0.749768
O O8 0.248947 0.039922 0.999423
O O9 0.615545 0.211633 0.468531
O O10 0.355855 0.299192 0.727702
O O11 0.117871 0.525849 0.664961
O O12 0.873923 0.265753 0.345888
O O13 0.036384 0.000069 0.194731
O O14 0.442526 0.734877 0.954128
O O15 0.100389 0.564774 0.145288
O O16 0.000000 0.500000 0.000000
O O17 0.500000 0.500000 0.000000
#
# Coordination Sequence:
#
# PCOD8010857 Si02
#       8
#     2   2   2   2   2   2   2   2
#     4   9  19  37  62  89 124 159 194 247 304 364
#     4  10  21  38  64  92 116 154 213 255 284 349
#     4   9  18  38  67  92 116 153 205 251 298 352
#     4   8  17  35  64  91 114 155 206 250 290 351
#     4  10  21  39  64  90 119 158 208 248 292 356
#     4  12  24  39  61  89 122 162 202 250 303 350
#     4  12  26  41  58  91 128 163 195 243 316 364
#     4   8  16  36  63  90 115 155 205 249 295 351
#
# _framework density 20.77712
#
# number of rings (size 3 to 8) (size 9 to 14) (size 15 to 20)
#    0.000    2.250    1.250    3.000    7.000    0.500 
#    2.250    8.125    0.000    0.000    0.000    0.000 
#    0.000    0.000    0.000    0.000    0.000    0.000 
#
# Total GULP energy -198316.599146 kJ/mol
# GULP energy per Si atom -12394.787447 kJ/mol
# Density = 2.072983 g / cm^3
# Si number density = 20.777120 Si / 1000 Ang^3
#
#
#
# Elastic Constant Matrix: (Units=GPa)
#
#
# Indices 1 2 3 4 5 6 
#
# 1 51.3661 21.0373 40.4078 -2.6865 5.0530 -12.0159
# 2 21.0373 93.4715 53.0639 -3.5381 1.3136 -10.8156
# 3 40.4078 53.0639 147.6617 -11.2697 -1.8286 -14.7625
# 4 -2.6865 -3.5381 -11.2697 37.2221 -4.1633 -1.2165
# 5 5.0530 1.3136 -1.8286 -4.1633 28.5404 -8.6931
# 6 -12.0159 -10.8156 -14.7625 -1.2165 -8.6931 23.6946
#
#
#
# Elastic Compliance Matrix: (Units=1/GPa)
#
#
# Indices 1 2 3 4 5 6 
#
# 1 0.027074 -0.001690 -0.006011 -0.000047 -0.002592 0.008259
# 2 -0.001690 0.013798 -0.004195 0.000049 0.000298 0.002939
# 3 -0.006011 -0.004195 0.010465 0.002789 0.003211 0.002878
# 4 -0.000047 0.000049 0.002789 0.028559 0.005996 0.005403
# 5 -0.002592 0.000298 0.003211 0.005996 0.041551 0.016375
# 6 0.008259 0.002939 0.002878 0.005403 0.016375 0.055812
#
#
# Mechanical properties :
#
#
# Convention : Reuss Voigt Hill
#
# Bulk Modulus (GPa) = 36.30515 57.94637 47.12576
# Shear Modulus (GPa) = 23.78317 29.75746 26.77031
#
# Velocity S-wave (km/s) = 3.38698 3.78858 3.59340
# Velocity P-wave (km/s) = 5.72775 6.86206 6.32040
#
# Compressibility (1/GPa) = 0.02754430
#
# Stress axis : x y z
#
# Youngs Moduli (GPa) = 36.93597 72.47455 95.55675
#
# Poissons Ratio (x) = 0.12252 0.57441
# Poissons Ratio (y) = 0.06244 0.40082
# Poissons Ratio (z) = 0.22203 0.30400
#
# Static dielectric constant tensor:
#      x y z
#    x 3.507680 -0.079720 -0.204070 
#    y -0.079720 3.826950 0.122090 
#    z -0.204070 0.122090 4.469330 
# 
# 
# High freq. dielectric constant tensor:
#      x y z
#    x 1.787600 -0.009680 -0.009290 
#    y -0.009680 1.796000 -0.005740 
#    z -0.009290 -0.005740 1.828770 
# 
# From -- ./inp_files/262669.got.cif
#   From: 2010.06.25/outbox.cif.g09.slc.cpg/sg2_132_cif.got.tgz:262669.got - 2010.06.27 13:26:56.
