data_PCOD8010531
_publ_section_title
;
Structure prediction by ZEFSAII (Michael W. Deem and Ramdas Pophale) SiO2 
 PCOD8010531
Probable space group: P -1
;
_chemical_formula_sum "Si O2"
_cell_formula_units_Z 16
_cell_length_a 20.120749
_cell_length_b 5.188883
_cell_length_c 9.690693
_cell_angle_alpha 100.356334
_cell_angle_beta 73.149253
_cell_angle_gamma 124.125910
_cell_volume 801.384049
_symmetry_space_group_name_H-M "P -1"
_symmetry_group_IT_number 2
_symmetry_cell_setting 'triclinic'
loop_
_space_group_symop_operation_xyz
x,y,z
-x,-y,-z
loop_
_atom_site_type_symbol
_atom_site_label
_atom_site_fract_x
_atom_site_fract_y
_atom_site_fract_z
Si Si1 0.070923 0.389129 0.597475
Si Si2 0.344429 0.705410 0.139520
Si Si3 0.450652 0.100852 0.357791
Si Si4 0.017056 0.812721 0.083119
Si Si5 0.554943 0.814573 0.320936
Si Si6 0.103252 0.916936 0.461203
Si Si7 0.341058 0.152554 0.980602
Si Si8 0.813882 0.902517 0.849360
O O1 0.119798 0.758049 0.566882
O O2 0.044070 0.293782 0.761466
O O3 0.993924 0.247928 0.525877
O O4 0.131753 0.269804 0.516116
O O5 0.244867 0.468000 0.182142
O O6 0.375547 0.845602 0.285722
O O7 0.384118 0.512250 0.040796
O O8 0.371673 0.988269 0.047373
O O9 0.485602 0.447784 0.314905
O O10 0.415258 0.079697 0.530232
O O11 0.521141 0.021964 0.305187
O O12 0.111918 0.037419 0.092325
O O13 0.000000 0.500000 0.000000
O O14 0.000000 0.000000 0.000000
O O15 0.633577 0.878301 0.191782
O O16 0.151725 0.910704 0.297295
O O17 0.241145 0.985039 0.031114
#
# Coordination Sequence:
#
# PCOD8010531 Si02
#       8
#     2   2   2   2   2   2   2   2
#     4   9  18  32  53  84 101 137 181 237 284 342
#     4  10  22  37  60  88 120 157 202 241 300 357
#     4  10  21  38  61  89 122 160 201 241 298 339
#     4  11  23  38  62  83 117 151 199 247 301 363
#     4  10  21  38  61  89 124 160 195 247 288 357
#     4   9  17  32  57  76 108 134 183 234 290 333
#     4  10  22  37  60  88 122 159 197 248 300 354
#     4   9  24  38  60  83 118 155 194 253 306 350
#
# _framework density 19.965458999999999
#
# number of rings (size 3 to 8) (size 9 to 14) (size 15 to 20)
#    0.750    1.500    0.000    2.250    3.500    5.000 
#    0.000    1.250    5.500    0.000    0.000    0.000 
#    0.000    0.000    0.000    0.000    0.000    0.000 
#
# Total GULP energy -198270.703333 kJ/mol
# GULP energy per Si atom -12391.918958 kJ/mol
# Density = 1.992002 g / cm^3
# Si number density = 19.965459 Si / 1000 Ang^3
#
#
#
# Elastic Constant Matrix: (Units=GPa)
#
#
# Indices 1 2 3 4 5 6 
#
# 1 76.4215 55.8739 74.2696 -1.5333 -3.2999 -11.1069
# 2 55.8739 99.6287 55.2439 3.4360 3.8445 -31.8732
# 3 74.2696 55.2439 146.3309 -1.8438 -3.1522 -8.3137
# 4 -1.5333 3.4360 -1.8438 32.4197 -6.4867 9.2107
# 5 -3.2999 3.8445 -3.1522 -6.4867 33.0419 -2.6664
# 6 -11.1069 -31.8732 -8.3137 9.2107 -2.6664 40.8417
#
#
#
# Elastic Compliance Matrix: (Units=1/GPa)
#
#
# Indices 1 2 3 4 5 6 
#
# 1 0.036192 -0.015419 -0.012700 0.005176 0.004759 -0.005633
# 2 -0.015419 0.025158 -0.000930 -0.009285 -0.005005 0.017018
# 3 -0.012700 -0.000930 0.013554 0.000748 0.000152 -0.001579
# 4 0.005176 -0.009285 0.000748 0.037583 0.007946 -0.013643
# 5 0.004759 -0.005005 0.000152 0.007946 0.032716 -0.002237
# 6 -0.005633 0.017018 -0.001579 -0.013643 -0.002237 0.038844
#
#
# Mechanical properties :
#
#
# Convention : Reuss Voigt Hill
#
# Bulk Modulus (GPa) = 59.50467 77.01731 68.26099
# Shear Modulus (GPa) = 20.18190 30.39358 25.28774
#
# Velocity S-wave (km/s) = 3.18282 3.90591 3.56276
# Velocity P-wave (km/s) = 6.58602 7.68118 7.15458
#
# Compressibility (1/GPa) = 0.01680540
#
# Stress axis : x y z
#
# Youngs Moduli (GPa) = 27.63039 39.74852 73.78002
#
# Poissons Ratio (x) = 0.61289 0.93702
# Poissons Ratio (y) = 0.42604 0.06861
# Poissons Ratio (z) = 0.35091 0.03696
#
# Static dielectric constant tensor:
#      x y z
#    x 3.364970 -0.338950 -0.025760 
#    y -0.338950 3.717170 0.017360 
#    z -0.025760 0.017360 3.580670 
# 
# 
# High freq. dielectric constant tensor:
#      x y z
#    x 1.752760 -0.031450 -0.006770 
#    y -0.031450 1.777600 -0.005910 
#    z -0.006770 -0.005910 1.783220 
# 
# From -- ./inp_files/339796.got.cif
#   From: 2010.06.25/outbox.cif.g09.slc.cpg/sg2_170_cif.got.tgz:339796.got - 2010.06.27 13:26:56.
