data_PCOD8010761
_publ_section_title
;
Structure prediction by ZEFSAII (Michael W. Deem and Ramdas Pophale) SiO2 
 PCOD8010761
Probable space group: P -1
;
_chemical_formula_sum "Si O2"
_cell_formula_units_Z 16
_cell_length_a 8.582155
_cell_length_b 11.981473
_cell_length_c 24.202044
_cell_angle_alpha 28.345978
_cell_angle_beta 46.945876
_cell_angle_gamma 63.898468
_cell_volume 764.967452
_symmetry_space_group_name_H-M "P -1"
_symmetry_group_IT_number 2
_symmetry_cell_setting 'triclinic'
loop_
_space_group_symop_operation_xyz
x,y,z
-x,-y,-z
loop_
_atom_site_type_symbol
_atom_site_label
_atom_site_fract_x
_atom_site_fract_y
_atom_site_fract_z
Si Si1 0.778062 0.632048 0.863281
Si Si2 0.239878 0.257741 0.783163
Si Si3 0.342654 0.625808 0.189641
Si Si4 0.490701 0.163180 0.512032
Si Si5 0.955205 0.217487 0.154780
Si Si6 0.792913 0.232007 0.955865
Si Si7 0.132454 0.987954 0.114970
Si Si8 0.191861 0.061558 0.517618
O O1 0.897852 0.746026 0.841955
O O2 0.500000 0.500000 0.000000
O O3 0.817804 0.392306 0.935633
O O4 0.907822 0.876686 0.681464
O O5 0.438219 0.559876 0.594016
O O6 0.092542 0.109587 0.828928
O O7 0.361769 0.083458 0.855060
O O8 0.062909 0.282905 0.859440
O O9 0.212027 0.754673 0.203510
O O10 0.215511 0.312736 0.367673
O O11 0.318549 0.684027 0.105305
O O12 0.628271 0.754812 0.077895
O O13 0.351353 0.158690 0.491779
O O14 0.325710 0.946662 0.691130
O O15 0.717346 0.110532 0.466802
O O16 0.045052 0.058517 0.161913
O O17 0.000000 0.500000 0.000000
#
# Coordination Sequence:
#
# PCOD8010761 Si02
#       8
#     2   2   2   2   2   2   2   2
#     4  11  23  42  61  90 123 163 201 249 311 365
#     4  10  21  38  64  92 120 161 203 256 294 362
#     4  10  22  39  64  91 124 163 196 259 302 364
#     4  10  22  39  65  93 121 162 207 256 301 360
#     4  11  23  42  64  88 123 166 206 252 304 362
#     4  10  21  38  63  92 122 154 208 245 306 360
#     4  10  22  39  59  93 125 159 208 240 311 365
#     4  10  22  41  63  92 124 157 212 250 306 366
#
# _framework density 20.915921999999998
#
# number of rings (size 3 to 8) (size 9 to 14) (size 15 to 20)
#    0.000    1.750    1.250    2.250    7.000    1.000 
#    6.750    1.250    0.000    0.000    0.000    0.000 
#    0.000    0.000    0.000    0.000    0.000    0.000 
#
# Total GULP energy -198280.219838 kJ/mol
# GULP energy per Si atom -12392.513740 kJ/mol
# Density = 2.086832 g / cm^3
# Si number density = 20.915922 Si / 1000 Ang^3
#
#
#
# Elastic Constant Matrix: (Units=GPa)
#
#
# Indices 1 2 3 4 5 6 
#
# 1 67.6431 41.7030 60.7355 -2.7514 6.4389 -0.8710
# 2 41.7030 156.2955 53.4764 -2.6005 5.1445 14.6546
# 3 60.7355 53.4764 187.7221 -10.9685 8.6644 -4.6888
# 4 -2.7514 -2.6005 -10.9685 34.4273 -6.1004 -2.2076
# 5 6.4389 5.1445 8.6644 -6.1004 32.4463 -4.5428
# 6 -0.8710 14.6546 -4.6888 -2.2076 -4.5428 20.4381
#
#
#
# Elastic Compliance Matrix: (Units=1/GPa)
#
#
# Indices 1 2 3 4 5 6 
#
# 1 0.023108 -0.004184 -0.006176 -0.000683 -0.002118 0.002023
# 2 -0.004184 0.008639 -0.001267 -0.000773 -0.001333 -0.007043
# 3 -0.006176 -0.001267 0.007872 0.002110 0.000099 0.002701
# 4 -0.000683 -0.000773 0.002110 0.031102 0.006352 0.005781
# 5 -0.002118 -0.001333 0.000099 0.006352 0.033895 0.009108
# 6 0.002023 -0.007043 0.002701 0.005781 0.009108 0.057333
#
#
# Mechanical properties :
#
#
# Convention : Reuss Voigt Hill
#
# Bulk Modulus (GPa) = 61.10304 80.38782 70.74543
# Shear Modulus (GPa) = 26.22472 34.51205 30.36838
#
# Velocity S-wave (km/s) = 3.54477 4.06647 3.81455
# Velocity P-wave (km/s) = 6.78461 7.78238 7.30056
#
# Compressibility (1/GPa) = 0.01636580
#
# Stress axis : x y z
#
# Youngs Moduli (GPa) = 43.27445 115.74834 127.02709
#
# Poissons Ratio (x) = 0.48429 0.78454
# Poissons Ratio (y) = 0.18106 0.16095
# Poissons Ratio (z) = 0.26727 0.14666
#
# Static dielectric constant tensor:
#      x y z
#    x 3.512500 -0.116860 -0.268070 
#    y -0.116860 3.543320 -0.772420 
#    z -0.268070 -0.772420 2.759590 
# 
# 
# High freq. dielectric constant tensor:
#      x y z
#    x 1.800560 0.007400 -0.004050 
#    y 0.007400 1.826170 -0.015210 
#    z -0.004050 -0.015210 1.823200 
# 
# From -- ./inp_files/607461.got.cif
#   From: 2010.06.25/outbox.cif.g09.slc.cpg/sg2_304_cif.got.tgz:607461.got - 2010.06.27 13:26:56.
