data_PCOD8010546
_publ_section_title
;
Structure prediction by ZEFSAII (Michael W. Deem and Ramdas Pophale) SiO2 
 PCOD8010546
Probable space group: P -1
;
_chemical_formula_sum "Si O2"
_cell_formula_units_Z 16
_cell_length_a 14.042730
_cell_length_b 11.676170
_cell_length_c 5.102260
_cell_angle_alpha 114.008603
_cell_angle_beta 67.563551
_cell_angle_gamma 99.927659
_cell_volume 706.221536
_symmetry_space_group_name_H-M "P -1"
_symmetry_group_IT_number 2
_symmetry_cell_setting 'triclinic'
loop_
_space_group_symop_operation_xyz
x,y,z
-x,-y,-z
loop_
_atom_site_type_symbol
_atom_site_label
_atom_site_fract_x
_atom_site_fract_y
_atom_site_fract_z
Si Si1 0.834251 0.706418 0.391140
Si Si2 0.880053 0.984117 0.528358
Si Si3 0.645767 0.032531 0.816248
Si Si4 0.906669 0.139233 0.133725
Si Si5 0.494996 0.646696 0.119222
Si Si6 0.328828 0.819404 0.588438
Si Si7 0.403737 0.244416 0.386146
Si Si8 0.941481 0.627803 0.718983
O O1 0.712681 0.720284 0.520240
O O2 0.862413 0.649425 0.587497
O O3 0.896561 0.836092 0.393129
O O4 0.873748 0.612394 0.038136
O O5 0.762412 0.004440 0.746304
O O6 0.905479 0.032447 0.256271
O O7 0.944329 0.065345 0.759262
O O8 0.638188 0.079714 0.572398
O O9 0.578302 0.905045 0.799724
O O10 0.614395 0.136262 0.160666
O O11 0.793732 0.197585 0.270735
O O12 0.979115 0.255220 0.240134
O O13 0.377491 0.686363 0.339382
O O14 0.573056 0.713173 0.302671
O O15 0.500000 0.500000 0.000000
O O16 0.522319 0.685977 0.832157
O O17 0.000000 0.500000 0.500000
#
# Coordination Sequence:
#
# PCOD8010546 Si02
#       8
#     2   2   2   2   2   2   2   2
#     4  11  24  43  66  91 124 159 199 259 311 357
#     4   9  19  37  62  93 121 154 202 250 313 373
#     4   9  19  37  62  93 121 154 202 250 313 373
#     4  10  21  38  61  90 126 160 198 257 309 356
#     4  12  26  42  61  92 124 165 217 243 288 371
#     4  10  21  38  61  90 126 160 198 257 309 356
#     4  11  24  43  66  91 124 159 199 259 311 357
#     4  12  26  42  61  92 124 165 217 243 288 371
#
# _framework density 22.655781999999999
#
# number of rings (size 3 to 8) (size 9 to 14) (size 15 to 20)
#    0.000    1.500    0.000    4.500    0.000   12.000 
#    0.000    2.500    0.000    0.000    0.000    0.000 
#    0.000    0.000    0.000    0.000    0.000    0.000 
#
# Total GULP energy -198483.025943 kJ/mol
# GULP energy per Si atom -12405.189121 kJ/mol
# Density = 2.260422 g / cm^3
# Si number density = 22.655782 Si / 1000 Ang^3
#
#
#
# Elastic Constant Matrix: (Units=GPa)
#
#
# Indices 1 2 3 4 5 6 
#
# 1 74.0789 -7.6654 14.0552 -0.6474 3.7852 -15.4665
# 2 -7.6654 57.3357 20.9521 9.0602 0.9829 -8.2363
# 3 14.0552 20.9521 131.4791 1.5413 -1.6382 -8.2129
# 4 -0.6474 9.0602 1.5413 41.5784 -10.3946 -6.0125
# 5 3.7852 0.9829 -1.6382 -10.3946 38.8713 -2.1690
# 6 -15.4665 -8.2363 -8.2129 -6.0125 -2.1690 24.2201
#
#
#
# Elastic Compliance Matrix: (Units=1/GPa)
#
#
# Indices 1 2 3 4 5 6 
#
# 1 0.016818 0.004484 -0.001799 0.000816 -0.000952 0.011772
# 2 0.004484 0.020981 -0.003312 -0.003661 -0.001649 0.007819
# 3 -0.001799 -0.003312 0.008379 0.000714 0.000849 0.000820
# 4 0.000816 -0.003661 0.000714 0.027838 0.007886 0.007135
# 5 -0.000952 -0.001649 0.000849 0.007886 0.028206 0.003602
# 6 0.011772 0.007819 0.000820 0.007135 0.003602 0.053836
#
#
# Mechanical properties :
#
#
# Convention : Reuss Voigt Hill
#
# Bulk Modulus (GPa) = 22.25924 35.28638 28.77281
# Shear Modulus (GPa) = 29.02156 36.63742 32.82949
#
# Velocity S-wave (km/s) = 3.58296 4.02572 3.81078
# Velocity P-wave (km/s) = 5.19260 6.10061 5.66483
#
# Compressibility (1/GPa) = 0.04492516
#
# Stress axis : x y z
#
# Youngs Moduli (GPa) = 59.46047 47.66241 119.34258
#
# Poissons Ratio (x) = -0.21372 0.21464
# Poissons Ratio (y) = -0.26663 0.39527
# Poissons Ratio (z) = 0.10694 0.15786
#
# Static dielectric constant tensor:
#      x y z
#    x 4.400480 -0.101180 -0.066190 
#    y -0.101180 3.832630 -0.017090 
#    z -0.066190 -0.017090 4.373150 
# 
# 
# High freq. dielectric constant tensor:
#      x y z
#    x 1.921060 -0.009910 -0.011190 
#    y -0.009910 1.873520 -0.006820 
#    z -0.011190 -0.006820 1.916640 
# 
# From -- ./inp_files/95465.got.cif
#   From: 2010.06.25/outbox.cif.g09.slc.cpg/sg2_48_cif.got.tgz:95465.got - 2010.06.27 13:26:56.
