data_PCOD8010235
_publ_section_title
;
Structure prediction by ZEFSAII (Michael W. Deem and Ramdas Pophale) SiO2 
 PCOD8010235
Probable space group: P -1
;
_chemical_formula_sum "Si O2"
_cell_formula_units_Z 16
_cell_length_a 9.215785
_cell_length_b 7.930680
_cell_length_c 20.329689
_cell_angle_alpha 146.213059
_cell_angle_beta 105.440402
_cell_angle_gamma 76.651619
_cell_volume 796.337414
_symmetry_space_group_name_H-M "P -1"
_symmetry_group_IT_number 2
_symmetry_cell_setting 'triclinic'
loop_
_space_group_symop_operation_xyz
x,y,z
-x,-y,-z
loop_
_atom_site_type_symbol
_atom_site_label
_atom_site_fract_x
_atom_site_fract_y
_atom_site_fract_z
Si Si1 0.824476 0.724953 0.583278
Si Si2 0.869719 0.321602 0.342992
Si Si3 0.372651 0.972572 0.099577
Si Si4 0.663883 0.583304 0.173379
Si Si5 0.375669 0.915788 0.231626
Si Si6 0.218885 0.338001 0.085842
Si Si7 0.317851 0.819837 0.840200
Si Si8 0.968683 0.754298 0.231583
O O1 0.775344 0.491426 0.445102
O O2 0.955902 0.569175 0.595030
O O3 0.681056 0.813801 0.639464
O O4 0.898594 0.024870 0.654434
O O5 0.787932 0.386224 0.285439
O O6 0.872609 0.952881 0.230557
O O7 0.287219 0.229856 0.129274
O O8 0.552121 0.018923 0.132671
O O9 0.321801 0.995528 0.176989
O O10 0.338176 0.633652 0.961124
O O11 0.557321 0.879582 0.244943
O O12 0.600215 0.402110 0.169551
O O13 0.837751 0.665665 0.238321
O O14 0.310847 0.600632 0.146948
O O15 0.046669 0.451921 0.113302
O O16 0.213403 0.058540 0.944531
#
# Coordination Sequence:
#
# PCOD8010235 Si02
#       8
#     2   2   2   2   2   2   2   2
#     4   8  20  40  60  81 111 150 195 248 274 336
#     4   9  19  38  62  77 116 151 192 236 295 320
#     4  11  22  35  57  88 127 148 184 236 286 345
#     4  11  21  36  56  89 123 147 186 237 288 342
#     4  11  20  36  65  80 113 160 190 224 294 341
#     4  10  21  38  55  90 121 147 188 235 284 344
#     4  11  21  35  57  87 121 152 186 238 282 346
#     4   9  20  36  60  81 113 149 189 242 278 341
#
# _framework density 20.091985999999999
#
# number of rings (size 3 to 8) (size 9 to 14) (size 15 to 20)
#    0.750    1.250    2.500    1.875    1.750    4.500 
#    0.000    3.750    5.500    0.000    0.000    0.000 
#    0.000    0.000    0.000    0.000    0.000    0.000 
#
# Total GULP energy -198212.674564 kJ/mol
# GULP energy per Si atom -12388.292160 kJ/mol
# Density = 2.004626 g / cm^3
# Si number density = 20.091986 Si / 1000 Ang^3
#
#
#
# Elastic Constant Matrix: (Units=GPa)
#
#
# Indices 1 2 3 4 5 6 
#
# 1 106.9208 34.5177 47.6431 -4.6540 -24.5434 -4.4066
# 2 34.5177 92.0583 53.7397 -13.7458 -19.1127 1.5469
# 3 47.6431 53.7397 105.1056 -20.2009 -27.4961 -18.0301
# 4 -4.6540 -13.7458 -20.2009 19.4676 1.1345 4.4471
# 5 -24.5434 -19.1127 -27.4961 1.1345 32.1207 3.2351
# 6 -4.4066 1.5469 -18.0301 4.4471 3.2351 18.6275
#
#
#
# Elastic Compliance Matrix: (Units=1/GPa)
#
#
# Indices 1 2 3 4 5 6 
#
# 1 0.012861 -0.001497 -0.004368 -0.002510 0.005427 -0.001404
# 2 -0.001497 0.018375 -0.008817 0.006118 0.003279 -0.012445
# 3 -0.004368 -0.008817 0.024251 0.013134 0.009866 0.018323
# 4 -0.002510 0.006118 0.013134 0.069654 0.011206 -0.006965
# 5 0.005427 0.003279 0.009866 0.011206 0.045278 0.000022
# 6 -0.001404 -0.012445 0.018323 -0.006965 0.000022 0.073780
#
#
# Mechanical properties :
#
#
# Convention : Reuss Voigt Hill
#
# Bulk Modulus (GPa) = 38.28177 63.98730 51.13454
# Shear Modulus (GPa) = 17.71358 25.25545 21.48451
#
# Velocity S-wave (km/s) = 2.97244 3.54925 3.27357
# Velocity P-wave (km/s) = 5.55654 6.97944 6.30824
#
# Compressibility (1/GPa) = 0.02612210
#
# Stress axis : x y z
#
# Youngs Moduli (GPa) = 77.75457 54.42296 41.23583
#
# Poissons Ratio (x) = 0.08146 0.18011
# Poissons Ratio (y) = 0.11639 0.36359
# Poissons Ratio (z) = 0.33962 0.47986
#
# Static dielectric constant tensor:
#      x y z
#    x 3.618680 -0.063520 -0.204870 
#    y -0.063520 3.500670 0.134480 
#    z -0.204870 0.134480 3.417790 
# 
# 
# High freq. dielectric constant tensor:
#      x y z
#    x 1.783270 -0.005420 -0.013500 
#    y -0.005420 1.766890 0.008090 
#    z -0.013500 0.008090 1.758840 
# 
# From -- ./inp_files/457690.got.cif
#   From: 2010.06.25/outbox.cif.g09.slc.cpg/sg2_229_cif.got.tgz:457690.got - 2010.06.27 13:26:56.
