data_PCOD8010654
_publ_section_title
;
Structure prediction by ZEFSAII (Michael W. Deem and Ramdas Pophale) SiO2 
 PCOD8010654
Probable space group: P -1
;
_chemical_formula_sum "Si O2"
_cell_formula_units_Z 16
_cell_length_a 8.911965
_cell_length_b 18.014225
_cell_length_c 12.763766
_cell_angle_alpha 29.169336
_cell_angle_beta 50.730914
_cell_angle_gamma 46.973017
_cell_volume 726.121450
_symmetry_space_group_name_H-M "P -1"
_symmetry_group_IT_number 2
_symmetry_cell_setting 'triclinic'
loop_
_space_group_symop_operation_xyz
x,y,z
-x,-y,-z
loop_
_atom_site_type_symbol
_atom_site_label
_atom_site_fract_x
_atom_site_fract_y
_atom_site_fract_z
Si Si1 0.424563 0.749533 0.065087
Si Si2 0.500214 0.945561 0.415372
Si Si3 0.095833 0.321690 0.402400
Si Si4 0.546142 0.758196 0.222881
Si Si5 0.297039 0.975027 0.249128
Si Si6 0.917310 0.883179 0.529477
Si Si7 0.139006 0.566163 0.432681
Si Si8 0.902488 0.609771 0.004269
O O1 0.389743 0.766296 0.186147
O O2 0.261138 0.669510 0.190475
O O3 0.660816 0.633034 0.087617
O O4 0.382940 0.923352 0.813632
O O5 0.658139 0.769839 0.594401
O O6 0.401312 0.919576 0.382468
O O7 0.324257 0.003026 0.513191
O O8 0.005992 0.233512 0.461391
O O9 0.009393 0.310482 0.569807
O O10 0.028216 0.514457 0.167531
O O11 0.418130 0.837731 0.282831
O O12 0.686820 0.576654 0.409410
O O13 0.699906 0.850410 0.002241
O O14 0.058854 0.992333 0.340848
O O15 0.930799 0.782666 0.757146
O O16 0.000000 0.500000 0.500000
O O17 0.000000 0.500000 0.000000
#
# Coordination Sequence:
#
# PCOD8010654 Si02
#       8
#     2   2   2   2   2   2   2   2
#     4  10  21  40  64  85 121 167 205 247 303 368
#     4  10  22  40  61  90 128 157 202 256 306 364
#     4  11  22  40  60  90 126 159 204 251 310 362
#     4  10  21  38  62  91 123 161 207 249 301 373
#     4  10  21  38  64  92 120 161 209 252 302 361
#     4  10  21  39  68  86 120 165 211 249 295 369
#     4  12  25  38  62  92 129 156 203 263 311 357
#     4   9  20  37  62  90 115 157 212 244 290 369
#
# _framework density 22.034882
#
# number of rings (size 3 to 8) (size 9 to 14) (size 15 to 20)
#    0.000    1.750    1.250    2.625    3.500    1.500 
#    0.000    0.625    0.000    0.000    0.000    0.000 
#    0.000    0.000    0.000    0.000    0.000    0.000 
#
# Total GULP energy -198348.893681 kJ/mol
# GULP energy per Si atom -12396.805855 kJ/mol
# Density = 2.198473 g / cm^3
# Si number density = 22.034882 Si / 1000 Ang^3
#
#
#
# Elastic Constant Matrix: (Units=GPa)
#
#
# Indices 1 2 3 4 5 6 
#
# 1 90.8274 21.7212 52.7402 -0.8113 -26.4698 -4.6458
# 2 21.7212 67.6840 22.2883 2.4023 -6.6383 -6.5080
# 3 52.7402 22.2883 75.8053 5.9934 -21.9956 -15.1437
# 4 -0.8113 2.4023 5.9934 28.3298 -6.1777 9.8692
# 5 -26.4698 -6.6383 -21.9956 -6.1777 38.2291 -1.7988
# 6 -4.6458 -6.5080 -15.1437 9.8692 -1.7988 36.5447
#
#
#
# Elastic Compliance Matrix: (Units=1/GPa)
#
#
# Indices 1 2 3 4 5 6 
#
# 1 0.021480 -0.002399 -0.013570 0.007025 0.007556 -0.004845
# 2 -0.002399 0.016681 -0.002909 -0.001656 -0.000617 0.001877
# 3 -0.013570 -0.002909 0.028227 -0.009180 0.005430 0.012200
# 4 0.007025 -0.001656 -0.009180 0.043983 0.005706 -0.014803
# 5 0.007556 -0.000617 0.005430 0.005706 0.035485 0.003307
# 6 -0.004845 0.001877 0.012200 -0.014803 0.003307 0.036298
#
#
# Mechanical properties :
#
#
# Convention : Reuss Voigt Hill
#
# Bulk Modulus (GPa) = 34.92536 47.53511 41.23024
# Shear Modulus (GPa) = 21.79095 29.79185 25.79140
#
# Velocity S-wave (km/s) = 3.14814 3.68099 3.42494
# Velocity P-wave (km/s) = 5.39433 6.29966 5.86449
#
# Compressibility (1/GPa) = 0.02863249
#
# Stress axis : x y z
#
# Youngs Moduli (GPa) = 46.55462 59.94848 35.42761
#
# Poissons Ratio (x) = 0.14382 0.48075
# Poissons Ratio (y) = 0.11168 0.10305
# Poissons Ratio (z) = 0.63175 0.17437
#
# Static dielectric constant tensor:
#      x y z
#    x 3.758340 0.028990 0.194200 
#    y 0.028990 4.318500 -0.145590 
#    z 0.194200 -0.145590 4.613800 
# 
# 
# High freq. dielectric constant tensor:
#      x y z
#    x 1.843300 0.002310 0.005520 
#    y 0.002310 1.887600 0.007450 
#    z 0.005520 0.007450 1.860300 
# 
# From -- ./inp_files/402626.got.cif
#   From: 2010.06.25/outbox.cif.g09.slc.cpg/sg2_202_cif.got.tgz:402626.got - 2010.06.27 13:26:56.
