data_PCOD8010918
_publ_section_title
;
Structure prediction by ZEFSAII (Michael W. Deem and Ramdas Pophale) SiO2 
 PCOD8010918
Probable space group: P -1
;
_chemical_formula_sum "Si O2"
_cell_formula_units_Z 12
_cell_length_a 12.227194
_cell_length_b 11.234377
_cell_length_c 5.430675
_cell_angle_alpha 83.067026
_cell_angle_beta 108.648655
_cell_angle_gamma 126.582139
_cell_volume 565.179291
_symmetry_space_group_name_H-M "P -1"
_symmetry_group_IT_number 2
_symmetry_cell_setting 'triclinic'
loop_
_space_group_symop_operation_xyz
x,y,z
-x,-y,-z
loop_
_atom_site_type_symbol
_atom_site_label
_atom_site_fract_x
_atom_site_fract_y
_atom_site_fract_z
Si Si1 0.328273 0.770246 0.995267
Si Si2 0.180863 0.070148 0.355867
Si Si3 0.159558 0.463955 0.711049
Si Si4 0.397021 0.000314 0.616264
Si Si5 0.888641 0.386015 0.752477
Si Si6 0.149214 0.185658 0.805589
O O1 0.260702 0.597232 0.944520
O O2 0.299927 0.840504 0.725036
O O3 0.498182 0.868372 0.144142
O O4 0.240076 0.768198 0.170422
O O5 0.293324 0.032473 0.410905
O O6 0.208390 0.151926 0.617451
O O7 0.207013 0.170321 0.111242
O O8 0.021999 0.919479 0.281600
O O9 0.184362 0.543741 0.447915
O O10 0.207946 0.356526 0.774415
O O11 0.986258 0.363125 0.652619
O O12 0.500000 0.000000 0.500000
O O13 0.000000 0.500000 0.000000
#
# Coordination Sequence:
#
# PCOD8010918 Si02
#       6
#     2   2   2   2   2   2
#     4  10  23  39  62  99 125 172 214 276 333 387
#     4  10  25  44  65  99 128 181 223 262 340 390
#     4  10  21  38  64  99 128 169 216 279 334 378
#     4  11  25  42  68  90 136 172 221 275 321 403
#     4   9  20  34  60  97 131 160 215 269 331 384
#     4  10  24  43  69  94 136 171 220 280 321 408
#
# _framework density 21.232199999999999
#
# number of rings (size 3 to 8) (size 9 to 14) (size 15 to 20)
#    0.000    2.000    0.000    1.000   18.667    1.333 
#    0.000    1.667    0.000    0.000    0.000    0.000 
#    0.000    0.000    0.000    0.000    0.000    0.000 
#
# Total GULP energy -148735.073414 kJ/mol
# GULP energy per Si atom -12394.589451 kJ/mol
# Density = 2.118387 g / cm^3
# Si number density = 21.232200 Si / 1000 Ang^3
#
#
#
# Elastic Constant Matrix: (Units=GPa)
#
#
# Indices 1 2 3 4 5 6 
#
# 1 113.5960 48.3267 52.5139 -21.1948 -2.0786 -10.7936
# 2 48.3267 116.2388 33.9044 -17.7720 -1.1719 -8.7723
# 3 52.5139 33.9044 120.4568 -30.4218 -11.2850 -10.9040
# 4 -21.1948 -17.7720 -30.4218 34.6671 5.9263 0.2100
# 5 -2.0786 -1.1719 -11.2850 5.9263 37.8237 -7.6449
# 6 -10.7936 -8.7723 -10.9040 0.2100 -7.6449 32.0432
#
#
#
# Elastic Compliance Matrix: (Units=1/GPa)
#
#
# Indices 1 2 3 4 5 6 
#
# 1 0.012763 -0.003665 -0.003724 0.002743 -0.000574 0.001874
# 2 -0.003665 0.010846 -0.000639 0.002784 -0.000199 0.001452
# 3 -0.003724 -0.000639 0.012744 0.008037 0.003042 0.003580
# 4 0.002743 0.002784 0.008037 0.039468 -0.002845 0.003484
# 5 -0.000574 -0.000199 0.003042 -0.002845 0.029331 0.007804
# 6 0.001874 0.001452 0.003580 0.003484 0.007804 0.035294
#
#
# Mechanical properties :
#
#
# Convention : Reuss Voigt Hill
#
# Bulk Modulus (GPa) = 49.26828 68.86462 59.06645
# Shear Modulus (GPa) = 30.62417 35.27657 32.95037
#
# Velocity S-wave (km/s) = 3.80194 4.08053 3.94370
# Velocity P-wave (km/s) = 6.52134 7.39631 6.97257
#
# Compressibility (1/GPa) = 0.02029703
#
# Stress axis : x y z
#
# Youngs Moduli (GPa) = 78.34973 92.19660 78.46762
#
# Poissons Ratio (x) = 0.33791 0.29222
# Poissons Ratio (y) = 0.28716 0.05016
# Poissons Ratio (z) = 0.29178 0.05893
#
# Static dielectric constant tensor:
#      x y z
#    x 4.119530 0.395250 -0.196500 
#    y 0.395250 3.878500 0.021180 
#    z -0.196500 0.021180 4.142230 
# 
# 
# High freq. dielectric constant tensor:
#      x y z
#    x 1.807740 0.013670 -0.010640 
#    y 0.013670 1.826840 0.001750 
#    z -0.010640 0.001750 1.852730 
# 
# From -- ./inp_files/58428.got.cif
#   From: 2010.06.25/outbox.cif.g09.slc.cpg/sg2_30_cif.got.tgz:58428.got - 2010.06.27 13:26:56.
