data_PCOD8010513
_publ_section_title
;
Structure prediction by ZEFSAII (Michael W. Deem and Ramdas Pophale) SiO2 
 PCOD8010513
Probable space group: P -1
;
_chemical_formula_sum "Si O2"
_cell_formula_units_Z 14
_cell_length_a 6.646110
_cell_length_b 23.959276
_cell_length_c 11.796352
_cell_angle_alpha 26.779459
_cell_angle_beta 127.984878
_cell_angle_gamma 124.794837
_cell_volume 665.864605
_symmetry_space_group_name_H-M "P -1"
_symmetry_group_IT_number 2
_symmetry_cell_setting 'triclinic'
loop_
_space_group_symop_operation_xyz
x,y,z
-x,-y,-z
loop_
_atom_site_type_symbol
_atom_site_label
_atom_site_fract_x
_atom_site_fract_y
_atom_site_fract_z
Si Si1 0.076502 0.717015 0.068016
Si Si2 0.927766 0.028957 0.298915
Si Si3 0.390989 0.976322 0.128966
Si Si4 0.840909 0.185253 0.331181
Si Si5 0.591771 0.648565 0.133374
Si Si6 0.623535 0.614000 0.459290
Si Si7 0.044123 0.198949 0.621979
O O1 0.332330 0.651122 0.304948
O O2 0.821011 0.629645 0.159021
O O3 0.055340 0.756795 0.856896
O O4 0.058794 0.822065 0.970922
O O5 0.118656 0.964150 0.393150
O O6 0.000000 0.000000 0.500000
O O7 0.640174 0.968791 0.304713
O O8 0.219385 0.847784 0.320502
O O9 0.500000 0.000000 0.000000
O O10 0.237064 0.092296 0.903010
O O11 0.997253 0.229346 0.417993
O O12 0.547977 0.222971 0.173297
O O13 0.712742 0.649545 0.299195
O O14 0.378603 0.534291 0.252999
O O15 0.827969 0.676852 0.503037
#
# Coordination Sequence:
#
# PCOD8010513 Si02
#       7
#     2   2   2   2   2   2   2
#     4  10  21  40  64  88 118 158 199 248 292 346
#     4  10  21  38  61  88 122 150 196 243 294 356
#     4  11  23  40  57  91 123 155 194 239 298 366
#     4  10  23  39  57  93 122 153 198 240 301 358
#     4  10  23  40  64  85 120 155 207 250 284 345
#     4  10  22  42  61  90 114 159 206 244 293 351
#     4  11  24  38  62  85 126 157 190 247 302 350
#
# _framework density 21.025296999999998
#
# number of rings (size 3 to 8) (size 9 to 14) (size 15 to 20)
#    0.000    1.714    2.857    0.429    6.000    1.143 
#    0.000    0.714    0.000    0.000    0.000    0.000 
#    0.000    0.000    0.000    0.000    0.000    0.000 
#
# Total GULP energy -173447.388747 kJ/mol
# GULP energy per Si atom -12389.099196 kJ/mol
# Density = 2.097744 g / cm^3
# Si number density = 21.025297 Si / 1000 Ang^3
#
#
#
# Elastic Constant Matrix: (Units=GPa)
#
#
# Indices 1 2 3 4 5 6 
#
# 1 108.4644 41.1878 32.7518 7.0201 -8.9679 4.6821
# 2 41.1878 139.8768 29.9220 14.4025 -12.7477 -9.3874
# 3 32.7518 29.9220 59.6553 7.7438 6.2531 1.1043
# 4 7.0201 14.4025 7.7438 29.4566 -2.1339 3.2901
# 5 -8.9679 -12.7477 6.2531 -2.1339 20.7222 1.4623
# 6 4.6821 -9.3874 1.1043 3.2901 1.4623 31.0395
#
#
#
# Elastic Compliance Matrix: (Units=1/GPa)
#
#
# Indices 1 2 3 4 5 6 
#
# 1 0.012567 -0.001909 -0.006632 0.000442 0.006494 -0.002590
# 2 -0.001909 0.009660 -0.004054 -0.003166 0.005773 0.003417
# 3 -0.006632 -0.004054 0.024299 -0.003764 -0.013079 -0.000075
# 4 0.000442 -0.003166 -0.003764 0.037197 0.003563 -0.005001
# 5 0.006494 0.005773 -0.013079 0.003563 0.059069 -0.001929
# 6 -0.002590 0.003417 -0.000075 -0.005001 -0.001929 0.034265
#
#
# Mechanical properties :
#
#
# Convention : Reuss Voigt Hill
#
# Bulk Modulus (GPa) = 46.87272 57.30218 52.08745
# Shear Modulus (GPa) = 23.88230 29.85266 26.86748
#
# Velocity S-wave (km/s) = 3.37394 3.77217 3.57860
# Velocity P-wave (km/s) = 6.12535 6.80334 6.47323
#
# Compressibility (1/GPa) = 0.02133437
#
# Stress axis : x y z
#
# Youngs Moduli (GPa) = 79.57089 103.51854 41.15443
#
# Poissons Ratio (x) = 0.19765 0.27294
# Poissons Ratio (y) = 0.15193 0.16686
# Poissons Ratio (z) = 0.52772 0.41971
#
# Static dielectric constant tensor:
#      x y z
#    x 3.031870 1.534870 -0.856450 
#    y 1.534870 0.503120 2.134030 
#    z -0.856450 2.134030 2.456190 
# 
# 
# High freq. dielectric constant tensor:
#      x y z
#    x 1.827050 -0.004720 0.009660 
#    y -0.004720 1.814210 0.008620 
#    z 0.009660 0.008620 1.817600 
# 
# From -- ./inp_files/78530.got.cif
#   From: 2010.06.25/outbox.cif.g09.slc.cpg/sg2_40_cif.got.tgz:78530.got - 2010.06.27 13:26:56.
