data_PCOD8010453
_publ_section_title
;
Structure prediction by ZEFSAII (Michael W. Deem and Ramdas Pophale) SiO2 
 PCOD8010453
Probable space group: P -1
;
_chemical_formula_sum "Si O2"
_cell_formula_units_Z 16
_cell_length_a 12.506489
_cell_length_b 15.025979
_cell_length_c 11.730578
_cell_angle_alpha 119.449354
_cell_angle_beta 80.757757
_cell_angle_gamma 149.320010
_cell_volume 790.687907
_symmetry_space_group_name_H-M "P -1"
_symmetry_group_IT_number 2
_symmetry_cell_setting 'triclinic'
loop_
_space_group_symop_operation_xyz
x,y,z
-x,-y,-z
loop_
_atom_site_type_symbol
_atom_site_label
_atom_site_fract_x
_atom_site_fract_y
_atom_site_fract_z
Si Si1 0.448739 0.182269 0.008863
Si Si2 0.029834 0.051779 0.397166
Si Si3 0.044085 0.514879 0.870159
Si Si4 0.777161 0.100135 0.566920
Si Si5 0.028745 0.726826 0.937622
Si Si6 0.282366 0.068887 0.302346
Si Si7 0.670323 0.499702 0.353887
Si Si8 0.543995 0.767069 0.226383
O O1 0.459972 0.217068 0.896918
O O2 0.680248 0.303967 0.080144
O O3 0.480327 0.313871 0.160998
O O4 0.171724 0.894040 0.906582
O O5 0.285896 0.343460 0.525650
O O6 0.083342 0.993849 0.282361
O O7 0.000000 0.000000 0.500000
O O8 0.766579 0.876221 0.284562
O O9 0.801788 0.238179 0.690938
O O10 0.040511 0.614374 0.859424
O O11 0.000000 0.500000 0.000000
O O12 0.684440 0.945880 0.586502
O O13 0.053766 0.306051 0.603613
O O14 0.584945 0.911470 0.375288
O O15 0.733216 0.513869 0.861119
O O16 0.176497 0.887871 0.127780
O O17 0.562637 0.347979 0.387371
#
# Coordination Sequence:
#
# PCOD8010453 Si02
#       8
#     2   2   2   2   2   2   2   2
#     4  10  22  41  61  90 123 152 198 241 296 354
#     4  11  22  40  61  87 117 160 201 242 296 350
#     4  11  19  40  69  85 118 158 200 239 291 358
#     4  10  21  38  60  91 119 155 198 242 295 344
#     4  11  23  40  62  91 117 161 195 245 296 349
#     4  11  20  39  62  85 117 158 206 238 290 354
#     4   9  20  38  61  84 116 155 199 245 285 351
#     4  11  23  39  58  87 126 153 190 254 294 346
#
# _framework density 20.235544999999998
#
# number of rings (size 3 to 8) (size 9 to 14) (size 15 to 20)
#    0.000    1.500    5.000    1.500    0.000    3.000 
#    2.250    1.875    0.000    0.000    0.000    0.000 
#    0.000    0.000    0.000    0.000    0.000    0.000 
#
# Total GULP energy -198317.061723 kJ/mol
# GULP energy per Si atom -12394.816358 kJ/mol
# Density = 2.018949 g / cm^3
# Si number density = 20.235545 Si / 1000 Ang^3
#
#
#
# Elastic Constant Matrix: (Units=GPa)
#
#
# Indices 1 2 3 4 5 6 
#
# 1 124.0400 17.1110 -10.2023 47.6370 10.2916 47.3679
# 2 17.1110 148.5942 39.6946 10.0478 1.2159 -19.0806
# 3 -10.2023 39.6946 70.0359 -19.9015 -13.0334 -50.2945
# 4 47.6370 10.0478 -19.9015 69.5556 15.5354 46.2435
# 5 10.2916 1.2159 -13.0334 15.5354 36.1001 24.9837
# 6 47.3679 -19.0806 -50.2945 46.2435 24.9837 96.1068
#
#
#
# Elastic Compliance Matrix: (Units=1/GPa)
#
#
# Indices 1 2 3 4 5 6 
#
# 1 0.012056 -0.000928 -0.002820 -0.005825 0.001712 -0.005244
# 2 -0.000928 0.008538 -0.005256 -0.002390 -0.001554 0.000956
# 3 -0.002820 -0.005256 0.027281 0.001084 0.000737 0.013910
# 4 -0.005825 -0.002390 0.001084 0.025288 -0.002902 -0.008449
# 5 0.001712 -0.001554 0.000737 -0.002902 0.034562 -0.008355
# 6 -0.005244 0.000956 0.013910 -0.008449 -0.008355 0.026696
#
#
# Mechanical properties :
#
#
# Convention : Reuss Voigt Hill
#
# Bulk Modulus (GPa) = 33.48430 48.43075 40.95752
# Shear Modulus (GPa) = 30.79102 60.09029 45.44066
#
# Velocity S-wave (km/s) = 3.90504 5.45526 4.74390
# Velocity P-wave (km/s) = 6.07582 7.97905 7.09158
#
# Compressibility (1/GPa) = 0.02986475
#
# Stress axis : x y z
#
# Youngs Moduli (GPa) = 82.94727 117.12681 36.65584
#
# Poissons Ratio (x) = 0.10874 0.10338
# Poissons Ratio (y) = 0.07700 0.19267
# Poissons Ratio (z) = 0.23395 0.61562
#
# Static dielectric constant tensor:
#      x y z
#    x 3.912150 0.055350 -0.444250 
#    y 0.055350 3.758410 0.156110 
#    z -0.444250 0.156110 4.351150 
# 
# 
# High freq. dielectric constant tensor:
#      x y z
#    x 1.770160 0.001290 -0.026180 
#    y 0.001290 1.806240 0.003170 
#    z -0.026180 0.003170 1.792410 
# 
# From -- ./inp_files/270553.got.cif
#   From: 2010.06.25/outbox.cif.g09.slc.cpg/sg2_136_cif.got.tgz:270553.got - 2010.06.27 13:26:56.
