data_PCOD8010671
_publ_section_title
;
Structure prediction by ZEFSAII (Michael W. Deem and Ramdas Pophale) SiO2 
 PCOD8010671
Probable space group: P -1
;
_chemical_formula_sum "Si O2"
_cell_formula_units_Z 16
_cell_length_a 8.764354
_cell_length_b 9.580708
_cell_length_c 19.875195
_cell_angle_alpha 144.514577
_cell_angle_beta 72.934092
_cell_angle_gamma 127.187633
_cell_volume 696.929285
_symmetry_space_group_name_H-M "P -1"
_symmetry_group_IT_number 2
_symmetry_cell_setting 'triclinic'
loop_
_space_group_symop_operation_xyz
x,y,z
-x,-y,-z
loop_
_atom_site_type_symbol
_atom_site_label
_atom_site_fract_x
_atom_site_fract_y
_atom_site_fract_z
Si Si1 0.180917 0.284172 0.234028
Si Si2 0.705162 0.401345 0.390508
Si Si3 0.505418 0.286241 0.865953
Si Si4 0.924436 0.298358 0.629703
Si Si5 0.062168 0.402494 0.016449
Si Si6 0.471603 0.340412 0.110224
Si Si7 0.792135 0.357561 0.147299
Si Si8 0.473336 0.610416 0.450084
O O1 0.104427 0.446442 0.271391
O O2 0.331489 0.270133 0.164173
O O3 0.302989 0.470981 0.359244
O O4 0.973744 0.910791 0.125500
O O5 0.535589 0.394669 0.368836
O O6 0.654936 0.403972 0.475983
O O7 0.949698 0.692994 0.448106
O O8 0.683351 0.094810 0.257854
O O9 0.702239 0.322320 0.879437
O O10 0.517605 0.411933 0.839517
O O11 0.500000 0.500000 0.000000
O O12 0.079077 0.403078 0.713600
O O13 0.692171 0.960553 0.539968
O O14 0.935990 0.343875 0.075604
O O15 0.000000 0.500000 0.000000
O O16 0.698821 0.492131 0.171238
O O17 0.386543 0.017441 0.954179
#
# Coordination Sequence:
#
# PCOD8010671 Si02
#       8
#     2   2   2   2   2   2   2   2
#     4  11  23  40  64  94 131 170 220 273 324 391
#     4  11  25  44  68  96 129 175 223 268 326 392
#     4  12  23  40  65  97 134 167 213 275 336 392
#     4  12  24  43  68  95 128 173 222 274 327 384
#     4  11  22  37  61  95 133 175 217 268 333 395
#     4  10  21  38  62  92 127 171 212 269 335 387
#     4  10  21  38  62  92 128 169 220 268 326 396
#     4  11  25  46  67  94 134 178 223 271 320 384
#
# _framework density 22.957854999999999
#
# number of rings (size 3 to 8) (size 9 to 14) (size 15 to 20)
#    0.000    1.000    0.000    7.500    0.000    5.500 
#    0.000    1.250    0.000    0.000    0.000    0.000 
#    0.000    0.000    0.000    0.000    0.000    0.000 
#
# Total GULP energy -198286.619615 kJ/mol
# GULP energy per Si atom -12392.913726 kJ/mol
# Density = 2.290560 g / cm^3
# Si number density = 22.957855 Si / 1000 Ang^3
#
#
#
# Elastic Constant Matrix: (Units=GPa)
#
#
# Indices 1 2 3 4 5 6 
#
# 1 81.4519 18.6591 17.4797 -8.3483 5.5742 -8.1660
# 2 18.6591 109.1638 44.3830 -4.5392 5.2514 2.0171
# 3 17.4797 44.3830 87.0721 -3.5486 -0.6233 2.3999
# 4 -8.3483 -4.5392 -3.5486 29.2805 -0.5196 -10.2159
# 5 5.5742 5.2514 -0.6233 -0.5196 45.5571 -2.4166
# 6 -8.1660 2.0171 2.3999 -10.2159 -2.4166 47.2299
#
#
#
# Elastic Compliance Matrix: (Units=1/GPa)
#
#
# Indices 1 2 3 4 5 6 
#
# 1 0.013954 -0.001369 -0.002017 0.004729 -0.001336 0.003528
# 2 -0.001369 0.011814 -0.005722 0.000589 -0.001287 -0.000389
# 3 -0.002017 -0.005722 0.014839 0.000081 0.001069 -0.000786
# 4 0.004729 0.000589 0.000081 0.038816 0.000285 0.009199
# 5 -0.001336 -0.001287 0.001069 0.000285 0.022332 0.000974
# 6 0.003528 -0.000389 -0.000786 0.009199 0.000974 0.023879
#
#
# Mechanical properties :
#
#
# Convention : Reuss Voigt Hill
#
# Bulk Modulus (GPa) = 44.66207 48.74793 46.70500
# Shear Modulus (GPa) = 33.04380 37.55789 35.30085
#
# Velocity S-wave (km/s) = 3.79796 4.04908 3.92553
# Velocity P-wave (km/s) = 6.22325 6.56809 6.39799
#
# Compressibility (1/GPa) = 0.02239037
#
# Stress axis : x y z
#
# Youngs Moduli (GPa) = 71.66623 84.64205 67.39056
#
# Poissons Ratio (x) = 0.11589 0.13595
# Poissons Ratio (y) = 0.09812 0.38559
# Poissons Ratio (z) = 0.14458 0.48430
#
# Static dielectric constant tensor:
#      x y z
#    x 3.850070 0.135500 -0.151410 
#    y 0.135500 4.393730 0.012040 
#    z -0.151410 0.012040 3.673240 
# 
# 
# High freq. dielectric constant tensor:
#      x y z
#    x 1.920860 -0.002030 -0.008350 
#    y -0.002030 1.912490 0.000030 
#    z -0.008350 0.000030 1.901050 
# 
# From -- ./inp_files/447248.got.cif
#   From: 2010.06.25/outbox.cif.g09.slc.cpg/sg2_224_cif.got.tgz:447248.got - 2010.06.27 13:26:56.
