data_PCOD8010689
_publ_section_title
;
Structure prediction by ZEFSAII (Michael W. Deem and Ramdas Pophale) SiO2 
 PCOD8010689
Probable space group: P -1
;
_chemical_formula_sum "Si O2"
_cell_formula_units_Z 16
_cell_length_a 22.414968
_cell_length_b 17.217407
_cell_length_c 13.730638
_cell_angle_alpha 35.207832
_cell_angle_beta 21.447375
_cell_angle_gamma 23.799273
_cell_volume 760.150471
_symmetry_space_group_name_H-M "P -1"
_symmetry_group_IT_number 2
_symmetry_cell_setting 'triclinic'
loop_
_space_group_symop_operation_xyz
x,y,z
-x,-y,-z
loop_
_atom_site_type_symbol
_atom_site_label
_atom_site_fract_x
_atom_site_fract_y
_atom_site_fract_z
Si Si1 0.112246 0.346102 0.073410
Si Si2 0.040790 0.629858 0.324876
Si Si3 0.323101 0.474652 0.692824
Si Si4 0.322115 0.547355 0.400234
Si Si5 0.630439 0.149434 0.245507
Si Si6 0.474263 0.029323 0.281896
Si Si7 0.472049 0.307021 0.112983
Si Si8 0.161500 0.734468 0.853278
O O1 0.894244 0.386687 0.403299
O O2 0.230072 0.376434 0.941667
O O3 0.000000 0.500000 0.000000
O O4 0.314813 0.121532 0.959311
O O5 0.213376 0.535513 0.253271
O O6 0.000000 0.500000 0.500000
O O7 0.775865 0.850457 0.518041
O O8 0.170349 0.624460 0.042189
O O9 0.264549 0.573345 0.575583
O O10 0.172657 0.646870 0.824956
O O11 0.609344 0.305305 0.449509
O O12 0.564640 0.316468 0.243254
O O13 0.331391 0.697842 0.203124
O O14 0.497647 0.244777 0.247361
O O15 0.515584 0.082035 0.530573
O O16 0.918358 0.969067 0.983767
O O17 0.501619 0.163743 0.142295
#
# Coordination Sequence:
#
# PCOD8010689 Si02
#       8
#     2   2   2   2   2   2   2   2
#     4  10  21  38  62  93 127 165 211 262 321 368
#     4   9  20  39  60  92 127 164 205 264 317 369
#     4  10  21  41  66  89 129 165 213 266 313 372
#     4  11  23  41  63  93 134 170 200 272 328 365
#     4  11  23  39  65  99 122 165 222 258 316 384
#     4  10  21  40  65  95 122 173 220 251 316 383
#     4  11  23  39  64  94 134 165 210 269 317 380
#     4  10  22  40  68  98 117 169 227 256 311 383
#
# _framework density 21.048463999999999
#
# number of rings (size 3 to 8) (size 9 to 14) (size 15 to 20)
#    0.000    1.750    3.750    0.750    3.500    5.000 
#    0.000    0.000    0.000    4.500    0.000    0.000 
#    0.000    0.000    0.000    0.000    0.000    0.000 
#
# Total GULP energy -198328.782919 kJ/mol
# GULP energy per Si atom -12395.548932 kJ/mol
# Density = 2.100056 g / cm^3
# Si number density = 21.048464 Si / 1000 Ang^3
#
#
#
# Elastic Constant Matrix: (Units=GPa)
#
#
# Indices 1 2 3 4 5 6 
#
# 1 72.2463 38.8867 26.6925 -0.4767 -15.9612 -9.5344
# 2 38.8867 99.3183 50.1906 1.1160 -0.4114 1.0822
# 3 26.6925 50.1906 115.1418 -2.9594 -27.5756 3.6983
# 4 -0.4767 1.1160 -2.9594 37.5656 10.0942 -1.9703
# 5 -15.9612 -0.4114 -27.5756 10.0942 28.4862 -3.7317
# 6 -9.5344 1.0822 3.6983 -1.9703 -3.7317 35.2216
#
#
#
# Elastic Compliance Matrix: (Units=1/GPa)
#
#
# Indices 1 2 3 4 5 6 
#
# 1 0.023709 -0.011000 0.003460 -0.003742 0.018872 0.008183
# 2 -0.011000 0.019177 -0.009610 0.002811 -0.016732 -0.004173
# 3 0.003460 -0.009610 0.016542 -0.003460 0.019214 0.001337
# 4 -0.003742 0.002811 -0.003460 0.030566 -0.016336 -0.000757
# 5 0.018872 -0.016732 0.019214 -0.016336 0.071166 0.010232
# 6 0.008183 -0.004173 0.001337 -0.000757 0.010232 0.031636
#
#
# Mechanical properties :
#
#
# Convention : Reuss Voigt Hill
#
# Bulk Modulus (GPa) = 39.79945 57.58289 48.69117
# Shear Modulus (GPa) = 21.23389 31.65043 26.44216
#
# Velocity S-wave (km/s) = 3.17962 3.88196 3.54821
# Velocity P-wave (km/s) = 5.69469 6.89271 6.32214
#
# Compressibility (1/GPa) = 0.02512597
#
# Stress axis : x y z
#
# Youngs Moduli (GPa) = 42.17833 52.14700 60.45349
#
# Poissons Ratio (x) = 0.57362 -0.20914
# Poissons Ratio (y) = 0.46397 0.58096
# Poissons Ratio (z) = -0.14592 0.50113
#
# Static dielectric constant tensor:
#      x y z
#    x 3.845460 -0.094650 -0.426150 
#    y -0.094650 3.982970 0.151260 
#    z -0.426150 0.151260 4.345350 
# 
# 
# High freq. dielectric constant tensor:
#      x y z
#    x 1.808990 0.001350 -0.018200 
#    y 0.001350 1.820100 0.003370 
#    z -0.018200 0.003370 1.836240 
# 
# From -- ./inp_files/280241.got.cif
#   From: 2010.06.25/outbox.cif.g09.slc.cpg/sg2_141_cif.got.tgz:280241.got - 2010.06.27 13:26:56.
