data_PCOD8010551
_publ_section_title
;
Structure prediction by ZEFSAII (Michael W. Deem and Ramdas Pophale) SiO2 
 PCOD8010551
Probable space group: P -1
;
_chemical_formula_sum "Si O2"
_cell_formula_units_Z 16
_cell_length_a 14.975589
_cell_length_b 15.478410
_cell_length_c 9.210776
_cell_angle_alpha 105.517686
_cell_angle_beta 103.331985
_cell_angle_gamma 141.882539
_cell_volume 851.903066
_symmetry_space_group_name_H-M "P -1"
_symmetry_group_IT_number 2
_symmetry_cell_setting 'triclinic'
loop_
_space_group_symop_operation_xyz
x,y,z
-x,-y,-z
loop_
_atom_site_type_symbol
_atom_site_label
_atom_site_fract_x
_atom_site_fract_y
_atom_site_fract_z
Si Si1 0.661474 0.524753 0.984623
Si Si2 0.236004 0.237098 0.648610
Si Si3 0.164101 0.815114 0.067292
Si Si4 0.007275 0.871879 0.030959
Si Si5 0.412603 0.833987 0.461313
Si Si6 0.023326 0.531530 0.699023
Si Si7 0.736754 0.735436 0.646091
Si Si8 0.181896 0.532706 0.987713
O O1 0.408406 0.306492 0.746620
O O2 0.733890 0.489444 0.040427
O O3 0.679323 0.602585 0.164189
O O4 0.818206 0.704282 0.002982
O O5 0.226357 0.268569 0.500600
O O6 0.000000 0.000000 0.500000
O O7 0.068052 0.825104 0.988405
O O8 0.408257 0.049716 0.313048
O O9 0.144021 0.730461 0.882821
O O10 0.042611 0.667639 0.097366
O O11 0.215933 0.114865 0.267356
O O12 0.918287 0.842001 0.844799
O O13 0.214724 0.677685 0.421882
O O14 0.359406 0.724704 0.254684
O O15 0.500000 0.000000 0.500000
O O16 0.000000 0.500000 0.500000
O O17 0.153933 0.566555 0.845228
O O18 0.500000 0.500000 0.500000
#
# Coordination Sequence:
#
# PCOD8010551 Si02
#       8
#     2   2   2   2   2   2   2   2
#     4  10  22  37  60  89 119 152 206 245 288 359
#     4  11  22  39  59  86 120 158 194 243 303 349
#     4  10  21  39  62  89 119 157 207 241 286 362
#     4  10  22  37  60  92 115 157 206 244 292 355
#     4  11  19  38  65  85 113 161 203 239 287 352
#     4  11  23  39  60  90 129 151 188 252 304 348
#     4  11  22  38  61  84 121 157 195 249 300 347
#     4  10  21  38  61  91 117 157 204 244 290 353
#
# _framework density 18.781480999999999
#
# number of rings (size 3 to 8) (size 9 to 14) (size 15 to 20)
#    0.000    1.500    5.000    0.750    1.750    2.500 
#    0.000    1.250    0.000    0.000    0.000    0.000 
#    0.000    0.000    0.000    0.000    0.000    0.000 
#
# Total GULP energy -198286.791255 kJ/mol
# GULP energy per Si atom -12392.924453 kJ/mol
# Density = 1.873873 g / cm^3
# Si number density = 18.781481 Si / 1000 Ang^3
#
#
#
# Elastic Constant Matrix: (Units=GPa)
#
#
# Indices 1 2 3 4 5 6 
#
# 1 109.4002 46.1090 57.7728 -10.3650 -3.9399 -8.0337
# 2 46.1090 99.8877 53.8172 -0.4842 -0.2481 2.3642
# 3 57.7728 53.8172 132.2709 -4.5936 -2.0056 3.8068
# 4 -10.3650 -0.4842 -4.5936 44.7810 7.8808 1.2623
# 5 -3.9399 -0.2481 -2.0056 7.8808 23.5153 1.1552
# 6 -8.0337 2.3642 3.8068 1.2623 1.1552 26.3938
#
#
#
# Elastic Compliance Matrix: (Units=1/GPa)
#
#
# Indices 1 2 3 4 5 6 
#
# 1 0.013840 -0.004113 -0.004421 0.002415 0.000840 0.005066
# 2 -0.004113 0.014056 -0.003912 -0.001074 -0.000422 -0.001877
# 3 -0.004421 -0.003912 0.011166 0.000107 0.000263 -0.002622
# 4 0.002415 -0.001074 0.000107 0.024249 -0.007724 -0.000006
# 5 0.000840 -0.000422 0.000263 -0.007724 0.045340 -0.001359
# 6 0.005066 -0.001877 -0.002622 -0.000006 -0.001359 0.040036
#
#
# Mechanical properties :
#
#
# Convention : Reuss Voigt Hill
#
# Bulk Modulus (GPa) = 70.57121 72.99520 71.78320
# Shear Modulus (GPa) = 28.04254 31.19534 29.61894
#
# Velocity S-wave (km/s) = 3.86825 4.07991 3.97549
# Velocity P-wave (km/s) = 7.58997 7.81947 7.70557
#
# Compressibility (1/GPa) = 0.01417008
#
# Stress axis : x y z
#
# Youngs Moduli (GPa) = 72.25521 71.14526 89.55741
#
# Poissons Ratio (x) = 0.29262 0.39590
# Poissons Ratio (y) = 0.29718 0.35036
# Poissons Ratio (z) = 0.31942 0.27833
#
# Static dielectric constant tensor:
#      x y z
#    x 3.455390 -0.017900 0.045550 
#    y -0.017900 3.532860 0.268700 
#    z 0.045550 0.268700 3.939760 
# 
# 
# High freq. dielectric constant tensor:
#      x y z
#    x 1.726920 -0.004840 0.001430 
#    y -0.004840 1.719200 0.006200 
#    z 0.001430 0.006200 1.748680 
# 
# From -- ./inp_files/116320.got.cif
#   From: 2010.06.25/outbox.cif.g09.slc.cpg/sg2_59_cif.got.tgz:116320.got - 2010.06.27 13:26:56.
