data_PCOD8010855
_publ_section_title
;
Structure prediction by ZEFSAII (Michael W. Deem and Ramdas Pophale) SiO2 
 PCOD8010855
Probable space group: P -1
;
_chemical_formula_sum "Si O2"
_cell_formula_units_Z 16
_cell_length_a 11.423246
_cell_length_b 9.670234
_cell_length_c 12.461563
_cell_angle_alpha 45.617769
_cell_angle_beta 88.091298
_cell_angle_gamma 60.929012
_cell_volume 749.213342
_symmetry_space_group_name_H-M "P -1"
_symmetry_group_IT_number 2
_symmetry_cell_setting 'triclinic'
loop_
_space_group_symop_operation_xyz
x,y,z
-x,-y,-z
loop_
_atom_site_type_symbol
_atom_site_label
_atom_site_fract_x
_atom_site_fract_y
_atom_site_fract_z
Si Si1 0.529411 0.918194 0.707646
Si Si2 0.365667 0.176154 0.771515
Si Si3 0.940223 0.687479 0.064286
Si Si4 0.543794 0.279356 0.368540
Si Si5 0.388273 0.830893 0.132814
Si Si6 0.978347 0.454994 0.404282
Si Si7 0.141843 0.919284 0.609695
Si Si8 0.839209 0.459372 0.044262
O O1 0.507211 0.751575 0.727382
O O2 0.379142 0.099136 0.688834
O O3 0.551311 0.093424 0.549546
O O4 0.677706 0.732749 0.878075
O O5 0.483886 0.225268 0.759171
O O6 0.196141 0.435550 0.663175
O O7 0.402398 0.945215 0.963995
O O8 0.003398 0.592020 0.236314
O O9 0.925046 0.493766 0.113790
O O10 0.063092 0.672725 0.996798
O O11 0.780235 0.975332 0.914159
O O12 0.419108 0.572721 0.247851
O O13 0.710574 0.201254 0.403766
O O14 0.000000 0.500000 0.500000
O O15 0.100412 0.158347 0.542786
O O16 0.188946 0.719721 0.808594
O O17 0.000000 0.000000 0.500000
#
# Coordination Sequence:
#
# PCOD8010855 Si02
#       8
#     2   2   2   2   2   2   2   2
#     4  11  24  44  63  93 132 176 211 266 329 378
#     4  10  21  38  64  91 127 167 209 262 325 378
#     4  10  22  42  65  95 130 167 213 267 326 383
#     4  11  26  41  64  96 135 168 217 268 320 393
#     4  10  21  40  65  93 124 163 214 269 316 382
#     4  11  23  40  63  95 134 169 208 268 328 385
#     4  12  24  41  67  99 127 174 223 264 321 395
#     4  11  23  41  69  93 127 173 217 268 318 389
#
# _framework density 21.355732
#
# number of rings (size 3 to 8) (size 9 to 14) (size 15 to 20)
#    0.000    1.250    2.500    3.000    3.500    6.500 
#    0.000    1.250    0.000    0.000    0.000    0.000 
#    0.000    0.000    0.000    0.000    0.000    0.000 
#
# Total GULP energy -198443.747885 kJ/mol
# GULP energy per Si atom -12402.734243 kJ/mol
# Density = 2.130713 g / cm^3
# Si number density = 21.355732 Si / 1000 Ang^3
#
#
#
# Elastic Constant Matrix: (Units=GPa)
#
#
# Indices 1 2 3 4 5 6 
#
# 1 59.6619 21.1216 17.1578 -2.5089 -10.4880 -9.6593
# 2 21.1216 121.0055 37.1389 -3.9319 -10.0843 -12.8414
# 3 17.1578 37.1389 83.9504 -3.7365 -4.6877 3.9350
# 4 -2.5089 -3.9319 -3.7365 44.6242 4.2548 1.1323
# 5 -10.4880 -10.0843 -4.6877 4.2548 21.8465 1.3544
# 6 -9.6593 -12.8414 3.9350 1.1323 1.3544 37.7038
#
#
#
# Elastic Compliance Matrix: (Units=1/GPa)
#
#
# Indices 1 2 3 4 5 6 
#
# 1 0.020418 -0.001344 -0.003355 -0.000155 0.008193 0.004834
# 2 -0.001344 0.010466 -0.004350 0.000105 0.003011 0.003563
# 3 -0.003355 -0.004350 0.014718 0.000795 -0.000374 -0.003887
# 4 -0.000155 0.000105 0.000795 0.022900 -0.004277 -0.000621
# 5 0.008193 0.003011 -0.000374 -0.004277 0.051761 0.001433
# 6 0.004834 0.003563 -0.003887 -0.000621 0.001433 0.029347
#
#
# Mechanical properties :
#
#
# Convention : Reuss Voigt Hill
#
# Bulk Modulus (GPa) = 36.35518 46.16159 41.25839
# Shear Modulus (GPa) = 28.26854 33.44819 30.85837
#
# Velocity S-wave (km/s) = 3.64221 3.96187 3.80540
# Velocity P-wave (km/s) = 5.89476 6.52618 6.21849
#
# Compressibility (1/GPa) = 0.02750639
#
# Stress axis : x y z
#
# Youngs Moduli (GPa) = 48.97696 95.54637 67.94229
#
# Poissons Ratio (x) = 0.12839 0.22792
# Poissons Ratio (y) = 0.06581 0.29553
# Poissons Ratio (z) = 0.16430 0.41560
#
# Static dielectric constant tensor:
#      x y z
#    x 3.733780 -0.149100 0.063760 
#    y -0.149100 4.012950 0.032010 
#    z 0.063760 0.032010 3.866450 
# 
# 
# High freq. dielectric constant tensor:
#      x y z
#    x 1.825460 -0.014580 0.005530 
#    y -0.014580 1.850920 0.001060 
#    z 0.005530 0.001060 1.839930 
# 
# From -- ./inp_files/262135.got.cif
#   From: 2010.06.25/outbox.cif.g09.slc.cpg/sg2_132_cif.got.tgz:262135.got - 2010.06.27 13:26:56.
