data_PCOD8010151
_publ_section_title
;
Structure prediction by ZEFSAII (Michael W. Deem and Ramdas Pophale) SiO2 
 PCOD8010151
Probable space group: P -1
;
_chemical_formula_sum "Si O2"
_cell_formula_units_Z 16
_cell_length_a 9.087229
_cell_length_b 16.503073
_cell_length_c 11.363070
_cell_angle_alpha 33.129665
_cell_angle_beta 127.690099
_cell_angle_gamma 128.982394
_cell_volume 709.480334
_symmetry_space_group_name_H-M "P -1"
_symmetry_group_IT_number 2
_symmetry_cell_setting 'triclinic'
loop_
_space_group_symop_operation_xyz
x,y,z
-x,-y,-z
loop_
_atom_site_type_symbol
_atom_site_label
_atom_site_fract_x
_atom_site_fract_y
_atom_site_fract_z
Si Si1 0.127551 0.439712 0.541058
Si Si2 0.477893 0.319881 0.939681
Si Si3 0.261170 0.031984 0.341588
Si Si4 0.383627 0.184411 0.452488
Si Si5 0.900313 0.023353 0.298872
Si Si6 0.778082 0.262519 0.470120
Si Si7 0.203051 0.672052 0.085014
Si Si8 0.791248 0.539331 0.981133
O O1 0.309989 0.400126 0.735541
O O2 0.208943 0.560215 0.331575
O O3 0.000000 0.500000 0.500000
O O4 0.986771 0.282191 0.607573
O O5 0.582225 0.274713 0.930990
O O6 0.660508 0.448687 0.923623
O O7 0.384951 0.170564 0.153923
O O8 0.344668 0.054338 0.487674
O O9 0.032236 0.017861 0.256304
O O10 0.272799 0.868149 0.496390
O O11 0.613033 0.232949 0.525760
O O12 0.290462 0.316862 0.197311
O O13 0.293503 0.119341 0.614442
O O14 0.840851 0.178281 0.065443
O O15 0.000000 0.000000 0.500000
O O16 0.768286 0.427262 0.216809
O O17 0.023314 0.598006 0.996194
#
# Coordination Sequence:
#
# PCOD8010151 Si02
#       8
#     2   2   2   2   2   2   2   2
#     4  11  26  46  68  92 136 179 219 268 328 392
#     4  12  25  41  70  94 138 176 219 270 329 386
#     4  11  23  40  65  97 136 165 216 272 333 380
#     4  11  21  39  65  99 136 168 214 273 332 387
#     4  10  21  37  66  96 139 169 208 270 343 380
#     4  11  24  40  68  99 129 170 226 269 326 392
#     4  11  23  44  65 101 130 172 223 273 325 392
#     4  11  23  38  69 101 132 167 223 274 330 385
#
# _framework density 22.551717
#
# number of rings (size 3 to 8) (size 9 to 14) (size 15 to 20)
#    0.000    1.000    3.750    3.750    5.250    2.500 
#    0.000    1.250    0.000    5.250    0.000    0.000 
#    0.000    0.000    0.000    0.000    0.000    0.000 
#
# Total GULP energy -198217.210388 kJ/mol
# GULP energy per Si atom -12388.575649 kJ/mol
# Density = 2.250039 g / cm^3
# Si number density = 22.551717 Si / 1000 Ang^3
#
#
#
# Elastic Constant Matrix: (Units=GPa)
#
#
# Indices 1 2 3 4 5 6 
#
# 1 185.6073 31.3447 42.6644 -11.8310 -4.6224 41.8255
# 2 31.3447 62.1231 38.9835 -11.9925 0.5087 14.4638
# 3 42.6644 38.9835 62.7803 -12.2969 -0.4353 21.2533
# 4 -11.8310 -11.9925 -12.2969 34.2775 5.3174 0.0360
# 5 -4.6224 0.5087 -0.4353 5.3174 33.5244 -2.4549
# 6 41.8255 14.4638 21.2533 0.0360 -2.4549 35.9327
#
#
#
# Elastic Compliance Matrix: (Units=1/GPa)
#
#
# Indices 1 2 3 4 5 6 
#
# 1 0.007780 -0.000545 -0.002024 0.001742 0.000220 -0.007626
# 2 -0.000545 0.026984 -0.015137 0.004044 -0.001423 -0.001375
# 3 -0.002024 -0.015137 0.031159 0.005386 -0.001237 -0.010071
# 4 0.001742 0.004044 0.005386 0.034011 -0.005678 -0.007264
# 5 0.000220 -0.001423 -0.001237 -0.005678 0.030998 0.003172
# 6 -0.007626 -0.001375 -0.010071 -0.007264 0.003172 0.043440
#
#
# Mechanical properties :
#
#
# Convention : Reuss Voigt Hill
#
# Bulk Modulus (GPa) = 32.77652 59.61066 46.19359
# Shear Modulus (GPa) = 22.73195 33.91478 28.32336
#
# Velocity S-wave (km/s) = 3.17833 3.88218 3.54775
# Velocity P-wave (km/s) = 5.29477 6.82535 6.10819
#
# Compressibility (1/GPa) = 0.03050965
#
# Stress axis : x y z
#
# Youngs Moduli (GPa) = 128.53328 37.05964 32.09315
#
# Poissons Ratio (x) = 0.02021 0.06496
# Poissons Ratio (y) = 0.07008 0.48580
# Poissons Ratio (z) = 0.26018 0.56098
#
# Static dielectric constant tensor:
#      x y z
#    x 4.755620 0.640600 -0.051740 
#    y 0.640600 4.327180 -0.281290 
#    z -0.051740 -0.281290 3.913330 
# 
# 
# High freq. dielectric constant tensor:
#      x y z
#    x 1.912660 0.030350 0.007540 
#    y 0.030350 1.870340 -0.025310 
#    z 0.007540 -0.025310 1.875990 
# 
# From -- ./inp_files/402744.got.cif
#   From: 2010.06.25/outbox.cif.g09.slc.cpg/sg2_202_cif.got.tgz:402744.got - 2010.06.27 13:26:56.
