data_PCOD8010021
_publ_section_title
;
Structure prediction by ZEFSAII (Michael W. Deem and Ramdas Pophale) SiO2 
 PCOD8010021
Probable space group: P -1
;
_chemical_formula_sum "Si O2"
_cell_formula_units_Z 14
_cell_length_a 13.102533
_cell_length_b 12.411992
_cell_length_c 11.053122
_cell_angle_alpha 35.742497
_cell_angle_beta 111.844802
_cell_angle_gamma 134.931093
_cell_volume 649.524228
_symmetry_space_group_name_H-M "P -1"
_symmetry_group_IT_number 2
_symmetry_cell_setting 'triclinic'
loop_
_space_group_symop_operation_xyz
x,y,z
-x,-y,-z
loop_
_atom_site_type_symbol
_atom_site_label
_atom_site_fract_x
_atom_site_fract_y
_atom_site_fract_z
Si Si1 0.572145 0.791948 0.120734
Si Si2 0.345536 0.599357 0.797061
Si Si3 0.951188 0.863720 0.774013
Si Si4 0.196184 0.852521 0.876485
Si Si5 0.802659 0.570723 0.733251
Si Si6 0.523940 0.710654 0.551446
Si Si7 0.413865 0.951173 0.317881
O O1 0.389348 0.648395 0.182092
O O2 0.568317 0.567193 0.307222
O O3 0.670228 0.960964 0.128962
O O4 0.663682 0.997864 0.855493
O O5 0.477344 0.641658 0.737862
O O6 0.301140 0.731622 0.578963
O O7 0.422792 0.753601 0.819073
O O8 0.177258 0.276949 0.042381
O O9 0.035013 0.768179 0.911533
O O10 0.844665 0.739782 0.717455
O O11 0.085384 0.196635 0.535779
O O12 0.279909 0.043818 0.616521
O O13 0.144473 0.575411 0.092720
O O14 0.463757 0.836013 0.362269
#
# Coordination Sequence:
#
# PCOD8010021 Si02
#       7
#     2   2   2   2   2   2   2
#     4  12  22  39  65  94 118 162 214 243 293 374
#     4   9  19  43  61  87 126 161 195 257 302 355
#     4  11  23  42  59  95 127 153 202 257 309 356
#     4  12  24  39  66  90 124 162 204 253 301 355
#     4  11  23  39  64  91 125 161 203 251 304 360
#     4  10  21  37  64  91 117 162 201 253 294 358
#     4   9  20  39  62  87 123 157 208 240 301 359
#
# _framework density 21.554238000000002
#
# number of rings (size 3 to 8) (size 9 to 14) (size 15 to 20)
#    0.857    0.571    4.286    1.286    0.000    0.571 
#    2.571    1.429    0.000    0.000    0.000    0.000 
#    0.000    0.000    0.000    0.000    0.000    0.000 
#
# Total GULP energy -173435.810043 kJ/mol
# GULP energy per Si atom -12388.272146 kJ/mol
# Density = 2.150518 g / cm^3
# Si number density = 21.554238 Si / 1000 Ang^3
#
#
#
# Elastic Constant Matrix: (Units=GPa)
#
#
# Indices 1 2 3 4 5 6 
#
# 1 54.1515 9.0045 21.3440 8.2693 -1.7805 -9.8242
# 2 9.0045 46.4922 19.5528 3.9327 -6.8533 3.5129
# 3 21.3440 19.5528 130.2286 11.9761 -13.4950 -8.2835
# 4 8.2693 3.9327 11.9761 19.5814 -7.0287 3.4119
# 5 -1.7805 -6.8533 -13.4950 -7.0287 37.3746 -5.8924
# 6 -9.8242 3.5129 -8.2835 3.4119 -5.8924 25.2141
#
#
#
# Elastic Compliance Matrix: (Units=1/GPa)
#
#
# Indices 1 2 3 4 5 6 
#
# 1 0.023114 -0.003757 -0.001713 -0.009901 -0.000460 0.010199
# 2 -0.003757 0.024289 -0.003169 0.000435 0.002361 -0.005396
# 3 -0.001713 -0.003169 0.009335 -0.004126 0.002562 0.003998
# 4 -0.009901 0.000435 -0.004126 0.062636 0.008026 -0.011874
# 5 -0.000460 0.002361 0.002562 0.008026 0.030611 0.006401
# 6 0.010199 -0.005396 0.003998 -0.011874 0.006401 0.048802
#
#
# Mechanical properties :
#
#
# Convention : Reuss Voigt Hill
#
# Bulk Modulus (GPa) = 25.34322 36.74166 31.04244
# Shear Modulus (GPa) = 21.81331 28.49873 25.15602
#
# Velocity S-wave (km/s) = 3.18468 3.64013 3.42000
# Velocity P-wave (km/s) = 5.03054 5.89496 5.47982
#
# Compressibility (1/GPa) = 0.03945829
#
# Stress axis : x y z
#
# Youngs Moduli (GPa) = 43.26447 41.17140 107.12795
#
# Poissons Ratio (x) = 0.15469 0.18346
# Poissons Ratio (y) = 0.16256 0.33954
# Poissons Ratio (z) = 0.07409 0.13049
#
# Static dielectric constant tensor:
#      x y z
#    x 3.635900 -0.105580 0.103980 
#    y -0.105580 3.494310 0.096510 
#    z 0.103980 0.096510 4.263980 
# 
# 
# High freq. dielectric constant tensor:
#      x y z
#    x 1.820210 -0.012770 0.014690 
#    y -0.012770 1.812110 0.008520 
#    z 0.014690 0.008520 1.868710 
# 
# From -- ./inp_files/422848.got.cif
#   From: 2010.06.25/outbox.cif.g09.slc.cpg/sg2_212_cif.got.tgz:422848.got - 2010.06.27 13:26:56.
