data_PCOD8010100
_publ_section_title
;
Structure prediction by ZEFSAII (Michael W. Deem and Ramdas Pophale) SiO2 
 PCOD8010100
Probable space group: P -1
;
_chemical_formula_sum "Si O2"
_cell_formula_units_Z 16
_cell_length_a 7.937910
_cell_length_b 11.918577
_cell_length_c 15.485732
_cell_angle_alpha 150.749814
_cell_angle_beta 94.543819
_cell_angle_gamma 82.213163
_cell_volume 706.969707
_symmetry_space_group_name_H-M "P -1"
_symmetry_group_IT_number 2
_symmetry_cell_setting 'triclinic'
loop_
_space_group_symop_operation_xyz
x,y,z
-x,-y,-z
loop_
_atom_site_type_symbol
_atom_site_label
_atom_site_fract_x
_atom_site_fract_y
_atom_site_fract_z
Si Si1 0.275902 0.616824 0.764417
Si Si2 0.530722 0.729202 0.106902
Si Si3 0.662656 0.317937 0.374452
Si Si4 0.838831 0.207739 0.485444
Si Si5 0.937863 0.638620 0.854407
Si Si6 0.434891 0.164033 0.005188
Si Si7 0.919477 0.734487 0.114456
Si Si8 0.484245 0.130053 0.494270
O O1 0.236652 0.604151 0.652472
O O2 0.411361 0.808381 0.903749
O O3 0.350821 0.368639 0.643797
O O4 0.094854 0.729628 0.872583
O O5 0.425451 0.953085 0.300542
O O6 0.500000 0.500000 0.000000
O O7 0.501853 0.694604 0.980306
O O8 0.722877 0.771741 0.153122
O O9 0.500000 0.500000 0.500000
O O10 0.786514 0.307160 0.454627
O O11 0.584239 0.080999 0.200428
O O12 0.953731 0.366003 0.649995
O O13 0.670395 0.197298 0.527870
O O14 0.970408 0.968078 0.316811
O O15 0.743235 0.739667 0.889465
O O16 0.966855 0.713284 0.002742
O O17 0.000000 0.500000 0.000000
O O18 0.500000 0.000000 0.500000
#
# Coordination Sequence:
#
# PCOD8010100 Si02
#       8
#     2   2   2   2   2   2   2   2
#     4  12  26  41  73 105 127 188 239 273 350 424
#     4  10  21  37  65  94 132 184 217 280 355 395
#     4  12  22  47  73 100 139 185 234 281 354 413
#     4  11  23  47  68  95 147 183 221 300 347 400
#     4  11  25  45  68 104 139 178 237 283 352 406
#     4  11  22  47  67  98 148 176 223 300 340 405
#     4  10  24  43  64  97 142 184 227 283 350 415
#     4  11  22  40  65  98 135 174 231 283 338 414
#
# _framework density 22.631803999999999
#
# number of rings (size 3 to 8) (size 9 to 14) (size 15 to 20)
#    0.000    1.000    6.250    1.125    7.000    2.500 
#    2.250    0.000    0.000    0.000    0.000    0.000 
#    0.000    0.000    0.000    0.000    0.000    0.000 
#
# Total GULP energy -198218.042676 kJ/mol
# GULP energy per Si atom -12388.627667 kJ/mol
# Density = 2.258029 g / cm^3
# Si number density = 22.631804 Si / 1000 Ang^3
#
#
#
# Elastic Constant Matrix: (Units=GPa)
#
#
# Indices 1 2 3 4 5 6 
#
# 1 78.5548 21.4199 34.4191 -18.3883 -21.0022 23.8804
# 2 21.4199 79.9270 -2.7733 -8.0601 -26.3932 11.5264
# 3 34.4191 -2.7733 128.6321 4.3194 -14.3600 8.8506
# 4 -18.3883 -8.0601 4.3194 35.2002 3.8735 -7.5642
# 5 -21.0022 -26.3932 -14.3600 3.8735 29.6882 -0.1134
# 6 23.8804 11.5264 8.8506 -7.5642 -0.1134 26.1279
#
#
#
# Elastic Compliance Matrix: (Units=1/GPa)
#
#
# Indices 1 2 3 4 5 6 
#
# 1 0.027651 0.002846 -0.003955 0.008637 0.018965 -0.022605
# 2 0.002846 0.020996 0.002979 0.000817 0.021966 -0.012541
# 3 -0.003955 0.002979 0.009712 -0.003556 0.005004 -0.001997
# 4 0.008637 0.000817 -0.003556 0.034075 0.000681 0.002818
# 5 0.018965 0.021966 0.005004 0.000681 0.068851 -0.028223
# 6 -0.022605 -0.012541 -0.001997 0.002818 -0.028223 0.065836
#
#
# Mechanical properties :
#
#
# Convention : Reuss Voigt Hill
#
# Bulk Modulus (GPa) = 16.10333 43.69392 29.89863
# Shear Modulus (GPa) = 20.48496 33.80648 27.14572
#
# Velocity S-wave (km/s) = 3.01182 3.86911 3.46706
# Velocity P-wave (km/s) = 4.38469 6.26964 5.40989
#
# Compressibility (1/GPa) = 0.06209895
#
# Stress axis : x y z
#
# Youngs Moduli (GPa) = 36.16519 47.62714 102.96513
#
# Poissons Ratio (x) = -0.13554 0.40722
# Poissons Ratio (y) = -0.10292 -0.30671
# Poissons Ratio (z) = 0.14303 -0.14187
#
# Static dielectric constant tensor:
#      x y z
#    x 3.925440 0.189290 0.025880 
#    y 0.189290 4.017300 -0.157920 
#    z 0.025880 -0.157920 4.648570 
# 
# 
# High freq. dielectric constant tensor:
#      x y z
#    x 1.866170 0.012110 -0.003770 
#    y 0.012110 1.895770 -0.006800 
#    z -0.003770 -0.006800 1.919390 
# 
# From -- ./inp_files/501142.got.cif
#   From: 2010.06.25/outbox.cif.g09.slc.cpg/sg2_251_cif.got.tgz:501142.got - 2010.06.27 13:26:56.
