data_PCOD8010316
_publ_section_title
;
Structure prediction by ZEFSAII (Michael W. Deem and Ramdas Pophale) SiO2 
 PCOD8010316
Probable space group: P -1
;
_chemical_formula_sum "Si O2"
_cell_formula_units_Z 12
_cell_length_a 6.517336
_cell_length_b 5.169084
_cell_length_c 15.916864
_cell_angle_alpha 100.863143
_cell_angle_beta 109.230961
_cell_angle_gamma 100.686654
_cell_volume 479.182758
_symmetry_space_group_name_H-M "P -1"
_symmetry_group_IT_number 2
_symmetry_cell_setting 'triclinic'
loop_
_space_group_symop_operation_xyz
x,y,z
-x,-y,-z
loop_
_atom_site_type_symbol
_atom_site_label
_atom_site_fract_x
_atom_site_fract_y
_atom_site_fract_z
Si Si1 0.698629 0.862560 0.878720
Si Si2 0.266579 0.036989 0.436737
Si Si3 0.793936 0.104887 0.081222
Si Si4 0.201299 0.322817 0.602966
Si Si5 0.611915 0.580386 0.108237
Si Si6 0.479390 0.926512 0.687845
O O1 0.570457 0.536411 0.849456
O O2 0.600341 0.003188 0.798287
O O3 0.647136 0.006277 0.968377
O O4 0.958497 0.902749 0.908061
O O5 0.053996 0.770439 0.401265
O O6 0.500000 0.000000 0.500000
O O7 0.203820 0.273344 0.499075
O O8 0.320797 0.108375 0.350628
O O9 0.279109 0.094118 0.858783
O O10 0.800103 0.408792 0.130353
O O11 0.287116 0.642785 0.650792
O O12 0.360719 0.161111 0.661038
O O13 0.500000 0.500000 0.000000
#
# Coordination Sequence:
#
# PCOD8010316 Si02
#       6
#     2   2   2   2   2   2
#     4  10  23  39  61  88 121 158 202 250 296 345
#     4   9  21  42  66  89 120 158 196 238 294 360
#     4  10  23  40  61  85 116 163 207 243 294 353
#     4  10  23  41  63  89 121 159 195 237 297 360
#     4  10  21  38  59  82 112 153 201 248 295 349
#     4  11  24  38  60  93 124 154 197 249 295 347
#
# _framework density 25.042636999999999
#
# number of rings (size 3 to 8) (size 9 to 14) (size 15 to 20)
#    0.000    2.000    0.000    2.500    0.000   24.000 
#    0.000    0.000    0.000    0.000    0.000    0.000 
#    0.000    0.000    0.000    0.000    0.000    0.000 
#
# Total GULP energy -148695.116902 kJ/mol
# GULP energy per Si atom -12391.259742 kJ/mol
# Density = 2.498564 g / cm^3
# Si number density = 25.042637 Si / 1000 Ang^3
#
#
#
# Elastic Constant Matrix: (Units=GPa)
#
#
# Indices 1 2 3 4 5 6 
#
# 1 99.8362 46.8515 41.5633 -4.0815 4.4517 32.2720
# 2 46.8515 101.6664 19.6715 -13.5422 4.3604 4.6688
# 3 41.5633 19.6715 85.0801 -17.8302 -9.3202 14.4159
# 4 -4.0815 -13.5422 -17.8302 31.2699 3.4658 -2.9016
# 5 4.4517 4.3604 -9.3202 3.4658 15.2930 -7.4226
# 6 32.2720 4.6688 14.4159 -2.9016 -7.4226 33.8899
#
#
#
# Elastic Compliance Matrix: (Units=1/GPa)
#
#
# Indices 1 2 3 4 5 6 
#
# 1 0.028929 -0.009745 -0.011328 -0.006747 -0.024256 -0.027277
# 2 -0.009745 0.014421 0.001711 0.006431 0.001974 0.007548
# 3 -0.011328 0.001711 0.019441 0.009209 0.015734 0.006516
# 4 -0.006747 0.006431 0.009209 0.039683 -0.000912 0.004819
# 5 -0.024256 0.001974 0.015734 -0.000912 0.100118 0.037984
# 6 -0.027277 0.007548 0.006516 0.004819 0.037984 0.060402
#
#
# Mechanical properties :
#
#
# Convention : Reuss Voigt Hill
#
# Bulk Modulus (GPa) = 41.55068 55.86170 48.70619
# Shear Modulus (GPa) = 16.14249 27.99033 22.06641
#
# Velocity S-wave (km/s) = 2.54165 3.34684 2.97164
# Velocity P-wave (km/s) = 5.02407 6.10657 5.59158
#
# Compressibility (1/GPa) = 0.02406699
#
# Stress axis : x y z
#
# Youngs Moduli (GPa) = 34.56766 69.34237 51.43658
#
# Poissons Ratio (x) = 0.67575 0.58269
# Poissons Ratio (y) = 0.33687 -0.08803
# Poissons Ratio (z) = 0.39160 -0.11867
#
# Static dielectric constant tensor:
#      x y z
#    x 4.003220 -0.612340 0.274400 
#    y -0.612340 3.965110 0.283990 
#    z 0.274400 0.283990 4.328280 
# 
# 
# High freq. dielectric constant tensor:
#      x y z
#    x 2.019290 0.011510 0.000050 
#    y 0.011510 1.990770 -0.012820 
#    z 0.000050 -0.012820 1.981820 
# 
# From -- ./inp_files/581115.got.cif
#   From: 2010.06.25/outbox.cif.g09.slc.cpg/sg2_291_cif.got.tgz:581115.got - 2010.06.27 13:26:56.
