data_PCOD8010860
_publ_section_title
;
Structure prediction by ZEFSAII (Michael W. Deem and Ramdas Pophale) SiO2 
 PCOD8010860
Probable space group: P -1
;
_chemical_formula_sum "Si O2"
_cell_formula_units_Z 16
_cell_length_a 7.726194
_cell_length_b 26.777100
_cell_length_c 13.748403
_cell_angle_alpha 22.438392
_cell_angle_beta 138.336369
_cell_angle_gamma 136.275586
_cell_volume 715.871263
_symmetry_space_group_name_H-M "P -1"
_symmetry_group_IT_number 2
_symmetry_cell_setting 'triclinic'
loop_
_space_group_symop_operation_xyz
x,y,z
-x,-y,-z
loop_
_atom_site_type_symbol
_atom_site_label
_atom_site_fract_x
_atom_site_fract_y
_atom_site_fract_z
Si Si1 0.291009 0.096691 0.355285
Si Si2 0.999789 0.199136 0.591366
Si Si3 0.847611 0.127341 0.979529
Si Si4 0.126674 0.810803 0.852281
Si Si5 0.783862 0.534772 0.770360
Si Si6 0.343226 0.975879 0.119270
Si Si7 0.187768 0.734916 0.801850
Si Si8 0.766954 0.381415 0.599630
O O1 0.565648 0.165730 0.308680
O O2 0.148746 0.181838 0.220950
O O3 0.309106 0.952733 0.669426
O O4 0.122094 0.084406 0.206511
O O5 0.705425 0.132119 0.619248
O O6 0.024741 0.248655 0.400937
O O7 0.088632 0.324640 0.473265
O O8 0.209377 0.100283 0.872919
O O9 0.804815 0.098801 0.900041
O O10 0.826899 0.280827 0.719401
O O11 0.644724 0.024533 0.140929
O O12 0.065373 0.765397 0.798228
O O13 0.276613 0.704673 0.163867
O O14 0.495415 0.555328 0.653564
O O15 0.742529 0.415134 0.891521
O O16 0.000000 0.500000 0.000000
O O17 0.000000 0.500000 0.500000
#
# Coordination Sequence:
#
# PCOD8010860 Si02
#       8
#     2   2   2   2   2   2   2   2
#     4  10  22  40  62  98 129 160 209 274 322 383
#     4  10  22  38  61  89 126 165 213 260 322 382
#     4  10  21  39  63  92 127 159 212 267 321 377
#     4  10  23  38  64  94 127 168 208 267 323 381
#     4  10  22  41  59  87 130 168 209 266 316 384
#     4  10  21  38  64  92 119 169 208 266 319 384
#     4  11  23  40  63  93 127 172 213 261 324 388
#     4  11  23  42  66  93 131 171 216 267 324 388
#
# _framework density 22.350387999999999
#
# number of rings (size 3 to 8) (size 9 to 14) (size 15 to 20)
#    0.000    1.750    1.250    2.625    5.250    2.500 
#    0.000    0.000    0.000    5.250    0.000    0.000 
#    0.000    0.000    0.000    0.000    0.000    0.000 
#
# Total GULP energy -198246.185664 kJ/mol
# GULP energy per Si atom -12390.386604 kJ/mol
# Density = 2.229952 g / cm^3
# Si number density = 22.350388 Si / 1000 Ang^3
#
#
#
# Elastic Constant Matrix: (Units=GPa)
#
#
# Indices 1 2 3 4 5 6 
#
# 1 54.5170 17.6569 24.9837 -3.8613 -4.3581 -5.8436
# 2 17.6569 79.6195 45.4258 -21.2034 -2.4140 6.8691
# 3 24.9837 45.4258 110.1641 -15.0657 5.2834 -3.1117
# 4 -3.8613 -21.2034 -15.0657 41.7698 0.2457 3.1490
# 5 -4.3581 -2.4140 5.2834 0.2457 20.8315 8.2280
# 6 -5.8436 6.8691 -3.1117 3.1490 8.2280 38.8657
#
#
#
# Elastic Compliance Matrix: (Units=1/GPa)
#
#
# Indices 1 2 3 4 5 6 
#
# 1 0.021657 -0.002944 -0.003979 -0.001154 0.004157 0.002671
# 2 -0.002944 0.020010 -0.006980 0.007818 0.005918 -0.006424
# 3 -0.003979 -0.006980 0.013336 0.000713 -0.006200 0.002958
# 4 -0.001154 0.007818 0.000713 0.028364 0.001799 -0.004177
# 5 0.004157 0.005918 -0.006200 0.001799 0.056233 -0.012968
# 6 0.002671 -0.006424 0.002958 -0.004177 -0.012968 0.030587
#
#
# Mechanical properties :
#
#
# Convention : Reuss Voigt Hill
#
# Bulk Modulus (GPa) = 36.76800 46.71482 41.74141
# Shear Modulus (GPa) = 24.14756 30.70902 27.42829
#
# Velocity S-wave (km/s) = 3.29052 3.71075 3.50694
# Velocity P-wave (km/s) = 5.56086 6.26945 5.92576
#
# Compressibility (1/GPa) = 0.02719757
#
# Stress axis : x y z
#
# Youngs Moduli (GPa) = 46.17452 49.97380 74.98357
#
# Poissons Ratio (x) = 0.14713 0.29837
# Poissons Ratio (y) = 0.13594 0.52337
# Poissons Ratio (z) = 0.18374 0.34881
#
# Static dielectric constant tensor:
#      x y z
#    x 3.947920 -0.078580 -0.035000 
#    y -0.078580 4.345120 -0.370990 
#    z -0.035000 -0.370990 4.445670 
# 
# 
# High freq. dielectric constant tensor:
#      x y z
#    x 1.857400 -0.000180 0.006170 
#    y -0.000180 1.891680 -0.012550 
#    z 0.006170 -0.012550 1.888060 
# 
# From -- ./inp_files/509198.got.cif
#   From: 2010.06.25/outbox.cif.g09.slc.cpg/sg2_255_cif.got.tgz:509198.got - 2010.06.27 13:26:56.
