data_PCOD8010728
_publ_section_title
;
Structure prediction by ZEFSAII (Michael W. Deem and Ramdas Pophale) SiO2 
 PCOD8010728
Probable space group: P -1
;
_chemical_formula_sum "Si O2"
_cell_formula_units_Z 16
_cell_length_a 24.259471
_cell_length_b 21.163545
_cell_length_c 5.411616
_cell_angle_alpha 116.982863
_cell_angle_beta 118.056589
_cell_angle_gamma 16.509021
_cell_volume 696.705714
_symmetry_space_group_name_H-M "P -1"
_symmetry_group_IT_number 2
_symmetry_cell_setting 'triclinic'
loop_
_space_group_symop_operation_xyz
x,y,z
-x,-y,-z
loop_
_atom_site_type_symbol
_atom_site_label
_atom_site_fract_x
_atom_site_fract_y
_atom_site_fract_z
Si Si1 0.467288 0.933206 0.987194
Si Si2 0.202355 0.325209 0.881469
Si Si3 0.320022 0.961861 0.420619
Si Si4 0.720420 0.356469 0.552301
Si Si5 0.115443 0.051608 0.336322
Si Si6 0.663259 0.496107 0.178912
Si Si7 0.186992 0.217191 0.277254
Si Si8 0.168875 0.915640 0.707663
O O1 0.432973 0.905133 0.684760
O O2 0.321744 0.158889 0.054582
O O3 0.688350 0.721126 0.061667
O O4 0.406574 0.972302 0.198435
O O5 0.184977 0.288960 0.561375
O O6 0.982979 0.589912 0.950116
O O7 0.193535 0.048495 0.492829
O O8 0.490411 0.739033 0.232377
O O9 0.156147 0.175750 0.281061
O O10 0.627640 0.491274 0.350584
O O11 0.688575 0.305977 0.385627
O O12 0.630296 0.482269 0.843353
O O13 0.948101 0.127683 0.624109
O O14 0.207369 0.917302 0.537589
O O15 0.207460 0.919043 0.043922
O O16 0.878735 0.300774 0.281302
#
# Coordination Sequence:
#
# PCOD8010728 Si02
#       8
#     2   2   2   2   2   2   2   2
#     4  10  21  38  63  87 122 157 201 254 304 366
#     4   9  20  40  62  94 113 152 208 254 307 356
#     4  11  26  38  55  90 125 168 204 246 311 384
#     4   9  18  37  65  90 117 162 213 264 316 366
#     4  10  22  39  60  88 128 164 208 259 313 376
#     4  10  22  39  60  88 128 164 208 259 313 376
#     4  10  21  38  63  87 122 157 201 254 304 366
#     4   9  18  37  65  90 117 162 213 264 316 366
#
# _framework density 22.965216999999999
#
# number of rings (size 3 to 8) (size 9 to 14) (size 15 to 20)
#    0.000    2.250    0.000    1.500    3.500    5.000 
#    2.250    6.250    0.000    0.000    0.000    0.000 
#    0.000    0.000    0.000    0.000    0.000    0.000 
#
# Total GULP energy -198221.577727 kJ/mol
# GULP energy per Si atom -12388.848608 kJ/mol
# Density = 2.291295 g / cm^3
# Si number density = 22.965217 Si / 1000 Ang^3
#
#
#
# Elastic Constant Matrix: (Units=GPa)
#
#
# Indices 1 2 3 4 5 6 
#
# 1 23.1716 -108.4696 150.7156 -32.9986 90.7066 -82.7572
# 2 -108.4696 -119.8086 168.2331 -43.2818 126.1567 -107.1230
# 3 150.7156 168.2331 -7.1802 43.5618 -106.4157 100.2319
# 4 -32.9986 -43.2818 43.5618 14.3754 26.4571 -32.4911
# 5 90.7066 126.1567 -106.4157 26.4571 -36.8809 76.6152
# 6 -82.7572 -107.1230 100.2319 -32.4911 76.6152 -45.9241
#
#
#
# Elastic Compliance Matrix: (Units=1/GPa)
#
#
# Indices 1 2 3 4 5 6 
#
# 1 0.008899 -0.005316 -0.001075 -0.000716 0.002062 -0.002036
# 2 -0.005316 0.014741 0.002389 -0.005632 0.002435 -0.011543
# 3 -0.001075 0.002389 0.006337 0.000981 -0.003117 0.004302
# 4 -0.000716 -0.005632 0.000981 0.038391 0.007430 0.001804
# 5 0.002062 0.002435 -0.003117 0.007430 0.017829 0.008288
# 6 -0.002036 -0.011543 0.004302 0.001804 0.008288 0.030760
#
#
# Mechanical properties :
#
#
# Convention : Reuss Voigt Hill
#
# Bulk Modulus (GPa) = 45.50908 35.23790 40.37349
# Shear Modulus (GPa) = 37.79709 -34.63900 1.57905
#
# Velocity S-wave (km/s) = 4.06130 -3.88793 0.83011
# Velocity P-wave (km/s) = 6.46929 2.18571 4.30549
#
# Compressibility (1/GPa) = 0.02197364
#
# Stress axis : x y z
#
# Youngs Moduli (GPa) = 112.36780 67.84002 157.79865
#
# Poissons Ratio (x) = 0.36063 0.16958
# Poissons Ratio (y) = 0.59733 -0.37695
# Poissons Ratio (z) = 0.12076 -0.16206
#
# Static dielectric constant tensor:
#      x y z
#    x 4.594050 0.153000 -0.106150 
#    y 0.153000 4.357840 -0.019180 
#    z -0.106150 -0.019180 4.037830 
# 
# 
# High freq. dielectric constant tensor:
#      x y z
#    x 1.919090 -0.003930 -0.002450 
#    y -0.003930 1.904720 0.001520 
#    z -0.002450 0.001520 1.897350 
# 
# From -- ./inp_files/120122.got.cif
#   From: 2010.06.25/outbox.cif.g09.slc.cpg/sg2_61_cif.got.tgz:120122.got - 2010.06.27 13:26:56.
