data_PCOD8010368
_publ_section_title
;
Structure prediction by ZEFSAII (Michael W. Deem and Ramdas Pophale) SiO2 
 PCOD8010368
Probable space group: P -1
;
_chemical_formula_sum "Si O2"
_cell_formula_units_Z 16
_cell_length_a 12.619901
_cell_length_b 12.845693
_cell_length_c 12.310337
_cell_angle_alpha 70.989046
_cell_angle_beta 121.874528
_cell_angle_gamma 151.108583
_cell_volume 772.100558
_symmetry_space_group_name_H-M "P -1"
_symmetry_group_IT_number 2
_symmetry_cell_setting 'triclinic'
loop_
_space_group_symop_operation_xyz
x,y,z
-x,-y,-z
loop_
_atom_site_type_symbol
_atom_site_label
_atom_site_fract_x
_atom_site_fract_y
_atom_site_fract_z
Si Si1 0.056765 0.470948 0.642817
Si Si2 0.633850 0.213380 0.670785
Si Si3 0.839228 0.765092 0.986581
Si Si4 0.954810 0.197744 0.541419
Si Si5 0.451325 0.903120 0.843799
Si Si6 0.156681 0.951401 0.901481
Si Si7 0.977342 0.678115 0.708841
Si Si8 0.259411 0.287027 0.813344
O O1 0.814379 0.295055 0.652183
O O2 0.098517 0.382012 0.648164
O O3 0.000000 0.500000 0.500000
O O4 0.324417 0.717641 0.755551
O O5 0.735282 0.412108 0.694035
O O6 0.349376 0.017107 0.535838
O O7 0.629565 0.128350 0.799871
O O8 0.549904 0.552047 0.852494
O O9 0.994407 0.805974 0.974170
O O10 0.822947 0.711512 0.120705
O O11 0.000000 0.000000 0.000000
O O12 0.043336 0.291920 0.435093
O O13 0.060160 0.159524 0.649630
O O14 0.231076 0.799907 0.822367
O O15 0.606716 0.951474 0.998890
O O16 0.982412 0.783568 0.759760
O O17 0.256303 0.152835 0.874113
#
# Coordination Sequence:
#
# PCOD8010368 Si02
#       8
#     2   2   2   2   2   2   2   2
#     4  11  20  36  60  95 125 152 203 257 313 358
#     4  10  21  38  59  92 120 160 203 251 314 354
#     4   9  22  41  59  89 118 160 207 247 299 352
#     4  11  23  38  64  90 124 162 199 255 305 366
#     4  10  23  37  62  94 120 160 202 254 311 360
#     4  11  24  42  63  88 127 165 207 246 299 373
#     4  10  23  42  60  92 126 159 206 252 301 365
#     4  10  24  42  62  89 126 159 206 255 302 354
#
# _framework density 20.722688999999999
#
# number of rings (size 3 to 8) (size 9 to 14) (size 15 to 20)
#    0.000    1.750    3.750    0.750    7.000    6.000 
#    0.000    1.250    0.000    0.000    0.000    0.000 
#    0.000    0.000    0.000    0.000    0.000    0.000 
#
# Total GULP energy -198300.522146 kJ/mol
# GULP energy per Si atom -12393.782634 kJ/mol
# Density = 2.067552 g / cm^3
# Si number density = 20.722689 Si / 1000 Ang^3
#
#
#
# Elastic Constant Matrix: (Units=GPa)
#
#
# Indices 1 2 3 4 5 6 
#
# 1 64.6152 28.6414 37.1132 0.7837 -14.5430 -10.6254
# 2 28.6414 110.6915 40.7914 -2.2693 -10.8515 -3.0228
# 3 37.1132 40.7914 108.8761 -2.5446 8.8699 -11.5245
# 4 0.7837 -2.2693 -2.5446 20.1726 -13.1105 -2.6696
# 5 -14.5430 -10.8515 8.8699 -13.1105 39.4054 6.5589
# 6 -10.6254 -3.0228 -11.5245 -2.6696 6.5589 21.2978
#
#
#
# Elastic Compliance Matrix: (Units=1/GPa)
#
#
# Indices 1 2 3 4 5 6 
#
# 1 0.024031 -0.002042 -0.007689 0.005750 0.011147 0.004826
# 2 -0.002042 0.011655 -0.004298 0.003835 0.005165 -0.002800
# 3 -0.007689 -0.004298 0.014747 -0.003764 -0.009595 0.006016
# 4 0.005750 0.003835 -0.003764 0.066300 0.025794 0.001743
# 5 0.011147 0.005165 -0.009595 0.025794 0.043145 -0.008951
# 6 0.004826 -0.002800 0.006016 0.001743 -0.008951 0.055194
#
#
# Mechanical properties :
#
#
# Convention : Reuss Voigt Hill
#
# Bulk Modulus (GPa) = 44.69584 55.25278 49.97431
# Shear Modulus (GPa) = 19.95309 28.01762 23.98535
#
# Velocity S-wave (km/s) = 3.10637 3.68098 3.40581
# Velocity P-wave (km/s) = 5.87209 6.69231 6.29557
#
# Compressibility (1/GPa) = 0.02237345
#
# Stress axis : x y z
#
# Youngs Moduli (GPa) = 41.61361 85.80064 67.81162
#
# Poissons Ratio (x) = 0.17519 0.52143
# Poissons Ratio (y) = 0.08497 0.29147
# Poissons Ratio (z) = 0.31998 0.36879
#
# Static dielectric constant tensor:
#      x y z
#    x 3.305680 0.157480 -0.159130 
#    y 0.157480 3.716640 -0.081560 
#    z -0.159130 -0.081560 3.587800 
# 
# 
# High freq. dielectric constant tensor:
#      x y z
#    x 1.799620 -0.001400 -0.008280 
#    y -0.001400 1.817670 0.000890 
#    z -0.008280 0.000890 1.807130 
# 
# From -- ./inp_files/69205.got.cif
#   From: 2010.06.25/outbox.cif.g09.slc.cpg/sg2_35_cif.got.tgz:69205.got - 2010.06.27 13:26:56.
