data_PCOD8010419
_publ_section_title
;
Structure prediction by ZEFSAII (Michael W. Deem and Ramdas Pophale) SiO2 
 PCOD8010419
Probable space group: P -1
;
_chemical_formula_sum "Si O2"
_cell_formula_units_Z 16
_cell_length_a 13.395149
_cell_length_b 11.346248
_cell_length_c 11.801504
_cell_angle_alpha 110.518714
_cell_angle_beta 51.418277
_cell_angle_gamma 148.259791
_cell_volume 663.337875
_symmetry_space_group_name_H-M "P -1"
_symmetry_group_IT_number 2
_symmetry_cell_setting 'triclinic'
loop_
_space_group_symop_operation_xyz
x,y,z
-x,-y,-z
loop_
_atom_site_type_symbol
_atom_site_label
_atom_site_fract_x
_atom_site_fract_y
_atom_site_fract_z
Si Si1 0.284864 0.245253 0.498793
Si Si2 0.594116 0.419403 0.760639
Si Si3 0.008791 0.873993 0.759202
Si Si4 0.452068 0.567491 0.840488
Si Si5 0.121375 0.910250 0.241219
Si Si6 0.242259 0.823033 0.564742
Si Si7 0.063613 0.911216 0.036084
Si Si8 0.050577 0.667083 0.405563
O O1 0.500000 0.500000 0.500000
O O2 0.423808 0.283859 0.316579
O O3 0.070942 0.161973 0.578833
O O4 0.136211 0.014300 0.596717
O O5 0.510751 0.469946 0.767023
O O6 0.723930 0.579983 0.839738
O O7 0.783820 0.498334 0.578674
O O8 0.344928 0.124708 0.864663
O O9 0.176381 0.901057 0.697682
O O10 0.993800 0.986194 0.883910
O O11 0.612332 0.794441 0.885741
O O12 0.146697 0.325795 0.982535
O O13 0.157155 0.819046 0.264578
O O14 0.009187 0.793611 0.154584
O O15 0.254399 0.846233 0.425034
O O16 0.013505 0.530658 0.651313
O O17 0.500000 0.000000 0.500000
#
# Coordination Sequence:
#
# PCOD8010419 Si02
#       8
#     2   2   2   2   2   2   2   2
#     4  11  19  33  56  89 121 153 189 244 305 349
#     4  11  21  38  59  87 134 156 190 244 304 366
#     4  10  21  38  60  87 123 157 196 240 297 359
#     4  12  20  33  55  88 125 162 190 229 304 362
#     4  11  22  37  60  86 124 155 196 252 297 360
#     4  10  23  39  61  89 116 159 205 254 290 336
#     4  11  24  37  57  97 128 157 187 240 315 368
#     4  10  23  41  63  90 116 156 208 249 293 347
#
# _framework density 24.120439999999999
#
# number of rings (size 3 to 8) (size 9 to 14) (size 15 to 20)
#    0.000    1.250    6.250    2.625    3.500    1.000 
#    0.000    0.000    0.000    6.750    0.000   18.375 
#    0.000    0.000    0.000    0.000    0.000    0.000 
#
# Total GULP energy -198249.986486 kJ/mol
# GULP energy per Si atom -12390.624155 kJ/mol
# Density = 2.406554 g / cm^3
# Si number density = 24.120440 Si / 1000 Ang^3
#
#
#
# Elastic Constant Matrix: (Units=GPa)
#
#
# Indices 1 2 3 4 5 6 
#
# 1 128.6783 42.5960 33.2229 -12.3053 -6.8415 -1.6523
# 2 42.5960 52.8140 5.0015 -21.5197 -2.1902 18.3759
# 3 33.2229 5.0015 61.6713 -25.8219 -10.1416 4.7269
# 4 -12.3053 -21.5197 -25.8219 39.0134 7.4902 -7.8994
# 5 -6.8415 -2.1902 -10.1416 7.4902 18.3800 -16.0096
# 6 -1.6523 18.3759 4.7269 -7.8994 -16.0096 40.6288
#
#
#
# Elastic Compliance Matrix: (Units=1/GPa)
#
#
# Indices 1 2 3 4 5 6 
#
# 1 0.021604 -0.030992 -0.015642 -0.020659 0.023141 0.021817
# 2 -0.030992 0.077026 0.026882 0.050295 -0.051266 -0.049648
# 3 -0.015642 0.026882 0.035696 0.032278 -0.008180 -0.013895
# 4 -0.020659 0.050295 0.032278 0.069572 -0.036958 -0.028379
# 5 0.023141 -0.051266 -0.008180 -0.036958 0.126445 0.067719
# 6 0.021817 -0.049648 -0.013895 -0.028379 0.067719 0.070739
#
#
# Mechanical properties :
#
#
# Convention : Reuss Voigt Hill
#
# Bulk Modulus (GPa) = 10.54594 44.97828 27.76211
# Shear Modulus (GPa) = 10.58892 30.42732 20.50812
#
# Velocity S-wave (km/s) = 2.09751 3.55558 2.91905
# Velocity P-wave (km/s) = 3.20121 5.96188 4.78497
#
# Compressibility (1/GPa) = 0.09482318
#
# Stress axis : x y z
#
# Youngs Moduli (GPa) = 46.28800 12.98259 28.01454
#
# Poissons Ratio (x) = 0.40236 0.43819
# Poissons Ratio (y) = 1.43456 -0.75309
# Poissons Ratio (z) = 0.72402 -0.34900
#
# Static dielectric constant tensor:
#      x y z
#    x 4.495370 0.203570 0.148920 
#    y 0.203570 4.553820 -0.310540 
#    z 0.148920 -0.310540 4.268010 
# 
# 
# High freq. dielectric constant tensor:
#      x y z
#    x 1.955190 0.024310 0.018600 
#    y 0.024310 1.953430 -0.023830 
#    z 0.018600 -0.023830 1.936920 
# 
# From -- ./inp_files/456466.got.cif
#   From: 2010.06.25/outbox.cif.g09.slc.cpg/sg2_229_cif.got.tgz:456466.got - 2010.06.27 13:26:56.
