data_PCOD8010481
_publ_section_title
;
Structure prediction by ZEFSAII (Michael W. Deem and Ramdas Pophale) SiO2 
 PCOD8010481
Probable space group: P -1
;
_chemical_formula_sum "Si O2"
_cell_formula_units_Z 16
_cell_length_a 18.232521
_cell_length_b 21.951020
_cell_length_c 9.473130
_cell_angle_alpha 140.374970
_cell_angle_beta 37.081125
_cell_angle_gamma 161.180043
_cell_volume 735.220501
_symmetry_space_group_name_H-M "P -1"
_symmetry_group_IT_number 2
_symmetry_cell_setting 'triclinic'
loop_
_space_group_symop_operation_xyz
x,y,z
-x,-y,-z
loop_
_atom_site_type_symbol
_atom_site_label
_atom_site_fract_x
_atom_site_fract_y
_atom_site_fract_z
Si Si1 0.032610 0.430553 0.225218
Si Si2 0.224529 0.290777 0.170458
Si Si3 0.561072 0.341334 0.806050
Si Si4 0.838280 0.997219 0.006587
Si Si5 0.436654 0.635323 0.452016
Si Si6 0.738710 0.049772 0.982508
Si Si7 0.961068 0.063503 0.441539
Si Si8 0.778813 0.381927 0.032375
O O1 0.000000 0.500000 0.500000
O O2 0.798190 0.203931 0.158949
O O3 0.223791 0.490285 0.115244
O O4 0.133184 0.536990 0.113961
O O5 0.397972 0.320644 0.983956
O O6 0.399018 0.497780 0.254743
O O7 0.075576 0.180620 0.058674
O O8 0.045593 0.178221 0.377925
O O9 0.666972 0.380732 0.559553
O O10 0.390880 0.147586 0.795441
O O11 0.792737 0.045995 0.047000
O O12 0.853683 0.899174 0.740522
O O13 0.717478 0.843762 0.391745
O O14 0.312138 0.582950 0.693631
O O15 0.919845 0.113659 0.716183
O O16 0.453458 0.847228 0.019966
O O17 0.000000 0.500000 0.000000
#
# Coordination Sequence:
#
# PCOD8010481 Si02
#       8
#     2   2   2   2   2   2   2   2
#     4  12  27  48  69  95 126 169 225 278 323 385
#     4  11  21  37  64  99 136 178 211 255 318 385
#     4  11  21  41  63  97 135 169 219 266 310 384
#     4  11  20  40  64  99 140 172 210 260 314 392
#     4  11  21  38  66  96 132 176 211 261 321 382
#     4  11  25  44  69  96 130 174 211 270 336 378
#     4  10  21  38  60  96 138 170 211 254 316 389
#     4  11  26  49  67  94 129 165 225 276 325 389
#
# _framework density 21.762179
#
# number of rings (size 3 to 8) (size 9 to 14) (size 15 to 20)
#    0.000    1.000    3.750    3.750    1.750    1.000 
#    2.250    1.875    0.000    0.000    0.000    0.000 
#    0.000    0.000    0.000    0.000    0.000    0.000 
#
# Total GULP energy -198266.708820 kJ/mol
# GULP energy per Si atom -12391.669301 kJ/mol
# Density = 2.171265 g / cm^3
# Si number density = 21.762179 Si / 1000 Ang^3
#
#
#
# Elastic Constant Matrix: (Units=GPa)
#
#
# Indices 1 2 3 4 5 6 
#
# 1 86.2828 36.5642 45.5726 -9.8776 22.2779 9.9298
# 2 36.5642 110.8562 54.2764 6.9147 7.7774 -2.1528
# 3 45.5726 54.2764 95.7201 8.3795 27.1221 -21.1521
# 4 -9.8776 6.9147 8.3795 35.1269 -8.4935 6.0111
# 5 22.2779 7.7774 27.1221 -8.4935 27.6515 -5.9250
# 6 9.9298 -2.1528 -21.1521 6.0111 -5.9250 41.8702
#
#
#
# Elastic Compliance Matrix: (Units=1/GPa)
#
#
# Indices 1 2 3 4 5 6 
#
# 1 0.023534 -0.002233 -0.012446 0.011086 -0.005805 -0.014396
# 2 -0.002233 0.013734 -0.009335 0.001002 0.006831 -0.002658
# 3 -0.012446 -0.009335 0.033667 -0.018240 -0.021901 0.018999
# 4 0.011086 0.001002 -0.018240 0.042847 0.018556 -0.015318
# 5 -0.005805 0.006831 -0.021901 0.018556 0.065516 -0.002729
# 6 -0.014396 -0.002658 0.018999 -0.015318 -0.002729 0.038572
#
#
# Mechanical properties :
#
#
# Convention : Reuss Voigt Hill
#
# Bulk Modulus (GPa) = 43.65311 62.85394 53.25353
# Shear Modulus (GPa) = 18.27922 31.35945 24.81934
#
# Velocity S-wave (km/s) = 2.90134 3.80018 3.38076
# Velocity P-wave (km/s) = 5.59700 6.94262 6.30581
#
# Compressibility (1/GPa) = 0.02290788
#
# Stress axis : x y z
#
# Youngs Moduli (GPa) = 42.49131 72.80939 29.70290
#
# Poissons Ratio (x) = 0.16256 0.36967
# Poissons Ratio (y) = 0.09487 0.27729
# Poissons Ratio (z) = 0.52884 0.67970
#
# Static dielectric constant tensor:
#      x y z
#    x 3.918470 -0.105150 -0.052720 
#    y -0.105150 4.317870 -0.261930 
#    z -0.052720 -0.261930 3.248780 
# 
# 
# High freq. dielectric constant tensor:
#      x y z
#    x 1.854380 -0.007010 0.021850 
#    y -0.007010 1.869350 -0.012930 
#    z 0.021850 -0.012930 1.849680 
# 
# From -- ./inp_files/338183.got.cif
#   From: 2010.06.25/outbox.cif.g09.slc.cpg/sg2_170_cif.got.tgz:338183.got - 2010.06.27 13:26:56.
