data_PCOD8010743
_publ_section_title
;
Structure prediction by ZEFSAII (Michael W. Deem and Ramdas Pophale) SiO2 
 PCOD8010743
Probable space group: P -1
;
_chemical_formula_sum "Si O2"
_cell_formula_units_Z 14
_cell_length_a 7.832283
_cell_length_b 14.327509
_cell_length_c 11.682120
_cell_angle_alpha 30.483707
_cell_angle_beta 106.688958
_cell_angle_gamma 97.160033
_cell_volume 616.325151
_symmetry_space_group_name_H-M "P -1"
_symmetry_group_IT_number 2
_symmetry_cell_setting 'triclinic'
loop_
_space_group_symop_operation_xyz
x,y,z
-x,-y,-z
loop_
_atom_site_type_symbol
_atom_site_label
_atom_site_fract_x
_atom_site_fract_y
_atom_site_fract_z
Si Si1 0.011964 0.413579 0.967685
Si Si2 0.577217 0.774359 0.738015
Si Si3 0.507670 0.356878 0.754380
Si Si4 0.889716 0.714389 0.239560
Si Si5 0.969382 0.258577 0.522725
Si Si6 0.098917 0.851021 0.927505
Si Si7 0.539262 0.452730 0.225888
O O1 0.942620 0.585329 0.683280
O O2 0.891708 0.266720 0.065856
O O3 0.214060 0.283266 0.120979
O O4 0.000000 0.500000 0.000000
O O5 0.556030 0.707194 0.674084
O O6 0.500000 0.000000 0.500000
O O7 0.478327 0.646006 0.933361
O O8 0.500000 0.500000 0.500000
O O9 0.329403 0.270909 0.825996
O O10 0.689610 0.184584 0.951995
O O11 0.538044 0.485382 0.730490
O O12 0.000000 0.500000 0.500000
O O13 0.939904 0.812819 0.260801
O O14 0.961631 0.797912 0.052168
O O15 0.753977 0.353784 0.383465
O O16 0.016063 0.072096 0.649132
#
# Coordination Sequence:
#
# PCOD8010743 Si02
#       7
#     2   2   2   2   2   2   2
#     4  11  23  41  62  91 134 171 209 268 321 378
#     4  10  21  38  63  90 119 164 214 258 312 374
#     4  12  23  40  68  96 129 171 212 261 322 385
#     4  12  21  44  69  92 131 169 213 265 323 382
#     4  11  23  42  66  93 131 173 213 267 326 379
#     4  12  25  42  68  98 128 171 218 265 322 384
#     4  10  21  39  62  90 125 165 208 260 318 374
#
# _framework density 22.715281999999998
#
# number of rings (size 3 to 8) (size 9 to 14) (size 15 to 20)
#    0.000    0.857    4.286    3.000    0.000    2.286 
#    0.000    1.429    0.000    0.000    0.000    0.000 
#    0.000    0.000    0.000    0.000    0.000    0.000 
#
# Total GULP energy -173488.879100 kJ/mol
# GULP energy per Si atom -12392.062793 kJ/mol
# Density = 2.266358 g / cm^3
# Si number density = 22.715282 Si / 1000 Ang^3
#
#
#
# Elastic Constant Matrix: (Units=GPa)
#
#
# Indices 1 2 3 4 5 6 
#
# 1 116.6348 18.2605 36.8440 -5.4342 16.2219 6.7195
# 2 18.2605 142.8757 62.0626 -5.3921 3.4225 2.6389
# 3 36.8440 62.0626 110.4320 -25.4416 12.0630 -10.5249
# 4 -5.4342 -5.3921 -25.4416 43.9005 -0.9176 0.7977
# 5 16.2219 3.4225 12.0630 -0.9176 6.0339 -2.5685
# 6 6.7195 2.6389 -10.5249 0.7977 -2.5685 31.8318
#
#
#
# Elastic Compliance Matrix: (Units=1/GPa)
#
#
# Indices 1 2 3 4 5 6 
#
# 1 0.015083 -0.000471 -0.000715 0.000648 -0.041632 -0.006757
# 2 -0.000471 0.009937 -0.007250 -0.002815 0.008695 -0.002349
# 3 -0.000715 -0.007250 0.019117 0.009415 -0.028833 0.004510
# 4 0.000648 -0.002815 0.009415 0.027648 -0.014178 0.001373
# 5 -0.041632 0.008695 -0.028833 -0.014178 0.339397 0.026276
# 6 -0.006757 -0.002349 0.004510 0.001373 0.026276 0.036613
#
#
# Mechanical properties :
#
#
# Convention : Reuss Voigt Hill
#
# Bulk Modulus (GPa) = 36.67540 67.14188 51.90864
# Shear Modulus (GPa) = 10.55398 33.20493 21.87945
#
# Velocity S-wave (km/s) = 2.15784 3.82748 3.10692
# Velocity P-wave (km/s) = 4.73172 7.01106 5.98098
#
# Compressibility (1/GPa) = 0.02726624
#
# Stress axis : x y z
#
# Youngs Moduli (GPa) = 66.29982 100.63026 52.31014
#
# Poissons Ratio (x) = 0.04737 0.03739
# Poissons Ratio (y) = 0.03121 0.37924
# Poissons Ratio (z) = 0.04739 0.72956
#
# Static dielectric constant tensor:
#      x y z
#    x 4.336640 0.203410 0.003280 
#    y 0.203410 4.649000 0.145160 
#    z 0.003280 0.145160 4.148150 
# 
# 
# High freq. dielectric constant tensor:
#      x y z
#    x 1.891300 0.004340 0.017150 
#    y 0.004340 1.912690 0.002430 
#    z 0.017150 0.002430 1.888670 
# 
# From -- ./inp_files/327998.got.cif
#   From: 2010.06.25/outbox.cif.g09.slc.cpg/sg2_164_cif.got.tgz:327998.got - 2010.06.27 13:26:56.
