data_PCOD8010942
_publ_section_title
;
Structure prediction by ZEFSAII (Michael W. Deem and Ramdas Pophale) SiO2 
 PCOD8010942
Probable space group: P -1
;
_chemical_formula_sum "Si O2"
_cell_formula_units_Z 14
_cell_length_a 14.644673
_cell_length_b 26.849258
_cell_length_c 14.628729
_cell_angle_alpha 159.612686
_cell_angle_beta 160.169669
_cell_angle_gamma 20.255379
_cell_volume 597.400788
_symmetry_space_group_name_H-M "P -1"
_symmetry_group_IT_number 2
_symmetry_cell_setting 'triclinic'
loop_
_space_group_symop_operation_xyz
x,y,z
-x,-y,-z
loop_
_atom_site_type_symbol
_atom_site_label
_atom_site_fract_x
_atom_site_fract_y
_atom_site_fract_z
Si Si1 0.624744 0.262736 0.318084
Si Si2 0.761286 0.524756 0.238855
Si Si3 0.316249 0.942055 0.819534
Si Si4 0.348717 0.238993 0.623235
Si Si5 0.938658 0.476740 0.007980
Si Si6 0.018097 0.194433 0.842000
Si Si7 0.019418 0.024533 0.955667
O O1 0.779050 0.104024 0.255141
O O2 0.710655 0.400991 0.664334
O O3 0.260956 0.346267 0.128094
O O4 0.767688 0.169332 0.198620
O O5 0.654115 0.682324 0.343849
O O6 0.000000 0.500000 0.500000
O O7 0.500000 0.500000 0.000000
O O8 0.920410 0.382784 0.069338
O O9 0.259240 0.834276 0.503163
O O10 0.094762 0.130858 0.910661
O O11 0.667619 0.905343 0.090208
O O12 0.160678 0.141767 0.266041
O O13 0.210243 0.363452 0.793224
O O14 0.690873 0.103031 0.733438
O O15 0.000000 0.500000 0.000000
O O16 0.000000 0.000000 0.000000
#
# Coordination Sequence:
#
# PCOD8010942 Si02
#       7
#     2   2   2   2   2   2   2
#     4  12  24  41  71  98 135 171 232 272 343 408
#     4  12  26  42  65  96 139 182 227 268 329 411
#     4  10  21  38  65  89 125 166 210 272 321 382
#     4  12  26  45  73 102 144 185 229 286 354 411
#     4  12  25  46  72 101 132 177 231 290 347 410
#     4  10  22  41  60  92 128 165 216 268 319 375
#     4  12  26  47  70 104 142 180 226 290 356 416
#
# _framework density 23.434854000000001
#
# number of rings (size 3 to 8) (size 9 to 14) (size 15 to 20)
#    0.000    0.571    0.000    8.571    4.000    0.000 
#    0.000    0.000    0.000    0.000    0.000    0.000 
#    0.000    0.000    0.000    0.000    0.000    0.000 
#
# Total GULP energy -173482.498479 kJ/mol
# GULP energy per Si atom -12391.607034 kJ/mol
# Density = 2.338151 g / cm^3
# Si number density = 23.434854 Si / 1000 Ang^3
#
#
#
# Elastic Constant Matrix: (Units=GPa)
#
#
# Indices 1 2 3 4 5 6 
#
# 1 69.6990 8.9619 13.4115 -19.2337 14.3544 13.5805
# 2 8.9619 71.0327 21.4101 -0.6592 -3.6642 2.2745
# 3 13.4115 21.4101 90.7431 -7.9206 4.5551 -6.4279
# 4 -19.2337 -0.6592 -7.9206 32.0438 -0.5790 -7.9402
# 5 14.3544 -3.6642 4.5551 -0.5790 36.0023 14.2934
# 6 13.5805 2.2745 -6.4279 -7.9402 14.2934 49.3923
#
#
#
# Elastic Compliance Matrix: (Units=1/GPa)
#
#
# Indices 1 2 3 4 5 6 
#
# 1 0.019674 -0.002346 -0.001158 0.010941 -0.007111 -0.001635
# 2 -0.002346 0.015805 -0.003944 -0.002512 0.003841 -0.002111
# 3 -0.001158 -0.003944 0.012797 0.003207 -0.002905 0.003522
# 4 0.010941 -0.002512 0.003207 0.039850 -0.006715 0.005874
# 5 -0.007111 0.003841 -0.002905 -0.006715 0.035176 -0.009858
# 6 -0.001635 -0.002111 0.003522 0.005874 -0.009858 0.025049
#
#
# Mechanical properties :
#
#
# Convention : Reuss Voigt Hill
#
# Bulk Modulus (GPa) = 29.95784 35.44908 32.70346
# Shear Modulus (GPa) = 28.67408 36.00042 32.33725
#
# Velocity S-wave (km/s) = 3.50175 3.92368 3.71870
# Velocity P-wave (km/s) = 5.40008 5.97382 5.69418
#
# Compressibility (1/GPa) = 0.03338024
#
# Stress axis : x y z
#
# Youngs Moduli (GPa) = 50.82773 63.27041 78.14279
#
# Poissons Ratio (x) = 0.14844 0.09050
# Poissons Ratio (y) = 0.11924 0.30819
# Poissons Ratio (z) = 0.05887 0.24954
#
# Static dielectric constant tensor:
#      x y z
#    x 4.370400 0.172690 0.061360 
#    y 0.172690 4.638500 0.201490 
#    z 0.061360 0.201490 4.624370 
# 
# 
# High freq. dielectric constant tensor:
#      x y z
#    x 1.934890 0.012690 0.007950 
#    y 0.012690 1.937820 -0.003310 
#    z 0.007950 -0.003310 1.941370 
# 
# From -- ./inp_files/535739.got.cif
#   From: 2010.06.25/outbox.cif.g09.slc.cpg/sg2_268_cif.got.tgz:535739.got - 2010.06.27 13:26:56.
