data_PCOD8010337
_publ_section_title
;
Structure prediction by ZEFSAII (Michael W. Deem and Ramdas Pophale) SiO2 
 PCOD8010337
Probable space group: P -1
;
_chemical_formula_sum "Si O2"
_cell_formula_units_Z 16
_cell_length_a 9.261726
_cell_length_b 16.011237
_cell_length_c 15.885353
_cell_angle_alpha 26.396990
_cell_angle_beta 87.900458
_cell_angle_gamma 106.100818
_cell_volume 749.397387
_symmetry_space_group_name_H-M "P -1"
_symmetry_group_IT_number 2
_symmetry_cell_setting 'triclinic'
loop_
_space_group_symop_operation_xyz
x,y,z
-x,-y,-z
loop_
_atom_site_type_symbol
_atom_site_label
_atom_site_fract_x
_atom_site_fract_y
_atom_site_fract_z
Si Si1 0.423226 0.231365 0.329190
Si Si2 0.445427 0.629971 0.618659
Si Si3 0.569307 0.847205 0.128565
Si Si4 0.277445 0.848252 0.437337
Si Si5 0.273378 0.248444 0.641325
Si Si6 0.829361 0.964385 0.861332
Si Si7 0.059594 0.697326 0.748093
Si Si8 0.381143 0.620394 0.972145
O O1 0.465010 0.198232 0.452255
O O2 0.576112 0.270498 0.223779
O O3 0.194192 0.981705 0.531098
O O4 0.469258 0.492983 0.093601
O O5 0.315227 0.685933 0.533720
O O6 0.630646 0.738024 0.459295
O O7 0.297098 0.322454 0.914973
O O8 0.374290 0.535273 0.409377
O O9 0.700305 0.894500 0.162388
O O10 0.708165 0.955390 0.946312
O O11 0.500000 0.000000 0.000000
O O12 0.172221 0.710219 0.653868
O O13 0.136308 0.852461 0.378772
O O14 0.496682 0.143917 0.176803
O O15 0.039059 0.075188 0.790385
O O16 0.000000 0.500000 0.000000
O O17 0.854254 0.596692 0.805906
#
# Coordination Sequence:
#
# PCOD8010337 Si02
#       8
#     2   2   2   2   2   2   2   2
#     4  10  21  38  59  85 118 168 207 264 310 366
#     4  11  23  40  61  89 129 163 204 257 314 360
#     4  10  22  44  69  94 127 160 197 248 306 367
#     4  11  24  40  61  91 126 165 213 261 311 367
#     4  10  24  41  65  97 126 161 202 246 306 373
#     4  11  24  41  64  95 127 160 206 251 303 375
#     4  11  23  37  58  89 119 165 222 263 311 370
#     4  10  21  39  59  83 121 164 214 260 315 360
#
# _framework density 21.350487000000001
#
# number of rings (size 3 to 8) (size 9 to 14) (size 15 to 20)
#    0.000    1.500    1.250    3.000    1.750    6.500 
#    0.000    0.000    0.000    0.000    0.000    0.000 
#    0.000    0.000    0.000    0.000    0.000    0.000 
#
# Total GULP energy -198393.477417 kJ/mol
# GULP energy per Si atom -12399.592339 kJ/mol
# Density = 2.130189 g / cm^3
# Si number density = 21.350487 Si / 1000 Ang^3
#
#
#
# Elastic Constant Matrix: (Units=GPa)
#
#
# Indices 1 2 3 4 5 6 
#
# 1 131.3520 49.3370 45.8588 -5.0978 0.9200 -2.2080
# 2 49.3370 83.6978 30.1215 2.6746 -1.4569 3.6682
# 3 45.8588 30.1215 89.9606 7.9950 -1.0192 -1.5147
# 4 -5.0978 2.6746 7.9950 16.9331 8.1875 6.9100
# 5 0.9200 -1.4569 -1.0192 8.1875 42.9678 -3.8965
# 6 -2.2080 3.6682 -1.5147 6.9100 -3.8965 33.9946
#
#
#
# Elastic Compliance Matrix: (Units=1/GPa)
#
#
# Indices 1 2 3 4 5 6 
#
# 1 0.011649 -0.005367 -0.004890 0.008007 -0.002142 -0.000755
# 2 -0.005367 0.016162 -0.002431 -0.002907 0.001024 -0.001493
# 3 -0.004890 -0.002431 0.015491 -0.011056 0.002787 0.003202
# 4 0.008007 -0.002907 -0.011056 0.083565 -0.018154 -0.018726
# 5 -0.002142 0.001024 0.002787 -0.018154 0.027488 0.006715
# 6 -0.000755 -0.001493 0.003202 -0.018726 0.006715 0.034247
#
#
# Mechanical properties :
#
#
# Convention : Reuss Voigt Hill
#
# Bulk Modulus (GPa) = 55.78323 61.73833 58.76078
# Shear Modulus (GPa) = 22.73197 30.75863 26.74530
#
# Velocity S-wave (km/s) = 3.26652 3.79971 3.54316
# Velocity P-wave (km/s) = 6.35696 6.94477 6.65736
#
# Compressibility (1/GPa) = 0.01792653
#
# Stress axis : x y z
#
# Youngs Moduli (GPa) = 85.84137 61.87176 64.55468
#
# Poissons Ratio (x) = 0.33207 0.31567
# Poissons Ratio (y) = 0.46072 0.15692
# Poissons Ratio (z) = 0.41976 0.15040
#
# Static dielectric constant tensor:
#      x y z
#    x 3.861400 0.045880 0.019340 
#    y 0.045880 3.870100 0.077740 
#    z 0.019340 0.077740 3.953770 
# 
# 
# High freq. dielectric constant tensor:
#      x y z
#    x 1.844280 -0.000620 0.007260 
#    y -0.000620 1.835730 0.003370 
#    z 0.007260 0.003370 1.838460 
# 
# From -- ./inp_files/47569.got.cif
#   From: 2010.06.25/outbox.cif.g09.slc.cpg/sg2_24_cif.got.tgz:47569.got - 2010.06.27 13:26:56.
