data_PCOD8010402
_publ_section_title
;
Structure prediction by ZEFSAII (Michael W. Deem and Ramdas Pophale) SiO2 
 PCOD8010402
Probable space group: P -1
;
_chemical_formula_sum "Si O2"
_cell_formula_units_Z 16
_cell_length_a 19.657270
_cell_length_b 16.013115
_cell_length_c 5.108378
_cell_angle_alpha 104.724964
_cell_angle_beta 63.121049
_cell_angle_gamma 146.445828
_cell_volume 767.855052
_symmetry_space_group_name_H-M "P -1"
_symmetry_group_IT_number 2
_symmetry_cell_setting 'triclinic'
loop_
_space_group_symop_operation_xyz
x,y,z
-x,-y,-z
loop_
_atom_site_type_symbol
_atom_site_label
_atom_site_fract_x
_atom_site_fract_y
_atom_site_fract_z
Si Si1 0.921174 0.650320 0.412449
Si Si2 0.530592 0.428738 0.390938
Si Si3 0.693883 0.095733 0.492803
Si Si4 0.233056 0.456238 0.923921
Si Si5 0.145604 0.600272 0.716071
Si Si6 0.229441 0.932752 0.162395
Si Si7 0.604715 0.246181 0.316131
Si Si8 0.533082 0.731598 0.139714
O O1 0.875055 0.620311 0.171957
O O2 0.898597 0.530034 0.449923
O O3 0.077864 0.824794 0.296592
O O4 0.839176 0.631599 0.745473
O O5 0.500000 0.500000 0.500000
O O6 0.687800 0.556655 0.311355
O O7 0.436187 0.291004 0.660507
O O8 0.527748 0.388793 0.069674
O O9 0.775262 0.263299 0.523860
O O10 0.753488 0.084775 0.586835
O O11 0.526041 0.937474 0.685909
O O12 0.733989 0.108118 0.137743
O O13 0.344895 0.640794 0.910706
O O14 0.266840 0.694855 0.791985
O O15 0.000000 0.500000 0.000000
O O16 0.320596 0.102362 0.093681
O O17 0.561640 0.272126 0.647798
#
# Coordination Sequence:
#
# PCOD8010402 Si02
#       8
#     2   2   2   2   2   2   2   2
#     4  11  23  38  59  82 120 162 201 242 294 355
#     4  11  21  38  66  96 120 143 186 247 299 349
#     4  11  23  38  58  83 116 158 211 257 302 335
#     4  10  21  38  60  86 115 154 196 237 298 362
#     4  11  22  38  57  85 122 158 206 260 306 339
#     4  11  22  39  61  83 116 161 205 240 288 356
#     4   9  21  39  59  84 118 160 203 250 297 351
#     4  10  21  39  62  89 119 156 196 234 293 359
#
# _framework density 20.837267000000001
#
# number of rings (size 3 to 8) (size 9 to 14) (size 15 to 20)
#    0.000    1.500    1.250    6.000    1.750    4.500 
#    0.000    3.750    0.000    4.500    0.000    0.000 
#    0.000    0.000    0.000    0.000    0.000    0.000 
#
# Total GULP energy -198246.212403 kJ/mol
# GULP energy per Si atom -12390.388275 kJ/mol
# Density = 2.078984 g / cm^3
# Si number density = 20.837267 Si / 1000 Ang^3
#
#
#
# Elastic Constant Matrix: (Units=GPa)
#
#
# Indices 1 2 3 4 5 6 
#
# 1 101.3376 44.8275 31.6470 -11.7990 -11.8634 -6.4504
# 2 44.8275 67.2659 22.9770 -11.8043 -13.9296 12.7749
# 3 31.6470 22.9770 66.3224 -5.8752 -0.1130 5.0114
# 4 -11.7990 -11.8043 -5.8752 33.4357 8.6543 -7.0039
# 5 -11.8634 -13.9296 -0.1130 8.6543 36.1648 -1.2903
# 6 -6.4504 12.7749 5.0114 -7.0039 -1.2903 29.0010
#
#
#
# Elastic Compliance Matrix: (Units=1/GPa)
#
#
# Indices 1 2 3 4 5 6 
#
# 1 0.017564 -0.011211 -0.005000 0.003310 0.001012 0.010554
# 2 -0.011211 0.027360 -0.003029 0.000725 0.006193 -0.013572
# 3 -0.005000 -0.003029 0.018790 0.000615 -0.003002 -0.003010
# 4 0.003310 0.000725 0.000615 0.034943 -0.006693 0.008452
# 5 0.001012 0.006193 -0.003002 -0.006693 0.031883 -0.002182
# 6 0.010554 -0.013572 -0.003010 0.008452 -0.002182 0.045271
#
#
# Mechanical properties :
#
#
# Convention : Reuss Voigt Hill
#
# Bulk Modulus (GPa) = 39.62836 48.20320 43.91578
# Shear Modulus (GPa) = 22.45152 28.75190 25.60171
#
# Velocity S-wave (km/s) = 3.28604 3.71864 3.50901
# Velocity P-wave (km/s) = 5.78418 6.45144 6.12690
#
# Compressibility (1/GPa) = 0.02523445
#
# Stress axis : x y z
#
# Youngs Moduli (GPa) = 56.93304 36.55032 53.22115
#
# Poissons Ratio (x) = 0.40978 0.26609
# Poissons Ratio (y) = 0.63830 0.16119
# Poissons Ratio (z) = 0.28464 0.11070
#
# Static dielectric constant tensor:
#      x y z
#    x 3.721820 0.112560 -0.009710 
#    y 0.112560 3.789090 -0.267440 
#    z -0.009710 -0.267440 3.855270 
# 
# 
# High freq. dielectric constant tensor:
#      x y z
#    x 1.803260 0.017780 0.008160 
#    y 0.017780 1.795100 -0.017710 
#    z 0.008160 -0.017710 1.822200 
# 
# From -- ./inp_files/110553.got.cif
#   From: 2010.06.25/outbox.cif.g09.slc.cpg/sg2_56_cif.got.tgz:110553.got - 2010.06.27 13:26:56.
