data_PCOD8010748
_publ_section_title
;
Structure prediction by ZEFSAII (Michael W. Deem and Ramdas Pophale) SiO2 
 PCOD8010748
Probable space group: P -1
;
_chemical_formula_sum "Si O2"
_cell_formula_units_Z 16
_cell_length_a 11.155717
_cell_length_b 16.376717
_cell_length_c 13.782012
_cell_angle_alpha 140.353056
_cell_angle_beta 49.722552
_cell_angle_gamma 150.505340
_cell_volume 788.717911
_symmetry_space_group_name_H-M "P -1"
_symmetry_group_IT_number 2
_symmetry_cell_setting 'triclinic'
loop_
_space_group_symop_operation_xyz
x,y,z
-x,-y,-z
loop_
_atom_site_type_symbol
_atom_site_label
_atom_site_fract_x
_atom_site_fract_y
_atom_site_fract_z
Si Si1 0.972623 0.627656 0.833998
Si Si2 0.688105 0.332585 0.401518
Si Si3 0.031150 0.690404 0.073641
Si Si4 0.461521 0.655843 0.896339
Si Si5 0.443722 0.019487 0.868404
Si Si6 0.037464 0.062489 0.648472
Si Si7 0.585480 0.460088 0.735165
Si Si8 0.594297 0.699893 0.647233
O O1 0.041644 0.536565 0.660486
O O2 0.740475 0.549370 0.833815
O O3 0.212571 0.870014 0.926263
O O4 0.911025 0.566696 0.922588
O O5 0.720448 0.461202 0.582829
O O6 0.528562 0.282012 0.349186
O O7 0.562377 0.120565 0.315265
O O8 0.297645 0.796316 0.044488
O O9 0.834572 0.529369 0.111754
O O10 0.069369 0.864668 0.212843
O O11 0.570921 0.598901 0.838603
O O12 0.540487 0.712106 0.794587
O O13 0.573869 0.857223 0.070332
O O14 0.321761 0.233553 0.684172
O O15 0.000000 0.000000 0.500000
O O16 0.884150 0.876548 0.631601
O O17 0.500000 0.500000 0.500000
#
# Coordination Sequence:
#
# PCOD8010748 Si02
#       8
#     2   2   2   2   2   2   2   2
#     4  10  23  38  66  83 125 172 202 241 303 372
#     4  10  21  39  66  85 122 156 208 242 307 364
#     4  11  20  40  61  92 124 158 209 249 302 365
#     4  11  24  34  63  95 124 153 202 262 305 348
#     4  10  21  38  63  91 118 159 203 253 301 357
#     4  11  20  37  64  89 122 157 202 251 303 361
#     4  11  22  42  60  92 124 164 205 247 303 368
#     4  12  20  37  63  95 119 151 199 260 306 348
#
# _framework density 20.286087999999999
#
# number of rings (size 3 to 8) (size 9 to 14) (size 15 to 20)
#    0.750    0.500    3.750    3.375    0.000    2.500 
#    0.000    1.250    0.000    1.500    0.000    0.000 
#    0.000    0.000    0.000    0.000    0.000    0.000 
#
# Total GULP energy -198228.066970 kJ/mol
# GULP energy per Si atom -12389.254186 kJ/mol
# Density = 2.023992 g / cm^3
# Si number density = 20.286088 Si / 1000 Ang^3
#
#
#
# Elastic Constant Matrix: (Units=GPa)
#
#
# Indices 1 2 3 4 5 6 
#
# 1 76.5403 39.3128 43.3081 4.0069 -4.9683 10.2804
# 2 39.3128 123.4906 39.1608 -13.6310 -0.2005 -1.3287
# 3 43.3081 39.1608 66.8495 -2.0575 -9.0815 1.0059
# 4 4.0069 -13.6310 -2.0575 25.4673 -10.9842 -5.9085
# 5 -4.9683 -0.2005 -9.0815 -10.9842 38.8848 9.7887
# 6 10.2804 -1.3287 1.0059 -5.9085 9.7887 29.7387
#
#
#
# Elastic Compliance Matrix: (Units=1/GPa)
#
#
# Indices 1 2 3 4 5 6 
#
# 1 0.025262 -0.004958 -0.013655 -0.010266 -0.000257 -0.010447
# 2 -0.004958 0.011652 -0.003474 0.007543 -0.000244 0.003931
# 3 -0.013655 -0.003474 0.026672 0.005400 0.005234 0.003013
# 4 -0.010266 0.007543 0.005400 0.053069 0.012422 0.010158
# 5 -0.000257 -0.000244 0.005234 0.012422 0.032512 -0.008333
# 6 -0.010447 0.003931 0.003013 0.010158 -0.008333 0.042073
#
#
# Mechanical properties :
#
#
# Convention : Reuss Voigt Hill
#
# Bulk Modulus (GPa) = 51.51352 56.71599 54.11476
# Shear Modulus (GPa) = 20.67100 28.49141 24.58121
#
# Velocity S-wave (km/s) = 3.19560 3.75171 3.48476
# Velocity P-wave (km/s) = 6.25016 6.84002 6.55173
#
# Compressibility (1/GPa) = 0.01941238
#
# Stress axis : x y z
#
# Youngs Moduli (GPa) = 39.58556 85.82012 37.49198
#
# Poissons Ratio (x) = 0.42548 0.51196
# Poissons Ratio (y) = 0.19626 0.13025
# Poissons Ratio (z) = 0.54054 0.29815
#
# Static dielectric constant tensor:
#      x y z
#    x 3.595710 -0.028470 -0.313630 
#    y -0.028470 3.816850 -0.079200 
#    z -0.313630 -0.079200 3.733810 
# 
# 
# High freq. dielectric constant tensor:
#      x y z
#    x 1.776440 0.004710 -0.029590 
#    y 0.004710 1.793530 -0.003710 
#    z -0.029590 -0.003710 1.786120 
# 
# From -- ./inp_files/436945.got.cif
#   From: 2010.06.25/outbox.cif.g09.slc.cpg/sg2_219_cif.got.tgz:436945.got - 2010.06.27 13:26:56.
