data_PCOD8010893
_publ_section_title
;
Structure prediction by ZEFSAII (Michael W. Deem and Ramdas Pophale) SiO2 
 PCOD8010893
Probable space group: P -1
;
_chemical_formula_sum "Si O2"
_cell_formula_units_Z 16
_cell_length_a 8.164410
_cell_length_b 14.520184
_cell_length_c 9.074442
_cell_angle_alpha 106.686882
_cell_angle_beta 68.871124
_cell_angle_gamma 136.916097
_cell_volume 684.938566
_symmetry_space_group_name_H-M "P -1"
_symmetry_group_IT_number 2
_symmetry_cell_setting 'triclinic'
loop_
_space_group_symop_operation_xyz
x,y,z
-x,-y,-z
loop_
_atom_site_type_symbol
_atom_site_label
_atom_site_fract_x
_atom_site_fract_y
_atom_site_fract_z
Si Si1 0.711167 0.390965 0.525213
Si Si2 0.620081 0.870548 0.655503
Si Si3 0.193451 0.423321 0.649178
Si Si4 0.660561 0.912416 0.986557
Si Si5 0.029166 0.863571 0.507662
Si Si6 0.303284 0.663819 0.172689
Si Si7 0.499510 0.568127 0.895958
Si Si8 0.006770 0.144388 0.165641
O O1 0.624750 0.260674 0.408653
O O2 0.652039 0.466398 0.485264
O O3 0.596945 0.342380 0.706060
O O4 0.000000 0.500000 0.500000
O O5 0.539029 0.875068 0.847100
O O6 0.800463 0.848580 0.578342
O O7 0.747226 0.011938 0.606285
O O8 0.382849 0.478202 0.746034
O O9 0.067924 0.275080 0.582671
O O10 0.981208 0.416599 0.762730
O O11 0.861845 0.907493 0.899475
O O12 0.466669 0.817358 0.137304
O O13 0.806514 0.065674 0.060994
O O14 0.135433 0.893173 0.651604
O O15 0.343432 0.602860 0.001233
O O16 0.790079 0.695401 0.838589
O O17 0.500000 0.500000 0.000000
#
# Coordination Sequence:
#
# PCOD8010893 Si02
#       8
#     2   2   2   2   2   2   2   2
#     4  10  22  40  64  92 126 173 210 258 317 381
#     4  10  21  38  64  95 125 165 211 266 320 371
#     4  11  24  42  64  93 132 171 213 260 318 385
#     4   9  18  37  65  85 123 165 208 255 317 375
#     4  10  22  37  65  92 128 164 211 266 317 374
#     4  10  22  42  64  90 127 171 208 261 322 378
#     4  11  25  38  64  96 127 165 210 264 318 382
#     4   9  19  36  57  92 121 157 205 262 311 365
#
# _framework density 23.359756999999998
#
# number of rings (size 3 to 8) (size 9 to 14) (size 15 to 20)
#    0.000    2.000    0.000    3.375    5.250    4.000 
#    0.000    6.250    0.000    0.000    0.000    0.000 
#    0.000    0.000    0.000    0.000    0.000    0.000 
#
# Total GULP energy -198280.192156 kJ/mol
# GULP energy per Si atom -12392.512010 kJ/mol
# Density = 2.330659 g / cm^3
# Si number density = 23.359757 Si / 1000 Ang^3
#
#
#
# Elastic Constant Matrix: (Units=GPa)
#
#
# Indices 1 2 3 4 5 6 
#
# 1 37.4039 28.3834 23.9410 -3.7003 18.2474 -0.5549
# 2 28.3834 178.2402 77.7066 1.0712 31.8232 -0.4931
# 3 23.9410 77.7066 139.7958 -12.6459 42.3788 9.0405
# 4 -3.7003 1.0712 -12.6459 44.7274 3.2456 14.7510
# 5 18.2474 31.8232 42.3788 3.2456 38.0608 -1.5842
# 6 -0.5549 -0.4931 9.0405 14.7510 -1.5842 29.5123
#
#
#
# Elastic Compliance Matrix: (Units=1/GPa)
#
#
# Indices 1 2 3 4 5 6 
#
# 1 0.037527 -0.003651 0.001766 0.006282 -0.017606 -0.003981
# 2 -0.003651 0.008071 -0.004317 -0.002618 0.000144 0.002705
# 3 0.001766 -0.004317 0.015491 0.009128 -0.015688 -0.010189
# 4 0.006282 -0.002618 0.009128 0.033217 -0.014655 -0.020111
# 5 -0.017606 0.000144 -0.015688 -0.014655 0.053923 0.014697
# 6 -0.003981 0.002705 -0.010189 -0.020111 0.014697 0.047816
#
#
# Mechanical properties :
#
#
# Convention : Reuss Voigt Hill
#
# Bulk Modulus (GPa) = 20.54024 68.38910 44.46467
# Shear Modulus (GPa) = 22.25411 37.48737 29.87074
#
# Velocity S-wave (km/s) = 3.08988 4.01032 3.57981
# Velocity P-wave (km/s) = 4.64133 7.12626 6.01355
#
# Compressibility (1/GPa) = 0.04868493
#
# Stress axis : x y z
#
# Youngs Moduli (GPa) = 26.64736 123.89723 64.55504
#
# Poissons Ratio (x) = 0.45235 -0.11398
# Poissons Ratio (y) = 0.09729 0.27867
# Poissons Ratio (z) = -0.04705 0.53483
#
# Static dielectric constant tensor:
#      x y z
#    x 3.909240 -0.090810 0.353450 
#    y -0.090810 4.509640 0.126700 
#    z 0.353450 0.126700 4.742410 
# 
# 
# High freq. dielectric constant tensor:
#      x y z
#    x 1.886970 0.001060 0.013460 
#    y 0.001060 1.935350 0.000720 
#    z 0.013460 0.000720 1.939270 
# 
# From -- ./inp_files/208252.got.cif
#   From: 2010.06.25/outbox.cif.g09.slc.cpg/sg2_105_cif.got.tgz:208252.got - 2010.06.27 13:26:56.
