data_PCOD8010736
_publ_section_title
;
Structure prediction by ZEFSAII (Michael W. Deem and Ramdas Pophale) SiO2 
 PCOD8010736
Probable space group: P -1
;
_chemical_formula_sum "Si O2"
_cell_formula_units_Z 16
_cell_length_a 21.820364
_cell_length_b 19.676712
_cell_length_c 12.293573
_cell_angle_alpha 26.747786
_cell_angle_beta 34.592909
_cell_angle_gamma 18.796596
_cell_volume 756.435745
_symmetry_space_group_name_H-M "P -1"
_symmetry_group_IT_number 2
_symmetry_cell_setting 'triclinic'
loop_
_space_group_symop_operation_xyz
x,y,z
-x,-y,-z
loop_
_atom_site_type_symbol
_atom_site_label
_atom_site_fract_x
_atom_site_fract_y
_atom_site_fract_z
Si Si1 0.418597 0.375440 0.237894
Si Si2 0.472854 0.456344 0.269294
Si Si3 0.170522 0.406646 0.516340
Si Si4 0.133235 0.800273 0.440005
Si Si5 0.891967 0.338780 0.115372
Si Si6 0.880414 0.665914 0.094634
Si Si7 0.855479 0.874861 0.632649
Si Si8 0.249198 0.229896 0.420739
O O1 0.384404 0.493023 0.235448
O O2 0.217278 0.531682 0.271436
O O3 0.571817 0.063476 0.472144
O O4 0.488912 0.410338 0.993523
O O5 0.323397 0.603521 0.373242
O O6 0.674505 0.145879 0.444851
O O7 0.255941 0.234484 0.750097
O O8 0.272307 0.210946 0.544431
O O9 0.942246 0.643003 0.510180
O O10 0.206736 0.656604 0.657083
O O11 0.982913 0.862619 0.512671
O O12 0.030828 0.080704 0.203419
O O13 0.750656 0.599233 0.872001
O O14 0.002851 0.328577 0.040698
O O15 0.016876 0.367784 0.290633
O O16 0.772973 0.854937 0.874646
#
# Coordination Sequence:
#
# PCOD8010736 Si02
#       8
#     2   2   2   2   2   2   2   2
#     4  11  25  41  55  93 127 155 206 253 287 366
#     4  11  25  39  61  88 126 163 199 244 307 363
#     4  10  21  38  63  89 116 160 199 250 305 343
#     4  10  22  41  63  88 126 159 197 253 308 357
#     4   9  20  40  63  92 119 155 205 254 299 359
#     4   9  19  39  65  89 119 153 209 255 293 358
#     4  10  21  41  63  89 121 160 201 253 303 360
#     4  10  22  39  65  87 119 160 205 249 299 358
#
# _framework density 21.151828999999999
#
# number of rings (size 3 to 8) (size 9 to 14) (size 15 to 20)
#    0.000    2.000    0.000    2.625    7.000    1.000 
#    0.000   15.625    0.000    0.000    0.000    0.000 
#    0.000    0.000    0.000    0.000    0.000    0.000 
#
# Total GULP energy -198299.064512 kJ/mol
# GULP energy per Si atom -12393.691532 kJ/mol
# Density = 2.110369 g / cm^3
# Si number density = 21.151829 Si / 1000 Ang^3
#
#
#
# Elastic Constant Matrix: (Units=GPa)
#
#
# Indices 1 2 3 4 5 6 
#
# 1 85.4433 29.8794 37.4541 9.9448 -15.8303 6.3345
# 2 29.8794 84.4784 54.0270 16.4427 -4.8069 10.9159
# 3 37.4541 54.0270 133.2442 0.4130 -6.8937 6.2010
# 4 9.9448 16.4427 0.4130 38.0677 5.7649 -1.3835
# 5 -15.8303 -4.8069 -6.8937 5.7649 39.2567 3.3699
# 6 6.3345 10.9159 6.2010 -1.3835 3.3699 30.2433
#
#
#
# Elastic Compliance Matrix: (Units=1/GPa)
#
#
# Indices 1 2 3 4 5 6 
#
# 1 0.015656 -0.001979 -0.003123 -0.004272 0.006393 -0.002832
# 2 -0.001979 0.019463 -0.006931 -0.008342 0.002091 -0.005804
# 3 -0.003123 -0.006931 0.011085 0.003856 -0.000826 0.001151
# 4 -0.004272 -0.008342 0.003856 0.032243 -0.007266 0.005400
# 5 0.006393 0.002091 -0.000826 -0.007266 0.029707 -0.005567
# 6 -0.002832 -0.005804 0.001151 0.005400 -0.005567 0.036384
#
#
# Mechanical properties :
#
#
# Convention : Reuss Voigt Hill
#
# Bulk Modulus (GPa) = 45.17096 60.65412 52.91254
# Shear Modulus (GPa) = 28.41174 33.63390 31.02282
#
# Velocity S-wave (km/s) = 3.66898 3.99195 3.83387
# Velocity P-wave (km/s) = 6.27300 7.07004 6.68341
#
# Compressibility (1/GPa) = 0.02213812
#
# Stress axis : x y z
#
# Youngs Moduli (GPa) = 63.87188 51.38052 90.21338
#
# Poissons Ratio (x) = 0.10169 0.28170
# Poissons Ratio (y) = 0.12641 0.62528
# Poissons Ratio (z) = 0.19944 0.35612
#
# Static dielectric constant tensor:
#      x y z
#    x 4.005870 0.237890 0.095470 
#    y 0.237890 3.578940 0.387620 
#    z 0.095470 0.387620 4.269190 
# 
# 
# High freq. dielectric constant tensor:
#      x y z
#    x 1.838920 0.023590 -0.004530 
#    y 0.023590 1.808550 0.019230 
#    z -0.004530 0.019230 1.840370 
# 
# From -- ./inp_files/456016.got.cif
#   From: 2010.06.25/outbox.cif.g09.slc.cpg/sg2_229_cif.got.tgz:456016.got - 2010.06.27 13:26:56.
