data_PCOD8010699
_publ_section_title
;
Structure prediction by ZEFSAII (Michael W. Deem and Ramdas Pophale) SiO2 
 PCOD8010699
Probable space group: P -1
;
_chemical_formula_sum "Si O2"
_cell_formula_units_Z 14
_cell_length_a 23.053589
_cell_length_b 8.370647
_cell_length_c 9.317047
_cell_angle_alpha 130.834462
_cell_angle_beta 139.765790
_cell_angle_gamma 30.420929
_cell_volume 587.976736
_symmetry_space_group_name_H-M "P -1"
_symmetry_group_IT_number 2
_symmetry_cell_setting 'triclinic'
loop_
_space_group_symop_operation_xyz
x,y,z
-x,-y,-z
loop_
_atom_site_type_symbol
_atom_site_label
_atom_site_fract_x
_atom_site_fract_y
_atom_site_fract_z
Si Si1 0.679654 0.803682 0.116454
Si Si2 0.951659 0.284417 0.168516
Si Si3 0.102504 0.421310 0.037270
Si Si4 0.193468 0.730721 0.441623
Si Si5 0.357255 0.851953 0.313405
Si Si6 0.649967 0.287379 0.480075
Si Si7 0.388395 0.253773 0.750276
O O1 0.803939 0.504829 0.081688
O O2 0.655830 0.679735 0.128138
O O3 0.718670 0.965755 0.345734
O O4 0.543400 0.056140 0.912910
O O5 0.949967 0.486364 0.172427
O O6 0.064182 0.116605 0.409106
O O7 0.000000 0.000000 0.000000
O O8 0.134149 0.601388 0.253843
O O9 0.239817 0.047773 0.088981
O O10 0.000000 0.500000 0.000000
O O11 0.289598 0.606120 0.412475
O O12 0.285711 0.597413 0.679656
O O13 0.490508 0.545214 0.303043
O O14 0.322309 0.753809 0.320861
O O15 0.379274 0.044052 0.534053
#
# Coordination Sequence:
#
# PCOD8010699 Si02
#       7
#     2   2   2   2   2   2   2
#     4  10  22  42  61  92 130 160 207 258 311 367
#     4  10  23  40  62  92 122 166 206 256 309 367
#     4  10  21  40  61  92 125 163 214 254 308 366
#     4  10  22  39  63  92 121 168 204 256 309 371
#     4   9  20  38  65  91 123 169 202 258 304 372
#     4  10  21  38  62  95 128 156 213 252 315 361
#     4   9  21  40  65  91 123 167 204 257 307 363
#
# _framework density 23.810466000000002
#
# number of rings (size 3 to 8) (size 9 to 14) (size 15 to 20)
#    0.000    2.286    0.000    0.857    6.000    2.857 
#   12.857    0.000    0.000    0.000    0.000    0.000 
#    0.000    0.000    0.000    0.000    0.000    0.000 
#
# Total GULP energy -173504.577038 kJ/mol
# GULP energy per Si atom -12393.184074 kJ/mol
# Density = 2.375627 g / cm^3
# Si number density = 23.810466 Si / 1000 Ang^3
#
#
#
# Elastic Constant Matrix: (Units=GPa)
#
#
# Indices 1 2 3 4 5 6 
#
# 1 169.9658 68.1362 48.2618 -35.0833 1.8194 -8.9940
# 2 68.1362 134.0909 55.8245 -49.0865 -21.6772 -17.1697
# 3 48.2618 55.8245 75.2967 -46.0198 -15.8199 2.6515
# 4 -35.0833 -49.0865 -46.0198 58.5660 14.9875 -14.8829
# 5 1.8194 -21.6772 -15.8199 14.9875 32.1972 -13.7117
# 6 -8.9940 -17.1697 2.6515 -14.8829 -13.7117 38.8113
#
#
#
# Elastic Compliance Matrix: (Units=1/GPa)
#
#
# Indices 1 2 3 4 5 6 
#
# 1 0.008443 -0.003821 -0.003669 0.000011 -0.005457 -0.001406
# 2 -0.003821 0.019861 -0.000966 0.014696 0.014202 0.018619
# 3 -0.003669 -0.000966 0.030467 0.020770 0.008028 0.007442
# 4 0.000011 0.014696 0.020770 0.050574 0.008218 0.027382
# 5 -0.005457 0.014202 0.008028 0.008218 0.052138 0.026041
# 6 -0.001406 0.018619 0.007442 0.027382 0.026041 0.052868
#
#
# Mechanical properties :
#
#
# Convention : Reuss Voigt Hill
#
# Bulk Modulus (GPa) = 23.88922 80.42204 52.15563
# Shear Modulus (GPa) = 20.39013 39.72363 30.05688
#
# Velocity S-wave (km/s) = 2.92952 4.08895 3.55680
# Velocity P-wave (km/s) = 4.63656 7.49279 6.23055
#
# Compressibility (1/GPa) = 0.04185989
#
# Stress axis : x y z
#
# Youngs Moduli (GPa) = 118.43504 50.35024 32.82220
#
# Poissons Ratio (x) = 0.19239 0.12042
# Poissons Ratio (y) = 0.45254 0.03170
# Poissons Ratio (z) = 0.43453 0.04863
#
# Static dielectric constant tensor:
#      x y z
#    x 4.488130 0.451300 -0.424230 
#    y 0.451300 4.633230 -0.861780 
#    z -0.424230 -0.861780 4.441360 
# 
# 
# High freq. dielectric constant tensor:
#      x y z
#    x 1.946510 0.006830 -0.002420 
#    y 0.006830 1.938980 -0.033130 
#    z -0.002420 -0.033130 1.928690 
# 
# From -- ./inp_files/246031.got.cif
#   From: 2010.06.25/outbox.cif.g09.slc.cpg/sg2_124_cif.got.tgz:246031.got - 2010.06.27 13:26:56.
