data_PCOD8010135
_publ_section_title
;
Structure prediction by ZEFSAII (Michael W. Deem and Ramdas Pophale) SiO2 
 PCOD8010135
Probable space group: P -1
;
_chemical_formula_sum "Si O2"
_cell_formula_units_Z 16
_cell_length_a 9.040992
_cell_length_b 12.138420
_cell_length_c 11.419298
_cell_angle_alpha 93.063295
_cell_angle_beta 62.426466
_cell_angle_gamma 49.703503
_cell_volume 722.742652
_symmetry_space_group_name_H-M "P -1"
_symmetry_group_IT_number 2
_symmetry_cell_setting 'triclinic'
loop_
_space_group_symop_operation_xyz
x,y,z
-x,-y,-z
loop_
_atom_site_type_symbol
_atom_site_label
_atom_site_fract_x
_atom_site_fract_y
_atom_site_fract_z
Si Si1 0.780795 0.937407 0.982647
Si Si2 0.769707 0.156582 0.858932
Si Si3 0.450656 0.955613 0.399883
Si Si4 0.286666 0.817080 0.382077
Si Si5 0.736290 0.523117 0.834444
Si Si6 0.202322 0.262173 0.212721
Si Si7 0.962130 0.791308 0.140736
Si Si8 0.913018 0.308305 0.528370
O O1 0.806944 0.807519 0.902737
O O2 0.855283 0.994065 0.863780
O O3 0.995950 0.827309 0.000582
O O4 0.492877 0.105400 0.147778
O O5 0.633958 0.217307 0.785988
O O6 0.013951 0.118405 0.769205
O O7 0.569717 0.315729 0.029965
O O8 0.458227 0.816474 0.396500
O O9 0.684654 0.875871 0.229370
O O10 0.500000 0.000000 0.500000
O O11 0.182512 0.121584 0.453854
O O12 0.291661 0.688452 0.421585
O O13 0.000000 0.000000 0.500000
O O14 0.857640 0.583770 0.797464
O O15 0.800992 0.438872 0.680262
O O16 0.843976 0.400225 0.898189
O O17 0.974671 0.347262 0.392037
#
# Coordination Sequence:
#
# PCOD8010135 Si02
#       8
#     2   2   2   2   2   2   2   2
#     4  10  22  39  65  92 126 166 216 269 309 369
#     4  11  23  43  64  95 128 168 218 252 325 382
#     4  11  21  37  62  98 124 157 217 267 310 364
#     4  10  21  37  66  93 122 171 208 263 311 382
#     4  11  24  39  65  94 131 172 204 262 324 384
#     4  10  22  40  63  94 127 168 214 259 319 381
#     4  12  22  39  64  97 126 161 213 271 309 370
#     4  11  20  41  65  89 126 173 213 251 316 387
#
# _framework density 22.137896000000001
#
# number of rings (size 3 to 8) (size 9 to 14) (size 15 to 20)
#    0.000    1.250    3.750    3.375    3.500    0.500 
#    0.000    0.000    0.000    1.500    0.000    0.000 
#    0.000    0.000    0.000    0.000    0.000    0.000 
#
# Total GULP energy -198227.663778 kJ/mol
# GULP energy per Si atom -12389.228986 kJ/mol
# Density = 2.208751 g / cm^3
# Si number density = 22.137896 Si / 1000 Ang^3
#
#
#
# Elastic Constant Matrix: (Units=GPa)
#
#
# Indices 1 2 3 4 5 6 
#
# 1 153.0513 48.5870 20.7662 -9.0392 -2.7034 34.7275
# 2 48.5870 88.6089 15.6287 -23.7088 8.9784 26.5663
# 3 20.7662 15.6287 76.5917 -3.6646 2.8379 12.3999
# 4 -9.0392 -23.7088 -3.6646 34.9215 6.3748 -0.0093
# 5 -2.7034 8.9784 2.8379 6.3748 26.4637 -7.4295
# 6 34.7275 26.5663 12.3999 -0.0093 -7.4295 43.1749
#
#
#
# Elastic Compliance Matrix: (Units=1/GPa)
#
#
# Indices 1 2 3 4 5 6 
#
# 1 0.008791 -0.003542 -0.001006 -0.000432 0.001071 -0.004418
# 2 -0.003542 0.024766 -0.000025 0.019121 -0.017698 -0.015424
# 3 -0.001006 -0.000025 0.014144 0.001771 -0.003096 -0.003770
# 4 -0.000432 0.019121 0.001771 0.045731 -0.022153 -0.015729
# 5 0.001071 -0.017698 -0.003096 -0.022153 0.055305 0.020429
# 6 -0.004418 -0.015424 -0.003770 -0.015729 0.020429 0.040801
#
#
# Mechanical properties :
#
#
# Convention : Reuss Voigt Hill
#
# Bulk Modulus (GPa) = 25.93786 54.24619 40.09203
# Shear Modulus (GPa) = 23.63667 36.46335 30.05001
#
# Velocity S-wave (km/s) = 3.27112 4.06285 3.68829
# Velocity P-wave (km/s) = 5.09989 6.82393 6.02390
#
# Compressibility (1/GPa) = 0.03855368
#
# Stress axis : x y z
#
# Youngs Moduli (GPa) = 113.75805 40.37767 70.70197
#
# Poissons Ratio (x) = 0.14303 0.07110
# Poissons Ratio (y) = 0.40297 0.00180
# Poissons Ratio (z) = 0.11440 0.00103
#
# Static dielectric constant tensor:
#      x y z
#    x 3.994160 0.470050 -0.322070 
#    y 0.470050 3.832550 -0.101490 
#    z -0.322070 -0.101490 4.106420 
# 
# 
# High freq. dielectric constant tensor:
#      x y z
#    x 1.877730 0.032030 -0.001420 
#    y 0.032030 1.849230 -0.014170 
#    z -0.001420 -0.014170 1.870200 
# 
# From -- ./inp_files/262025.got.cif
#   From: 2010.06.25/outbox.cif.g09.slc.cpg/sg2_132_cif.got.tgz:262025.got - 2010.06.27 13:26:56.
