data_PCOD8010682
_publ_section_title
;
Structure prediction by ZEFSAII (Michael W. Deem and Ramdas Pophale) SiO2 
 PCOD8010682
Probable space group: P -1
;
_chemical_formula_sum "Si O2"
_cell_formula_units_Z 16
_cell_length_a 8.379408
_cell_length_b 9.579997
_cell_length_c 12.891748
_cell_angle_alpha 77.858430
_cell_angle_beta 74.704438
_cell_angle_gamma 47.081402
_cell_volume 730.330586
_symmetry_space_group_name_H-M "P -1"
_symmetry_group_IT_number 2
_symmetry_cell_setting 'triclinic'
loop_
_space_group_symop_operation_xyz
x,y,z
-x,-y,-z
loop_
_atom_site_type_symbol
_atom_site_label
_atom_site_fract_x
_atom_site_fract_y
_atom_site_fract_z
Si Si1 0.844632 0.651075 0.796759
Si Si2 0.106627 0.913966 0.744617
Si Si3 0.753190 0.743724 0.287415
Si Si4 0.740800 0.992556 0.655195
Si Si5 0.462548 0.352669 0.029081
Si Si6 0.276578 0.046958 0.559670
Si Si7 0.885973 0.355075 0.089421
Si Si8 0.152162 0.067845 0.907627
O O1 0.678655 0.613855 0.849650
O O2 0.069928 0.480353 0.727356
O O3 0.907306 0.677306 0.895262
O O4 0.723814 0.840070 0.721610
O O5 0.292460 0.889218 0.647643
O O6 0.204222 0.707053 0.799875
O O7 0.038506 0.043314 0.838029
O O8 0.886350 0.013337 0.698176
O O9 0.513464 0.807403 0.336932
O O10 0.730499 0.861310 0.173373
O O11 0.846002 0.773459 0.369363
O O12 0.845453 0.922961 0.531793
O O13 0.677296 0.129132 0.025304
O O14 0.500000 0.500000 0.000000
O O15 0.310450 0.421281 0.941095
O O16 0.500000 0.000000 0.500000
O O17 0.960841 0.226931 0.993399
#
# Coordination Sequence:
#
# PCOD8010682 Si02
#       8
#     2   2   2   2   2   2   2   2
#     4  11  24  41  59  92 125 159 213 248 302 366
#     4  10  21  38  62  93 122 155 207 254 300 368
#     4  10  21  40  64  88 124 160 205 254 302 372
#     4  10  21  41  66  90 119 161 200 263 313 354
#     4  12  24  37  60  88 123 169 205 247 298 357
#     4   9  20  38  68  91 116 160 202 253 318 368
#     4  11  24  40  59  87 130 165 202 256 294 363
#     4  11  22  40  59  87 129 167 204 243 305 360
#
# _framework density 21.907886000000001
#
# number of rings (size 3 to 8) (size 9 to 14) (size 15 to 20)
#    0.000    1.500    3.750    1.125    0.000    3.000 
#    0.000    0.000    0.000   12.750    0.000    0.000 
#    0.000    0.000    0.000    0.000    0.000    0.000 
#
# Total GULP energy -198218.343772 kJ/mol
# GULP energy per Si atom -12388.646486 kJ/mol
# Density = 2.185802 g / cm^3
# Si number density = 21.907886 Si / 1000 Ang^3
#
#
#
# Elastic Constant Matrix: (Units=GPa)
#
#
# Indices 1 2 3 4 5 6 
#
# 1 81.9230 31.1273 49.1410 0.3893 -10.4613 4.7721
# 2 31.1273 68.2183 19.3468 11.1583 8.6419 -3.5881
# 3 49.1410 19.3468 110.6542 4.4645 9.2486 4.7751
# 4 0.3893 11.1583 4.4645 15.1392 2.0759 0.5101
# 5 -10.4613 8.6419 9.2486 2.0759 40.3105 -6.6901
# 6 4.7721 -3.5881 4.7751 0.5101 -6.6901 24.3046
#
#
#
# Elastic Compliance Matrix: (Units=1/GPa)
#
#
# Indices 1 2 3 4 5 6 
#
# 1 0.023346 -0.010712 -0.009595 0.008839 0.009808 -0.001766
# 2 -0.010712 0.022708 0.001840 -0.016215 -0.006637 0.003608
# 3 -0.009595 0.001840 0.013758 -0.004247 -0.006181 -0.002159
# 4 0.008839 -0.016215 -0.004247 0.078912 0.001948 -0.004415
# 5 0.009808 -0.006637 -0.006181 0.001948 0.031233 0.006865
# 6 -0.001766 0.003608 -0.002159 -0.004415 0.006865 0.044430
#
#
# Mechanical properties :
#
#
# Convention : Reuss Voigt Hill
#
# Bulk Modulus (GPa) = 43.71224 51.11395 47.41309
# Shear Modulus (GPa) = 19.30905 26.69621 23.00263
#
# Velocity S-wave (km/s) = 2.97202 3.49458 3.24384
# Velocity P-wave (km/s) = 5.63677 6.29800 5.97654
#
# Compressibility (1/GPa) = 0.02287689
#
# Stress axis : x y z
#
# Youngs Moduli (GPa) = 42.83441 44.03792 72.68720
#
# Poissons Ratio (x) = 0.47176 0.69743
# Poissons Ratio (y) = 0.45886 -0.13377
# Poissons Ratio (z) = 0.41099 -0.08105
#
# Static dielectric constant tensor:
#      x y z
#    x 4.174850 0.125780 0.093710 
#    y 0.125780 3.738910 -0.184370 
#    z 0.093710 -0.184370 4.507060 
# 
# 
# High freq. dielectric constant tensor:
#      x y z
#    x 1.867760 0.014880 -0.002590 
#    y 0.014880 1.829770 -0.012570 
#    z -0.002590 -0.012570 1.870120 
# 
# From -- ./inp_files/294012.got.cif
#   From: 2010.06.25/outbox.cif.g09.slc.cpg/sg2_148_cif.got.tgz:294012.got - 2010.06.27 13:26:56.
