data_PCOD8010564
_publ_section_title
;
Structure prediction by ZEFSAII (Michael W. Deem and Ramdas Pophale) SiO2 
 PCOD8010564
Probable space group: P -1
;
_chemical_formula_sum "Si O2"
_cell_formula_units_Z 16
_cell_length_a 12.298941
_cell_length_b 16.845340
_cell_length_c 8.842421
_cell_angle_alpha 131.833730
_cell_angle_beta 39.936351
_cell_angle_gamma 106.763684
_cell_volume 775.178948
_symmetry_space_group_name_H-M "P -1"
_symmetry_group_IT_number 2
_symmetry_cell_setting 'triclinic'
loop_
_space_group_symop_operation_xyz
x,y,z
-x,-y,-z
loop_
_atom_site_type_symbol
_atom_site_label
_atom_site_fract_x
_atom_site_fract_y
_atom_site_fract_z
Si Si1 0.931939 0.340291 0.353876
Si Si2 0.845351 0.506275 0.055748
Si Si3 0.506603 0.028859 0.857005
Si Si4 0.433961 0.289881 0.202406
Si Si5 0.826591 0.279498 0.699705
Si Si6 0.129625 0.050175 0.237015
Si Si7 0.069158 0.109596 0.728842
Si Si8 0.841228 0.572995 0.604142
O O1 0.824313 0.308007 0.560766
O O2 0.790969 0.475579 0.614026
O O3 0.132453 0.335087 0.191997
O O4 0.971248 0.248581 0.057408
O O5 0.646379 0.624389 0.455102
O O6 0.811498 0.389855 0.957654
O O7 0.000000 0.500000 0.000000
O O8 0.938878 0.505825 0.793461
O O9 0.728486 0.957056 0.480087
O O10 0.419798 0.170596 0.102588
O O11 0.358201 0.992396 0.883632
O O12 0.500000 0.000000 0.000000
O O13 0.313683 0.353688 0.262805
O O14 0.652275 0.255025 0.897833
O O15 0.020363 0.160055 0.378969
O O16 0.090246 0.100560 0.514449
O O17 0.064918 0.948371 0.149043
#
# Coordination Sequence:
#
# PCOD8010564 Si02
#       8
#     2   2   2   2   2   2   2   2
#     4  10  22  41  62  87 126 167 201 255 315 368
#     4   9  19  34  60  89 112 161 204 255 306 351
#     4  10  21  38  61  92 124 155 205 262 305 365
#     4  11  21  38  62  92 123 161 209 259 310 364
#     4  11  22  39  59  92 131 159 207 256 306 381
#     4  10  21  40  63  91 125 158 211 263 303 364
#     4  10  22  40  64  91 122 165 207 257 312 365
#     4   9  21  40  62  89 122 161 212 254 306 378
#
# _framework density 20.640395000000002
#
# number of rings (size 3 to 8) (size 9 to 14) (size 15 to 20)
#    0.000    2.000    1.250    2.625    7.000    1.000 
#    2.250    1.250    0.000    0.000    0.000    0.000 
#    0.000    0.000    0.000    0.000    0.000    0.000 
#
# Total GULP energy -198297.069486 kJ/mol
# GULP energy per Si atom -12393.566843 kJ/mol
# Density = 2.059342 g / cm^3
# Si number density = 20.640395 Si / 1000 Ang^3
#
#
#
# Elastic Constant Matrix: (Units=GPa)
#
#
# Indices 1 2 3 4 5 6 
#
# 1 84.1365 42.6678 31.1007 2.0635 -11.6119 10.6001
# 2 42.6678 122.1052 27.1668 5.0485 -11.5900 4.6568
# 3 31.1007 27.1668 50.3315 2.4665 -8.9473 12.4008
# 4 2.0635 5.0485 2.4665 28.2436 8.8944 -5.9408
# 5 -11.6119 -11.5900 -8.9473 8.8944 38.3868 3.4357
# 6 10.6001 4.6568 12.4008 -5.9408 3.4357 43.1339
#
#
#
# Elastic Compliance Matrix: (Units=1/GPa)
#
#
# Indices 1 2 3 4 5 6 
#
# 1 0.017362 -0.004007 -0.007510 -0.001197 0.002753 -0.002059
# 2 -0.004007 0.010445 -0.002852 -0.001786 0.001664 0.000298
# 3 -0.007510 -0.002852 0.029023 -0.004695 0.005370 -0.007265
# 4 -0.001197 -0.001786 -0.004695 0.041968 -0.012491 0.008612
# 5 0.002753 0.001664 0.005370 -0.012491 0.032129 -0.006680
# 6 -0.002059 0.000298 -0.007265 0.008612 -0.006680 0.027464
#
#
# Mechanical properties :
#
#
# Convention : Reuss Voigt Hill
#
# Bulk Modulus (GPa) = 35.59742 50.93821 43.26781
# Shear Modulus (GPa) = 25.44609 32.32871 28.88740
#
# Velocity S-wave (km/s) = 3.51498 3.96192 3.74512
# Velocity P-wave (km/s) = 5.81011 6.75734 6.30154
#
# Compressibility (1/GPa) = 0.02809193
#
# Stress axis : x y z
#
# Youngs Moduli (GPa) = 57.59608 95.74247 34.45536
#
# Poissons Ratio (x) = 0.38361 0.25877
# Poissons Ratio (y) = 0.23077 0.09826
# Poissons Ratio (z) = 0.43257 0.27305
#
# Static dielectric constant tensor:
#      x y z
#    x 3.874440 0.163220 0.011390 
#    y 0.163220 3.824740 -0.134260 
#    z 0.011390 -0.134260 4.012500 
# 
# 
# High freq. dielectric constant tensor:
#      x y z
#    x 1.804180 0.006940 -0.005130 
#    y 0.006940 1.825250 0.001930 
#    z -0.005130 0.001930 1.778860 
# 
# From -- ./inp_files/257218.got.cif
#   From: 2010.06.25/outbox.cif.g09.slc.cpg/sg2_129_cif.got.tgz:257218.got - 2010.06.27 13:26:56.
