data_PCOD8010998
_publ_section_title
;
Structure prediction by ZEFSAII (Michael W. Deem and Ramdas Pophale) SiO2 
 PCOD8010998
Probable space group: P -1
;
_chemical_formula_sum "Si O2"
_cell_formula_units_Z 16
_cell_length_a 8.460446
_cell_length_b 6.456361
_cell_length_c 18.740797
_cell_angle_alpha 88.829261
_cell_angle_beta 137.328439
_cell_angle_gamma 88.921105
_cell_volume 692.841887
_symmetry_space_group_name_H-M "P -1"
_symmetry_group_IT_number 2
_symmetry_cell_setting 'triclinic'
loop_
_space_group_symop_operation_xyz
x,y,z
-x,-y,-z
loop_
_atom_site_type_symbol
_atom_site_label
_atom_site_fract_x
_atom_site_fract_y
_atom_site_fract_z
Si Si1 0.004791 0.732401 0.358622
Si Si2 0.915618 0.987008 0.083794
Si Si3 0.166747 0.298346 0.065343
Si Si4 0.970312 0.870003 0.562325
Si Si5 0.721667 0.357076 0.101003
Si Si6 0.664101 0.414621 0.245585
Si Si7 0.609317 0.542058 0.459184
Si Si8 0.861387 0.372553 0.754544
O O1 0.177899 0.631141 0.478651
O O2 0.100528 0.658224 0.315729
O O3 0.740135 0.652709 0.277246
O O4 0.004691 0.977412 0.363126
O O5 0.066959 0.134874 0.086484
O O6 0.729894 0.129651 0.067676
O O7 0.098074 0.850912 0.193403
O O8 0.778969 0.824668 0.990301
O O9 0.395167 0.393132 0.173913
O O10 0.000000 0.500000 0.000000
O O11 0.185004 0.705499 0.643383
O O12 0.721459 0.766998 0.487560
O O13 0.000000 0.000000 0.500000
O O14 0.717495 0.328541 0.184424
O O15 0.960004 0.465217 0.155716
O O16 0.500000 0.500000 0.000000
O O17 0.500000 0.500000 0.500000
O O18 0.409432 0.537343 0.330863
#
# Coordination Sequence:
#
# PCOD8010998 Si02
#       8
#     2   2   2   2   2   2   2   2
#     4   9  21  42  65  89 130 167 212 273 327 386
#     4  11  24  40  65  96 130 170 221 270 329 398
#     4  11  25  45  62  93 137 176 215 270 333 402
#     4  11  24  41  63  96 129 173 227 266 332 406
#     4  11  23  42  67  97 131 170 224 279 332 397
#     4  10  23  42  67  93 129 174 217 276 336 391
#     4   9  21  40  62  92 129 165 212 275 326 384
#     4  10  21  38  65  96 121 166 216 267 331 390
#
# _framework density 23.093292999999999
#
# number of rings (size 3 to 8) (size 9 to 14) (size 15 to 20)
#    0.000    1.750    0.000    3.750    1.750   11.000 
#    4.500    0.000    0.000    0.000    0.000    0.000 
#    0.000    0.000    0.000    0.000    0.000    0.000 
#
# Total GULP energy -198288.956045 kJ/mol
# GULP energy per Si atom -12393.059753 kJ/mol
# Density = 2.304073 g / cm^3
# Si number density = 23.093293 Si / 1000 Ang^3
#
#
#
# Elastic Constant Matrix: (Units=GPa)
#
#
# Indices 1 2 3 4 5 6 
#
# 1 36.7625 21.6166 28.8482 3.0639 8.1942 20.3614
# 2 21.6166 104.2763 43.8953 5.6687 5.4338 13.9820
# 3 28.8482 43.8953 151.3911 -4.2263 27.2478 16.0763
# 4 3.0639 5.6687 -4.2263 42.8533 10.0513 -3.2357
# 5 8.1942 5.4338 27.2478 10.0513 40.1604 5.3952
# 6 20.3614 13.9820 16.0763 -3.2357 5.3952 43.3079
#
#
#
# Elastic Compliance Matrix: (Units=1/GPa)
#
#
# Indices 1 2 3 4 5 6 
#
# 1 0.044208 -0.004347 -0.005125 -0.004049 -0.001579 -0.017585
# 2 -0.004347 0.011873 -0.002900 -0.002079 0.001917 -0.001107
# 3 -0.005125 -0.002900 0.009485 0.003126 -0.005886 0.000792
# 4 -0.004049 -0.002079 0.003126 0.026473 -0.008233 0.004418
# 5 -0.001579 0.001917 -0.005886 -0.008233 0.031314 -0.002208
# 6 -0.017585 -0.001107 0.000792 0.004418 -0.002208 0.032027
#
#
# Mechanical properties :
#
#
# Convention : Reuss Voigt Hill
#
# Bulk Modulus (GPa) = 24.49574 53.46113 38.97844
# Shear Modulus (GPa) = 25.80892 38.46896 32.13894
#
# Velocity S-wave (km/s) = 3.34667 4.08586 3.73460
# Velocity P-wave (km/s) = 5.05608 6.74235 5.95916
#
# Compressibility (1/GPa) = 0.04082342
#
# Stress axis : x y z
#
# Youngs Moduli (GPa) = 22.62019 84.22275 105.42447
#
# Poissons Ratio (x) = 0.36609 0.54033
# Poissons Ratio (y) = 0.09832 0.30571
# Poissons Ratio (z) = 0.11593 0.24423
#
# Static dielectric constant tensor:
#      x y z
#    x 3.978730 0.177300 0.038700 
#    y 0.177300 5.450520 0.174310 
#    z 0.038700 0.174310 4.605180 
# 
# 
# High freq. dielectric constant tensor:
#      x y z
#    x 1.904700 0.014020 -0.004550 
#    y 0.014020 1.915100 0.001030 
#    z -0.004550 0.001030 1.924540 
# 
# From -- ./inp_files/135152.got.cif
#   From: 2010.06.25/outbox.cif.g09.slc.cpg/sg2_68_cif.got.tgz:135152.got - 2010.06.27 13:26:56.
