data_PCOD8010611
_publ_section_title
;
Structure prediction by ZEFSAII (Michael W. Deem and Ramdas Pophale) SiO2 
 PCOD8010611
Probable space group: P -1
;
_chemical_formula_sum "Si O2"
_cell_formula_units_Z 16
_cell_length_a 15.087677
_cell_length_b 6.723619
_cell_length_c 8.452839
_cell_angle_alpha 90.859953
_cell_angle_beta 70.822080
_cell_angle_gamma 92.805958
_cell_volume 808.928504
_symmetry_space_group_name_H-M "P -1"
_symmetry_group_IT_number 2
_symmetry_cell_setting 'triclinic'
loop_
_space_group_symop_operation_xyz
x,y,z
-x,-y,-z
loop_
_atom_site_type_symbol
_atom_site_label
_atom_site_fract_x
_atom_site_fract_y
_atom_site_fract_z
Si Si1 0.993920 0.217337 0.446497
Si Si2 0.335828 0.706665 0.924335
Si Si3 0.149377 0.490114 0.498016
Si Si4 0.423055 0.111287 0.941124
Si Si5 0.668026 0.559325 0.791607
Si Si6 0.979799 0.785817 0.934015
Si Si7 0.154052 0.523552 0.854386
Si Si8 0.503742 0.537252 0.312991
O O1 0.886296 0.288792 0.519078
O O2 0.056665 0.348252 0.533567
O O3 0.032956 0.221338 0.246247
O O4 0.000000 0.000000 0.500000
O O5 0.242083 0.622349 0.895155
O O6 0.426611 0.620793 0.792564
O O7 0.348914 0.946222 0.909930
O O8 0.334887 0.641262 0.106382
O O9 0.227173 0.408669 0.335509
O O10 0.186182 0.490465 0.655488
O O11 0.467350 0.240542 0.768973
O O12 0.362691 0.252517 0.087679
O O13 0.500000 0.000000 0.000000
O O14 0.600226 0.522383 0.683775
O O15 0.068866 0.665245 0.930130
O O16 0.881277 0.690842 0.058071
O O17 0.000000 0.000000 0.000000
O O18 0.500000 0.500000 0.500000
#
# Coordination Sequence:
#
# PCOD8010611 Si02
#       8
#     2   2   2   2   2   2   2   2
#     4  10  21  39  60  87 120 162 201 248 308 364
#     4  11  22  40  63  87 123 162 207 256 311 378
#     4  10  22  39  59  87 123 156 203 254 303 369
#     4  11  21  43  64  89 123 166 210 256 312 379
#     4  11  22  39  63  89 120 162 206 253 315 373
#     4  10  21  38  62  86 122 160 202 252 305 368
#     4  10  22  39  59  89 121 159 201 256 308 357
#     4  11  23  40  64  91 124 160 202 263 318 365
#
# _framework density 19.779253000000001
#
# number of rings (size 3 to 8) (size 9 to 14) (size 15 to 20)
#    0.000    1.500    2.500    3.000    0.000    7.500 
#    0.000    2.500    0.000    0.000    0.000    0.000 
#    0.000    0.000    0.000    0.000    0.000    0.000 
#
# Total GULP energy -198337.713082 kJ/mol
# GULP energy per Si atom -12396.107068 kJ/mol
# Density = 1.973423 g / cm^3
# Si number density = 19.779253 Si / 1000 Ang^3
#
#
#
# Elastic Constant Matrix: (Units=GPa)
#
#
# Indices 1 2 3 4 5 6 
#
# 1 107.2797 44.2761 55.7848 -7.4310 9.4078 9.0539
# 2 44.2761 142.1681 46.0819 -6.2251 5.7285 4.2409
# 3 55.7848 46.0819 110.5459 -8.4891 4.0269 -6.0747
# 4 -7.4310 -6.2251 -8.4891 26.4034 0.4782 6.2887
# 5 9.4078 5.7285 4.0269 0.4782 39.0996 4.6718
# 6 9.0539 4.2409 -6.0747 6.2887 4.6718 31.4385
#
#
#
# Elastic Compliance Matrix: (Units=1/GPa)
#
#
# Indices 1 2 3 4 5 6 
#
# 1 0.014282 -0.002024 -0.006374 0.002802 -0.001878 -0.005353
# 2 -0.002024 0.008577 -0.002535 0.000929 -0.000377 -0.001194
# 3 -0.006374 -0.002535 0.013645 0.000890 -0.000066 0.004646
# 4 0.002802 0.000929 0.000890 0.041311 -0.000335 -0.008974
# 5 -0.001878 -0.000377 -0.000066 -0.000335 0.026487 -0.003290
# 6 -0.005353 -0.001194 0.004646 -0.008974 -0.003290 0.036692
#
#
# Mechanical properties :
#
#
# Convention : Reuss Voigt Hill
#
# Bulk Modulus (GPa) = 68.30946 72.47546 70.39246
# Shear Modulus (GPa) = 29.80819 33.64503 31.72661
#
# Velocity S-wave (km/s) = 3.88628 4.12882 4.00939
# Velocity P-wave (km/s) = 7.39922 7.71047 7.55644
#
# Compressibility (1/GPa) = 0.01463926
#
# Stress axis : x y z
#
# Youngs Moduli (GPa) = 70.02031 116.58683 73.28583
#
# Poissons Ratio (x) = 0.23594 0.46712
# Poissons Ratio (y) = 0.14170 0.18576
# Poissons Ratio (z) = 0.44630 0.29552
#
# Static dielectric constant tensor:
#      x y z
#    x 3.677370 -0.081260 0.011130 
#    y -0.081260 3.798170 -0.015110 
#    z 0.011130 -0.015110 3.574300 
# 
# 
# High freq. dielectric constant tensor:
#      x y z
#    x 1.778730 -0.001610 0.005720 
#    y -0.001610 1.773600 0.002270 
#    z 0.005720 0.002270 1.774260 
# 
# From -- ./inp_files/39342.got.cif
#   From: 2010.06.25/outbox.cif.g09.slc.cpg/sg2_20_cif.got.tgz:39342.got - 2010.06.27 13:26:56.
