data_PCOD8010982
_publ_section_title
;
Structure prediction by ZEFSAII (Michael W. Deem and Ramdas Pophale) SiO2 
 PCOD8010982
Probable space group: P -1
;
_chemical_formula_sum "Si O2"
_cell_formula_units_Z 16
_cell_length_a 12.325809
_cell_length_b 11.745429
_cell_length_c 9.071046
_cell_angle_alpha 60.495524
_cell_angle_beta 130.969578
_cell_angle_gamma 129.075057
_cell_volume 762.714032
_symmetry_space_group_name_H-M "P -1"
_symmetry_group_IT_number 2
_symmetry_cell_setting 'triclinic'
loop_
_space_group_symop_operation_xyz
x,y,z
-x,-y,-z
loop_
_atom_site_type_symbol
_atom_site_label
_atom_site_fract_x
_atom_site_fract_y
_atom_site_fract_z
Si Si1 0.793568 0.854043 0.799454
Si Si2 0.975881 0.636645 0.727484
Si Si3 0.505594 0.633440 0.318666
Si Si4 0.363290 0.450793 0.029086
Si Si5 0.864628 0.132607 0.840118
Si Si6 0.765711 0.310169 0.854116
Si Si7 0.145173 0.146100 0.462771
Si Si8 0.034354 0.364780 0.616331
O O1 0.647917 0.693172 0.806433
O O2 0.794237 0.901186 0.600587
O O3 0.760119 0.961737 0.809165
O O4 0.962816 0.850208 0.969146
O O5 0.864153 0.461737 0.754584
O O6 0.916780 0.734415 0.710410
O O7 0.967260 0.685980 0.521015
O O8 0.154582 0.676142 0.921623
O O9 0.500000 0.500000 0.500000
O O10 0.408361 0.573517 0.117491
O O11 0.417177 0.715661 0.272721
O O12 0.688032 0.759150 0.356209
O O13 0.500000 0.500000 0.000000
O O14 0.200196 0.414519 0.820078
O O15 0.771294 0.175804 0.854903
O O16 0.887577 0.230725 0.653425
O O17 0.000000 0.000000 0.500000
O O18 0.000000 0.500000 0.500000
#
# Coordination Sequence:
#
# PCOD8010982 Si02
#       8
#     2   2   2   2   2   2   2   2
#     4  10  21  42  65  93 133 175 227 270 331 407
#     4  11  21  38  67  99 132 174 226 278 330 402
#     4  12  24  43  69  98 135 173 225 287 333 398
#     4  11  24  41  67  99 128 175 226 279 339 392
#     4  10  21  38  65  93 131 176 216 273 336 396
#     4  11  22  39  68  96 132 180 226 276 342 390
#     4  12  24  42  71  99 132 179 228 277 344 405
#     4  11  21  36  61  97 134 167 220 274 324 404
#
# _framework density 20.977717999999999
#
# number of rings (size 3 to 8) (size 9 to 14) (size 15 to 20)
#    0.000    1.000    5.000    2.250    3.500    2.000 
#    0.000    1.250    2.750    0.000    0.000    0.000 
#    0.000    0.000    0.000    0.000    0.000    0.000 
#
# Total GULP energy -198285.066055 kJ/mol
# GULP energy per Si atom -12392.816628 kJ/mol
# Density = 2.092997 g / cm^3
# Si number density = 20.977718 Si / 1000 Ang^3
#
#
#
# Elastic Constant Matrix: (Units=GPa)
#
#
# Indices 1 2 3 4 5 6 
#
# 1 119.1046 59.5627 37.7399 0.7969 1.2792 -11.0374
# 2 59.5627 123.6881 32.7169 2.9500 -0.2639 -4.7486
# 3 37.7399 32.7169 97.0620 5.6148 -11.5778 3.2766
# 4 0.7969 2.9500 5.6148 21.4310 -5.5382 2.2978
# 5 1.2792 -0.2639 -11.5778 -5.5382 41.7526 -2.1491
# 6 -11.0374 -4.7486 3.2766 2.2978 -2.1491 43.3273
#
#
#
# Elastic Compliance Matrix: (Units=1/GPa)
#
#
# Indices 1 2 3 4 5 6 
#
# 1 0.012156 -0.004881 -0.003337 0.000512 -0.001120 0.002731
# 2 -0.004881 0.010934 -0.001783 -0.000972 -0.000399 0.000122
# 3 -0.003337 -0.001783 0.012764 -0.001939 0.003283 -0.001745
# 4 0.000512 -0.000972 -0.001939 0.049021 0.005833 -0.002140
# 5 -0.001120 -0.000399 0.003283 0.005833 0.025686 0.000387
# 6 0.002731 0.000122 -0.001745 -0.002140 0.000387 0.024054
#
#
# Mechanical properties :
#
#
# Convention : Reuss Voigt Hill
#
# Bulk Modulus (GPa) = 63.08245 66.65485 64.86865
# Shear Modulus (GPa) = 31.26950 35.29119 33.28035
#
# Velocity S-wave (km/s) = 3.86502 4.10606 3.98736
# Velocity P-wave (km/s) = 7.07491 7.37039 7.22416
#
# Compressibility (1/GPa) = 0.01585227
#
# Stress axis : x y z
#
# Youngs Moduli (GPa) = 82.26508 91.45845 78.34648
#
# Poissons Ratio (x) = 0.44640 0.26142
# Poissons Ratio (y) = 0.40152 0.13970
# Poissons Ratio (z) = 0.27449 0.16308
#
# Static dielectric constant tensor:
#      x y z
#    x 2.648060 -0.313920 1.231630 
#    y -0.313920 3.878080 0.113920 
#    z 1.231630 0.113920 2.202870 
# 
# 
# High freq. dielectric constant tensor:
#      x y z
#    x 1.817290 -0.017680 -0.008530 
#    y -0.017680 1.814390 0.002360 
#    z -0.008530 0.002360 1.821470 
# 
# From -- ./inp_files/262185.got.cif
#   From: 2010.06.25/outbox.cif.g09.slc.cpg/sg2_132_cif.got.tgz:262185.got - 2010.06.27 13:26:56.
