data_PCOD8010016
_publ_section_title
;
Structure prediction by ZEFSAII (Michael W. Deem and Ramdas Pophale) SiO2 
 PCOD8010016
Probable space group: P -1
;
_chemical_formula_sum "Si O2"
_cell_formula_units_Z 14
_cell_length_a 8.843988
_cell_length_b 11.992966
_cell_length_c 8.749733
_cell_angle_alpha 54.422960
_cell_angle_beta 67.288349
_cell_angle_gamma 75.597361
_cell_volume 695.923533
_symmetry_space_group_name_H-M "P -1"
_symmetry_group_IT_number 2
_symmetry_cell_setting 'triclinic'
loop_
_space_group_symop_operation_xyz
x,y,z
-x,-y,-z
loop_
_atom_site_type_symbol
_atom_site_label
_atom_site_fract_x
_atom_site_fract_y
_atom_site_fract_z
Si Si1 0.153957 0.771450 0.258148
Si Si2 0.993075 0.476084 0.844170
Si Si3 0.680676 0.495042 0.503366
Si Si4 0.184832 0.315840 0.460147
Si Si5 0.317887 0.031312 0.500058
Si Si6 0.862179 0.995278 0.687819
Si Si7 0.904213 0.171021 0.087373
O O1 0.294762 0.652670 0.305968
O O2 0.979521 0.700349 0.364605
O O3 0.165705 0.857262 0.340947
O O4 0.160333 0.866469 0.028154
O O5 0.175303 0.484907 0.693747
O O6 0.864626 0.590774 0.739413
O O7 0.000000 0.500000 0.000000
O O8 0.905664 0.333682 0.965677
O O9 0.500000 0.500000 0.500000
O O10 0.685399 0.612651 0.537303
O O11 0.253066 0.168261 0.498846
O O12 0.300493 0.047112 0.308524
O O13 0.500000 0.000000 0.500000
O O14 0.220692 0.897583 0.693708
O O15 0.914053 0.888893 0.887799
O O16 0.000000 0.000000 0.500000
#
# Coordination Sequence:
#
# PCOD8010016 Si02
#       7
#     2   2   2   2   2   2   2
#     4  11  20  41  66  93 121 169 220 258 307 389
#     4  11  23  40  70  97 122 171 228 262 305 391
#     4  11  25  42  65  96 136 170 207 271 336 371
#     4  11  21  45  64  91 130 174 212 256 323 395
#     4  11  26  42  62  96 137 169 202 270 338 369
#     4  10  21  37  64  90 123 167 211 257 317 380
#     4  11  21  41  65  95 121 167 227 254 307 386
#
# _framework density 20.117152999999998
#
# number of rings (size 3 to 8) (size 9 to 14) (size 15 to 20)
#    0.000    1.143    5.714    2.143    8.000    0.000 
#    5.143    2.143    0.000    0.000    0.000    0.000 
#    0.000    0.000    0.000    0.000    0.000    0.000 
#
# Total GULP energy -173513.888347 kJ/mol
# GULP energy per Si atom -12393.849168 kJ/mol
# Density = 2.007137 g / cm^3
# Si number density = 20.117153 Si / 1000 Ang^3
#
#
#
# Elastic Constant Matrix: (Units=GPa)
#
#
# Indices 1 2 3 4 5 6 
#
# 1 174.4144 47.9367 45.8539 1.2579 23.9392 -1.7800
# 2 47.9367 84.7825 34.9583 -4.9923 8.3121 4.9216
# 3 45.8539 34.9583 87.5775 -5.1146 22.0525 -2.3309
# 4 1.2579 -4.9923 -5.1146 30.3053 5.4579 14.6830
# 5 23.9392 8.3121 22.0525 5.4579 31.3031 1.1918
# 6 -1.7800 4.9216 -2.3309 14.6830 1.1918 35.1664
#
#
#
# Elastic Compliance Matrix: (Units=1/GPa)
#
#
# Indices 1 2 3 4 5 6 
#
# 1 0.007642 -0.003385 -0.001798 -0.001205 -0.003521 0.001364
# 2 -0.003385 0.016069 -0.004840 0.003885 0.001222 -0.004404
# 3 -0.001798 -0.004840 0.017043 0.003712 -0.010013 0.000506
# 4 -0.001205 0.003885 0.003712 0.045264 -0.009897 -0.018922
# 5 -0.003521 0.001222 -0.010013 -0.009897 0.043031 0.001661
# 6 0.001364 -0.004404 0.000506 -0.018922 0.001661 0.036999
#
#
# Mechanical properties :
#
#
# Convention : Reuss Voigt Hill
#
# Bulk Modulus (GPa) = 48.28671 67.14138 57.71405
# Shear Modulus (GPa) = 25.90716 33.89000 29.89858
#
# Velocity S-wave (km/s) = 3.59251 4.10888 3.85934
# Velocity P-wave (km/s) = 6.42363 7.48052 6.97213
#
# Compressibility (1/GPa) = 0.02070963
#
# Stress axis : x y z
#
# Youngs Moduli (GPa) = 130.85178 62.23186 58.67388
#
# Poissons Ratio (x) = 0.21063 0.10548
# Poissons Ratio (y) = 0.44288 0.28399
# Poissons Ratio (z) = 0.23523 0.30121
#
# Static dielectric constant tensor:
#      x y z
#    x 4.025100 -0.123600 0.381580 
#    y -0.123600 3.323210 -0.316810 
#    z 0.381580 -0.316810 3.662100 
# 
# 
# High freq. dielectric constant tensor:
#      x y z
#    x 1.783730 0.016210 0.034400 
#    y 0.016210 1.793140 -0.011730 
#    z 0.034400 -0.011730 1.774660 
# 
# From -- ./inp_files/154609.got.cif
#   From: 2010.06.25/outbox.cif.g09.slc.cpg/sg2_78_cif.got.tgz:154609.got - 2010.06.27 13:26:56.
