data_PCOD8010159
_publ_section_title
;
Structure prediction by ZEFSAII (Michael W. Deem and Ramdas Pophale) SiO2 
 PCOD8010159
Probable space group: P -1
;
_chemical_formula_sum "Si O2"
_cell_formula_units_Z 16
_cell_length_a 11.329603
_cell_length_b 8.933076
_cell_length_c 18.225119
_cell_angle_alpha 114.217052
_cell_angle_beta 149.643366
_cell_angle_gamma 53.621448
_cell_volume 726.745624
_symmetry_space_group_name_H-M "P -1"
_symmetry_group_IT_number 2
_symmetry_cell_setting 'triclinic'
loop_
_space_group_symop_operation_xyz
x,y,z
-x,-y,-z
loop_
_atom_site_type_symbol
_atom_site_label
_atom_site_fract_x
_atom_site_fract_y
_atom_site_fract_z
Si Si1 0.453681 0.292827 0.344819
Si Si2 0.798434 0.805466 0.617856
Si Si3 0.490445 0.392224 0.628071
Si Si4 0.347902 0.127205 0.874384
Si Si5 0.283120 0.715854 0.117969
Si Si6 0.650168 0.976095 0.856027
Si Si7 0.108857 0.549801 0.868499
Si Si8 0.849903 0.109805 0.647003
O O1 0.599436 0.401541 0.413336
O O2 0.499826 0.122752 0.281862
O O3 0.569350 0.206800 0.469596
O O4 0.130864 0.446940 0.211605
O O5 0.762040 0.643299 0.525304
O O6 0.964892 0.721008 0.765859
O O7 0.500000 0.000000 0.500000
O O8 0.967466 0.881739 0.677732
O O9 0.539570 0.409878 0.743592
O O10 0.766594 0.223915 0.702889
O O11 0.298159 0.340592 0.893670
O O12 0.062010 0.135915 0.717943
O O13 0.537605 0.026121 0.887077
O O14 0.500000 0.000000 0.000000
O O15 0.416278 0.839151 0.190069
O O16 0.301391 0.586662 0.032622
O O17 0.974683 0.841077 0.006056
#
# Coordination Sequence:
#
# PCOD8010159 Si02
#       8
#     2   2   2   2   2   2   2   2
#     4  11  21  40  71 100 126 170 230 278 325 379
#     4  10  21  37  67 102 126 167 226 276 320 381
#     4  11  20  36  68 101 125 164 226 279 320 380
#     4  12  27  43  64  95 141 178 215 262 343 400
#     4  10  24  41  69  94 132 171 225 277 319 388
#     4  10  25  42  62  95 134 172 217 268 337 387
#     4  11  23  42  68  99 132 174 220 275 325 393
#     4  11  22  40  68  97 134 170 221 278 330 384
#
# _framework density 22.015955999999999
#
# number of rings (size 3 to 8) (size 9 to 14) (size 15 to 20)
#    0.000    1.250    3.750    2.625   12.250    2.000 
#    0.000    0.000    0.000    3.000    0.000    0.000 
#    0.000    0.000    0.000    0.000    0.000    0.000 
#
# Total GULP energy -198375.801759 kJ/mol
# GULP energy per Si atom -12398.487610 kJ/mol
# Density = 2.196585 g / cm^3
# Si number density = 22.015956 Si / 1000 Ang^3
#
#
#
# Elastic Constant Matrix: (Units=GPa)
#
#
# Indices 1 2 3 4 5 6 
#
# 1 88.0215 42.1546 32.2967 13.1014 -13.3159 15.6160
# 2 42.1546 118.1045 42.9181 28.0539 -6.9624 31.0572
# 3 32.2967 42.9181 90.0394 21.0831 -31.6396 7.5246
# 4 13.1014 28.0539 21.0831 37.6233 6.4228 0.9351
# 5 -13.3159 -6.9624 -31.6396 6.4228 38.7742 -4.9560
# 6 15.6160 31.0572 7.5246 0.9351 -4.9560 38.2913
#
#
#
# Elastic Compliance Matrix: (Units=1/GPa)
#
#
# Indices 1 2 3 4 5 6 
#
# 1 0.014863 -0.003191 -0.002146 -0.002002 0.002774 -0.002644
# 2 -0.003191 0.015647 -0.004349 -0.007524 -0.001944 -0.010603
# 3 -0.002146 -0.004349 0.024011 -0.013044 0.020576 0.002666
# 4 -0.002002 -0.007524 -0.013044 0.043308 -0.019095 0.005953
# 5 0.002774 -0.001944 0.020576 -0.019095 0.046720 0.002915
# 6 -0.002644 -0.010603 0.002666 0.005953 0.002915 0.035502
#
#
# Mechanical properties :
#
#
# Convention : Reuss Voigt Hill
#
# Bulk Modulus (GPa) = 28.45021 58.98934 43.71978
# Shear Modulus (GPa) = 23.68113 34.85749 29.26931
#
# Velocity S-wave (km/s) = 3.28325 3.98337 3.65013
# Velocity P-wave (km/s) = 5.22719 6.92881 6.13726
#
# Compressibility (1/GPa) = 0.03514912
#
# Stress axis : x y z
#
# Youngs Moduli (GPa) = 67.28095 63.90931 41.64769
#
# Poissons Ratio (x) = 0.20394 0.08937
# Poissons Ratio (y) = 0.21469 0.18113
# Poissons Ratio (z) = 0.14438 0.27795
#
# Static dielectric constant tensor:
#      x y z
#    x 4.108850 0.385280 0.094100 
#    y 0.385280 4.057120 0.300740 
#    z 0.094100 0.300740 3.951920 
# 
# 
# High freq. dielectric constant tensor:
#      x y z
#    x 1.857080 0.029980 -0.010030 
#    y 0.029980 1.861520 0.018320 
#    z -0.010030 0.018320 1.862810 
# 
# From -- ./inp_files/332843.got.cif
#   From: 2010.06.25/outbox.cif.g09.slc.cpg/sg2_167_cif.got.tgz:332843.got - 2010.06.27 13:26:56.
