data_PCOD8010852
_publ_section_title
;
Structure prediction by ZEFSAII (Michael W. Deem and Ramdas Pophale) SiO2 
 PCOD8010852
Probable space group: P -1
;
_chemical_formula_sum "Si O2"
_cell_formula_units_Z 16
_cell_length_a 12.186239
_cell_length_b 9.010327
_cell_length_c 8.885148
_cell_angle_alpha 69.330759
_cell_angle_beta 70.830820
_cell_angle_gamma 104.221478
_cell_volume 786.734695
_symmetry_space_group_name_H-M "P -1"
_symmetry_group_IT_number 2
_symmetry_cell_setting 'triclinic'
loop_
_space_group_symop_operation_xyz
x,y,z
-x,-y,-z
loop_
_atom_site_type_symbol
_atom_site_label
_atom_site_fract_x
_atom_site_fract_y
_atom_site_fract_z
Si Si1 0.647169 0.103195 0.375879
Si Si2 0.356328 0.159262 0.745800
Si Si3 0.767430 0.127558 0.850337
Si Si4 0.045041 0.289088 0.041403
Si Si5 0.347783 0.734926 0.388266
Si Si6 0.821962 0.361720 0.011274
Si Si7 0.191492 0.342760 0.652822
Si Si8 0.008133 0.944393 0.345271
O O1 0.705427 0.186873 0.478720
O O2 0.500000 0.000000 0.500000
O O3 0.695759 0.964220 0.333780
O O4 0.679823 0.258214 0.181484
O O5 0.508803 0.245819 0.658801
O O6 0.304523 0.306797 0.694866
O O7 0.297450 0.047405 0.961402
O O8 0.659367 0.155097 0.791997
O O9 0.830657 0.302306 0.859582
O O10 0.875651 0.114076 0.699844
O O11 0.091666 0.327441 0.834524
O O12 0.909655 0.302112 0.103435
O O13 0.138885 0.432373 0.065192
O O14 0.033518 0.102362 0.163157
O O15 0.253802 0.533784 0.485072
O O16 0.121714 0.213282 0.593457
O O17 0.000000 0.000000 0.500000
#
# Coordination Sequence:
#
# PCOD8010852 Si02
#       8
#     2   2   2   2   2   2   2   2
#     4   9  19  37  60  89 119 159 210 248 292 363
#     4  10  22  43  66  88 125 171 211 250 306 376
#     4  11  23  40  65  91 132 161 203 253 324 367
#     4  11  22  41  64  88 123 163 212 249 311 377
#     4  11  24  39  64  97 124 162 213 262 304 362
#     4  10  21  38  64  91 121 166 201 255 305 376
#     4  12  23  43  66  91 126 165 210 258 311 374
#     4  12  27  40  62  94 129 163 204 261 321 371
#
# _framework density 20.337223000000002
#
# number of rings (size 3 to 8) (size 9 to 14) (size 15 to 20)
#    0.000    1.250    3.750    2.625    5.250    0.500 
#    0.000    0.000    0.000    1.500    0.000    0.000 
#    0.000    0.000    0.000    0.000    0.000    0.000 
#
# Total GULP energy -198337.943187 kJ/mol
# GULP energy per Si atom -12396.121449 kJ/mol
# Density = 2.029093 g / cm^3
# Si number density = 20.337223 Si / 1000 Ang^3
#
#
#
# Elastic Constant Matrix: (Units=GPa)
#
#
# Indices 1 2 3 4 5 6 
#
# 1 84.3298 28.4445 33.5642 -3.4053 1.4431 0.3221
# 2 28.4445 129.4499 46.2519 4.5042 -1.4856 16.7003
# 3 33.5642 46.2519 90.8456 7.2233 -5.6079 3.0168
# 4 -3.4053 4.5042 7.2233 39.1626 0.2950 1.3100
# 5 1.4431 -1.4856 -5.6079 0.2950 28.6274 -3.7135
# 6 0.3221 16.7003 3.0168 1.3100 -3.7135 24.1212
#
#
#
# Elastic Compliance Matrix: (Units=1/GPa)
#
#
# Indices 1 2 3 4 5 6 
#
# 1 0.014462 -0.001723 -0.004791 0.002311 -0.001622 0.001224
# 2 -0.001723 0.010637 -0.004598 -0.000285 -0.001158 -0.006929
# 3 -0.004791 -0.004598 0.015483 -0.002835 0.003321 0.001976
# 4 0.002311 -0.000285 -0.002835 0.026335 -0.001098 -0.001078
# 5 -0.001622 -0.001158 0.003321 -0.001098 0.036403 0.006072
# 6 0.001224 -0.006929 0.001976 -0.001078 0.006072 0.046985
#
#
# Mechanical properties :
#
#
# Convention : Reuss Voigt Hill
#
# Bulk Modulus (GPa) = 54.46636 57.90518 56.18577
# Shear Modulus (GPa) = 27.98801 31.47323 29.73062
#
# Velocity S-wave (km/s) = 3.71374 3.93818 3.82760
# Velocity P-wave (km/s) = 6.72524 7.01522 6.87176
#
# Compressibility (1/GPa) = 0.01835996
#
# Stress axis : x y z
#
# Youngs Moduli (GPa) = 69.14438 94.01243 64.58618
#
# Poissons Ratio (x) = 0.16200 0.30940
# Poissons Ratio (y) = 0.11915 0.29694
# Poissons Ratio (z) = 0.33124 0.43223
#
# Static dielectric constant tensor:
#      x y z
#    x 3.506460 0.028940 -0.196960 
#    y 0.028940 4.051080 0.145180 
#    z -0.196960 0.145180 3.703400 
# 
# 
# High freq. dielectric constant tensor:
#      x y z
#    x 1.775600 0.003380 -0.016420 
#    y 0.003380 1.810280 0.001250 
#    z -0.016420 0.001250 1.793870 
# 
# From -- ./inp_files/177373.got.cif
#   From: 2010.06.25/outbox.cif.g09.slc.cpg/sg2_89_cif.got.tgz:177373.got - 2010.06.27 13:26:56.
