data_PCOD8010773
_publ_section_title
;
Structure prediction by ZEFSAII (Michael W. Deem and Ramdas Pophale) SiO2 
 PCOD8010773
Probable space group: P -1
;
_chemical_formula_sum "Si O2"
_cell_formula_units_Z 16
_cell_length_a 13.185719
_cell_length_b 5.171544
_cell_length_c 11.744446
_cell_angle_alpha 81.687936
_cell_angle_beta 91.381502
_cell_angle_gamma 74.502390
_cell_volume 761.980426
_symmetry_space_group_name_H-M "P -1"
_symmetry_group_IT_number 2
_symmetry_cell_setting 'triclinic'
loop_
_space_group_symop_operation_xyz
x,y,z
-x,-y,-z
loop_
_atom_site_type_symbol
_atom_site_label
_atom_site_fract_x
_atom_site_fract_y
_atom_site_fract_z
Si Si1 0.570844 0.710071 0.488639
Si Si2 0.095622 0.941748 0.421198
Si Si3 0.125043 0.511794 0.124566
Si Si4 0.435241 0.679185 0.886597
Si Si5 0.225126 0.598119 0.900001
Si Si6 0.214377 0.379357 0.385478
Si Si7 0.610739 0.737666 0.230468
Si Si8 0.994054 0.917395 0.837549
O O1 0.500000 0.500000 0.500000
O O2 0.662694 0.645947 0.589977
O O3 0.624555 0.729351 0.366673
O O4 0.500000 0.000000 0.500000
O O5 0.153036 0.623853 0.449334
O O6 0.179406 0.113293 0.439824
O O7 0.046957 0.010675 0.293195
O O8 0.000000 0.000000 0.500000
O O9 0.189522 0.440134 0.247914
O O10 0.048841 0.327260 0.104447
O O11 0.049832 0.820686 0.099809
O O12 0.208891 0.463386 0.028056
O O13 0.311887 0.761668 0.913167
O O14 0.455533 0.476319 0.790744
O O15 0.457804 0.964202 0.836002
O O16 0.500000 0.500000 0.000000
O O17 0.273431 0.362427 0.821302
O O18 0.120125 0.816734 0.840938
#
# Coordination Sequence:
#
# PCOD8010773 Si02
#       8
#     2   2   2   2   2   2   2   2
#     4  12  26  46  69  94 131 174 218 278 330 382
#     4  10  21  38  63  92 126 168 208 262 318 380
#     4  10  22  39  59  91 128 166 207 250 319 385
#     4  10  23  43  62  95 127 160 214 264 325 379
#     4  10  24  36  67  88 129 162 206 266 319 370
#     4  10  23  42  61  93 126 166 216 257 319 395
#     4  10  25  41  65  96 123 163 221 258 328 378
#     4  10  22  36  58  93 126 163 208 248 315 387
#
# _framework density 20.997914999999999
#
# number of rings (size 3 to 8) (size 9 to 14) (size 15 to 20)
#    0.750    1.000    0.000    3.000    5.250    3.000 
#    0.000    0.000    0.000    0.000    0.000    0.000 
#    0.000    0.000    0.000    0.000    0.000    0.000 
#
# Total GULP energy -198294.752297 kJ/mol
# GULP energy per Si atom -12393.422019 kJ/mol
# Density = 2.095012 g / cm^3
# Si number density = 20.997915 Si / 1000 Ang^3
#
#
#
# Elastic Constant Matrix: (Units=GPa)
#
#
# Indices 1 2 3 4 5 6 
#
# 1 110.4927 44.1575 33.0675 6.6765 9.0178 0.9004
# 2 44.1575 149.3362 45.1363 11.5911 -2.8312 4.5304
# 3 33.0675 45.1363 70.6651 10.1756 -16.8356 -8.9529
# 4 6.6765 11.5911 10.1756 30.4889 -6.4156 -0.4229
# 5 9.0178 -2.8312 -16.8356 -6.4156 37.6404 -1.6461
# 6 0.9004 4.5304 -8.9529 -0.4229 -1.6461 33.1031
#
#
#
# Elastic Compliance Matrix: (Units=1/GPa)
#
#
# Indices 1 2 3 4 5 6 
#
# 1 0.012155 -0.001692 -0.006138 -0.001281 -0.006094 -0.002078
# 2 -0.001692 0.009047 -0.005532 -0.001638 -0.001790 -0.002798
# 3 -0.006138 -0.005532 0.024799 -0.002162 0.012137 0.008207
# 4 -0.001281 -0.001638 -0.002162 0.035543 0.005292 0.000392
# 5 -0.006094 -0.001790 0.012137 0.005292 0.034463 0.005475
# 6 -0.002078 -0.002798 0.008207 0.000392 0.005475 0.033145
#
#
# Mechanical properties :
#
#
# Convention : Reuss Voigt Hill
#
# Bulk Modulus (GPa) = 51.87270 63.91296 57.89283
# Shear Modulus (GPa) = 27.42718 34.12197 30.77457
#
# Velocity S-wave (km/s) = 3.61804 4.03552 3.83247
# Velocity P-wave (km/s) = 6.49700 7.22619 6.87127
#
# Compressibility (1/GPa) = 0.01927796
#
# Stress axis : x y z
#
# Youngs Moduli (GPa) = 82.26916 110.53803 40.32348
#
# Poissons Ratio (x) = 0.18704 0.24750
# Poissons Ratio (y) = 0.13921 0.22306
# Poissons Ratio (z) = 0.50496 0.61146
#
# Static dielectric constant tensor:
#      x y z
#    x 4.011970 0.208270 0.533040 
#    y 0.208270 4.418090 0.248810 
#    z 0.533040 0.248810 4.111490 
# 
# 
# High freq. dielectric constant tensor:
#      x y z
#    x 1.811860 -0.000020 0.004420 
#    y -0.000020 1.836070 0.002870 
#    z 0.004420 0.002870 1.828560 
# 
# From -- ./inp_files/410541.got.cif
#   From: 2010.06.25/outbox.cif.g09.slc.cpg/sg2_206_cif.got.tgz:410541.got - 2010.06.27 13:26:56.
