data_PCOD8010678
_publ_section_title
;
Structure prediction by ZEFSAII (Michael W. Deem and Ramdas Pophale) SiO2 
 PCOD8010678
Probable space group: P -1
;
_chemical_formula_sum "Si O2"
_cell_formula_units_Z 16
_cell_length_a 15.029921
_cell_length_b 11.123073
_cell_length_c 16.143346
_cell_angle_alpha 48.289521
_cell_angle_beta 154.500115
_cell_angle_gamma 141.482058
_cell_volume 715.126519
_symmetry_space_group_name_H-M "P -1"
_symmetry_group_IT_number 2
_symmetry_cell_setting 'triclinic'
loop_
_space_group_symop_operation_xyz
x,y,z
-x,-y,-z
loop_
_atom_site_type_symbol
_atom_site_label
_atom_site_fract_x
_atom_site_fract_y
_atom_site_fract_z
Si Si1 0.786573 0.168037 0.872731
Si Si2 0.728197 0.189126 0.449820
Si Si3 0.999178 0.077925 0.845715
Si Si4 0.697722 0.623886 0.424533
Si Si5 0.607119 0.729280 0.779572
Si Si6 0.048548 0.542154 0.824848
Si Si7 0.171220 0.757278 0.675630
Si Si8 0.582815 0.194510 0.848582
O O1 0.765492 0.275948 0.884831
O O2 0.980373 0.333478 0.894379
O O3 0.516798 0.029798 0.666993
O O4 0.899148 0.045348 0.050079
O O5 0.655048 0.311683 0.387726
O O6 0.832367 0.294442 0.400017
O O7 0.940945 0.176438 0.678363
O O8 0.750192 0.934487 0.756194
O O9 0.216122 0.251440 0.005661
O O10 0.460390 0.452092 0.251525
O O11 0.609597 0.741680 0.345671
O O12 0.790241 0.533571 0.611661
O O13 0.929808 0.763502 0.492526
O O14 0.156003 0.590463 0.798177
O O15 0.250523 0.724245 0.966875
O O16 0.426650 0.961118 0.820416
#
# Coordination Sequence:
#
# PCOD8010678 Si02
#       8
#     2   2   2   2   2   2   2   2
#     4  10  22  38  63  96 119 154 206 249 299 356
#     4  10  21  41  64  88 123 160 198 248 302 361
#     4  10  21  39  66  90 123 153 199 255 305 354
#     4  10  23  38  60  88 125 157 203 244 297 359
#     4  10  21  38  62  93 117 157 203 249 302 355
#     4  10  22  38  60  89 123 162 194 251 298 355
#     4   9  23  42  58  89 122 163 200 246 301 360
#     4  11  21  40  62  88 123 162 203 244 300 360
#
# _framework density 22.373663000000001
#
# number of rings (size 3 to 8) (size 9 to 14) (size 15 to 20)
#    0.750    1.250    0.000    3.000    0.000    6.000 
#    6.750    0.625    0.000    0.000    0.000    0.000 
#    0.000    0.000    0.000    0.000    0.000    0.000 
#
# Total GULP energy -198356.031032 kJ/mol
# GULP energy per Si atom -12397.251939 kJ/mol
# Density = 2.232274 g / cm^3
# Si number density = 22.373663 Si / 1000 Ang^3
#
#
#
# Elastic Constant Matrix: (Units=GPa)
#
#
# Indices 1 2 3 4 5 6 
#
# 1 86.8247 11.6078 30.6005 -17.8673 5.9355 1.8006
# 2 11.6078 46.6752 15.9798 -5.9345 -3.1764 13.0215
# 3 30.6005 15.9798 102.9703 1.0382 -8.2378 6.5816
# 4 -17.8673 -5.9345 1.0382 25.1322 3.4399 -1.6292
# 5 5.9355 -3.1764 -8.2378 3.4399 33.0094 -5.6141
# 6 1.8006 13.0215 6.5816 -1.6292 -5.6141 31.5353
#
#
#
# Elastic Compliance Matrix: (Units=1/GPa)
#
#
# Indices 1 2 3 4 5 6 
#
# 1 0.016492 -0.001161 -0.005317 0.012463 -0.005654 0.000285
# 2 -0.001161 0.026147 -0.003151 0.004874 -0.000247 -0.009865
# 3 -0.005317 -0.003151 0.012205 -0.005635 0.004203 -0.000485
# 4 0.012463 0.004874 -0.005635 0.051180 -0.008585 -0.000432
# 5 -0.005654 -0.000247 0.004203 -0.008585 0.034111 0.005177
# 6 0.000285 -0.009865 -0.000485 -0.000432 0.005177 0.036768
#
#
# Mechanical properties :
#
#
# Convention : Reuss Voigt Hill
#
# Bulk Modulus (GPa) = 28.10106 39.20515 33.65310
# Shear Modulus (GPa) = 24.03576 29.82087 26.92832
#
# Velocity S-wave (km/s) = 3.28119 3.65479 3.47302
# Velocity P-wave (km/s) = 5.19058 5.94735 5.58180
#
# Compressibility (1/GPa) = 0.03558584
#
# Stress axis : x y z
#
# Youngs Moduli (GPa) = 60.63601 38.24515 81.93498
#
# Poissons Ratio (x) = 0.04439 0.43566
# Poissons Ratio (y) = 0.07038 0.25819
# Poissons Ratio (z) = 0.32241 0.12052
#
# Static dielectric constant tensor:
#      x y z
#    x 4.103720 0.042920 0.022270 
#    y 0.042920 3.662460 0.203320 
#    z 0.022270 0.203320 3.896270 
# 
# 
# High freq. dielectric constant tensor:
#      x y z
#    x 1.879370 -0.002560 0.004500 
#    y -0.002560 1.865860 0.019000 
#    z 0.004500 0.019000 1.881780 
# 
# From -- ./inp_files/532437.got.cif
#   From: 2010.06.25/outbox.cif.g09.slc.cpg/sg2_267_cif.got.tgz:532437.got - 2010.06.27 13:26:56.
