data_PCOD8010507
_publ_section_title
;
Structure prediction by ZEFSAII (Michael W. Deem and Ramdas Pophale) SiO2 
 PCOD8010507
Probable space group: P -1
;
_chemical_formula_sum "Si O2"
_cell_formula_units_Z 14
_cell_length_a 5.102706
_cell_length_b 27.470180
_cell_length_c 25.094121
_cell_angle_alpha 9.412719
_cell_angle_beta 103.405291
_cell_angle_gamma 104.495955
_cell_volume 554.416154
_symmetry_space_group_name_H-M "P -1"
_symmetry_group_IT_number 2
_symmetry_cell_setting 'triclinic'
loop_
_space_group_symop_operation_xyz
x,y,z
-x,-y,-z
loop_
_atom_site_type_symbol
_atom_site_label
_atom_site_fract_x
_atom_site_fract_y
_atom_site_fract_z
Si Si1 0.299700 0.725496 0.263328
Si Si2 0.667902 0.245728 0.129036
Si Si3 0.998951 0.984003 0.793806
Si Si4 0.399045 0.112116 0.759516
Si Si5 0.752955 0.652984 0.237453
Si Si6 0.889708 0.605590 0.096930
Si Si7 0.280281 0.419289 0.121911
O O1 0.500000 0.500000 0.500000
O O2 0.101463 0.548382 0.492558
O O3 0.500000 0.000000 0.000000
O O4 0.177369 0.885387 0.031900
O O5 0.745710 0.923723 0.493314
O O6 0.382055 0.244392 0.087219
O O7 0.630953 0.403879 0.011906
O O8 0.915495 0.405973 0.932449
O O9 0.811212 0.252643 0.489480
O O10 0.276918 0.152389 0.651492
O O11 0.890660 0.719778 0.114775
O O12 0.049700 0.816264 0.922347
O O13 0.476599 0.429694 0.449220
O O14 0.666831 0.949439 0.940883
O O15 0.500000 0.500000 0.000000
O O16 0.000000 0.500000 0.000000
#
# Coordination Sequence:
#
# PCOD8010507 Si02
#       7
#     2   2   2   2   2   2   2
#     4   8  16  33  56  85 116 161 201 286 370 439
#     4  12  26  49  70 108 150 189 230 281 338 399
#     4  12  26  40  64  96 122 189 240 290 340 416
#     4  10  21  38  61  87 126 161 224 289 366 424
#     4  10  21  38  61  87 126 161 224 289 366 424
#     4  12  28  45  70  97 146 194 240 281 340 401
#     4  12  24  45  80 114 146 183 230 279 338 399
#
# _framework density 25.251787
#
# number of rings (size 3 to 8) (size 9 to 14) (size 15 to 20)
#    0.000    1.143    0.000    6.000    6.000    0.571 
#    0.000    0.000    0.000   12.000    0.000    0.000 
#    0.000    0.000    0.000    0.000    0.000    0.000 
#
# Total GULP energy -173519.203523 kJ/mol
# GULP energy per Si atom -12394.228823 kJ/mol
# Density = 2.519431 g / cm^3
# Si number density = 25.251787 Si / 1000 Ang^3
#
#
#
# Elastic Constant Matrix: (Units=GPa)
#
#
# Indices 1 2 3 4 5 6 
#
# 1 107.6985 27.1925 33.2917 23.3826 4.6216 -9.4482
# 2 27.1925 139.0150 64.2623 7.0008 5.8168 -8.3823
# 3 33.2917 64.2623 137.4339 2.9569 5.3760 -4.9826
# 4 23.3826 7.0008 2.9569 47.7701 -6.2095 8.8475
# 5 4.6216 5.8168 5.3760 -6.2095 35.1410 6.4209
# 6 -9.4482 -8.3823 -4.9826 8.8475 6.4209 33.1155
#
#
#
# Elastic Compliance Matrix: (Units=1/GPa)
#
#
# Indices 1 2 3 4 5 6 
#
# 1 0.012359 -0.000515 -0.002249 -0.007352 -0.003538 0.005708
# 2 -0.000515 0.009488 -0.004133 -0.001520 -0.001567 0.002343
# 3 -0.002249 -0.004133 0.009719 0.001170 -0.000209 -0.000498
# 4 -0.007352 -0.001520 0.001170 0.027816 0.008018 -0.011293
# 5 -0.003538 -0.001567 -0.000209 0.008018 0.032433 -0.009869
# 6 0.005708 0.002343 -0.000498 -0.011293 -0.009869 0.037274
#
#
# Mechanical properties :
#
#
# Convention : Reuss Voigt Hill
#
# Bulk Modulus (GPa) = 56.27152 70.40448 63.33800
# Shear Modulus (GPa) = 33.60013 40.49871 37.04942
#
# Velocity S-wave (km/s) = 3.65170 4.00909 3.83456
# Velocity P-wave (km/s) = 6.33344 7.02651 6.68896
#
# Compressibility (1/GPa) = 0.01777098
#
# Stress axis : x y z
#
# Youngs Moduli (GPa) = 80.91021 105.39523 102.89647
#
# Poissons Ratio (x) = 0.05431 0.23146
# Poissons Ratio (y) = 0.04169 0.42524
# Poissons Ratio (z) = 0.18200 0.43557
#
# Static dielectric constant tensor:
#      x y z
#    x 4.285990 0.105120 -0.237690 
#    y 0.105120 5.112740 0.395490 
#    z -0.237690 0.395490 5.041260 
# 
# 
# High freq. dielectric constant tensor:
#      x y z
#    x 1.996340 0.004150 -0.008470 
#    y 0.004150 2.039180 0.003160 
#    z -0.008470 0.003160 2.032840 
# 
# From -- ./inp_files/127661.got.cif
#   From: 2010.06.25/outbox.cif.g09.slc.cpg/sg2_64_cif.got.tgz:127661.got - 2010.06.27 13:26:56.
