data_PCOD8010406
_publ_section_title
;
Structure prediction by ZEFSAII (Michael W. Deem and Ramdas Pophale) SiO2 
 PCOD8010406
Probable space group: P -1
;
_chemical_formula_sum "Si O2"
_cell_formula_units_Z 16
_cell_length_a 8.285417
_cell_length_b 25.268260
_cell_length_c 9.371499
_cell_angle_alpha 46.038084
_cell_angle_beta 148.032534
_cell_angle_gamma 129.646344
_cell_volume 741.455960
_symmetry_space_group_name_H-M "P -1"
_symmetry_group_IT_number 2
_symmetry_cell_setting 'triclinic'
loop_
_space_group_symop_operation_xyz
x,y,z
-x,-y,-z
loop_
_atom_site_type_symbol
_atom_site_label
_atom_site_fract_x
_atom_site_fract_y
_atom_site_fract_z
Si Si1 0.912595 0.794929 0.144201
Si Si2 0.599278 0.202546 0.013207
Si Si3 0.283176 0.279972 0.405620
Si Si4 0.732353 0.583892 0.669184
Si Si5 0.397714 0.953240 0.803017
Si Si6 0.575282 0.419843 0.842797
Si Si7 0.947966 0.048484 0.164912
Si Si8 0.495783 0.284283 0.238007
O O1 0.639074 0.776524 0.086492
O O2 0.197513 0.754040 0.484524
O O3 0.790466 0.766532 0.951758
O O4 0.010467 0.882757 0.040804
O O5 0.470013 0.219012 0.729949
O O6 0.625251 0.115201 0.195842
O O7 0.921854 0.251696 0.194716
O O8 0.374793 0.356237 0.416487
O O9 0.413127 0.293557 0.321184
O O10 0.538785 0.503628 0.708220
O O11 0.671868 0.606286 0.417525
O O12 0.089219 0.580577 0.971669
O O13 0.205122 0.928055 0.847515
O O14 0.270094 0.020772 0.498409
O O15 0.744875 0.981023 0.058089
O O16 0.525597 0.365828 0.040625
#
# Coordination Sequence:
#
# PCOD8010406 Si02
#       8
#     2   2   2   2   2   2   2   2
#     4  12  25  41  63  91 124 161 205 254 304 361
#     4  12  25  41  63  91 124 161 205 254 304 361
#     4  12  24  40  63  91 125 162 205 253 302 360
#     4  10  21  39  63  90 123 161 200 246 302 361
#     4  10  21  38  60  86 119 157 197 246 305 363
#     4  10  21  39  63  90 123 161 200 246 302 361
#     4  10  21  38  60  86 119 157 197 246 305 363
#     4  12  24  40  63  91 125 162 205 253 302 360
#
# _framework density 21.579165
#
# number of rings (size 3 to 8) (size 9 to 14) (size 15 to 20)
#    0.000    1.000    0.000    8.250    0.000    3.500 
#    0.000    0.000    0.000    7.500    0.000    0.000 
#    0.000    0.000    0.000    0.000    0.000    0.000 
#
# Total GULP energy -198496.312918 kJ/mol
# GULP energy per Si atom -12406.019557 kJ/mol
# Density = 2.153005 g / cm^3
# Si number density = 21.579165 Si / 1000 Ang^3
#
#
#
# Elastic Constant Matrix: (Units=GPa)
#
#
# Indices 1 2 3 4 5 6 
#
# 1 63.6511 48.2281 19.7251 -9.4674 -11.7774 -3.5741
# 2 48.2281 108.2311 33.0602 -10.2966 -10.0786 0.0206
# 3 19.7251 33.0602 119.3314 -4.3820 -7.1808 9.6172
# 4 -9.4674 -10.2966 -4.3820 35.8792 4.6416 -4.7157
# 5 -11.7774 -10.0786 -7.1808 4.6416 32.9922 -0.0579
# 6 -3.5741 0.0206 9.6172 -4.7157 -0.0579 25.4894
#
#
#
# Elastic Compliance Matrix: (Units=1/GPa)
#
#
# Indices 1 2 3 4 5 6 
#
# 1 0.025612 -0.010167 -0.001355 0.003627 0.005240 0.004794
# 2 -0.010167 0.014592 -0.002280 0.001157 0.000169 -0.000363
# 3 -0.001355 -0.002280 0.009590 -0.000477 0.000967 -0.003893
# 4 0.003627 0.001157 -0.000477 0.030278 -0.002704 0.006283
# 5 0.005240 0.000169 0.000967 -0.002704 0.032823 -0.000056
# 6 0.004794 -0.000363 -0.003893 0.006283 -0.000056 0.042535
#
#
# Mechanical properties :
#
#
# Convention : Reuss Voigt Hill
#
# Bulk Modulus (GPa) = 45.06391 54.80448 49.93419
# Shear Modulus (GPa) = 26.25610 31.55218 28.90414
#
# Velocity S-wave (km/s) = 3.49196 3.82797 3.66382
# Velocity P-wave (km/s) = 6.09809 6.70745 6.41002
#
# Compressibility (1/GPa) = 0.02219071
#
# Stress axis : x y z
#
# Youngs Moduli (GPa) = 39.04389 68.52931 104.27420
#
# Poissons Ratio (x) = 0.69673 0.14126
# Poissons Ratio (y) = 0.39696 0.23778
# Poissons Ratio (z) = 0.05289 0.15627
#
# Static dielectric constant tensor:
#      x y z
#    x 3.585240 0.008830 0.008660 
#    y 0.008830 3.945250 0.001360 
#    z 0.008660 0.001360 4.112190 
# 
# 
# High freq. dielectric constant tensor:
#      x y z
#    x 1.823560 0.000190 -0.000670 
#    y 0.000190 1.860250 -0.000190 
#    z -0.000670 -0.000190 1.868590 
# 
# From -- ./inp_files/226238.got.cif
#   From: 2010.06.25/outbox.cif.g09.slc.cpg/sg2_114_cif.got.tgz:226238.got - 2010.06.27 13:26:56.
