data_PCOD8010141
_publ_section_title
;
Structure prediction by ZEFSAII (Michael W. Deem and Ramdas Pophale) SiO2 
 PCOD8010141
Probable space group: P -1
;
_chemical_formula_sum "Si O2"
_cell_formula_units_Z 16
_cell_length_a 13.350880
_cell_length_b 8.464506
_cell_length_c 9.896279
_cell_angle_alpha 107.592671
_cell_angle_beta 88.363754
_cell_angle_gamma 49.609099
_cell_volume 772.192728
_symmetry_space_group_name_H-M "P -1"
_symmetry_group_IT_number 2
_symmetry_cell_setting 'triclinic'
loop_
_space_group_symop_operation_xyz
x,y,z
-x,-y,-z
loop_
_atom_site_type_symbol
_atom_site_label
_atom_site_fract_x
_atom_site_fract_y
_atom_site_fract_z
Si Si1 0.894094 0.687277 0.790181
Si Si2 0.740619 0.380999 0.797248
Si Si3 0.396438 0.159846 0.162283
Si Si4 0.539516 0.075889 0.637440
Si Si5 0.885586 0.998250 0.056264
Si Si6 0.034232 0.190131 0.700864
Si Si7 0.387084 0.531011 0.916259
Si Si8 0.194161 0.040629 0.394101
O O1 0.740885 0.791386 0.841825
O O2 0.909260 0.756080 0.658719
O O3 0.007545 0.416746 0.742910
O O4 0.928010 0.782251 0.925748
O O5 0.637952 0.605018 0.765404
O O6 0.895607 0.243950 0.716596
O O7 0.719342 0.208156 0.741771
O O8 0.703493 0.476200 0.977358
O O9 0.471793 0.029973 0.262273
O O10 0.500000 0.000000 0.000000
O O11 0.449005 0.343153 0.746603
O O12 0.500000 0.000000 0.500000
O O13 0.695101 0.949903 0.562244
O O14 0.887234 0.956711 0.205210
O O15 0.725474 0.222072 0.087100
O O16 0.000000 0.000000 0.000000
O O17 0.119909 0.044688 0.526945
O O18 0.500000 0.500000 0.000000
#
# Coordination Sequence:
#
# PCOD8010141 Si02
#       8
#     2   2   2   2   2   2   2   2
#     4  10  22  40  64  92 130 175 222 262 329 404
#     4  11  21  40  70  96 121 171 231 262 320 402
#     4  10  21  37  66  94 125 170 224 271 322 400
#     4  11  25  42  62  98 135 172 215 280 342 380
#     4  12  24  41  66  99 132 171 221 279 329 384
#     4  11  24  40  63 100 134 162 215 281 338 380
#     4  12  22  44  73  93 130 181 225 266 326 406
#     4  11  22  43  64  93 134 177 216 269 328 404
#
# _framework density 20.720217000000002
#
# number of rings (size 3 to 8) (size 9 to 14) (size 15 to 20)
#    0.000    1.000    5.000    1.875    0.000    3.000 
#    0.000    2.500    0.000    0.000    0.000    0.000 
#    0.000    0.000    0.000    0.000    0.000    0.000 
#
# Total GULP energy -198255.777709 kJ/mol
# GULP energy per Si atom -12390.986107 kJ/mol
# Density = 2.067306 g / cm^3
# Si number density = 20.720217 Si / 1000 Ang^3
#
#
#
# Elastic Constant Matrix: (Units=GPa)
#
#
# Indices 1 2 3 4 5 6 
#
# 1 55.4324 36.7240 46.2285 -2.4541 -0.3960 4.8889
# 2 36.7240 141.6946 39.2648 -13.3338 7.4329 2.0249
# 3 46.2285 39.2648 127.1135 -10.3421 -9.3040 -1.9109
# 4 -2.4541 -13.3338 -10.3421 38.4192 12.5725 -1.6111
# 5 -0.3960 7.4329 -9.3040 12.5725 39.7142 2.7198
# 6 4.8889 2.0249 -1.9109 -1.6111 2.7198 31.3961
#
#
#
# Elastic Compliance Matrix: (Units=1/GPa)
#
#
# Indices 1 2 3 4 5 6 
#
# 1 0.029773 -0.005298 -0.009472 -0.002796 0.000300 -0.005040
# 2 -0.005298 0.009164 -0.000826 0.003685 -0.003172 0.000648
# 3 -0.009472 -0.000826 0.011896 0.001692 0.002164 0.002152
# 4 -0.002796 0.003685 0.001692 0.031090 -0.010355 0.002793
# 5 0.000300 -0.003172 0.002164 -0.010355 0.029755 -0.002819
# 6 -0.005040 0.000648 0.002152 0.002793 -0.002819 0.033113
#
#
# Mechanical properties :
#
#
# Convention : Reuss Voigt Hill
#
# Bulk Modulus (GPa) = 50.92274 63.18610 57.05442
# Shear Modulus (GPa) = 27.39286 35.37412 31.38349
#
# Velocity S-wave (km/s) = 3.63993 4.13634 3.89605
# Velocity P-wave (km/s) = 6.50347 7.30572 6.91624
#
# Compressibility (1/GPa) = 0.01963759
#
# Stress axis : x y z
#
# Youngs Moduli (GPa) = 33.58784 109.12831 84.06486
#
# Poissons Ratio (x) = 0.57820 0.79630
# Poissons Ratio (y) = 0.17796 0.06947
# Poissons Ratio (z) = 0.31816 0.09018
#
# Static dielectric constant tensor:
#      x y z
#    x 3.766080 0.206560 -0.154140 
#    y 0.206560 4.057480 0.020550 
#    z -0.154140 0.020550 3.565270 
# 
# 
# High freq. dielectric constant tensor:
#      x y z
#    x 1.807610 0.012040 -0.014100 
#    y 0.012040 1.823100 0.003110 
#    z -0.014100 0.003110 1.810130 
# 
# From -- ./inp_files/296101.got.cif
#   From: 2010.06.25/outbox.cif.g09.slc.cpg/sg2_149_cif.got.tgz:296101.got - 2010.06.27 13:26:56.
