data_PCOD8010620
_publ_section_title
;
Structure prediction by ZEFSAII (Michael W. Deem and Ramdas Pophale) SiO2 
 PCOD8010620
Probable space group: P -1
;
_chemical_formula_sum "Si O2"
_cell_formula_units_Z 14
_cell_length_a 5.196185
_cell_length_b 5.015329
_cell_length_c 27.832076
_cell_angle_alpha 72.752882
_cell_angle_beta 63.949875
_cell_angle_gamma 61.423192
_cell_volume 568.806494
_symmetry_space_group_name_H-M "P -1"
_symmetry_group_IT_number 2
_symmetry_cell_setting 'triclinic'
loop_
_space_group_symop_operation_xyz
x,y,z
-x,-y,-z
loop_
_atom_site_type_symbol
_atom_site_label
_atom_site_fract_x
_atom_site_fract_y
_atom_site_fract_z
Si Si1 0.013026 0.668018 0.646460
Si Si2 0.319022 0.401666 0.808732
Si Si3 0.591861 0.712981 0.846605
Si Si4 0.359901 0.294633 0.936784
Si Si5 0.405630 0.687492 0.314369
Si Si6 0.716814 0.658139 0.955594
Si Si7 0.282863 0.822678 0.521547
O O1 0.297459 0.450750 0.667651
O O2 0.146824 0.796862 0.585478
O O3 0.830759 0.475962 0.649473
O O4 0.772634 0.951751 0.681151
O O5 0.499133 0.547861 0.819722
O O6 0.485001 0.350344 0.746980
O O7 0.958611 0.633567 0.818836
O O8 0.373110 0.071721 0.844116
O O9 0.533455 0.536328 0.909723
O O10 0.059662 0.440937 0.917845
O O11 0.588297 0.959846 0.915538
O O12 0.224210 0.226244 0.002027
O O13 0.500000 0.500000 0.000000
O O14 0.500000 0.500000 0.500000
O O15 0.500000 0.000000 0.500000
O O16 0.000000 0.000000 0.500000
#
# Coordination Sequence:
#
# PCOD8010620 Si02
#       7
#     2   2   2   2   2   2   2
#     4  12  25  43  71 101 133 186 225 278 336 397
#     4  12  26  45  68  98 130 176 219 288 337 396
#     4  12  27  45  71  98 136 174 223 272 353 400
#     4  10  23  38  59  92 119 166 209 263 317 405
#     4  12  24  44  67  96 133 171 235 279 333 401
#     4  10  21  38  62  87 123 160 211 259 320 377
#     4  12  24  43  67 101 144 180 225 278 334 399
#
# _framework density 24.612939999999998
#
# number of rings (size 3 to 8) (size 9 to 14) (size 15 to 20)
#    0.000    0.571    0.000    8.571    4.000    0.000 
#    0.000    0.000    0.000    0.000    0.000    0.000 
#    0.000    0.000    0.000    0.000    0.000    0.000 
#
# Total GULP energy -173619.247631 kJ/mol
# GULP energy per Si atom -12401.374831 kJ/mol
# Density = 2.455692 g / cm^3
# Si number density = 24.612940 Si / 1000 Ang^3
#
#
#
# Elastic Constant Matrix: (Units=GPa)
#
#
# Indices 1 2 3 4 5 6 
#
# 1 127.2397 69.5427 11.8064 -11.7878 -2.8328 -9.4225
# 2 69.5427 181.8380 0.9818 -16.3670 -6.8522 -24.4854
# 3 11.8064 0.9818 93.1239 -0.6323 8.8963 -23.3727
# 4 -11.7878 -16.3670 -0.6323 36.0889 1.5277 1.2672
# 5 -2.8328 -6.8522 8.8963 1.5277 40.1396 1.5249
# 6 -9.4225 -24.4854 -23.3727 1.2672 1.5249 36.0074
#
#
#
# Elastic Compliance Matrix: (Units=1/GPa)
#
#
# Indices 1 2 3 4 5 6 
#
# 1 0.010197 -0.003876 -0.001538 0.001566 0.000379 -0.001036
# 2 -0.003876 0.007908 0.001739 0.002144 0.000404 0.005399
# 3 -0.001538 0.001739 0.013682 0.000319 -0.003228 0.009787
# 4 0.001566 0.002144 0.000319 0.029193 -0.000746 0.001079
# 5 0.000379 0.000404 -0.003228 -0.000746 0.025859 -0.002790
# 6 -0.001036 0.005399 0.009787 0.001079 -0.002790 0.037605
#
#
# Mechanical properties :
#
#
# Convention : Reuss Voigt Hill
#
# Bulk Modulus (GPa) = 40.92019 62.98482 51.95251
# Shear Modulus (GPa) = 35.73032 43.77189 39.75110
#
# Velocity S-wave (km/s) = 3.81424 4.22169 4.02313
# Velocity P-wave (km/s) = 6.00495 7.02917 6.53715
#
# Compressibility (1/GPa) = 0.02443781
#
# Stress axis : x y z
#
# Youngs Moduli (GPa) = 98.06878 126.46200 73.08953
#
# Poissons Ratio (x) = 0.49013 0.11238
# Poissons Ratio (y) = 0.38009 -0.12711
# Poissons Ratio (z) = 0.15079 -0.21993
#
# Static dielectric constant tensor:
#      x y z
#    x 5.339420 -0.443990 1.209550 
#    y -0.443990 5.208660 -0.531120 
#    z 1.209550 -0.531120 6.749980 
# 
# 
# High freq. dielectric constant tensor:
#      x y z
#    x 2.007770 -0.001170 0.015350 
#    y -0.001170 2.006820 0.002380 
#    z 0.015350 0.002380 1.992410 
# 
# From -- ./inp_files/614929.got.cif
#   From: 2010.06.25/outbox.cif.g09.slc.cpg/sg2_308_cif.got.tgz:614929.got - 2010.06.27 13:26:56.
