data_PCOD8010343
_publ_section_title
;
Structure prediction by ZEFSAII (Michael W. Deem and Ramdas Pophale) SiO2 
 PCOD8010343
Probable space group: P -1
;
_chemical_formula_sum "Si O2"
_cell_formula_units_Z 14
_cell_length_a 12.029711
_cell_length_b 12.243727
_cell_length_c 8.744620
_cell_angle_alpha 144.759421
_cell_angle_beta 119.490266
_cell_angle_gamma 69.675968
_cell_volume 643.040563
_symmetry_space_group_name_H-M "P -1"
_symmetry_group_IT_number 2
_symmetry_cell_setting 'triclinic'
loop_
_space_group_symop_operation_xyz
x,y,z
-x,-y,-z
loop_
_atom_site_type_symbol
_atom_site_label
_atom_site_fract_x
_atom_site_fract_y
_atom_site_fract_z
Si Si1 0.720099 0.599431 0.982862
Si Si2 0.108236 0.734803 0.771354
Si Si3 0.266503 0.455520 0.420031
Si Si4 0.884249 0.880776 0.911202
Si Si5 0.737391 0.251008 0.820043
Si Si6 0.908905 0.951441 0.524036
Si Si7 0.471490 0.641022 0.009578
O O1 0.856178 0.728654 0.234555
O O2 0.687312 0.544401 0.722628
O O3 0.725448 0.406025 0.858382
O O4 0.606528 0.716815 0.108102
O O5 0.147607 0.585099 0.500500
O O6 0.952491 0.737824 0.680201
O O7 0.155965 0.666754 0.890420
O O8 0.178187 0.949559 0.024438
O O9 0.219641 0.237281 0.187403
O O10 0.383286 0.534130 0.696401
O O11 0.006397 0.994692 0.209239
O O12 0.782998 0.065290 0.558577
O O13 0.604733 0.202690 0.774453
O O14 0.000000 0.000000 0.500000
O O15 0.500000 0.500000 0.000000
#
# Coordination Sequence:
#
# PCOD8010343 Si02
#       7
#     2   2   2   2   2   2   2
#     4  11  23  39  64  89 124 158 196 255 298 351
#     4   9  21  37  58  86 121 160 204 237 294 359
#     4  11  21  37  63  89 119 153 200 249 303 348
#     4  10  21  38  59  86 122 162 198 245 288 358
#     4   9  22  41  62  88 119 163 204 241 299 357
#     4  11  23  39  58  92 126 156 197 243 303 357
#     4   9  21  42  63  87 117 160 206 244 296 357
#
# _framework density 21.771566
#
# number of rings (size 3 to 8) (size 9 to 14) (size 15 to 20)
#    0.000    2.000    1.429    0.857    2.000   13.714 
#    0.000    4.286    0.000    8.571    0.000    0.000 
#    0.000    0.000    0.000    0.000    0.000    0.000 
#
# Total GULP energy -173454.083848 kJ/mol
# GULP energy per Si atom -12389.577418 kJ/mol
# Density = 2.172201 g / cm^3
# Si number density = 21.771566 Si / 1000 Ang^3
#
#
#
# Elastic Constant Matrix: (Units=GPa)
#
#
# Indices 1 2 3 4 5 6 
#
# 1 121.3547 41.3729 25.7706 -4.0998 -21.1949 18.3927
# 2 41.3729 98.0312 19.6191 -6.1932 -4.2099 17.3640
# 3 25.7706 19.6191 51.2030 -6.8629 -2.0964 5.7008
# 4 -4.0998 -6.1932 -6.8629 19.9851 2.3516 0.3819
# 5 -21.1949 -4.2099 -2.0964 2.3516 38.5374 1.7788
# 6 18.3927 17.3640 5.7008 0.3819 1.7788 34.0356
#
#
#
# Elastic Compliance Matrix: (Units=1/GPa)
#
#
# Indices 1 2 3 4 5 6 
#
# 1 0.011951 -0.003201 -0.004118 -0.000604 0.006242 -0.004455
# 2 -0.003201 0.013002 -0.002536 0.002638 -0.000432 -0.004486
# 3 -0.004118 -0.002536 0.023438 0.006620 -0.001652 -0.000395
# 4 -0.000604 0.002638 0.006620 0.053386 -0.002822 -0.002580
# 5 0.006242 -0.000432 -0.001652 -0.002822 0.029619 -0.004392
# 6 -0.004455 -0.004486 -0.000395 -0.002580 -0.004392 0.034402
#
#
# Mechanical properties :
#
#
# Convention : Reuss Voigt Hill
#
# Bulk Modulus (GPa) = 34.86459 49.34601 42.10530
# Shear Modulus (GPa) = 25.63232 30.76670 28.19951
#
# Velocity S-wave (km/s) = 3.43495 3.76328 3.60286
# Velocity P-wave (km/s) = 5.63741 6.44962 6.05714
#
# Compressibility (1/GPa) = 0.02868239
#
# Stress axis : x y z
#
# Youngs Moduli (GPa) = 83.67597 76.91280 42.66615
#
# Poissons Ratio (x) = 0.24616 0.17569
# Poissons Ratio (y) = 0.26781 0.10818
# Poissons Ratio (z) = 0.34457 0.19501
#
# Static dielectric constant tensor:
#      x y z
#    x 4.445230 -0.153200 -0.333770 
#    y -0.153200 4.075970 -0.065930 
#    z -0.333770 -0.065930 3.747370 
# 
# 
# High freq. dielectric constant tensor:
#      x y z
#    x 1.865220 0.005820 -0.016450 
#    y 0.005820 1.860230 -0.002580 
#    z -0.016450 -0.002580 1.825410 
# 
# From -- ./inp_files/78828.got.cif
#   From: 2010.06.25/outbox.cif.g09.slc.cpg/sg2_40_cif.got.tgz:78828.got - 2010.06.27 13:26:56.
