data_PCOD8010252
_publ_section_title
;
Structure prediction by ZEFSAII (Michael W. Deem and Ramdas Pophale) SiO2 
 PCOD8010252
Probable space group: P -1
;
_chemical_formula_sum "Si O2"
_cell_formula_units_Z 16
_cell_length_a 18.031648
_cell_length_b 6.557464
_cell_length_c 25.356150
_cell_angle_alpha 63.064009
_cell_angle_beta 160.248961
_cell_angle_gamma 105.581248
_cell_volume 769.557969
_symmetry_space_group_name_H-M "P -1"
_symmetry_group_IT_number 2
_symmetry_cell_setting 'triclinic'
loop_
_space_group_symop_operation_xyz
x,y,z
-x,-y,-z
loop_
_atom_site_type_symbol
_atom_site_label
_atom_site_fract_x
_atom_site_fract_y
_atom_site_fract_z
Si Si1 0.233157 0.223285 0.275877
Si Si2 0.526303 0.486212 0.193852
Si Si3 0.671501 0.068941 0.071683
Si Si4 0.070432 0.392348 0.885681
Si Si5 0.772316 0.176171 0.955207
Si Si6 0.077527 0.567611 0.336983
Si Si7 0.854275 0.985208 0.540321
Si Si8 0.488046 0.342085 0.343647
O O1 0.135291 0.473266 0.220888
O O2 0.297422 0.279437 0.254477
O O3 0.500000 0.000000 0.500000
O O4 0.049020 0.102452 0.171501
O O5 0.463995 0.685865 0.177784
O O6 0.773429 0.190571 0.410769
O O7 0.274065 0.479509 0.015765
O O8 0.533979 0.643210 0.128121
O O9 0.821067 0.832171 0.156357
O O10 0.874305 0.083817 0.244664
O O11 0.500000 0.000000 0.000000
O O12 0.941141 0.472935 0.732559
O O13 0.222531 0.078057 0.034406
O O14 0.724010 0.371925 0.852821
O O15 0.309311 0.619466 0.492243
O O16 0.122937 0.296028 0.428212
O O17 0.628890 0.127341 0.416236
#
# Coordination Sequence:
#
# PCOD8010252 Si02
#       8
#     2   2   2   2   2   2   2   2
#     4  11  23  34  53  85 120 155 204 250 289 337
#     4  10  21  41  63  88 123 157 196 245 297 356
#     4  11  24  42  65  92 120 152 194 248 303 360
#     4  11  21  36  62  84 116 162 202 240 293 353
#     4  10  21  38  57  82 117 162 200 245 295 343
#     4  11  21  39  64  87 118 157 204 240 297 361
#     4  10  22  41  64  89 121 161 198 241 297 356
#     4  10  22  37  57  85 121 157 201 249 290 342
#
# _framework density 20.791156000000001
#
# number of rings (size 3 to 8) (size 9 to 14) (size 15 to 20)
#    0.000    1.500    2.500    2.625    3.500    4.500 
#    0.000    0.625    0.000    0.000    0.000    0.000 
#    0.000    0.000    0.000    0.000    0.000    0.000 
#
# Total GULP energy -198220.863629 kJ/mol
# GULP energy per Si atom -12388.803977 kJ/mol
# Density = 2.074383 g / cm^3
# Si number density = 20.791156 Si / 1000 Ang^3
#
#
#
# Elastic Constant Matrix: (Units=GPa)
#
#
# Indices 1 2 3 4 5 6 
#
# 1 49.0849 -7.3454 -1.0465 6.7513 -5.5419 17.3629
# 2 -7.3454 63.6924 -11.5293 -14.5376 2.2788 2.7008
# 3 -1.0465 -11.5293 44.2556 -7.3760 -17.4877 5.2339
# 4 6.7513 -14.5376 -7.3760 27.6527 9.1944 -9.6498
# 5 -5.5419 2.2788 -17.4877 9.1944 33.1690 -4.6956
# 6 17.3629 2.7008 5.2339 -9.6498 -4.6956 31.2990
#
#
#
# Elastic Compliance Matrix: (Units=1/GPa)
#
#
# Indices 1 2 3 4 5 6 
#
# 1 0.031903 0.001310 0.004554 -0.016718 0.009110 -0.022360
# 2 0.001310 0.019950 0.006915 0.012339 -0.000918 0.000062
# 3 0.004554 0.006915 0.031786 0.004265 0.015176 -0.004846
# 4 -0.016718 0.012339 0.004265 0.061267 -0.014958 0.024141
# 5 0.009110 -0.000918 0.015176 -0.014958 0.043080 -0.005661
# 6 -0.022360 0.000062 -0.004846 0.024141 -0.005661 0.051753
#
#
# Mechanical properties :
#
#
# Convention : Reuss Voigt Hill
#
# Bulk Modulus (GPa) = 9.15784 13.02118 11.08951
# Shear Modulus (GPa) = 19.95369 30.22110 25.08739
#
# Velocity S-wave (km/s) = 3.10130 3.81669 3.47744
# Velocity P-wave (km/s) = 4.15190 5.06944 4.63344
#
# Compressibility (1/GPa) = 0.10919611
#
# Stress axis : x y z
#
# Youngs Moduli (GPa) = 31.34456 50.12566 31.46051
#
# Poissons Ratio (x) = -0.06567 -0.14326
# Poissons Ratio (y) = -0.04106 -0.21755
# Poissons Ratio (z) = -0.14273 -0.34661
#
# Static dielectric constant tensor:
#      x y z
#    x 3.571690 -0.182830 -0.244260 
#    y -0.182830 3.691020 -0.207160 
#    z -0.244260 -0.207160 3.899500 
# 
# 
# High freq. dielectric constant tensor:
#      x y z
#    x 1.797240 0.006580 -0.020240 
#    y 0.006580 1.821510 -0.008650 
#    z -0.020240 -0.008650 1.818300 
# 
# From -- ./inp_files/37488.got.cif
#   From: 2010.06.25/outbox.cif.g09.slc.cpg/sg2_19_cif.got.tgz:37488.got - 2010.06.27 13:26:56.
