data_PCOD8010276
_publ_section_title
;
Structure prediction by ZEFSAII (Michael W. Deem and Ramdas Pophale) SiO2 
 PCOD8010276
Probable space group: P -1
;
_chemical_formula_sum "Si O2"
_cell_formula_units_Z 14
_cell_length_a 13.714295
_cell_length_b 11.656314
_cell_length_c 11.192245
_cell_angle_alpha 53.497801
_cell_angle_beta 33.216445
_cell_angle_gamma 43.070037
_cell_volume 668.675925
_symmetry_space_group_name_H-M "P -1"
_symmetry_group_IT_number 2
_symmetry_cell_setting 'triclinic'
loop_
_space_group_symop_operation_xyz
x,y,z
-x,-y,-z
loop_
_atom_site_type_symbol
_atom_site_label
_atom_site_fract_x
_atom_site_fract_y
_atom_site_fract_z
Si Si1 0.244912 0.574003 0.436247
Si Si2 0.596062 0.639682 0.031749
Si Si3 0.534844 0.004033 0.100273
Si Si4 0.179770 0.668619 0.174377
Si Si5 0.531130 0.214114 0.301086
Si Si6 0.112292 0.350447 0.073091
Si Si7 0.288653 0.061153 0.531984
O O1 0.429158 0.598239 0.279736
O O2 0.164984 0.656319 0.338153
O O3 0.329192 0.376839 0.463803
O O4 0.058341 0.661415 0.667295
O O5 0.737079 0.510126 0.862907
O O6 0.740702 0.620645 0.007192
O O7 0.470592 0.822533 0.983384
O O8 0.342624 0.014006 0.365780
O O9 0.751602 0.831041 0.020967
O O10 0.500000 0.000000 0.000000
O O11 0.947226 0.794356 0.287824
O O12 0.335623 0.733068 0.948313
O O13 0.457102 0.110710 0.364614
O O14 0.674879 0.099694 0.333631
O O15 0.000000 0.500000 0.000000
#
# Coordination Sequence:
#
# PCOD8010276 Si02
#       7
#     2   2   2   2   2   2   2
#     4  11  22  39  63  86 115 153 192 239 292 340
#     4  10  22  40  60  87 118 148 191 244 287 338
#     4  10  21  38  58  82 115 153 195 234 274 337
#     4  11  21  37  63  90 114 148 194 237 292 352
#     4  10  22  37  58  89 118 147 187 240 296 346
#     4  11  24  41  60  85 116 156 199 233 280 344
#     4  11  21  37  59  84 120 154 185 238 294 334
#
# _framework density 20.936899
#
# number of rings (size 3 to 8) (size 9 to 14) (size 15 to 20)
#    0.000    1.429    0.000    7.286    0.000    4.000 
#    0.000    7.143    0.000    0.000    0.000    0.000 
#    0.000    0.000    0.000    0.000    0.000    0.000 
#
# Total GULP energy -173589.386782 kJ/mol
# GULP energy per Si atom -12399.241913 kJ/mol
# Density = 2.088925 g / cm^3
# Si number density = 20.936899 Si / 1000 Ang^3
#
#
#
# Elastic Constant Matrix: (Units=GPa)
#
#
# Indices 1 2 3 4 5 6 
#
# 1 58.5533 13.0143 14.0499 -1.8493 -3.1774 -16.7000
# 2 13.0143 135.1378 33.3926 7.8969 8.8717 -27.1021
# 3 14.0499 33.3926 68.0862 21.2797 -1.6625 -0.4613
# 4 -1.8493 7.8969 21.2797 32.1403 -2.8193 2.3737
# 5 -3.1774 8.8717 -1.6625 -2.8193 22.2796 3.3139
# 6 -16.7000 -27.1021 -0.4613 2.3737 3.3139 25.4491
#
#
#
# Elastic Compliance Matrix: (Units=1/GPa)
#
#
# Indices 1 2 3 4 5 6 
#
# 1 0.023512 0.003052 -0.007554 0.004205 -0.000605 0.018229
# 2 0.003052 0.012547 -0.006768 -0.000286 -0.007519 0.016248
# 3 -0.007554 -0.006768 0.023763 -0.013408 0.003318 -0.010915
# 4 0.004205 -0.000286 -0.013408 0.040931 0.005233 -0.002287
# 5 -0.000605 -0.007519 0.003318 0.005233 0.051003 -0.015474
# 6 0.018229 0.016248 -0.010915 -0.002287 -0.015474 0.070590
#
#
# Mechanical properties :
#
#
# Convention : Reuss Voigt Hill
#
# Bulk Modulus (GPa) = 26.82239 42.52123 34.67181
# Shear Modulus (GPa) = 19.43163 29.39515 24.41339
#
# Velocity S-wave (km/s) = 3.04979 3.75105 3.41845
# Velocity P-wave (km/s) = 5.02399 6.25410 5.67249
#
# Compressibility (1/GPa) = 0.03728228
#
# Stress axis : x y z
#
# Youngs Moduli (GPa) = 42.53204 79.69980 42.08258
#
# Poissons Ratio (x) = -0.24326 0.31790
# Poissons Ratio (y) = -0.12982 0.28480
# Poissons Ratio (z) = 0.32130 0.53938
#
# Static dielectric constant tensor:
#      x y z
#    x 3.697170 -0.023260 0.059050 
#    y -0.023260 4.403680 0.104360 
#    z 0.059050 0.104360 3.832290 
# 
# 
# High freq. dielectric constant tensor:
#      x y z
#    x 1.808030 -0.009570 0.009140 
#    y -0.009570 1.837650 0.003420 
#    z 0.009140 0.003420 1.823600 
# 
# From -- ./inp_files/175800.got.cif
#   From: 2010.06.25/outbox.cif.g09.slc.cpg/sg2_88_cif.got.tgz:175800.got - 2010.06.27 13:26:56.
