data_PCOD8010854
_publ_section_title
;
Structure prediction by ZEFSAII (Michael W. Deem and Ramdas Pophale) SiO2 
 PCOD8010854
Probable space group: P -1
;
_chemical_formula_sum "Si O2"
_cell_formula_units_Z 14
_cell_length_a 12.774737
_cell_length_b 13.099949
_cell_length_c 8.145519
_cell_angle_alpha 50.520933
_cell_angle_beta 121.319877
_cell_angle_gamma 144.080824
_cell_volume 617.199725
_symmetry_space_group_name_H-M "P -1"
_symmetry_group_IT_number 2
_symmetry_cell_setting 'triclinic'
loop_
_space_group_symop_operation_xyz
x,y,z
-x,-y,-z
loop_
_atom_site_type_symbol
_atom_site_label
_atom_site_fract_x
_atom_site_fract_y
_atom_site_fract_z
Si Si1 0.013332 0.040292 0.279762
Si Si2 0.722727 0.330604 0.573973
Si Si3 0.276257 0.617029 0.850503
Si Si4 0.622993 0.572901 0.767576
Si Si5 0.900954 0.239375 0.005955
Si Si6 0.392779 0.952144 0.800062
Si Si7 0.741575 0.614907 0.449147
O O1 0.226026 0.218328 0.231312
O O2 0.000000 0.000000 0.500000
O O3 0.907853 0.840528 0.302738
O O4 0.916127 0.102057 0.090243
O O5 0.781471 0.397247 0.367412
O O6 0.798445 0.249884 0.780500
O O7 0.798904 0.509360 0.565578
O O8 0.505325 0.154918 0.591802
O O9 0.384468 0.822188 0.804777
O O10 0.097618 0.451889 0.980344
O O11 0.398320 0.581909 0.994083
O O12 0.689353 0.591999 0.618397
O O13 0.430706 0.490661 0.697499
O O14 0.802665 0.153937 0.191276
O O15 0.500000 0.000000 0.000000
#
# Coordination Sequence:
#
# PCOD8010854 Si02
#       7
#     2   2   2   2   2   2   2
#     4   9  20  37  63  93 122 157 214 266 306 361
#     4  11  24  39  61  96 129 163 205 254 330 375
#     4  11  22  41  62  93 130 163 201 267 318 377
#     4   9  20  37  64  89 123 166 219 255 310 370
#     4  10  22  41  65  91 121 166 213 258 306 376
#     4  10  22  37  64  90 120 158 216 253 304 368
#     4  10  21  38  64  91 126 167 210 265 307 376
#
# _framework density 22.683095999999999
#
# number of rings (size 3 to 8) (size 9 to 14) (size 15 to 20)
#    0.000    2.000    0.000    3.000   10.000    2.857 
#    0.000    2.857    0.000    0.000    0.000    0.000 
#    0.000    0.000    0.000    0.000    0.000    0.000 
#
# Total GULP energy -173544.704709 kJ/mol
# GULP energy per Si atom -12396.050336 kJ/mol
# Density = 2.263147 g / cm^3
# Si number density = 22.683096 Si / 1000 Ang^3
#
#
#
# Elastic Constant Matrix: (Units=GPa)
#
#
# Indices 1 2 3 4 5 6 
#
# 1 42.8681 39.6856 22.9400 -6.2424 1.8162 6.2523
# 2 39.6856 153.5320 42.0338 -34.2303 10.2819 -4.6286
# 3 22.9400 42.0338 89.0662 -8.9887 24.6281 1.2599
# 4 -6.2424 -34.2303 -8.9887 38.3511 0.2894 7.4570
# 5 1.8162 10.2819 24.6281 0.2894 25.4118 -0.5746
# 6 6.2523 -4.6286 1.2599 7.4570 -0.5746 29.9646
#
#
#
# Elastic Compliance Matrix: (Units=1/GPa)
#
#
# Indices 1 2 3 4 5 6 
#
# 1 0.035584 -0.008347 -0.007518 -0.001972 0.007968 -0.007754
# 2 -0.008347 0.011081 -0.001664 0.007864 -0.002330 0.001521
# 3 -0.007518 -0.001664 0.018877 0.001900 -0.017112 -0.000283
# 4 -0.001972 0.007864 0.001900 0.034656 -0.005439 -0.007182
# 5 0.007968 -0.002330 -0.017112 -0.005439 0.056397 0.001132
# 6 -0.007754 0.001521 -0.000283 -0.007182 0.001132 0.037047
#
#
# Mechanical properties :
#
#
# Convention : Reuss Voigt Hill
#
# Bulk Modulus (GPa) = 32.80345 54.97613 43.88979
# Shear Modulus (GPa) = 20.93276 30.79930 25.86603
#
# Velocity S-wave (km/s) = 3.04112 3.68884 3.38053
# Velocity P-wave (km/s) = 5.17921 6.51403 5.88459
#
# Compressibility (1/GPa) = 0.03048460
#
# Stress axis : x y z
#
# Youngs Moduli (GPa) = 28.10267 90.24125 52.97543
#
# Poissons Ratio (x) = 0.75320 0.39830
# Poissons Ratio (y) = 0.23456 0.08813
# Poissons Ratio (z) = 0.21129 0.15013
#
# Static dielectric constant tensor:
#      x y z
#    x 4.046260 0.487910 0.040280 
#    y 0.487910 4.346760 -0.320660 
#    z 0.040280 -0.320660 4.165810 
# 
# 
# High freq. dielectric constant tensor:
#      x y z
#    x 1.864930 0.014630 0.012500 
#    y 0.014630 1.901660 -0.017830 
#    z 0.012500 -0.017830 1.893750 
# 
# From -- ./inp_files/184371.got.cif
#   From: 2010.06.25/outbox.cif.g09.slc.cpg/sg2_93_cif.got.tgz:184371.got - 2010.06.27 13:26:56.
