data_PCOD8010734
_publ_section_title
;
Structure prediction by ZEFSAII (Michael W. Deem and Ramdas Pophale) SiO2 
 PCOD8010734
Probable space group: P -1
;
_chemical_formula_sum "Si O2"
_cell_formula_units_Z 16
_cell_length_a 5.059703
_cell_length_b 5.306658
_cell_length_c 28.306905
_cell_angle_alpha 69.929789
_cell_angle_beta 93.391627
_cell_angle_gamma 61.176847
_cell_volume 601.698191
_symmetry_space_group_name_H-M "P -1"
_symmetry_group_IT_number 2
_symmetry_cell_setting 'triclinic'
loop_
_space_group_symop_operation_xyz
x,y,z
-x,-y,-z
loop_
_atom_site_type_symbol
_atom_site_label
_atom_site_fract_x
_atom_site_fract_y
_atom_site_fract_z
Si Si1 0.184517 0.768320 0.783188
Si Si2 0.771485 0.647737 0.113336
Si Si3 0.195352 0.121967 0.519977
Si Si4 0.532860 0.221352 0.764163
Si Si5 0.630628 0.226158 0.980872
Si Si6 0.421776 0.198086 0.131800
Si Si7 0.300146 0.846407 0.641374
Si Si8 0.973216 0.596110 0.323077
O O1 0.108653 0.518981 0.823120
O O2 0.371349 0.602251 0.746920
O O3 0.381910 0.775954 0.827074
O O4 0.849820 0.084774 0.744583
O O5 0.520506 0.597066 0.083605
O O6 0.088041 0.515762 0.093857
O O7 0.608960 0.027006 0.096307
O O8 0.000000 0.500000 0.500000
O O9 0.500000 0.000000 0.500000
O O10 0.308731 0.961720 0.582085
O O11 0.000000 0.000000 0.500000
O O12 0.267061 0.177640 0.737542
O O13 0.655569 0.049163 0.827470
O O14 0.500000 0.500000 0.000000
O O15 0.500000 0.000000 0.000000
O O16 0.000000 0.000000 0.000000
O O17 0.138780 0.642841 0.650574
O O18 0.664096 0.609272 0.675843
O O19 0.096889 0.162121 0.650693
#
# Coordination Sequence:
#
# PCOD8010734 Si02
#       8
#     2   2   2   2   2   2   2   2
#     4  10  21  38  63  88 125 161 227 269 330 390
#     4  10  23  39  61  94 123 169 215 282 329 392
#     4  12  25  45  74 103 137 179 230 293 342 405
#     4  10  23  38  59  94 120 178 216 270 327 392
#     4  12  28  47  73 102 139 182 229 279 349 423
#     4  10  21  38  64  89 125 162 224 269 330 390
#     4  12  26  46  69 105 137 185 228 280 350 405
#     4  12  27  45  71  98 148 181 229 280 337 421
#
# _framework density 26.591405999999999
#
# number of rings (size 3 to 8) (size 9 to 14) (size 15 to 20)
#    0.000    1.000    0.000    6.000    7.000    0.000 
#    0.000    0.000    0.000    0.000    0.000    0.000 
#    0.000    0.000    0.000    0.000    0.000    0.000 
#
# Total GULP energy -198306.683796 kJ/mol
# GULP energy per Si atom -12394.167737 kJ/mol
# Density = 2.653088 g / cm^3
# Si number density = 26.591406 Si / 1000 Ang^3
#
#
#
# Elastic Constant Matrix: (Units=GPa)
#
#
# Indices 1 2 3 4 5 6 
#
# 1 121.7144 92.2436 -6.0787 -7.0510 35.0011 -19.7259
# 2 92.2436 261.1976 37.5397 19.0191 22.8149 -39.9525
# 3 -6.0787 37.5397 105.1530 -11.6777 9.3425 -0.7784
# 4 -7.0510 19.0191 -11.6777 40.9898 9.6456 7.9702
# 5 35.0011 22.8149 9.3425 9.6456 44.8834 -12.7139
# 6 -19.7259 -39.9525 -0.7784 7.9702 -12.7139 59.1915
#
#
#
# Elastic Compliance Matrix: (Units=1/GPa)
#
#
# Indices 1 2 3 4 5 6 
#
# 1 0.019830 -0.008249 0.007145 0.014149 -0.017054 -0.004434
# 2 -0.008249 0.008428 -0.005105 -0.009487 0.006842 0.005620
# 3 0.007145 -0.005105 0.013711 0.010532 -0.009313 -0.004303
# 4 0.014149 -0.009487 0.010532 0.041308 -0.020546 -0.011525
# 5 -0.017054 0.006842 -0.009313 -0.020546 0.041423 0.010476
# 6 -0.004434 0.005620 -0.004303 -0.011525 0.010476 0.022955
#
#
# Mechanical properties :
#
#
# Convention : Reuss Voigt Hill
#
# Bulk Modulus (GPa) = 33.84095 81.71937 57.78016
# Shear Modulus (GPa) = 29.42505 53.30362 41.36433
#
# Velocity S-wave (km/s) = 3.33011 4.48207 3.94833
# Velocity P-wave (km/s) = 5.24787 7.58838 6.52394
#
# Compressibility (1/GPa) = 0.02955000
#
# Stress axis : x y z
#
# Youngs Moduli (GPa) = 50.42978 118.65140 72.93511
#
# Poissons Ratio (x) = 0.97870 -0.52111
# Poissons Ratio (y) = 0.41597 0.37236
# Poissons Ratio (z) = -0.36031 0.60577
#
# Static dielectric constant tensor:
#      x y z
#    x 5.179380 0.103140 -0.939760 
#    y 0.103140 6.343910 -1.710510 
#    z -0.939760 -1.710510 7.789270 
# 
# 
# High freq. dielectric constant tensor:
#      x y z
#    x 2.088490 0.001990 -0.012420 
#    y 0.001990 2.100530 -0.014740 
#    z -0.012420 -0.014740 2.080790 
# 
# From -- ./inp_files/14580.got.cif
#   From: 2010.06.25/outbox.cif.g09.slc.cpg/sg2_8_cif.got.tgz:14580.got - 2010.06.27 13:26:56.
