data_PCOD8010302
_publ_section_title
;
Structure prediction by ZEFSAII (Michael W. Deem and Ramdas Pophale) SiO2 
 PCOD8010302
Probable space group: P -1
;
_chemical_formula_sum "Si O2"
_cell_formula_units_Z 16
_cell_length_a 22.047801
_cell_length_b 6.886388
_cell_length_c 8.376117
_cell_angle_alpha 101.404900
_cell_angle_beta 50.429157
_cell_angle_gamma 126.505508
_cell_volume 753.510800
_symmetry_space_group_name_H-M "P -1"
_symmetry_group_IT_number 2
_symmetry_cell_setting 'triclinic'
loop_
_space_group_symop_operation_xyz
x,y,z
-x,-y,-z
loop_
_atom_site_type_symbol
_atom_site_label
_atom_site_fract_x
_atom_site_fract_y
_atom_site_fract_z
Si Si1 0.607380 0.089876 0.690125
Si Si2 0.249770 0.907534 0.784373
Si Si3 0.902535 0.599944 0.171085
Si Si4 0.108378 0.173035 0.272681
Si Si5 0.791019 0.331646 0.633210
Si Si6 0.440419 0.593291 0.050344
Si Si7 0.252954 0.083570 0.139497
Si Si8 0.122731 0.048861 0.887435
O O1 0.662417 0.081352 0.444785
O O2 0.677749 0.196395 0.746053
O O3 0.581448 0.284658 0.747702
O O4 0.506646 0.808061 0.841021
O O5 0.150136 0.615903 0.911986
O O6 0.219639 0.058724 0.755465
O O7 0.290010 0.015451 0.911936
O O8 0.867886 0.462260 0.378214
O O9 0.864039 0.770341 0.248669
O O10 0.022250 0.762754 0.977612
O O11 0.174770 0.465355 0.254382
O O12 0.157511 0.051234 0.234264
O O13 0.100757 0.154826 0.092631
O O14 0.000000 0.000000 0.500000
O O15 0.788190 0.109085 0.676135
O O16 0.339236 0.364806 0.098725
O O17 0.500000 0.500000 0.000000
#
# Coordination Sequence:
#
# PCOD8010302 Si02
#       8
#     2   2   2   2   2   2   2   2
#     4  10  23  41  67  95 125 160 217 267 316 391
#     4  10  23  41  60  94 129 166 210 265 326 377
#     4  10  21  38  58  89 127 170 224 262 313 370
#     4  11  22  40  60  94 129 173 220 261 315 373
#     4  11  21  39  64  93 128 169 215 263 317 382
#     4  11  22  43  71  97 121 166 214 267 326 384
#     4  11  24  41  67  95 133 169 212 267 323 383
#     4  10  21  39  60  84 127 178 215 270 312 373
#
# _framework density 21.233936
#
# number of rings (size 3 to 8) (size 9 to 14) (size 15 to 20)
#    0.000    1.500    3.750    1.125    0.000    5.000 
#    2.250    0.625    0.000    0.000    0.000    0.000 
#    0.000    0.000    0.000    0.000    0.000    0.000 
#
# Total GULP energy -198362.482569 kJ/mol
# GULP energy per Si atom -12397.655161 kJ/mol
# Density = 2.118561 g / cm^3
# Si number density = 21.233936 Si / 1000 Ang^3
#
#
#
# Elastic Constant Matrix: (Units=GPa)
#
#
# Indices 1 2 3 4 5 6 
#
# 1 61.2493 24.3091 32.2767 -4.8809 2.9808 -14.6350
# 2 24.3091 130.2203 52.1490 -4.0642 12.0981 1.6193
# 3 32.2767 52.1490 109.4124 7.1255 -4.7835 -1.0021
# 4 -4.8809 -4.0642 7.1255 33.9285 -5.4703 -2.3641
# 5 2.9808 12.0981 -4.7835 -5.4703 23.8451 5.9283
# 6 -14.6350 1.6193 -1.0021 -2.3641 5.9283 32.3278
#
#
#
# Elastic Compliance Matrix: (Units=1/GPa)
#
#
# Indices 1 2 3 4 5 6 
#
# 1 0.024011 -0.001158 -0.006977 0.004698 -0.005746 0.012109
# 2 -0.001158 0.010477 -0.004987 0.001183 -0.005891 -0.000037
# 3 -0.006977 -0.004987 0.014064 -0.003808 0.006323 -0.003911
# 4 0.004698 0.001183 -0.003808 0.032065 0.004544 0.003461
# 5 -0.005746 -0.005891 0.006323 0.004544 0.050709 -0.011077
# 6 0.012109 -0.000037 -0.003911 0.003461 -0.011077 0.038580
#
#
# Mechanical properties :
#
#
# Convention : Reuss Voigt Hill
#
# Bulk Modulus (GPa) = 44.83029 57.59462 51.21246
# Shear Modulus (GPa) = 24.55959 30.83010 27.69484
#
# Velocity S-wave (km/s) = 3.40460 3.81455 3.61539
# Velocity P-wave (km/s) = 6.05091 6.82523 6.44970
#
# Compressibility (1/GPa) = 0.02230635
#
# Stress axis : x y z
#
# Youngs Moduli (GPa) = 41.64822 95.44402 71.10512
#
# Poissons Ratio (x) = 0.11053 0.49613
# Poissons Ratio (y) = 0.04823 0.35461
# Poissons Ratio (z) = 0.29060 0.47599
#
# Static dielectric constant tensor:
#      x y z
#    x 3.883080 0.073950 -0.048940 
#    y 0.073950 4.302350 0.216430 
#    z -0.048940 0.216430 3.732630 
# 
# 
# High freq. dielectric constant tensor:
#      x y z
#    x 1.825860 -0.000960 -0.007860 
#    y -0.000960 1.854730 0.004410 
#    z -0.007860 0.004410 1.814960 
# 
# From -- ./inp_files/47814.got.cif
#   From: 2010.06.25/outbox.cif.g09.slc.cpg/sg2_24_cif.got.tgz:47814.got - 2010.06.27 13:26:56.
