data_PCOD8010847
_publ_section_title
;
Structure prediction by ZEFSAII (Michael W. Deem and Ramdas Pophale) SiO2 
 PCOD8010847
Probable space group: P -1
;
_chemical_formula_sum "Si O2"
_cell_formula_units_Z 16
_cell_length_a 24.759171
_cell_length_b 10.195258
_cell_length_c 6.549211
_cell_angle_alpha 43.071115
_cell_angle_beta 120.615726
_cell_angle_gamma 134.369185
_cell_volume 807.041768
_symmetry_space_group_name_H-M "P -1"
_symmetry_group_IT_number 2
_symmetry_cell_setting 'triclinic'
loop_
_space_group_symop_operation_xyz
x,y,z
-x,-y,-z
loop_
_atom_site_type_symbol
_atom_site_label
_atom_site_fract_x
_atom_site_fract_y
_atom_site_fract_z
Si Si1 0.424271 0.482253 0.641205
Si Si2 0.090806 0.362854 0.259957
Si Si3 0.429664 0.909011 0.312635
Si Si4 0.418987 0.199580 0.616189
Si Si5 0.656474 0.954928 0.752834
Si Si6 0.081032 0.933591 0.599581
Si Si7 0.170122 0.776211 0.207521
Si Si8 0.082766 0.664645 0.562820
O O1 0.401090 0.660818 0.442486
O O2 0.386532 0.325431 0.541754
O O3 0.513425 0.622055 0.607257
O O4 0.400498 0.310772 0.982307
O O5 0.147032 0.526208 0.363004
O O6 0.007251 0.214250 0.356496
O O7 0.116991 0.202766 0.403619
O O8 0.097022 0.522034 0.910392
O O9 0.500000 0.000000 0.500000
O O10 0.361262 0.880402 0.344637
O O11 0.447870 0.081249 0.960720
O O12 0.353635 0.021918 0.535809
O O13 0.741610 0.037341 0.867845
O O14 0.090618 0.885639 0.436953
O O15 0.122279 0.855932 0.912758
O O16 0.149740 0.759081 0.423830
O O17 0.000000 0.500000 0.500000
#
# Coordination Sequence:
#
# PCOD8010847 Si02
#       8
#     2   2   2   2   2   2   2   2
#     4  10  22  39  64  90 119 154 206 254 299 361
#     4  10  21  38  64  91 119 154 208 256 300 358
#     4  11  23  39  67  93 118 157 207 255 303 364
#     4  10  22  38  64  96 118 154 207 254 304 365
#     4  11  25  40  59  89 128 165 199 253 314 364
#     4  10  21  38  64  91 117 155 206 258 301 359
#     4  11  23  41  58  85 130 162 198 252 310 359
#     4  11  19  36  62  92 117 159 203 251 300 359
#
# _framework density 19.825493000000002
#
# number of rings (size 3 to 8) (size 9 to 14) (size 15 to 20)
#    0.000    1.500    3.750    1.500    3.500    6.500 
#    0.000    0.000    0.000    0.000    0.000    0.000 
#    0.000    0.000    0.000    0.000    0.000    0.000 
#
# Total GULP energy -198320.650128 kJ/mol
# GULP energy per Si atom -12395.040633 kJ/mol
# Density = 1.978037 g / cm^3
# Si number density = 19.825493 Si / 1000 Ang^3
#
#
#
# Elastic Constant Matrix: (Units=GPa)
#
#
# Indices 1 2 3 4 5 6 
#
# 1 -598.3673 -113.4931 -104.1720 -290.3258 -249.7251 -179.7089
# 2 -113.4931 70.7368 20.3882 -70.5517 -55.9778 -75.2282
# 3 -104.1720 20.3882 46.3841 -62.0076 -56.2400 -48.4410
# 4 -290.3258 -70.5517 -62.0076 -90.3981 -112.0417 -52.6440
# 5 -249.7251 -55.9778 -56.2400 -112.0417 -62.1447 -56.7072
# 6 -179.7089 -75.2282 -48.4410 -52.6440 -56.7072 16.4181
#
#
#
# Elastic Compliance Matrix: (Units=1/GPa)
#
#
# Indices 1 2 3 4 5 6 
#
# 1 0.008456 -0.002181 -0.004902 -0.010176 -0.010021 0.000863
# 2 -0.002181 0.019635 -0.010457 -0.003694 -0.003407 0.011627
# 3 -0.004902 -0.010457 0.022745 0.003511 0.005631 -0.003756
# 4 -0.010176 -0.003694 0.003511 0.030677 0.000868 -0.016587
# 5 -0.010021 -0.003407 0.005631 0.000868 0.028233 -0.008383
# 6 0.000863 0.011627 -0.003756 -0.016587 -0.008383 0.030407
#
#
# Mechanical properties :
#
#
# Convention : Reuss Voigt Hill
#
# Bulk Modulus (GPa) = 63.46752 -97.31114 -16.92181
# Shear Modulus (GPa) = 27.70277 -46.15624 -9.22674
#
# Velocity S-wave (km/s) = 3.74214 -4.83030 -2.15965
# Velocity P-wave (km/s) = 7.12419 8.96100 3.84352
#
# Compressibility (1/GPa) = 0.01575609
#
# Stress axis : x y z
#
# Youngs Moduli (GPa) = 118.25583 50.92830 43.96543
#
# Poissons Ratio (x) = 0.11109 0.21553
# Poissons Ratio (y) = 0.25795 0.45974
# Poissons Ratio (z) = 0.57971 0.53255
#
# Static dielectric constant tensor:
#      x y z
#    x 3.691740 -0.517660 -0.046730 
#    y -0.517660 4.090560 0.051420 
#    z -0.046730 0.051420 3.568530 
# 
# 
# High freq. dielectric constant tensor:
#      x y z
#    x 1.766970 -0.029260 -0.005100 
#    y -0.029260 1.776760 0.007510 
#    z -0.005100 0.007510 1.765970 
# 
# From -- ./inp_files/56247.got.cif
#   From: 2010.06.25/outbox.cif.g09.slc.cpg/sg2_29_cif.got.tgz:56247.got - 2010.06.27 13:26:56.
