data_PCOD8010897
_publ_section_title
;
Structure prediction by ZEFSAII (Michael W. Deem and Ramdas Pophale) SiO2 
 PCOD8010897
Probable space group: P -1
;
_chemical_formula_sum "Si O2"
_cell_formula_units_Z 16
_cell_length_a 5.304082
_cell_length_b 25.249766
_cell_length_c 11.122611
_cell_angle_alpha 148.970351
_cell_angle_beta 102.191041
_cell_angle_gamma 70.975930
_cell_volume 718.796946
_symmetry_space_group_name_H-M "P -1"
_symmetry_group_IT_number 2
_symmetry_cell_setting 'triclinic'
loop_
_space_group_symop_operation_xyz
x,y,z
-x,-y,-z
loop_
_atom_site_type_symbol
_atom_site_label
_atom_site_fract_x
_atom_site_fract_y
_atom_site_fract_z
Si Si1 0.219170 0.993481 0.406742
Si Si2 0.927601 0.667385 0.511706
Si Si3 0.305993 0.416432 0.458342
Si Si4 0.912459 0.350565 0.119913
Si Si5 0.194696 0.770207 0.906538
Si Si6 0.412285 0.264027 0.623560
Si Si7 0.711443 0.505601 0.930156
Si Si8 0.990390 0.803723 0.385706
O O1 0.500000 0.000000 0.500000
O O2 0.271953 0.880324 0.123153
O O3 0.000000 0.000000 0.500000
O O4 0.110831 0.086021 0.480704
O O5 0.848660 0.585919 0.436995
O O6 0.695464 0.710645 0.473780
O O7 0.946949 0.771457 0.793904
O O8 0.222198 0.597511 0.351776
O O9 0.333373 0.538206 0.690946
O O10 0.588473 0.329310 0.322988
O O11 0.160967 0.386977 0.268414
O O12 0.855672 0.257045 0.013896
O O13 0.980378 0.299222 0.896148
O O14 0.727484 0.197463 0.525129
O O15 0.233849 0.197474 0.540186
O O16 0.394140 0.375905 0.909985
O O17 0.500000 0.500000 0.000000
O O18 0.000000 0.500000 0.000000
#
# Coordination Sequence:
#
# PCOD8010897 Si02
#       8
#     2   2   2   2   2   2   2   2
#     4  12  26  49  75 101 135 174 242 294 352 414
#     4  10  24  41  64 102 140 187 233 270 344 423
#     4  10  22  39  67  97 143 178 221 281 356 417
#     4  10  22  40  62 105 133 174 227 287 353 413
#     4  11  24  41  72  96 134 182 228 292 351 410
#     4  11  25  42  66 100 143 183 231 275 339 412
#     4  10  21  38  64  95 136 187 227 269 322 399
#     4  12  25  43  71  99 136 181 231 291 346 399
#
# _framework density 22.259416000000002
#
# number of rings (size 3 to 8) (size 9 to 14) (size 15 to 20)
#    0.000    1.250    1.250    4.125   10.500    0.000 
#    0.000    1.250    0.000    0.000    0.000    0.000 
#    0.000    0.000    0.000    0.000    0.000    0.000 
#
# Total GULP energy -198302.611274 kJ/mol
# GULP energy per Si atom -12393.913205 kJ/mol
# Density = 2.220875 g / cm^3
# Si number density = 22.259416 Si / 1000 Ang^3
#
#
#
# Elastic Constant Matrix: (Units=GPa)
#
#
# Indices 1 2 3 4 5 6 
#
# 1 114.0354 34.7960 0.2353 -4.3444 10.4524 -6.5552
# 2 34.7960 116.9751 35.8109 7.5021 15.3537 -13.6908
# 3 0.2353 35.8109 80.4321 -0.8688 32.6296 -16.9900
# 4 -4.3444 7.5021 -0.8688 40.1947 8.7437 -4.5369
# 5 10.4524 15.3537 32.6296 8.7437 28.4384 3.7780
# 6 -6.5552 -13.6908 -16.9900 -4.5369 3.7780 27.7969
#
#
#
# Elastic Compliance Matrix: (Units=1/GPa)
#
#
# Indices 1 2 3 4 5 6 
#
# 1 0.013922 -0.004365 0.016589 0.010486 -0.027236 0.016686
# 2 -0.004365 0.011575 -0.008129 -0.004384 0.006278 -0.001866
# 3 0.016589 -0.008129 0.071005 0.034116 -0.102002 0.062740
# 4 0.010486 -0.004384 0.034116 0.044559 -0.059177 0.036481
# 5 -0.027236 0.006278 -0.102002 -0.059177 0.190462 -0.101221
# 6 0.016686 -0.001866 0.062740 0.036481 -0.101221 0.097051
#
#
# Mechanical properties :
#
#
# Convention : Reuss Voigt Hill
#
# Bulk Modulus (GPa) = 9.55171 50.34744 29.94958
# Shear Modulus (GPa) = 10.98230 35.32602 23.15416
#
# Velocity S-wave (km/s) = 2.22362 3.98806 3.22871
# Velocity P-wave (km/s) = 3.30046 6.62372 5.23291
#
# Compressibility (1/GPa) = 0.10469329
#
# Stress axis : x y z
#
# Youngs Moduli (GPa) = 71.82939 86.39662 14.08355
#
# Poissons Ratio (x) = 0.37709 -0.23364
# Poissons Ratio (y) = 0.31351 0.11448
# Poissons Ratio (z) = -1.19161 0.70230
#
# Static dielectric constant tensor:
#      x y z
#    x 4.171910 -0.151870 0.010250 
#    y -0.151870 4.172780 0.005120 
#    z 0.010250 0.005120 4.186610 
# 
# 
# High freq. dielectric constant tensor:
#      x y z
#    x 1.882700 -0.006450 0.008620 
#    y -0.006450 1.881070 -0.006370 
#    z 0.008620 -0.006370 1.863730 
# 
# From -- ./inp_files/371360.got.cif
#   From: 2010.06.25/outbox.cif.g09.slc.cpg/sg2_186_cif.got.tgz:371360.got - 2010.06.27 13:26:56.
