data_PCOD8010275
_publ_section_title
;
Structure prediction by ZEFSAII (Michael W. Deem and Ramdas Pophale) SiO2 
 PCOD8010275
Probable space group: P -1
;
_chemical_formula_sum "Si O2"
_cell_formula_units_Z 16
_cell_length_a 15.199628
_cell_length_b 8.483929
_cell_length_c 13.990373
_cell_angle_alpha 33.907162
_cell_angle_beta 62.388001
_cell_angle_gamma 72.929686
_cell_volume 876.506553
_symmetry_space_group_name_H-M "P -1"
_symmetry_group_IT_number 2
_symmetry_cell_setting 'triclinic'
loop_
_space_group_symop_operation_xyz
x,y,z
-x,-y,-z
loop_
_atom_site_type_symbol
_atom_site_label
_atom_site_fract_x
_atom_site_fract_y
_atom_site_fract_z
Si Si1 0.080208 0.777408 0.310563
Si Si2 0.932298 0.193475 0.178173
Si Si3 0.240923 0.031585 0.476749
Si Si4 0.397017 0.777457 0.650323
Si Si5 0.398174 0.118097 0.983288
Si Si6 0.229010 0.041575 0.257474
Si Si7 0.233162 0.687565 0.931819
Si Si8 0.254894 0.702961 0.129880
O O1 0.147663 0.740871 0.204358
O O2 0.000000 0.500000 0.500000
O O3 0.145524 0.821901 0.352412
O O4 0.018364 0.020885 0.195607
O O5 0.853731 0.164997 0.144435
O O6 0.867514 0.087350 0.359610
O O7 0.000000 0.500000 0.000000
O O8 0.232817 0.941139 0.415207
O O9 0.272312 0.376315 0.300575
O O10 0.329406 0.881104 0.549178
O O11 0.416943 0.457568 0.777083
O O12 0.338445 0.777477 0.779041
O O13 0.500000 0.000000 0.500000
O O14 0.337702 0.059894 0.142915
O O15 0.500000 0.000000 0.000000
O O16 0.340255 0.934679 0.019243
O O17 0.193841 0.346915 0.117071
O O18 0.255745 0.792689 0.974442
#
# Coordination Sequence:
#
# PCOD8010275 Si02
#       8
#     2   2   2   2   2   2   2   2
#     4  11  21  36  55  86 113 148 186 233 278 319
#     4  11  21  36  59  80 115 152 190 225 274 330
#     4  10  21  38  59  83 108 150 189 228 270 333
#     4  10  21  39  61  83 112 146 185 222 277 342
#     4  10  21  39  61  84 112 145 178 233 284 324
#     4   9  20  38  59  80 111 147 191 224 272 337
#     4   9  20  38  58  82 108 151 188 226 271 333
#     4  10  21  38  58  82 115 142 188 234 276 322
#
# _framework density 18.254283000000001
#
# number of rings (size 3 to 8) (size 9 to 14) (size 15 to 20)
#    0.000    2.000    2.500    0.750    1.750    3.000 
#    2.250    5.000    0.000    0.000    0.000    0.000 
#    0.000    0.000    0.000    0.000    0.000    0.000 
#
# Total GULP energy -198363.911404 kJ/mol
# GULP energy per Si atom -12397.744463 kJ/mol
# Density = 1.821274 g / cm^3
# Si number density = 18.254283 Si / 1000 Ang^3
#
#
#
# Elastic Constant Matrix: (Units=GPa)
#
#
# Indices 1 2 3 4 5 6 
#
# 1 112.9537 72.4786 65.8168 5.2564 3.5510 -11.7296
# 2 72.4786 123.6847 59.7669 1.2581 12.1448 3.5063
# 3 65.8168 59.7669 117.5598 -5.4856 -2.2045 10.5691
# 4 5.2564 1.2581 -5.4856 34.5987 5.9223 9.7230
# 5 3.5510 12.1448 -2.2045 5.9223 36.7820 -3.8906
# 6 -11.7296 3.5063 10.5691 9.7230 -3.8906 36.6577
#
#
#
# Elastic Compliance Matrix: (Units=1/GPa)
#
#
# Indices 1 2 3 4 5 6 
#
# 1 0.021316 -0.008717 -0.008992 -0.008460 0.002999 0.012809
# 2 -0.008717 0.014883 -0.002224 0.002667 -0.005146 -0.004825
# 3 -0.008992 -0.002224 0.015771 0.006326 0.000596 -0.008826
# 4 -0.008460 0.002667 0.006326 0.036614 -0.007194 -0.015261
# 5 0.002999 -0.005146 0.000596 -0.007194 0.030470 0.006422
# 6 0.012809 -0.004825 -0.008826 -0.015261 0.006422 0.039114
#
#
# Mechanical properties :
#
#
# Convention : Reuss Voigt Hill
#
# Bulk Modulus (GPa) = 82.62519 83.36920 82.99720
# Shear Modulus (GPa) = 24.74377 32.01675 28.38026
#
# Velocity S-wave (km/s) = 3.68571 4.19254 3.94727
# Velocity P-wave (km/s) = 7.96708 8.31906 8.14497
#
# Compressibility (1/GPa) = 0.01210285
#
# Stress axis : x y z
#
# Youngs Moduli (GPa) = 46.91277 67.19007 63.40598
#
# Poissons Ratio (x) = 0.58572 0.57016
# Poissons Ratio (y) = 0.40896 0.14103
# Poissons Ratio (z) = 0.42185 0.14945
#
# Static dielectric constant tensor:
#      x y z
#    x 3.399060 -0.025360 0.036360 
#    y -0.025360 3.445890 0.003920 
#    z 0.036360 0.003920 3.432410 
# 
# 
# High freq. dielectric constant tensor:
#      x y z
#    x 1.713420 -0.004940 -0.003780 
#    y -0.004940 1.712540 -0.003190 
#    z -0.003780 -0.003190 1.712450 
# 
# From -- ./inp_files/196287.got.cif
#   From: 2010.06.25/outbox.cif.g09.slc.cpg/sg2_99_cif.got.tgz:196287.got - 2010.06.27 13:26:56.
