data_PCOD8010902
_publ_section_title
;
Structure prediction by ZEFSAII (Michael W. Deem and Ramdas Pophale) SiO2 
 PCOD8010902
Probable space group: P -1
;
_chemical_formula_sum "Si O2"
_cell_formula_units_Z 16
_cell_length_a 19.942335
_cell_length_b 10.811286
_cell_length_c 5.797233
_cell_angle_alpha 77.465208
_cell_angle_beta 81.947736
_cell_angle_gamma 34.507105
_cell_volume 689.498774
_symmetry_space_group_name_H-M "P -1"
_symmetry_group_IT_number 2
_symmetry_cell_setting 'triclinic'
loop_
_space_group_symop_operation_xyz
x,y,z
-x,-y,-z
loop_
_atom_site_type_symbol
_atom_site_label
_atom_site_fract_x
_atom_site_fract_y
_atom_site_fract_z
Si Si1 0.079405 0.718850 0.693598
Si Si2 0.429525 0.783590 0.268547
Si Si3 0.756868 0.912722 0.122869
Si Si4 0.454477 0.015609 0.267271
Si Si5 0.007361 0.313573 0.879801
Si Si6 0.123686 0.920880 0.692670
Si Si7 0.212106 0.355422 0.439800
Si Si8 0.642517 0.303611 0.279079
O O1 0.121221 0.773739 0.808141
O O2 0.179336 0.530879 0.532801
O O3 0.065422 0.611037 0.888209
O O4 0.950632 0.945728 0.558358
O O5 0.491488 0.811151 0.339982
O O6 0.528837 0.561792 0.150107
O O7 0.389600 0.745232 0.489289
O O8 0.312308 0.020146 0.102046
O O9 0.733327 0.842951 0.355105
O O10 0.897766 0.720875 0.099360
O O11 0.694899 0.143131 0.109138
O O12 0.500000 0.000000 0.500000
O O13 0.310655 0.249556 0.251056
O O14 0.500000 0.000000 0.000000
O O15 0.908676 0.514576 0.667121
O O16 0.069586 0.087902 0.856798
O O17 0.258015 0.754868 0.644725
#
# Coordination Sequence:
#
# PCOD8010902 Si02
#       8
#     2   2   2   2   2   2   2   2
#     4  10  21  38  64  96 139 177 234 283 361 420
#     4  11  24  43  70  96 135 184 237 299 351 427
#     4  11  22  43  66 101 143 180 237 295 359 424
#     4  12  29  50  74 104 144 191 240 299 364 427
#     4  10  22  38  68 100 135 185 231 287 364 423
#     4   9  20  39  61  97 135 179 224 297 340 433
#     4  11  25  42  66  98 138 182 235 297 354 433
#     4  10  22  41  67  96 134 180 243 287 362 412
#
# _framework density 23.205261
#
# number of rings (size 3 to 8) (size 9 to 14) (size 15 to 20)
#    0.000    1.500    1.250    2.625    5.250    0.500 
#    0.000    2.500    0.000    0.000    0.000    0.000 
#    0.000    0.000    0.000    0.000    0.000    0.000 
#
# Total GULP energy -198280.655936 kJ/mol
# GULP energy per Si atom -12392.540996 kJ/mol
# Density = 2.315244 g / cm^3
# Si number density = 23.205261 Si / 1000 Ang^3
#
#
#
# Elastic Constant Matrix: (Units=GPa)
#
#
# Indices 1 2 3 4 5 6 
#
# 1 117.6292 33.3704 35.9668 -3.4549 -4.8330 -20.5017
# 2 33.3704 104.6538 22.0909 -4.0317 -3.5624 -15.7066
# 3 35.9668 22.0909 95.0587 -3.8417 -9.4069 -11.8110
# 4 -3.4549 -4.0317 -3.8417 31.3286 -6.6225 -2.5919
# 5 -4.8330 -3.5624 -9.4069 -6.6225 35.5091 5.2200
# 6 -20.5017 -15.7066 -11.8110 -2.5919 5.2200 18.6289
#
#
#
# Elastic Compliance Matrix: (Units=1/GPa)
#
#
# Indices 1 2 3 4 5 6 
#
# 1 0.011551 -0.001563 -0.002758 0.001453 -0.000513 0.009992
# 2 -0.001563 0.011479 -0.001078 0.001771 -0.000127 0.007557
# 3 -0.002758 -0.001078 0.012603 0.001968 0.002698 0.003564
# 4 0.001453 0.001771 0.001968 0.034480 0.006241 0.007388
# 5 -0.000513 -0.000127 0.002698 0.006241 0.030953 -0.006766
# 6 0.009992 0.007557 0.003564 0.007388 -0.006766 0.076231
#
#
# Mechanical properties :
#
#
# Convention : Reuss Voigt Hill
#
# Bulk Modulus (GPa) = 40.26560 55.57755 47.92157
# Shear Modulus (GPa) = 25.46159 32.15421 28.80790
#
# Velocity S-wave (km/s) = 3.31605 3.72646 3.52723
# Velocity P-wave (km/s) = 5.66137 6.52056 6.10610
#
# Compressibility (1/GPa) = 0.02483510
#
# Stress axis : x y z
#
# Youngs Moduli (GPa) = 86.57238 87.11276 79.34435
#
# Poissons Ratio (x) = 0.13616 0.21882
# Poissons Ratio (y) = 0.13531 0.08557
# Poissons Ratio (z) = 0.23876 0.09395
#
# Static dielectric constant tensor:
#      x y z
#    x 4.338750 -0.014030 0.099570 
#    y -0.014030 4.555000 0.137710 
#    z 0.099570 0.137710 3.876070 
# 
# 
# High freq. dielectric constant tensor:
#      x y z
#    x 1.926630 0.002330 0.005960 
#    y 0.002330 1.930760 0.008670 
#    z 0.005960 0.008670 1.895200 
# 
# From -- ./inp_files/118652.got.cif
#   From: 2010.06.25/outbox.cif.g09.slc.cpg/sg2_60_cif.got.tgz:118652.got - 2010.06.27 13:26:56.
