data_PCOD8010155
_publ_section_title
;
Structure prediction by ZEFSAII (Michael W. Deem and Ramdas Pophale) SiO2 
 PCOD8010155
Probable space group: P -1
;
_chemical_formula_sum "Si O2"
_cell_formula_units_Z 16
_cell_length_a 13.025579
_cell_length_b 10.774199
_cell_length_c 15.255355
_cell_angle_alpha 143.246397
_cell_angle_beta 34.888493
_cell_angle_gamma 121.569360
_cell_volume 674.551663
_symmetry_space_group_name_H-M "P -1"
_symmetry_group_IT_number 2
_symmetry_cell_setting 'triclinic'
loop_
_space_group_symop_operation_xyz
x,y,z
-x,-y,-z
loop_
_atom_site_type_symbol
_atom_site_label
_atom_site_fract_x
_atom_site_fract_y
_atom_site_fract_z
Si Si1 0.001353 0.709285 0.905656
Si Si2 0.998299 0.169954 0.227198
Si Si3 0.319633 0.272625 0.418586
Si Si4 0.061103 0.062383 0.400317
Si Si5 0.714907 0.335391 0.674624
Si Si6 0.426605 0.673103 0.874159
Si Si7 0.583079 0.749698 0.264544
Si Si8 0.399287 0.183426 0.002414
O O1 0.031841 0.726729 0.790188
O O2 0.184489 0.493547 0.692739
O O3 0.805867 0.668248 0.034291
O O4 0.995698 0.922686 0.084766
O O5 0.822485 0.325944 0.500107
O O6 0.195753 0.154828 0.126683
O O7 0.173716 0.227721 0.426622
O O8 0.485026 0.329624 0.284930
O O9 0.428308 0.054916 0.282699
O O10 0.861375 0.186206 0.559184
O O11 0.000000 0.000000 0.500000
O O12 0.197903 0.837253 0.126168
O O13 0.542238 0.247718 0.732889
O O14 0.616798 0.599939 0.922302
O O15 0.443813 0.422421 0.743637
O O16 0.541720 0.773093 0.916498
O O17 0.500000 0.000000 0.500000
#
# Coordination Sequence:
#
# PCOD8010155 Si02
#       8
#     2   2   2   2   2   2   2   2
#     4  11  24  39  64  94 136 184 221 273 325 404
#     4  11  22  39  65  99 132 173 232 272 332 392
#     4  11  22  41  65  97 138 176 223 274 339 398
#     4  11  23  42  70 104 135 172 218 286 346 398
#     4  11  22  42  71  99 132 174 226 278 339 402
#     4  10  22  40  68  96 135 178 221 278 341 393
#     4  11  23  43  64  95 136 180 226 271 334 396
#     4  10  21  37  66  99 126 166 220 278 329 395
#
# _framework density 23.719456999999998
#
# number of rings (size 3 to 8) (size 9 to 14) (size 15 to 20)
#    0.000    1.250    1.250    6.375    1.750    2.500 
#    0.000    5.625    2.750    0.000    0.000    0.000 
#    0.000    0.000    0.000    0.000    0.000    0.000 
#
# Total GULP energy -198383.011527 kJ/mol
# GULP energy per Si atom -12398.938220 kJ/mol
# Density = 2.366547 g / cm^3
# Si number density = 23.719457 Si / 1000 Ang^3
#
#
#
# Elastic Constant Matrix: (Units=GPa)
#
#
# Indices 1 2 3 4 5 6 
#
# 1 79.6375 47.1161 41.6300 11.6705 -25.9064 5.9218
# 2 47.1161 129.5971 57.4477 13.0206 -10.1138 13.8539
# 3 41.6300 57.4477 160.6384 20.9802 -35.1311 -0.9278
# 4 11.6705 13.0206 20.9802 42.1084 -9.1869 -1.4141
# 5 -25.9064 -10.1138 -35.1311 -9.1869 36.0952 -4.7630
# 6 5.9218 13.8539 -0.9278 -1.4141 -4.7630 37.0760
#
#
#
# Elastic Compliance Matrix: (Units=1/GPa)
#
#
# Indices 1 2 3 4 5 6 
#
# 1 0.020670 -0.006445 -0.000145 -0.000855 0.012765 0.000710
# 2 -0.006445 0.011837 -0.003669 -0.001459 -0.005817 -0.004288
# 3 -0.000145 -0.003669 0.009590 -0.001748 0.008101 0.002608
# 4 -0.000855 -0.001459 -0.001748 0.026311 0.004261 0.002189
# 5 0.012765 -0.005817 0.008101 0.004261 0.045035 0.006286
# 6 0.000710 -0.004288 0.002608 0.002189 0.006286 0.029417
#
#
# Mechanical properties :
#
#
# Convention : Reuss Voigt Hill
#
# Bulk Modulus (GPa) = 46.33929 73.58450 59.96190
# Shear Modulus (GPa) = 29.31343 37.96787 33.64065
#
# Velocity S-wave (km/s) = 3.51926 4.00522 3.77008
# Velocity P-wave (km/s) = 6.00770 7.24426 6.65476
#
# Compressibility (1/GPa) = 0.02157996
#
# Stress axis : x y z
#
# Youngs Moduli (GPa) = 48.37844 84.48220 104.27544
#
# Poissons Ratio (x) = 0.54445 0.01507
# Poissons Ratio (y) = 0.31178 0.38263
# Poissons Ratio (z) = 0.00699 0.31000
#
# Static dielectric constant tensor:
#      x y z
#    x 4.037330 0.228120 -0.341320 
#    y 0.228120 4.352050 0.112150 
#    z -0.341320 0.112150 4.629910 
# 
# 
# High freq. dielectric constant tensor:
#      x y z
#    x 1.910470 0.011230 -0.024180 
#    y 0.011230 1.947760 0.005270 
#    z -0.024180 0.005270 1.960500 
# 
# From -- ./inp_files/573646.got.cif
#   From: 2010.06.25/outbox.cif.g09.slc.cpg/sg2_287_cif.got.tgz:573646.got - 2010.06.27 13:26:56.
