data_PCOD8010995
_publ_section_title
;
Structure prediction by ZEFSAII (Michael W. Deem and Ramdas Pophale) SiO2 
 PCOD8010995
Probable space group: P -1
;
_chemical_formula_sum "Si O2"
_cell_formula_units_Z 14
_cell_length_a 15.521252
_cell_length_b 7.774322
_cell_length_c 18.389582
_cell_angle_alpha 136.264710
_cell_angle_beta 22.382841
_cell_angle_gamma 138.112471
_cell_volume 559.054623
_symmetry_space_group_name_H-M "P -1"
_symmetry_group_IT_number 2
_symmetry_cell_setting 'triclinic'
loop_
_space_group_symop_operation_xyz
x,y,z
-x,-y,-z
loop_
_atom_site_type_symbol
_atom_site_label
_atom_site_fract_x
_atom_site_fract_y
_atom_site_fract_z
Si Si1 0.664616 0.374525 0.173613
Si Si2 0.422357 0.240105 0.806459
Si Si3 0.661982 0.272255 0.929437
Si Si4 0.128816 0.694360 0.855391
Si Si5 0.838877 0.704746 0.413814
Si Si6 0.645090 0.827332 0.994485
Si Si7 0.085606 0.752626 0.560079
O O1 0.722123 0.354500 0.207266
O O2 0.395266 0.386299 0.380634
O O3 0.850326 0.631794 0.073800
O O4 0.699957 0.133347 0.025285
O O5 0.682275 0.256401 0.578014
O O6 0.222380 0.999601 0.853959
O O7 0.351287 0.507420 0.933201
O O8 0.450225 0.202699 0.859329
O O9 0.930749 0.269542 0.707931
O O10 0.558413 0.338420 0.952792
O O11 0.500000 0.000000 0.000000
O O12 0.181779 0.517104 0.697013
O O13 0.858822 0.985622 0.450826
O O14 0.886884 0.751113 0.774270
O O15 0.000000 0.500000 0.500000
#
# Coordination Sequence:
#
# PCOD8010995 Si02
#       7
#     2   2   2   2   2   2   2
#     4  10  21  38  65  95 122 169 215 263 313 372
#     4  11  25  42  68  97 125 174 213 266 314 377
#     4  12  24  42  65  95 137 167 207 267 331 375
#     4  10  21  39  65  90 129 164 220 258 311 380
#     4  12  23  40  63  96 128 172 205 265 324 375
#     4  11  22  42  66  93 131 166 218 261 312 384
#     4  12  22  39  67  97 125 166 221 257 313 382
#
# _framework density 25.042275
#
# number of rings (size 3 to 8) (size 9 to 14) (size 15 to 20)
#    0.000    0.857    7.143    0.857    0.000    1.143 
#    0.000    3.571    0.000    0.000    0.000    0.000 
#    0.000    0.000    0.000    0.000    0.000    0.000 
#
# Total GULP energy -173633.404538 kJ/mol
# GULP energy per Si atom -12402.386038 kJ/mol
# Density = 2.498528 g / cm^3
# Si number density = 25.042275 Si / 1000 Ang^3
#
#
#
# Elastic Constant Matrix: (Units=GPa)
#
#
# Indices 1 2 3 4 5 6 
#
# 1 41.5210 10.4672 22.2408 0.7151 -10.2209 17.5296
# 2 10.4672 182.3499 57.5940 10.4373 -2.6342 25.3415
# 3 22.2408 57.5940 198.6759 -15.0405 -27.1492 16.7704
# 4 0.7151 10.4373 -15.0405 43.2375 15.9933 -6.2715
# 5 -10.2209 -2.6342 -27.1492 15.9933 37.5299 5.8035
# 6 17.5296 25.3415 16.7704 -6.2715 5.8035 34.4903
#
#
#
# Elastic Compliance Matrix: (Units=1/GPa)
#
#
# Indices 1 2 3 4 5 6 
#
# 1 0.041555 0.003127 -0.001312 -0.013821 0.020934 -0.028816
# 2 0.003127 0.007194 -0.001717 -0.004668 0.003254 -0.007437
# 3 -0.001312 -0.001717 0.006448 0.000929 0.004057 -0.001721
# 4 -0.013821 -0.004668 0.000929 0.035795 -0.021794 0.020179
# 5 0.020934 0.003254 0.004057 -0.021794 0.049005 -0.027212
# 6 -0.028816 -0.007437 -0.001721 0.020179 -0.027212 0.058188
#
#
# Mechanical properties :
#
#
# Convention : Reuss Voigt Hill
#
# Bulk Modulus (GPa) = 18.05224 67.01676 42.53450
# Shear Modulus (GPa) = 23.09968 45.20119 34.15044
#
# Velocity S-wave (km/s) = 3.04044 4.25313 3.69685
# Velocity P-wave (km/s) = 4.42155 7.13711 5.93669
#
# Compressibility (1/GPa) = 0.05539477
#
# Stress axis : x y z
#
# Youngs Moduli (GPa) = 24.06432 138.99789 155.09314
#
# Poissons Ratio (x) = -0.43465 0.20345
# Poissons Ratio (y) = -0.07525 0.26623
# Poissons Ratio (z) = 0.03157 0.23860
#
# Static dielectric constant tensor:
#      x y z
#    x 4.388600 0.258940 -0.269950 
#    y 0.258940 5.123020 0.035100 
#    z -0.269950 0.035100 4.724620 
# 
# 
# High freq. dielectric constant tensor:
#      x y z
#    x 1.982860 0.011750 -0.012430 
#    y 0.011750 2.025450 -0.000520 
#    z -0.012430 -0.000520 2.001910 
# 
# From -- ./inp_files/375960.got.cif
#   From: 2010.06.25/outbox.cif.g09.slc.cpg/sg2_188_cif.got.tgz:375960.got - 2010.06.27 13:26:56.
