data_PCOD8010707
_publ_section_title
;
Structure prediction by ZEFSAII (Michael W. Deem and Ramdas Pophale) SiO2 
 PCOD8010707
Probable space group: P -1
;
_chemical_formula_sum "Si O2"
_cell_formula_units_Z 12
_cell_length_a 9.548533
_cell_length_b 8.718836
_cell_length_c 9.848281
_cell_angle_alpha 97.253712
_cell_angle_beta 137.214839
_cell_angle_gamma 75.151004
_cell_volume 535.921802
_symmetry_space_group_name_H-M "P -1"
_symmetry_group_IT_number 2
_symmetry_cell_setting 'triclinic'
loop_
_space_group_symop_operation_xyz
x,y,z
-x,-y,-z
loop_
_atom_site_type_symbol
_atom_site_label
_atom_site_fract_x
_atom_site_fract_y
_atom_site_fract_z
Si Si1 0.271986 0.477708 0.300199
Si Si2 0.108818 0.765924 0.384076
Si Si3 0.810139 0.418733 0.327903
Si Si4 0.527977 0.866532 0.616379
Si Si5 0.349078 0.124747 0.000801
Si Si6 0.342008 0.488829 0.049213
O O1 0.500000 0.500000 0.500000
O O2 0.102134 0.593268 0.290251
O O3 0.287272 0.289727 0.311764
O O4 0.218699 0.526361 0.108973
O O5 0.134445 0.745556 0.563718
O O6 0.301003 0.826049 0.465558
O O7 0.889171 0.887782 0.205177
O O8 0.790161 0.396284 0.148628
O O9 0.000000 0.500000 0.500000
O O10 0.579468 0.520554 0.230623
O O11 0.500000 0.000000 0.500000
O O12 0.597604 0.931975 0.813698
O O13 0.376475 0.302620 0.012668
O O14 0.500000 0.000000 0.000000
#
# Coordination Sequence:
#
# PCOD8010707 Si02
#       6
#     2   2   2   2   2   2
#     4   9  18  40  67  92 125 159 208 270 313 370
#     4  11  22  43  66  92 128 168 212 265 323 369
#     4  11  20  37  64  96 127 157 203 262 318 380
#     4  10  23  44  63  92 129 167 212 261 319 381
#     4  11  24  43  62  88 130 173 212 260 313 383
#     4  10  21  38  62  97 128 155 209 263 318 375
#
# _framework density 22.391324999999998
#
# number of rings (size 3 to 8) (size 9 to 14) (size 15 to 20)
#    0.000    1.667    6.667    0.000    0.000    5.333 
#    3.000    0.000    0.000    0.000    0.000    0.000 
#    0.000    0.000    0.000    0.000    0.000    0.000 
#
# Total GULP energy -148732.271881 kJ/mol
# GULP energy per Si atom -12394.355990 kJ/mol
# Density = 2.234036 g / cm^3
# Si number density = 22.391325 Si / 1000 Ang^3
#
#
#
# Elastic Constant Matrix: (Units=GPa)
#
#
# Indices 1 2 3 4 5 6 
#
# 1 92.3633 47.8452 59.5116 -25.6271 -15.0525 12.3930
# 2 47.8452 79.0997 49.2432 -14.9974 -22.1075 -4.9469
# 3 59.5116 49.2432 169.2009 -27.3534 -23.1021 1.6739
# 4 -25.6271 -14.9974 -27.3534 26.1752 6.9999 -2.3118
# 5 -15.0525 -22.1075 -23.1021 6.9999 56.3795 -7.4185
# 6 12.3930 -4.9469 1.6739 -2.3118 -7.4185 41.0361
#
#
#
# Elastic Compliance Matrix: (Units=1/GPa)
#
#
# Indices 1 2 3 4 5 6 
#
# 1 0.022224 -0.010157 -0.002992 0.012644 -0.001823 -0.007431
# 2 -0.010157 0.022183 -0.002215 -0.000560 0.006055 0.006895
# 3 -0.002992 -0.002215 0.008495 0.004381 0.001373 0.000785
# 4 0.012644 -0.000560 0.004381 0.055281 -0.002087 -0.001328
# 5 -0.001823 0.006055 0.001373 -0.002087 0.021094 0.004920
# 6 -0.007431 0.006895 0.000785 -0.001328 0.004920 0.028227
#
#
# Mechanical properties :
#
#
# Convention : Reuss Voigt Hill
#
# Bulk Modulus (GPa) = 45.10001 72.65155 58.87578
# Shear Modulus (GPa) = 25.55919 36.98909 31.27414
#
# Velocity S-wave (km/s) = 3.38224 4.06881 3.74131
# Velocity P-wave (km/s) = 5.95300 7.38853 6.70927
#
# Compressibility (1/GPa) = 0.02217294
#
# Stress axis : x y z
#
# Youngs Moduli (GPa) = 44.99575 45.08016 117.71385
#
# Poissons Ratio (x) = 0.45789 0.35221
# Poissons Ratio (y) = 0.45703 0.26078
# Poissons Ratio (z) = 0.13463 0.09987
#
# Static dielectric constant tensor:
#      x y z
#    x 5.852530 -5.118140 -1.069370 
#    y -5.118140 20.784200 2.918130 
#    z -1.069370 2.918130 5.093300 
# 
# 
# High freq. dielectric constant tensor:
#      x y z
#    x 1.882460 0.003790 0.001240 
#    y 0.003790 1.831060 -0.004550 
#    z 0.001240 -0.004550 1.914100 
# 
# From -- ./inp_files/159436.got.cif
#   From: 2010.06.25/outbox.cif.g09.slc.cpg/sg2_80_cif.got.tgz:159436.got - 2010.06.27 13:26:56.
