data_PCOD8010381
_publ_section_title
;
Structure prediction by ZEFSAII (Michael W. Deem and Ramdas Pophale) SiO2 
 PCOD8010381
Probable space group: P -1
;
_chemical_formula_sum "Si O2"
_cell_formula_units_Z 14
_cell_length_a 12.820996
_cell_length_b 18.373839
_cell_length_c 14.646876
_cell_angle_alpha 145.955064
_cell_angle_beta 161.317253
_cell_angle_gamma 34.353232
_cell_volume 602.671777
_symmetry_space_group_name_H-M "P -1"
_symmetry_group_IT_number 2
_symmetry_cell_setting 'triclinic'
loop_
_space_group_symop_operation_xyz
x,y,z
-x,-y,-z
loop_
_atom_site_type_symbol
_atom_site_label
_atom_site_fract_x
_atom_site_fract_y
_atom_site_fract_z
Si Si1 0.321604 0.748379 0.343735
Si Si2 0.211042 0.663808 0.520872
Si Si3 0.128209 0.412130 0.102882
Si Si4 0.688497 0.620213 0.350525
Si Si5 0.782407 0.233830 0.025707
Si Si6 0.135937 0.097128 0.010483
Si Si7 0.482313 0.807030 0.045803
O O1 0.439907 0.636224 0.247088
O O2 0.636811 0.793652 0.695498
O O3 0.124383 0.682527 0.186267
O O4 0.085284 0.880999 0.241698
O O5 0.155725 0.511963 0.314062
O O6 0.505212 0.678442 0.709848
O O7 0.879174 0.767202 0.319902
O O8 0.310649 0.696965 0.741116
O O9 0.000000 0.500000 0.000000
O O10 0.000000 0.500000 0.500000
O O11 0.866093 0.745211 0.623290
O O12 0.466039 0.630052 0.082594
O O13 0.879535 0.123939 0.911902
O O14 0.591779 0.181670 0.895962
O O15 0.351123 0.947795 0.034301
#
# Coordination Sequence:
#
# PCOD8010381 Si02
#       7
#     2   2   2   2   2   2   2
#     4  10  24  41  69  90 131 175 212 265 342 376
#     4  11  26  41  68 101 123 168 222 276 328 378
#     4  11  25  48  70  93 132 166 223 274 338 393
#     4  10  21  38  59  97 133 167 215 264 320 390
#     4  10  22  39  63  96 132 177 214 254 321 386
#     4  10  23  44  65  98 133 178 211 262 322 394
#     4  12  23  43  68  98 135 167 228 264 314 385
#
# _framework density 23.229892
#
# number of rings (size 3 to 8) (size 9 to 14) (size 15 to 20)
#    0.000    1.429    1.429    2.571    6.000    1.143 
#    5.143   10.000    0.000    0.000    0.000    0.000 
#    0.000    0.000    0.000    0.000    0.000    0.000 
#
# Total GULP energy -173579.240977 kJ/mol
# GULP energy per Si atom -12398.517213 kJ/mol
# Density = 2.317702 g / cm^3
# Si number density = 23.229892 Si / 1000 Ang^3
#
#
#
# Elastic Constant Matrix: (Units=GPa)
#
#
# Indices 1 2 3 4 5 6 
#
# 1 68.3911 38.1871 31.2464 -2.5797 6.8735 0.5605
# 2 38.1871 96.9528 29.4489 -30.8792 19.3737 -2.6859
# 3 31.2464 29.4489 106.5964 -22.1157 2.9484 -3.6752
# 4 -2.5797 -30.8792 -22.1157 44.5084 -1.4907 -0.0010
# 5 6.8735 19.3737 2.9484 -1.4907 43.7633 -2.1504
# 6 0.5605 -2.6859 -3.6752 -0.0010 -2.1504 24.5756
#
#
#
# Elastic Compliance Matrix: (Units=1/GPa)
#
#
# Indices 1 2 3 4 5 6 
#
# 1 0.022433 -0.010058 -0.005659 -0.008459 0.000906 -0.002378
# 2 -0.010058 0.019673 0.000475 0.013080 -0.006624 0.001871
# 3 -0.005659 0.000475 0.012237 0.006087 0.000161 0.002025
# 4 -0.008459 0.013080 0.006087 0.033956 -0.003606 0.002219
# 5 0.000906 -0.006624 0.000161 -0.003606 0.025581 0.001518
# 6 -0.002378 0.001871 0.002025 0.002219 0.001518 0.041385
#
#
# Mechanical properties :
#
#
# Convention : Reuss Voigt Hill
#
# Bulk Modulus (GPa) = 41.91406 52.18946 47.05176
# Shear Modulus (GPa) = 25.81274 34.10665 29.95969
#
# Velocity S-wave (km/s) = 3.33706 3.83590 3.59514
# Velocity P-wave (km/s) = 5.73849 6.49108 6.12635
#
# Compressibility (1/GPa) = 0.02385834
#
# Stress axis : x y z
#
# Youngs Moduli (GPa) = 44.57787 50.83099 81.71795
#
# Poissons Ratio (x) = 0.51125 0.46245
# Poissons Ratio (y) = 0.44836 -0.03879
# Poissons Ratio (z) = 0.25227 -0.02413
#
# Static dielectric constant tensor:
#      x y z
#    x 4.063010 -0.265190 -0.239340 
#    y -0.265190 3.992930 -0.233470 
#    z -0.239340 -0.233470 4.759240 
# 
# 
# High freq. dielectric constant tensor:
#      x y z
#    x 1.898620 -0.008830 -0.006160 
#    y -0.008830 1.902650 -0.025490 
#    z -0.006160 -0.025490 1.939940 
# 
# From -- ./inp_files/454946.got.cif
#   From: 2010.06.25/outbox.cif.g09.slc.cpg/sg2_228_cif.got.tgz:454946.got - 2010.06.27 13:26:56.
