data_PCOD8010965
_publ_section_title
;
Structure prediction by ZEFSAII (Michael W. Deem and Ramdas Pophale) SiO2 
 PCOD8010965
Probable space group: P -1
;
_chemical_formula_sum "Si O2"
_cell_formula_units_Z 16
_cell_length_a 16.212628
_cell_length_b 8.996666
_cell_length_c 9.467187
_cell_angle_alpha 96.916601
_cell_angle_beta 37.309573
_cell_angle_gamma 106.833656
_cell_volume 786.607544
_symmetry_space_group_name_H-M "P -1"
_symmetry_group_IT_number 2
_symmetry_cell_setting 'triclinic'
loop_
_space_group_symop_operation_xyz
x,y,z
-x,-y,-z
loop_
_atom_site_type_symbol
_atom_site_label
_atom_site_fract_x
_atom_site_fract_y
_atom_site_fract_z
Si Si1 0.890228 0.105685 0.527615
Si Si2 0.871257 0.894043 0.259155
Si Si3 0.793643 0.860693 0.855307
Si Si4 0.885286 0.547626 0.251272
Si Si5 0.863140 0.431785 0.578889
Si Si6 0.348217 0.235355 0.677492
Si Si7 0.402147 0.463414 0.992111
Si Si8 0.393156 0.552938 0.529299
O O1 0.831364 0.245121 0.576876
O O2 0.057663 0.177670 0.346207
O O3 0.863003 0.976890 0.426485
O O4 0.808815 0.022906 0.770962
O O5 0.898668 0.729093 0.229884
O O6 0.715578 0.861593 0.389231
O O7 0.000000 0.000000 0.000000
O O8 0.679293 0.723166 0.909810
O O9 0.743903 0.870910 0.084177
O O10 0.904751 0.524134 0.386372
O O11 0.732786 0.424989 0.392846
O O12 0.000000 0.500000 0.000000
O O13 0.715547 0.446154 0.844029
O O14 0.000000 0.500000 0.500000
O O15 0.326903 0.409642 0.714785
O O16 0.519630 0.282307 0.487955
O O17 0.500000 0.500000 0.000000
O O18 0.498750 0.504107 0.724956
#
# Coordination Sequence:
#
# PCOD8010965 Si02
#       8
#     2   2   2   2   2   2   2   2
#     4  11  23  38  62  95 134 166 214 269 328 381
#     4  11  21  37  63  93 129 171 207 260 335 387
#     4  10  21  38  65  92 125 171 213 264 324 388
#     4  11  24  40  66  95 130 163 220 275 320 380
#     4  12  25  40  64 100 128 165 222 275 310 378
#     4   9  19  36  64  88 115 165 218 253 306 394
#     4  11  21  41  67  92 129 172 217 260 325 388
#     4   9  20  37  66  92 121 169 216 261 319 383
#
# _framework density 20.340512
#
# number of rings (size 3 to 8) (size 9 to 14) (size 15 to 20)
#    0.000    1.500    3.750    1.500    5.250    1.000 
#    0.000    0.625    0.000    3.750    0.000    0.000 
#    0.000    0.000    0.000    0.000    0.000    0.000 
#
# Total GULP energy -198293.806625 kJ/mol
# GULP energy per Si atom -12393.362914 kJ/mol
# Density = 2.029422 g / cm^3
# Si number density = 20.340512 Si / 1000 Ang^3
#
#
#
# Elastic Constant Matrix: (Units=GPa)
#
#
# Indices 1 2 3 4 5 6 
#
# 1 163.1992 43.2313 50.4865 -5.4406 -7.0356 13.1896
# 2 43.2313 93.5828 35.0483 -3.3123 -2.2281 -6.2535
# 3 50.4865 35.0483 99.1611 -3.8189 0.1373 -6.4347
# 4 -5.4406 -3.3123 -3.8189 36.0937 -6.1718 1.0352
# 5 -7.0356 -2.2281 0.1373 -6.1718 37.4032 -6.8750
# 6 13.1896 -6.2535 -6.4347 1.0352 -6.8750 33.4609
#
#
#
# Elastic Compliance Matrix: (Units=1/GPa)
#
#
# Indices 1 2 3 4 5 6 
#
# 1 0.008374 -0.002789 -0.003528 0.000889 0.000765 -0.004371
# 2 -0.002789 0.013385 -0.003084 0.000555 0.000962 0.003188
# 3 -0.003528 -0.003084 0.013202 0.000451 -0.000216 0.003295
# 4 0.000889 0.000555 0.000451 0.028784 0.004942 -0.000035
# 5 0.000765 0.000962 -0.000216 0.004942 0.028782 0.005597
# 6 -0.004371 0.003188 0.003295 -0.000035 0.005597 0.033989
#
#
# Mechanical properties :
#
#
# Convention : Reuss Voigt Hill
#
# Bulk Modulus (GPa) = 61.88639 68.16391 65.02515
# Shear Modulus (GPa) = 33.17762 36.53670 34.85716
#
# Velocity S-wave (km/s) = 4.04308 4.24282 4.14415
# Velocity P-wave (km/s) = 7.23095 7.58856 7.41191
#
# Compressibility (1/GPa) = 0.01615864
#
# Stress axis : x y z
#
# Youngs Moduli (GPa) = 119.42286 74.71166 75.74529
#
# Poissons Ratio (x) = 0.20840 0.26722
# Poissons Ratio (y) = 0.33312 0.23358
# Poissons Ratio (z) = 0.42130 0.23039
#
# Static dielectric constant tensor:
#      x y z
#    x 4.210550 0.121300 0.061320 
#    y 0.121300 3.630480 -0.373890 
#    z 0.061320 -0.373890 3.895540 
# 
# 
# High freq. dielectric constant tensor:
#      x y z
#    x 1.822070 0.015630 0.008080 
#    y 0.015630 1.769980 -0.029370 
#    z 0.008080 -0.029370 1.787320 
# 
# From -- ./inp_files/298496.got.cif
#   From: 2010.06.25/outbox.cif.g09.slc.cpg/sg2_150_cif.got.tgz:298496.got - 2010.06.27 13:26:56.
