data_PCOD8010566
_publ_section_title
;
Structure prediction by ZEFSAII (Michael W. Deem and Ramdas Pophale) SiO2 
 PCOD8010566
Probable space group: P -1
;
_chemical_formula_sum "Si O2"
_cell_formula_units_Z 16
_cell_length_a 9.278965
_cell_length_b 14.721760
_cell_length_c 16.352082
_cell_angle_alpha 36.415446
_cell_angle_beta 46.408026
_cell_angle_gamma 74.092887
_cell_volume 727.286519
_symmetry_space_group_name_H-M "P -1"
_symmetry_group_IT_number 2
_symmetry_cell_setting 'triclinic'
loop_
_space_group_symop_operation_xyz
x,y,z
-x,-y,-z
loop_
_atom_site_type_symbol
_atom_site_label
_atom_site_fract_x
_atom_site_fract_y
_atom_site_fract_z
Si Si1 0.075476 0.779740 0.728523
Si Si2 0.656343 0.092714 0.996634
Si Si3 0.622135 0.372346 0.270121
Si Si4 0.699241 0.433330 0.380169
Si Si5 0.059503 0.057119 0.648717
Si Si6 0.482551 0.226594 0.841701
Si Si7 0.823021 0.154626 0.539803
Si Si8 0.788949 0.659254 0.331669
O O1 0.299349 0.766007 0.667368
O O2 0.100277 0.863324 0.567558
O O3 0.120290 0.934800 0.663710
O O4 0.786375 0.558095 0.007859
O O5 0.667958 0.253251 0.822083
O O6 0.943506 0.177941 0.844461
O O7 0.501997 0.883926 0.159124
O O8 0.483166 0.041566 0.182150
O O9 0.700545 0.477736 0.252082
O O10 0.312675 0.232653 0.475620
O O11 0.852432 0.352421 0.391774
O O12 0.845521 0.632921 0.235434
O O13 0.388831 0.274848 0.646146
O O14 0.005694 0.167996 0.526415
O O15 0.816895 0.907441 0.912967
O O16 0.604462 0.446787 0.606308
#
# Coordination Sequence:
#
# PCOD8010566 Si02
#       8
#     2   2   2   2   2   2   2   2
#     4  10  22  43  63  89 124 153 207 249 294 367
#     4  10  21  39  61  91 121 163 194 248 309 348
#     4  10  22  43  64  89 122 159 198 255 301 351
#     4  10  22  41  57  90 125 156 203 253 290 356
#     4  11  22  40  66  91 118 163 199 245 312 352
#     4  10  21  38  61  92 127 147 205 253 289 369
#     4  10  22  43  59  91 129 150 203 259 290 361
#     4  11  21  39  62  86 123 168 202 238 303 361
#
# _framework density 21.999583000000001
#
# number of rings (size 3 to 8) (size 9 to 14) (size 15 to 20)
#    0.000    1.750    1.250    2.625    0.000    1.000 
#   27.000    0.000    0.000    0.000    0.000    0.000 
#    0.000    0.000    0.000    0.000    0.000    0.000 
#
# Total GULP energy -198363.220047 kJ/mol
# GULP energy per Si atom -12397.701253 kJ/mol
# Density = 2.194951 g / cm^3
# Si number density = 21.999583 Si / 1000 Ang^3
#
#
#
# Elastic Constant Matrix: (Units=GPa)
#
#
# Indices 1 2 3 4 5 6 
#
# 1 80.6933 15.5697 26.3662 2.4815 -4.3500 2.4985
# 2 15.5697 84.2356 13.7653 18.4218 10.1598 3.6211
# 3 26.3662 13.7653 76.0502 12.0703 5.8321 15.0417
# 4 2.4815 18.4218 12.0703 26.0867 3.4004 3.4724
# 5 -4.3500 10.1598 5.8321 3.4004 37.0961 5.5366
# 6 2.4985 3.6211 15.0417 3.4724 5.5366 28.8950
#
#
#
# Elastic Compliance Matrix: (Units=1/GPa)
#
#
# Indices 1 2 3 4 5 6 
#
# 1 0.014763 -0.002803 -0.005452 0.002573 0.002966 0.001035
# 2 -0.002803 0.014963 0.000066 -0.009894 -0.003561 0.000204
# 3 -0.005452 0.000066 0.017698 -0.006477 -0.001705 -0.007645
# 4 0.002573 -0.009894 -0.006477 0.048281 -0.000190 -0.001376
# 5 0.002966 -0.003561 -0.001705 -0.000190 0.029237 -0.004502
# 6 0.001035 0.000204 -0.007645 -0.001376 -0.004502 0.039501
#
#
# Mechanical properties :
#
#
# Convention : Reuss Voigt Hill
#
# Bulk Modulus (GPa) = 32.20773 39.15351 35.68062
# Shear Modulus (GPa) = 26.15490 30.76743 28.46116
#
# Velocity S-wave (km/s) = 3.45176 3.74377 3.60073
# Velocity P-wave (km/s) = 5.52794 6.04349 5.79145
#
# Compressibility (1/GPa) = 0.03104845
#
# Stress axis : x y z
#
# Youngs Moduli (GPa) = 67.73513 66.83131 56.50326
#
# Poissons Ratio (x) = 0.18731 0.30803
# Poissons Ratio (y) = 0.18985 -0.00375
# Poissons Ratio (z) = 0.36927 -0.00444
#
# Static dielectric constant tensor:
#      x y z
#    x 4.119550 -0.124730 0.193920 
#    y -0.124730 4.001490 0.343050 
#    z 0.193920 0.343050 3.805390 
# 
# 
# High freq. dielectric constant tensor:
#      x y z
#    x 1.874470 -0.009920 0.014760 
#    y -0.009920 1.867250 0.022880 
#    z 0.014760 0.022880 1.849830 
# 
# From -- ./inp_files/505238.got.cif
#   From: 2010.06.25/outbox.cif.g09.slc.cpg/sg2_253_cif.got.tgz:505238.got - 2010.06.27 13:26:56.
