data_PCOD8010297
_publ_section_title
;
Structure prediction by ZEFSAII (Michael W. Deem and Ramdas Pophale) SiO2 
 PCOD8010297
Probable space group: P -1
;
_chemical_formula_sum "Si O2"
_cell_formula_units_Z 16
_cell_length_a 8.617085
_cell_length_b 22.013076
_cell_length_c 9.060576
_cell_angle_alpha 117.936718
_cell_angle_beta 101.422136
_cell_angle_gamma 132.347453
_cell_volume 692.880655
_symmetry_space_group_name_H-M "P -1"
_symmetry_group_IT_number 2
_symmetry_cell_setting 'triclinic'
loop_
_space_group_symop_operation_xyz
x,y,z
-x,-y,-z
loop_
_atom_site_type_symbol
_atom_site_label
_atom_site_fract_x
_atom_site_fract_y
_atom_site_fract_z
Si Si1 0.891847 0.704748 0.782723
Si Si2 0.601337 0.970552 0.315843
Si Si3 0.189548 0.802285 0.339838
Si Si4 0.043621 0.520192 0.294980
Si Si5 0.537626 0.197509 0.390386
Si Si6 0.554119 0.698546 0.862970
Si Si7 0.145180 0.046363 0.854689
Si Si8 0.722578 0.532910 0.780032
O O1 0.760227 0.707526 0.886761
O O2 0.838969 0.607048 0.725152
O O3 0.689755 0.635339 0.508914
O O4 0.294686 0.872514 0.032327
O O5 0.442138 0.885344 0.344429
O O6 0.823466 0.994408 0.320532
O O7 0.850951 0.131780 0.566758
O O8 0.340005 0.826465 0.542804
O O9 0.825406 0.626506 0.033759
O O10 0.162842 0.630711 0.345646
O O11 0.291872 0.608792 0.580448
O O12 0.083174 0.464092 0.147363
O O13 0.654033 0.382569 0.114789
O O14 0.440819 0.145214 0.142982
O O15 0.216928 0.105227 0.311487
O O16 0.823528 0.864657 0.103533
#
# Coordination Sequence:
#
# PCOD8010297 Si02
#       8
#     2   2   2   2   2   2   2   2
#     4   9  17  32  59  88 112 151 204 251 286 348
#     4  10  21  38  63  88 118 160 208 246 295 363
#     4  10  21  38  58  88 125 157 195 254 306 356
#     4   9  18  33  55  83 115 154 195 245 298 353
#     4  10  22  38  59  89 125 154 196 256 312 353
#     4   9  16  31  58  86 110 146 206 251 283 344
#     4  10  21  39  62  88 117 161 207 248 296 365
#     4   9  18  33  54  80 116 152 191 238 296 350
#
# _framework density 23.092002999999998
#
# number of rings (size 3 to 8) (size 9 to 14) (size 15 to 20)
#    0.000    2.500    0.000    2.250    0.000    6.500 
#    0.000    5.000    0.000    9.000    0.000    0.000 
#    0.000    0.000    0.000    0.000    0.000    0.000 
#
# Total GULP energy -198351.566111 kJ/mol
# GULP energy per Si atom -12396.972882 kJ/mol
# Density = 2.303944 g / cm^3
# Si number density = 23.092003 Si / 1000 Ang^3
#
#
#
# Elastic Constant Matrix: (Units=GPa)
#
#
# Indices 1 2 3 4 5 6 
#
# 1 64.6116 21.4311 12.5835 12.5976 -28.6701 -5.1701
# 2 21.4311 86.1654 15.6244 18.1029 -15.1184 -10.0393
# 3 12.5835 15.6244 90.7856 18.7390 -18.2167 -0.4245
# 4 12.5976 18.1029 18.7390 23.5001 -6.5083 1.5853
# 5 -28.6701 -15.1184 -18.2167 -6.5083 34.9670 5.7607
# 6 -5.1701 -10.0393 -0.4245 1.5853 5.7607 29.2349
#
#
#
# Elastic Compliance Matrix: (Units=1/GPa)
#
#
# Indices 1 2 3 4 5 6 
#
# 1 0.026491 -0.001347 0.002693 -0.009646 0.020627 0.000720
# 2 -0.001347 0.015241 0.000406 -0.010895 0.002839 0.005033
# 3 0.002693 0.000406 0.014436 -0.011082 0.007862 -0.000123
# 4 -0.009646 -0.010895 -0.011082 0.064076 -0.005138 -0.008070
# 5 0.020627 0.002839 0.007862 -0.005138 0.050697 -0.004974
# 6 0.000720 0.005033 -0.000123 -0.008070 -0.004974 0.037477
#
#
# Mechanical properties :
#
#
# Convention : Reuss Voigt Hill
#
# Bulk Modulus (GPa) = 16.75852 37.87118 27.31485
# Shear Modulus (GPa) = 22.24157 30.33529 26.28843
#
# Velocity S-wave (km/s) = 3.10687 3.62839 3.37771
# Velocity P-wave (km/s) = 4.48812 5.83004 5.20253
#
# Compressibility (1/GPa) = 0.05967113
#
# Stress axis : x y z
#
# Youngs Moduli (GPa) = 37.74931 65.61417 69.26977
#
# Poissons Ratio (x) = 0.08841 -0.18658
# Poissons Ratio (y) = 0.05087 -0.02811
# Poissons Ratio (z) = -0.10168 -0.02663
#
# Static dielectric constant tensor:
#      x y z
#    x 3.967740 -0.173820 -0.047920 
#    y -0.173820 3.893480 0.232770 
#    z -0.047920 0.232770 4.398330 
# 
# 
# High freq. dielectric constant tensor:
#      x y z
#    x 1.897760 -0.021000 -0.004770 
#    y -0.021000 1.877090 0.014350 
#    z -0.004770 0.014350 1.917220 
# 
# From -- ./inp_files/223869.got.cif
#   From: 2010.06.25/outbox.cif.g09.slc.cpg/sg2_112_cif.got.tgz:223869.got - 2010.06.27 13:26:56.
