data_PCOD8010258
_publ_section_title
;
Structure prediction by ZEFSAII (Michael W. Deem and Ramdas Pophale) SiO2 
 PCOD8010258
Probable space group: P -1
;
_chemical_formula_sum "Si O2"
_cell_formula_units_Z 16
_cell_length_a 14.524357
_cell_length_b 12.711684
_cell_length_c 12.471751
_cell_angle_alpha 106.703779
_cell_angle_beta 101.154581
_cell_angle_gamma 20.451416
_cell_volume 750.571462
_symmetry_space_group_name_H-M "P -1"
_symmetry_group_IT_number 2
_symmetry_cell_setting 'triclinic'
loop_
_space_group_symop_operation_xyz
x,y,z
-x,-y,-z
loop_
_atom_site_type_symbol
_atom_site_label
_atom_site_fract_x
_atom_site_fract_y
_atom_site_fract_z
Si Si1 0.625891 0.743346 0.953762
Si Si2 0.096287 0.129871 0.224868
Si Si3 0.840900 0.909477 0.012130
Si Si4 0.786846 0.446044 0.696426
Si Si5 0.680234 0.208423 0.270450
Si Si6 0.533866 0.798826 0.533745
Si Si7 0.418301 0.433672 0.678720
Si Si8 0.143882 0.400857 0.600612
O O1 0.695887 0.636935 0.816598
O O2 0.893563 0.450541 0.001033
O O3 0.500000 0.000000 0.000000
O O4 0.414159 0.890225 0.998342
O O5 0.110886 0.085891 0.089700
O O6 0.866076 0.308274 0.278065
O O7 0.051145 0.311634 0.283765
O O8 0.381033 0.784162 0.239489
O O9 0.786363 0.063969 0.132713
O O10 0.599829 0.544129 0.693836
O O11 0.754522 0.535599 0.598396
O O12 0.098786 0.071677 0.673882
O O13 0.636844 0.384531 0.322849
O O14 0.444415 0.782032 0.453874
O O15 0.643789 0.746607 0.442681
O O16 0.286315 0.145393 0.626169
O O17 0.000000 0.500000 0.500000
#
# Coordination Sequence:
#
# PCOD8010258 Si02
#       8
#     2   2   2   2   2   2   2   2
#     4  10  21  38  57  86 119 155 194 239 282 345
#     4  11  23  38  62  90 114 157 195 237 299 347
#     4  10  22  39  58  86 121 149 197 241 285 344
#     4  10  23  39  61  87 116 158 195 234 297 342
#     4  10  23  42  59  86 121 151 197 249 279 343
#     4  10  23  38  59  88 118 154 195 238 293 350
#     4  11  23  40  61  87 118 153 199 242 290 343
#     4  10  21  39  58  85 124 149 189 248 287 345
#
# _framework density 21.317091999999999
#
# number of rings (size 3 to 8) (size 9 to 14) (size 15 to 20)
#    0.000    1.750    1.250    1.875    3.500    3.000 
#    0.000    0.000    0.000    0.000    0.000    0.000 
#    0.000    0.000    0.000    0.000    0.000    0.000 
#
# Total GULP energy -198407.402677 kJ/mol
# GULP energy per Si atom -12400.462667 kJ/mol
# Density = 2.126857 g / cm^3
# Si number density = 21.317092 Si / 1000 Ang^3
#
#
#
# Elastic Constant Matrix: (Units=GPa)
#
#
# Indices 1 2 3 4 5 6 
#
# 1 57.0414 22.8469 14.0341 7.8650 21.0690 15.8794
# 2 22.8469 84.1022 23.1342 -6.3390 15.0987 14.6411
# 3 14.0341 23.1342 70.3343 -20.4220 0.7832 14.2690
# 4 7.8650 -6.3390 -20.4220 32.5093 0.1404 4.1040
# 5 21.0690 15.0987 0.7832 0.1404 21.7231 0.5468
# 6 15.8794 14.6411 14.2690 4.1040 0.5468 44.6994
#
#
#
# Elastic Compliance Matrix: (Units=1/GPa)
#
#
# Indices 1 2 3 4 5 6 
#
# 1 0.037158 -0.000961 -0.008969 -0.013607 -0.034750 -0.008348
# 2 -0.000961 0.015655 -0.003687 0.001468 -0.009734 -0.003625
# 3 -0.008969 -0.003687 0.022732 0.016252 0.010450 -0.004483
# 4 -0.013607 0.001468 0.016252 0.045145 0.011428 -0.005120
# 5 -0.034750 -0.009734 0.010450 0.011428 0.085799 0.010099
# 6 -0.008348 -0.003625 -0.004483 -0.005120 0.010099 0.028302
#
#
# Mechanical properties :
#
#
# Convention : Reuss Voigt Hill
#
# Bulk Modulus (GPa) = 20.69898 36.83425 28.76661
# Shear Modulus (GPa) = 17.97734 29.88387 23.93061
#
# Velocity S-wave (km/s) = 2.90716 3.74822 3.35416
# Velocity P-wave (km/s) = 4.58257 6.00408 5.34083
#
# Compressibility (1/GPa) = 0.04831156
#
# Stress axis : x y z
#
# Youngs Moduli (GPa) = 26.91204 63.87759 43.99094
#
# Poissons Ratio (x) = 0.06138 0.39453
# Poissons Ratio (y) = 0.02586 0.16221
# Poissons Ratio (z) = 0.24136 0.23553
#
# Static dielectric constant tensor:
#      x y z
#    x 3.982080 0.064110 0.226890 
#    y 0.064110 4.130180 0.087840 
#    z 0.226890 0.087840 3.835800 
# 
# 
# High freq. dielectric constant tensor:
#      x y z
#    x 1.831710 -0.001370 0.013030 
#    y -0.001370 1.848980 -0.003820 
#    z 0.013030 -0.003820 1.829250 
# 
# From -- ./inp_files/70718.got.cif
#   From: 2010.06.25/outbox.cif.g09.slc.cpg/sg2_36_cif.got.tgz:70718.got - 2010.06.27 13:26:56.
