data_PCOD8010434
_publ_section_title
;
Structure prediction by ZEFSAII (Michael W. Deem and Ramdas Pophale) SiO2 
 PCOD8010434
Probable space group: P -1
;
_chemical_formula_sum "Si O2"
_cell_formula_units_Z 16
_cell_length_a 9.094745
_cell_length_b 29.848781
_cell_length_c 9.702774
_cell_angle_alpha 140.340834
_cell_angle_beta 149.190752
_cell_angle_gamma 38.186215
_cell_volume 795.791853
_symmetry_space_group_name_H-M "P -1"
_symmetry_group_IT_number 2
_symmetry_cell_setting 'triclinic'
loop_
_space_group_symop_operation_xyz
x,y,z
-x,-y,-z
loop_
_atom_site_type_symbol
_atom_site_label
_atom_site_fract_x
_atom_site_fract_y
_atom_site_fract_z
Si Si1 0.382681 0.807429 0.384960
Si Si2 0.779315 0.029117 0.267143
Si Si3 0.743522 0.286779 0.341241
Si Si4 0.208922 0.586183 0.844483
Si Si5 0.764943 0.031417 0.763094
Si Si6 0.442519 0.413768 0.611786
Si Si7 0.605821 0.807279 0.260494
Si Si8 0.975613 0.286921 0.225796
O O1 0.321078 0.880064 0.604831
O O2 0.468603 0.827520 0.350833
O O3 0.655757 0.740072 0.523211
O O4 0.098032 0.779929 0.070034
O O5 0.000000 0.000000 0.500000
O O6 0.996716 0.993770 0.230012
O O7 0.500000 0.000000 0.000000
O O8 0.644737 0.362462 0.530666
O O9 0.022791 0.219678 0.486706
O O10 0.835272 0.305712 0.309543
O O11 0.458218 0.260686 0.026540
O O12 0.407520 0.499633 0.754996
O O13 0.886032 0.593922 0.670372
O O14 0.161244 0.636428 0.789306
O O15 0.393700 0.613056 0.172123
O O16 0.560996 0.120976 0.801976
O O17 0.500000 0.000000 0.500000
O O18 0.000000 0.000000 0.000000
#
# Coordination Sequence:
#
# PCOD8010434 Si02
#       8
#     2   2   2   2   2   2   2   2
#     4  10  21  39  63  88 115 155 207 250 297 359
#     4  12  24  42  70  88 117 171 215 249 304 385
#     4  10  21  38  62  88 113 159 204 237 298 368
#     4  10  21  39  61  86 124 157 191 249 298 349
#     4  12  26  44  61  92 130 159 205 267 316 360
#     4  10  21  39  60  87 121 162 196 231 301 377
#     4  10  21  40  63  82 122 161 193 251 309 360
#     4  10  21  38  60  89 120 149 197 258 294 339
#
# _framework density 20.105758999999999
#
# number of rings (size 3 to 8) (size 9 to 14) (size 15 to 20)
#    0.000    1.500    1.250    3.750    3.500    0.500 
#   13.500    0.000    0.000    9.000    0.000    0.000 
#    0.000    0.000    0.000    0.000    0.000    0.000 
#
# Total GULP energy -198285.309227 kJ/mol
# GULP energy per Si atom -12392.831827 kJ/mol
# Density = 2.006000 g / cm^3
# Si number density = 20.105759 Si / 1000 Ang^3
#
#
#
# Elastic Constant Matrix: (Units=GPa)
#
#
# Indices 1 2 3 4 5 6 
#
# 1 86.0793 49.4841 39.8559 1.6667 -4.8645 -2.0020
# 2 49.4841 124.5925 43.0069 -7.0123 -22.1645 13.5843
# 3 39.8559 43.0069 113.2332 -13.2170 -3.2496 -3.6653
# 4 1.6667 -7.0123 -13.2170 41.2026 -1.0494 -11.3251
# 5 -4.8645 -22.1645 -3.2496 -1.0494 32.4408 -4.1514
# 6 -2.0020 13.5843 -3.6653 -11.3251 -4.1514 31.5247
#
#
#
# Elastic Compliance Matrix: (Units=1/GPa)
#
#
# Indices 1 2 3 4 5 6 
#
# 1 0.016904 -0.006048 -0.003920 -0.002436 -0.001799 0.002112
# 2 -0.006048 0.013302 -0.002857 0.000294 0.007215 -0.005393
# 3 -0.003920 -0.002857 0.011935 0.004560 -0.000696 0.003916
# 4 -0.002436 0.000294 0.004560 0.028974 0.002638 0.011005
# 5 -0.001799 0.007215 -0.000696 0.002638 0.035802 0.002358
# 6 0.002112 -0.005393 0.003916 0.011005 0.002358 0.038898
#
#
# Mechanical properties :
#
#
# Convention : Reuss Voigt Hill
#
# Bulk Modulus (GPa) = 60.63778 65.39985 63.01882
# Shear Modulus (GPa) = 28.25458 33.80417 31.02937
#
# Velocity S-wave (km/s) = 3.75280 4.10484 3.93276
# Velocity P-wave (km/s) = 7.00020 7.42056 7.21345
#
# Compressibility (1/GPa) = 0.01649137
#
# Stress axis : x y z
#
# Youngs Moduli (GPa) = 59.15895 75.17550 83.78473
#
# Poissons Ratio (x) = 0.45463 0.32847
# Poissons Ratio (y) = 0.35777 0.23936
# Poissons Ratio (z) = 0.23193 0.21477
#
# Static dielectric constant tensor:
#      x y z
#    x 3.414020 -0.008610 0.042800 
#    y -0.008610 3.760260 -0.178920 
#    z 0.042800 -0.178920 3.892860 
# 
# 
# High freq. dielectric constant tensor:
#      x y z
#    x 1.766390 0.001090 -0.001280 
#    y 0.001090 1.792560 -0.013420 
#    z -0.001280 -0.013420 1.807310 
# 
# From -- ./inp_files/107136.got.cif
#   From: 2010.06.25/outbox.cif.g09.slc.cpg/sg2_54_cif.got.tgz:107136.got - 2010.06.27 13:26:56.
