data_PCOD8011032
_publ_section_title
;
Structure prediction by ZEFSAII (Michael W. Deem and Ramdas Pophale) SiO2 
 PCOD8011032
Probable space group: P -1
;
_chemical_formula_sum "Si O2"
_cell_formula_units_Z 16
_cell_length_a 11.045988
_cell_length_b 14.561198
_cell_length_c 11.521262
_cell_angle_alpha 136.731319
_cell_angle_beta 142.694847
_cell_angle_gamma 59.575738
_cell_volume 757.885780
_symmetry_space_group_name_H-M "P -1"
_symmetry_group_IT_number 2
_symmetry_cell_setting 'triclinic'
loop_
_space_group_symop_operation_xyz
x,y,z
-x,-y,-z
loop_
_atom_site_type_symbol
_atom_site_label
_atom_site_fract_x
_atom_site_fract_y
_atom_site_fract_z
Si Si1 0.776680 0.068892 0.294870
Si Si2 0.014740 0.493020 0.695154
Si Si3 0.433061 0.129974 0.224446
Si Si4 0.636232 0.580300 0.578852
Si Si5 0.783389 0.322409 0.170849
Si Si6 0.413481 0.432168 0.067977
Si Si7 0.530045 0.037227 0.691102
Si Si8 0.221139 0.148386 0.712985
O O1 0.657197 0.165108 0.369234
O O2 0.992818 0.156328 0.506436
O O3 0.791276 0.932471 0.251538
O O4 0.667049 0.014919 0.042261
O O5 0.853788 0.531526 0.701030
O O6 0.903963 0.359626 0.418043
O O7 0.066675 0.622210 0.768250
O O8 0.221271 0.468977 0.889064
O O9 0.322244 0.255956 0.226817
O O10 0.433339 0.096209 0.331302
O O11 0.500000 0.500000 0.500000
O O12 0.515989 0.553275 0.340602
O O13 0.585020 0.395985 0.077688
O O14 0.720756 0.159973 0.963384
O O15 0.340137 0.299142 0.969021
O O16 0.326196 0.080132 0.625561
O O17 0.500000 0.000000 0.500000
#
# Coordination Sequence:
#
# PCOD8011032 Si02
#       8
#     2   2   2   2   2   2   2   2
#     4   9  19  38  63  83 117 155 205 248 293 363
#     4  10  22  40  65  88 118 164 206 247 302 356
#     4  10  22  39  61  86 122 161 195 251 308 349
#     4  11  25  41  57  93 131 155 201 255 303 367
#     4   9  21  42  62  89 119 155 210 256 286 365
#     4  10  21  38  66  86 118 161 203 251 304 351
#     4  10  22  39  60  89 127 156 192 255 310 361
#     4   9  19  37  60  91 110 156 207 244 296 367
#
# _framework density 21.111360000000001
#
# number of rings (size 3 to 8) (size 9 to 14) (size 15 to 20)
#    0.000    2.250    0.000    1.125    5.250    3.500 
#    9.000    1.250    0.000    0.000    0.000    0.000 
#    0.000    0.000    0.000    0.000    0.000    0.000 
#
# Total GULP energy -198358.949170 kJ/mol
# GULP energy per Si atom -12397.434323 kJ/mol
# Density = 2.106331 g / cm^3
# Si number density = 21.111360 Si / 1000 Ang^3
#
#
#
# Elastic Constant Matrix: (Units=GPa)
#
#
# Indices 1 2 3 4 5 6 
#
# 1 92.2108 13.1640 23.2865 -1.6218 6.2307 5.1937
# 2 13.1640 62.4105 14.9355 -4.7393 -7.8720 -4.1867
# 3 23.2865 14.9355 79.6753 -1.7682 4.6787 -3.6000
# 4 -1.6218 -4.7393 -1.7682 37.8863 -1.9950 6.8079
# 5 6.2307 -7.8720 4.6787 -1.9950 34.1797 -7.2127
# 6 5.1937 -4.1867 -3.6000 6.8079 -7.2127 25.5736
#
#
#
# Elastic Compliance Matrix: (Units=1/GPa)
#
#
# Indices 1 2 3 4 5 6 
#
# 1 0.012503 -0.002552 -0.003169 0.000707 -0.003349 -0.004536
# 2 -0.002552 0.018431 -0.002833 0.001589 0.006128 0.004442
# 3 -0.003169 -0.002833 0.014180 -0.000234 -0.001656 0.001771
# 4 0.000707 0.001589 -0.000234 0.027935 0.000370 -0.007249
# 5 -0.003349 0.006128 -0.001656 0.000370 0.033826 0.010892
# 6 -0.004536 0.004442 0.001771 -0.007249 0.010892 0.046002
#
#
# Mechanical properties :
#
#
# Convention : Reuss Voigt Hill
#
# Bulk Modulus (GPa) = 35.70508 37.45208 36.57858
# Shear Modulus (GPa) = 27.88312 31.72194 29.80253
#
# Velocity S-wave (km/s) = 3.63817 3.88054 3.76131
# Velocity P-wave (km/s) = 5.88200 6.15280 6.01892
#
# Compressibility (1/GPa) = 0.02800722
#
# Stress axis : x y z
#
# Youngs Moduli (GPa) = 79.97789 54.25716 70.52129
#
# Poissons Ratio (x) = 0.13847 0.22345
# Poissons Ratio (y) = 0.20411 0.19978
# Poissons Ratio (z) = 0.25341 0.15371
#
# Static dielectric constant tensor:
#      x y z
#    x 3.895290 -0.042950 0.246650 
#    y -0.042950 3.610120 -0.044120 
#    z 0.246650 -0.044120 3.840440 
# 
# 
# High freq. dielectric constant tensor:
#      x y z
#    x 1.830900 0.004550 0.014650 
#    y 0.004550 1.814920 -0.000820 
#    z 0.014650 -0.000820 1.822760 
# 
# From -- ./inp_files/434341.got.cif
#   From: 2010.06.25/outbox.cif.g09.slc.cpg/sg2_218_cif.got.tgz:434341.got - 2010.06.27 13:26:56.
