data_PCOD8011161
_publ_section_title
;
Structure prediction by ZEFSAII (Michael W. Deem and Ramdas Pophale) SiO2 
 PCOD8011161
Probable space group: P -1
;
_chemical_formula_sum "Si O2"
_cell_formula_units_Z 10
_cell_length_a 10.975082
_cell_length_b 8.335561
_cell_length_c 5.187784
_cell_angle_alpha 91.858650
_cell_angle_beta 74.806622
_cell_angle_gamma 65.721528
_cell_volume 412.164811
_symmetry_space_group_name_H-M "P -1"
_symmetry_group_IT_number 2
_symmetry_cell_setting 'triclinic'
loop_
_space_group_symop_operation_xyz
x,y,z
-x,-y,-z
loop_
_atom_site_type_symbol
_atom_site_label
_atom_site_fract_x
_atom_site_fract_y
_atom_site_fract_z
Si Si1 0.633356 0.525097 0.508200
Si Si2 0.297465 0.994179 0.963992
Si Si3 0.653925 0.867059 0.553067
Si Si4 0.774580 0.329007 0.938825
Si Si5 0.063415 0.298878 0.858674
O O1 0.500000 0.500000 0.500000
O O2 0.583651 0.731536 0.622464
O O3 0.733151 0.476279 0.197742
O O4 0.294014 0.595466 0.292726
O O5 0.374345 0.001196 0.183746
O O6 0.277647 0.815505 0.945999
O O7 0.395866 0.009558 0.673824
O O8 0.144089 0.162469 0.039586
O O9 0.822337 0.738367 0.433423
O O10 0.941978 0.249502 0.812351
O O11 0.000000 0.500000 0.000000
#
# Coordination Sequence:
#
# PCOD8011161 Si02
#       5
#     2   2   2   2   2
#     4  12  26  45  65  89 123 172 222 255 299 371
#     4  10  23  39  63 102 130 156 201 257 327 373
#     4  10  22  41  64  90 131 162 209 246 317 372
#     4  12  24  41  67  96 127 162 207 265 315 360
#     4  10  21  38  68  95 131 159 205 248 320 384
#
# _framework density 24.262139999999999
#
# number of rings (size 3 to 8) (size 9 to 14) (size 15 to 20)
#    1.200    0.000    2.000    4.800    2.800    2.400 
#    0.000    6.000    0.000    0.000    0.000    0.000 
#    0.000    0.000    0.000    0.000    0.000    0.000 
#
# Total GULP energy -124001.655795 kJ/mol
# GULP energy per Si atom -12400.165579 kJ/mol
# Density = 2.420692 g / cm^3
# Si number density = 24.262140 Si / 1000 Ang^3
#
#
#
# Elastic Constant Matrix: (Units=GPa)
#
#
# Indices 1 2 3 4 5 6 
#
# 1 104.4889 28.2251 34.8395 -31.0379 12.7068 25.1861
# 2 28.2251 86.7737 10.8664 -14.7374 11.8675 12.4340
# 3 34.8395 10.8664 114.4321 -19.9096 30.2136 -0.9597
# 4 -31.0379 -14.7374 -19.9096 36.4696 1.8637 6.2866
# 5 12.7068 11.8675 30.2136 1.8637 48.1548 -7.4198
# 6 25.1861 12.4340 -0.9597 6.2866 -7.4198 47.6100
#
#
#
# Elastic Compliance Matrix: (Units=1/GPa)
#
#
# Indices 1 2 3 4 5 6 
#
# 1 0.020046 0.000025 -0.000771 0.019534 -0.007790 -0.014420
# 2 0.000025 0.014225 0.001421 0.007795 -0.005568 -0.005597
# 3 -0.000771 0.001421 0.012363 0.007451 -0.008504 -0.002023
# 4 0.019534 0.007795 0.007451 0.055996 -0.017356 -0.022318
# 5 -0.007790 -0.005568 -0.008504 -0.017356 0.032159 0.012707
# 6 -0.014420 -0.005597 -0.002023 -0.022318 0.012707 0.034981
#
#
# Mechanical properties :
#
#
# Convention : Reuss Voigt Hill
#
# Bulk Modulus (GPa) = 20.83986 50.39520 35.61753
# Shear Modulus (GPa) = 27.11266 41.89780 34.50523
#
# Velocity S-wave (km/s) = 3.34651 4.16008 3.77528
# Velocity P-wave (km/s) = 4.85183 6.62505 5.80653
#
# Compressibility (1/GPa) = 0.04798498
#
# Stress axis : x y z
#
# Youngs Moduli (GPa) = 49.88477 70.29646 80.88481
#
# Poissons Ratio (x) = -0.00178 0.06237
# Poissons Ratio (y) = -0.00126 -0.11493
# Poissons Ratio (z) = 0.03847 -0.09988
#
# Static dielectric constant tensor:
#      x y z
#    x 4.599760 -0.183220 -0.388090 
#    y -0.183220 4.283860 0.173040 
#    z -0.388090 0.173040 4.986390 
# 
# 
# High freq. dielectric constant tensor:
#      x y z
#    x 1.989190 -0.005930 -0.008820 
#    y -0.005930 1.971300 0.002540 
#    z -0.008820 0.002540 1.960680 
# 
# From -- ./inp_files/17658.got.cif
#   From: 2010.06.25/outbox.cif.g09.slc.cpg/sg2_9_cif.got.tgz:17658.got - 2010.06.27 13:26:56.
