data_PCOD8011652
_publ_section_title
;
Structure prediction by ZEFSAII (Michael W. Deem and Ramdas Pophale) SiO2 
 PCOD8011652
Probable space group: P -1
;
_chemical_formula_sum "Si O2"
_cell_formula_units_Z 14
_cell_length_a 8.931805
_cell_length_b 14.549773
_cell_length_c 16.486149
_cell_angle_alpha 152.760376
_cell_angle_beta 137.012138
_cell_angle_gamma 41.983036
_cell_volume 638.284198
_symmetry_space_group_name_H-M "P -1"
_symmetry_group_IT_number 2
_symmetry_cell_setting 'triclinic'
loop_
_space_group_symop_operation_xyz
x,y,z
-x,-y,-z
loop_
_atom_site_type_symbol
_atom_site_label
_atom_site_fract_x
_atom_site_fract_y
_atom_site_fract_z
Si Si1 0.612599 0.600414 0.901765
Si Si2 0.807689 0.951603 0.717086
Si Si3 0.905014 0.610276 0.363055
Si Si4 0.118062 0.683610 0.347206
Si Si5 0.583697 0.336772 0.835297
Si Si6 0.900526 0.337637 0.283569
Si Si7 0.657621 0.970586 0.315305
O O1 0.806112 0.503989 0.835473
O O2 0.674181 0.436919 0.873012
O O3 0.371204 0.617595 0.776547
O O4 0.613298 0.830803 0.113171
O O5 0.951403 0.760389 0.568220
O O6 0.963043 0.903427 0.823752
O O7 0.793506 0.156285 0.817749
O O8 0.551443 0.960851 0.650246
O O9 0.639735 0.732545 0.330500
O O10 0.087078 0.578980 0.338261
O O11 0.933501 0.379283 0.232857
O O12 0.873983 0.841037 0.350816
O O13 0.301451 0.814675 0.532759
O O14 0.500000 0.500000 0.000000
O O15 0.000000 0.500000 0.500000
#
# Coordination Sequence:
#
# PCOD8011652 Si02
#       7
#     2   2   2   2   2   2   2
#     4  11  23  42  63  92 132 160 208 257 311 372
#     4  11  21  40  63  92 120 153 216 255 305 363
#     4  10  21  39  63  91 119 162 205 255 312 365
#     4  11  23  39  63  93 131 164 202 253 316 376
#     4  11  20  36  62  95 119 154 209 262 305 356
#     4   9  21  41  66  90 119 166 207 260 310 360
#     4  11  23  38  62  96 124 165 204 255 317 362
#
# _framework density 21.933803999999999
#
# number of rings (size 3 to 8) (size 9 to 14) (size 15 to 20)
#    0.000    1.429    2.857    3.429    4.000    0.571 
#    0.000    6.429    0.000    4.286    0.000    0.000 
#    0.000    0.000    0.000    0.000    0.000    0.000 
#
# Total GULP energy -173460.550031 kJ/mol
# GULP energy per Si atom -12390.039288 kJ/mol
# Density = 2.188388 g / cm^3
# Si number density = 21.933804 Si / 1000 Ang^3
#
#
#
# Elastic Constant Matrix: (Units=GPa)
#
#
# Indices 1 2 3 4 5 6 
#
# 1 135.7023 32.2825 28.2799 3.5527 -32.7094 6.3518
# 2 32.2825 144.2800 14.1787 -8.4234 -5.4547 23.9879
# 3 28.2799 14.1787 73.1288 3.7667 -10.2137 6.8881
# 4 3.5527 -8.4234 3.7667 21.7555 -3.0336 -0.1040
# 5 -32.7094 -5.4547 -10.2137 -3.0336 29.5275 -0.4074
# 6 6.3518 23.9879 6.8881 -0.1040 -0.4074 25.0480
#
#
#
# Elastic Compliance Matrix: (Units=1/GPa)
#
#
# Indices 1 2 3 4 5 6 
#
# 1 0.010937 -0.001801 -0.002303 -0.000562 0.010925 -0.000240
# 2 -0.001801 0.008912 -0.000514 0.003761 -0.000249 -0.007926
# 3 -0.002303 -0.000514 0.015409 -0.002168 0.002418 -0.003131
# 4 -0.000562 0.003761 -0.002168 0.048471 0.004266 -0.002592
# 5 0.010925 -0.000249 0.002418 0.004266 0.047164 -0.002412
# 6 -0.000240 -0.007926 -0.003131 -0.002592 -0.002412 0.048386
#
#
# Mechanical properties :
#
#
# Convention : Reuss Voigt Hill
#
# Bulk Modulus (GPa) = 38.42631 55.84371 47.13501
# Shear Modulus (GPa) = 25.35659 33.82421 29.59040
#
# Velocity S-wave (km/s) = 3.40376 3.93122 3.67696
# Velocity P-wave (km/s) = 5.74497 6.79127 6.28992
#
# Compressibility (1/GPa) = 0.02602384
#
# Stress axis : x y z
#
# Youngs Moduli (GPa) = 91.43632 112.20583 64.89727
#
# Poissons Ratio (x) = 0.20204 0.14944
# Poissons Ratio (y) = 0.16464 0.03333
# Poissons Ratio (z) = 0.21056 0.05763
#
# Static dielectric constant tensor:
#      x y z
#    x 3.786770 -0.097200 0.088690 
#    y -0.097200 3.339740 0.109880 
#    z 0.088690 0.109880 3.839960 
# 
# 
# High freq. dielectric constant tensor:
#      x y z
#    x 1.853450 0.010510 -0.008020 
#    y 0.010510 1.857730 -0.005350 
#    z -0.008020 -0.005350 1.855180 
# 
# From -- ./inp_files/177639.got.cif
#   From: 2010.06.25/outbox.cif.g09.slc.cpg/sg2_89_cif.got.tgz:177639.got - 2010.06.27 13:26:56.
