data_PCOD8011433
_publ_section_title
;
Structure prediction by ZEFSAII (Michael W. Deem and Ramdas Pophale) SiO2 
 PCOD8011433
Probable space group: P -1
;
_chemical_formula_sum "Si O2"
_cell_formula_units_Z 16
_cell_length_a 12.177744
_cell_length_b 9.085144
_cell_length_c 23.856506
_cell_angle_alpha 46.298092
_cell_angle_beta 153.770402
_cell_angle_gamma 141.368501
_cell_volume 727.815578
_symmetry_space_group_name_H-M "P -1"
_symmetry_group_IT_number 2
_symmetry_cell_setting 'triclinic'
loop_
_space_group_symop_operation_xyz
x,y,z
-x,-y,-z
loop_
_atom_site_type_symbol
_atom_site_label
_atom_site_fract_x
_atom_site_fract_y
_atom_site_fract_z
Si Si1 0.299328 0.134113 0.993962
Si Si2 0.881767 0.050274 0.724154
Si Si3 0.495946 0.445880 0.352350
Si Si4 0.691204 0.114255 0.433781
Si Si5 0.847224 0.368415 0.907873
Si Si6 0.473458 0.653323 0.399531
Si Si7 0.877305 0.546182 0.108650
Si Si8 0.043825 0.396411 0.611072
O O1 0.215694 0.261615 0.970166
O O2 0.085631 0.055164 0.864608
O O3 0.619778 0.292151 0.075639
O O4 0.283710 0.909142 0.074554
O O5 0.053393 0.289452 0.703196
O O6 0.783257 0.819441 0.700961
O O7 0.600113 0.040689 0.623244
O O8 0.418129 0.586005 0.234135
O O9 0.583753 0.587232 0.412572
O O10 0.766356 0.425244 0.463463
O O11 0.978550 0.208340 0.580173
O O12 0.686156 0.336609 0.341629
O O13 0.689750 0.932449 0.435746
O O14 0.059974 0.458593 0.927521
O O15 0.000000 0.500000 0.000000
O O16 0.500000 0.500000 0.500000
O O17 0.149611 0.600076 0.257253
#
# Coordination Sequence:
#
# PCOD8011433 Si02
#       8
#     2   2   2   2   2   2   2   2
#     4  11  23  44  68  93 129 173 222 264 316 381
#     4  11  20  41  65  88 126 169 208 266 315 375
#     4  10  22  39  61  93 128 163 211 260 328 381
#     4  10  21  39  61  90 126 164 211 256 320 375
#     4  11  23  44  65  91 133 170 208 273 322 378
#     4  11  21  39  66  93 133 167 201 269 330 377
#     4  10  25  44  64 100 124 171 227 258 316 390
#     4  10  22  39  62  95 122 163 220 259 309 393
#
# _framework density 21.983591000000001
#
# number of rings (size 3 to 8) (size 9 to 14) (size 15 to 20)
#    0.000    1.500    2.500    3.375    0.000    3.000 
#   11.250    0.000    0.000    0.000    0.000    0.000 
#    0.000    0.000    0.000    0.000    0.000    0.000 
#
# Total GULP energy -198313.598373 kJ/mol
# GULP energy per Si atom -12394.599898 kJ/mol
# Density = 2.193356 g / cm^3
# Si number density = 21.983591 Si / 1000 Ang^3
#
#
#
# Elastic Constant Matrix: (Units=GPa)
#
#
# Indices 1 2 3 4 5 6 
#
# 1 83.6789 46.7524 27.2846 6.5244 -21.7509 -7.6831
# 2 46.7524 131.2215 24.6702 -1.7949 -15.6342 -5.2921
# 3 27.2846 24.6702 82.1709 -9.1034 -16.4532 -5.5699
# 4 6.5244 -1.7949 -9.1034 41.3973 0.3648 -10.4069
# 5 -21.7509 -15.6342 -16.4532 0.3648 35.0028 1.9946
# 6 -7.6831 -5.2921 -5.5699 -10.4069 1.9946 38.1859
#
#
#
# Elastic Compliance Matrix: (Units=1/GPa)
#
#
# Indices 1 2 3 4 5 6 
#
# 1 0.018129 -0.004943 -0.003368 -0.003601 0.007449 0.001101
# 2 -0.004943 0.009688 -0.000960 0.001099 0.000766 0.000467
# 3 -0.003368 -0.000960 0.015099 0.004362 0.004396 0.002351
# 4 -0.003601 0.001099 0.004362 0.027650 -0.000419 0.007621
# 5 0.007449 0.000766 0.004396 -0.000419 0.035595 0.000273
# 6 0.001101 0.000467 0.002351 0.007621 0.000273 0.028880
#
#
# Mechanical properties :
#
#
# Convention : Reuss Voigt Hill
#
# Bulk Modulus (GPa) = 41.03110 54.94286 47.98698
# Shear Modulus (GPa) = 30.91994 36.14145 33.53070
#
# Velocity S-wave (km/s) = 3.75440 4.05905 3.90969
# Velocity P-wave (km/s) = 6.12364 6.85673 6.50053
#
# Compressibility (1/GPa) = 0.02437176
#
# Stress axis : x y z
#
# Youngs Moduli (GPa) = 55.16174 103.22552 66.22809
#
# Poissons Ratio (x) = 0.51025 0.22308
# Poissons Ratio (y) = 0.27267 0.06361
# Poissons Ratio (z) = 0.18580 0.09914
#
# Static dielectric constant tensor:
#      x y z
#    x 3.912150 -0.191860 0.003240 
#    y -0.191860 4.379830 0.077260 
#    z 0.003240 0.077260 3.811180 
# 
# 
# High freq. dielectric constant tensor:
#      x y z
#    x 1.863070 -0.009690 -0.011650 
#    y -0.009690 1.880650 -0.000430 
#    z -0.011650 -0.000430 1.853460 
# 
# From -- ./inp_files/594067.got.cif
#   From: 2010.06.25/outbox.cif.g09.slc.cpg/sg2_298_cif.got.tgz:594067.got - 2010.06.27 13:26:56.
