data_PCOD8011996
_publ_section_title
;
Structure prediction by ZEFSAII (Michael W. Deem and Ramdas Pophale) SiO2 
 PCOD8011996
Probable space group: P -1
;
_chemical_formula_sum "Si O2"
_cell_formula_units_Z 14
_cell_length_a 12.428454
_cell_length_b 10.503504
_cell_length_c 12.331894
_cell_angle_alpha 125.708549
_cell_angle_beta 135.055519
_cell_angle_gamma 35.079503
_cell_volume 653.536112
_symmetry_space_group_name_H-M "P -1"
_symmetry_group_IT_number 2
_symmetry_cell_setting 'triclinic'
loop_
_space_group_symop_operation_xyz
x,y,z
-x,-y,-z
loop_
_atom_site_type_symbol
_atom_site_label
_atom_site_fract_x
_atom_site_fract_y
_atom_site_fract_z
Si Si1 0.317112 0.445181 0.577063
Si Si2 0.727131 0.878646 0.878076
Si Si3 0.578907 0.657404 0.633291
Si Si4 0.073637 0.257025 0.822862
Si Si5 0.975567 0.466152 0.250573
Si Si6 0.225787 0.838116 0.636239
Si Si7 0.560092 0.633531 0.138124
O O1 0.473396 0.316012 0.519455
O O2 0.237939 0.682896 0.649098
O O3 0.453316 0.314993 0.718108
O O4 0.112109 0.477899 0.435514
O O5 0.561099 0.853833 0.749343
O O6 0.865218 0.772275 0.813141
O O7 0.604068 0.132505 0.924500
O O8 0.889082 0.728232 0.018261
O O9 0.411838 0.684264 0.601084
O O10 0.819149 0.411150 0.698902
O O11 0.143093 0.343714 0.832341
O O12 0.232962 0.994445 0.785033
O O13 0.803827 0.489333 0.204372
O O14 0.000000 0.000000 0.500000
O O15 0.500000 0.500000 0.000000
#
# Coordination Sequence:
#
# PCOD8011996 Si02
#       7
#     2   2   2   2   2   2   2
#     4  10  23  42  62  92 127 166 203 254 307 368
#     4  10  23  41  64  93 121 167 204 247 319 364
#     4  10  22  39  65  94 125 154 208 259 303 366
#     4  10  21  39  65  95 125 160 201 259 309 361
#     4  10  22  43  64  89 125 162 212 257 301 369
#     4  12  21  38  63  98 123 156 205 252 314 359
#     4  12  26  43  60  91 127 164 212 253 307 373
#
# _framework density 21.421923
#
# number of rings (size 3 to 8) (size 9 to 14) (size 15 to 20)
#    0.000    1.714    2.857    4.286    0.000    8.571 
#    2.571    0.000    0.000    0.000    0.000    0.000 
#    0.000    0.000    0.000    0.000    0.000    0.000 
#
# Total GULP energy -173555.060621 kJ/mol
# GULP energy per Si atom -12396.790044 kJ/mol
# Density = 2.137317 g / cm^3
# Si number density = 21.421923 Si / 1000 Ang^3
#
#
#
# Elastic Constant Matrix: (Units=GPa)
#
#
# Indices 1 2 3 4 5 6 
#
# 1 112.2529 17.3200 49.3822 -0.3020 11.7368 -5.7128
# 2 17.3200 79.0935 22.2142 7.2358 4.1146 5.4864
# 3 49.3822 22.2142 110.0351 -2.1658 -13.6966 8.8792
# 4 -0.3020 7.2358 -2.1658 33.0686 10.3106 -2.3930
# 5 11.7368 4.1146 -13.6966 10.3106 28.7563 1.9130
# 6 -5.7128 5.4864 8.8792 -2.3930 1.9130 27.0796
#
#
#
# Elastic Compliance Matrix: (Units=1/GPa)
#
#
# Indices 1 2 3 4 5 6 
#
# 1 0.014154 -0.001097 -0.008023 0.003870 -0.011293 0.006979
# 2 -0.001097 0.014074 -0.002394 -0.002962 -0.001481 -0.002455
# 3 -0.008023 -0.002394 0.015254 -0.002959 0.012432 -0.007349
# 4 0.003870 -0.002962 -0.002959 0.036202 -0.015992 0.006716
# 5 -0.011293 -0.001481 0.012432 -0.015992 0.052000 -0.011245
# 6 0.006979 -0.002455 -0.007349 0.006716 -0.011245 0.042695
#
#
# Mechanical properties :
#
#
# Convention : Reuss Voigt Hill
#
# Bulk Modulus (GPa) = 48.88805 53.24604 51.06704
# Shear Modulus (GPa) = 24.48290 31.94524 28.21407
#
# Velocity S-wave (km/s) = 3.38433 3.86585 3.63308
# Velocity P-wave (km/s) = 6.17597 6.69598 6.44123
#
# Compressibility (1/GPa) = 0.02045490
#
# Stress axis : x y z
#
# Youngs Moduli (GPa) = 70.65376 71.05285 65.55534
#
# Poissons Ratio (x) = 0.07791 0.52596
# Poissons Ratio (y) = 0.07748 0.15692
# Poissons Ratio (z) = 0.56687 0.17008
#
# Static dielectric constant tensor:
#      x y z
#    x 3.755320 -0.141230 -0.202370 
#    y -0.141230 3.556520 0.237270 
#    z -0.202370 0.237270 3.931890 
# 
# 
# High freq. dielectric constant tensor:
#      x y z
#    x 1.830860 0.004820 -0.005940 
#    y 0.004820 1.837360 0.018900 
#    z -0.005940 0.018900 1.844070 
# 
# From -- ./inp_files/419784.got.cif
#   From: 2010.06.25/outbox.cif.g09.slc.cpg/sg2_210_cif.got.tgz:419784.got - 2010.06.27 13:26:56.
