data_PCOD8011159
_publ_section_title
;
Structure prediction by ZEFSAII (Michael W. Deem and Ramdas Pophale) SiO2 
 PCOD8011159
Probable space group: P -1
;
_chemical_formula_sum "Si O2"
_cell_formula_units_Z 16
_cell_length_a 16.789454
_cell_length_b 8.756381
_cell_length_c 8.399216
_cell_angle_alpha 130.152376
_cell_angle_beta 123.079967
_cell_angle_gamma 82.804020
_cell_volume 739.627623
_symmetry_space_group_name_H-M "P -1"
_symmetry_group_IT_number 2
_symmetry_cell_setting 'triclinic'
loop_
_space_group_symop_operation_xyz
x,y,z
-x,-y,-z
loop_
_atom_site_type_symbol
_atom_site_label
_atom_site_fract_x
_atom_site_fract_y
_atom_site_fract_z
Si Si1 0.338721 0.414493 0.069708
Si Si2 0.428575 0.793536 0.190672
Si Si3 0.442765 0.111176 0.902438
Si Si4 0.770050 0.349660 0.296786
Si Si5 0.856146 0.753544 0.456392
Si Si6 0.027681 0.656082 0.385093
Si Si7 0.724247 0.309126 0.581129
Si Si8 0.922177 0.233382 0.831919
O O1 0.407164 0.592291 0.144270
O O2 0.317865 0.515237 0.277213
O O3 0.403274 0.262888 0.071971
O O4 0.230317 0.271588 0.784674
O O5 0.487146 0.756422 0.074373
O O6 0.500000 0.000000 0.500000
O O7 0.318291 0.801004 0.018875
O O8 0.347220 0.924967 0.597189
O O9 0.500000 0.000000 0.000000
O O10 0.809722 0.595005 0.445515
O O11 0.863544 0.262464 0.350223
O O12 0.722263 0.341066 0.412484
O O13 0.948036 0.698205 0.442872
O O14 0.892901 0.999592 0.721130
O O15 0.033560 0.777526 0.304303
O O16 0.002132 0.402911 0.149354
O O17 0.833228 0.332532 0.786679
#
# Coordination Sequence:
#
# PCOD8011159 Si02
#       8
#     2   2   2   2   2   2   2   2
#     4  11  24  41  70  95 128 172 219 263 322 392
#     4  11  23  44  69  95 127 177 217 263 326 381
#     4  12  24  44  67  95 131 168 216 276 323 379
#     4  10  24  41  63  96 137 162 216 276 312 381
#     4  11  21  40  65  97 127 171 212 261 323 382
#     4  10  21  40  66  94 130 168 210 263 324 379
#     4  11  21  44  64  95 130 172 214 264 326 381
#     4  10  21  38  68  94 127 170 214 260 316 393
#
# _framework density 21.632507
#
# number of rings (size 3 to 8) (size 9 to 14) (size 15 to 20)
#    0.000    1.250    5.000    1.125    0.000    1.000 
#    0.000    2.500    5.500    0.000    0.000    0.000 
#    0.000    0.000    0.000    0.000    0.000    0.000 
#
# Total GULP energy -198381.897908 kJ/mol
# GULP energy per Si atom -12398.868619 kJ/mol
# Density = 2.158327 g / cm^3
# Si number density = 21.632507 Si / 1000 Ang^3
#
#
#
# Elastic Constant Matrix: (Units=GPa)
#
#
# Indices 1 2 3 4 5 6 
#
# 1 115.6407 41.6250 37.3735 2.6249 0.7153 -9.3657
# 2 41.6250 80.7680 31.6586 0.3468 -0.1149 -8.8942
# 3 37.3735 31.6586 92.3010 4.8777 12.0663 -16.5540
# 4 2.6249 0.3468 4.8777 31.2889 -2.4807 2.4146
# 5 0.7153 -0.1149 12.0663 -2.4807 34.2609 7.1167
# 6 -9.3657 -8.8942 -16.5540 2.4146 7.1167 33.4219
#
#
#
# Elastic Compliance Matrix: (Units=1/GPa)
#
#
# Indices 1 2 3 4 5 6 
#
# 1 0.011312 -0.004610 -0.003012 -0.000397 0.000712 0.000328
# 2 -0.004610 0.016342 -0.003820 0.000849 0.001390 0.000807
# 3 -0.003012 -0.003820 0.015923 -0.003383 -0.007434 0.007853
# 4 -0.000397 0.000849 -0.003383 0.033261 0.004639 -0.004952
# 5 0.000712 0.001390 -0.007434 0.004639 0.034368 -0.010766
# 6 0.000328 0.000807 0.007853 -0.004952 -0.010766 0.036767
#
#
# Mechanical properties :
#
#
# Convention : Reuss Voigt Hill
#
# Bulk Modulus (GPa) = 48.32928 56.66933 52.49930
# Shear Modulus (GPa) = 28.12856 31.66454 29.89655
#
# Velocity S-wave (km/s) = 3.60987 3.83005 3.72159
# Velocity P-wave (km/s) = 6.30590 6.76847 6.54128
#
# Compressibility (1/GPa) = 0.02069139
#
# Stress axis : x y z
#
# Youngs Moduli (GPa) = 88.40525 61.19339 62.80124
#
# Poissons Ratio (x) = 0.28210 0.18917
# Poissons Ratio (y) = 0.40755 0.23992
# Poissons Ratio (z) = 0.26630 0.23377
#
# Static dielectric constant tensor:
#      x y z
#    x 4.248940 0.141120 0.432320 
#    y 0.141120 3.755850 0.024560 
#    z 0.432320 0.024560 4.016430 
# 
# 
# High freq. dielectric constant tensor:
#      x y z
#    x 1.863860 0.007150 0.022590 
#    y 0.007150 1.837640 -0.000950 
#    z 0.022590 -0.000950 1.842840 
# 
# From -- ./inp_files/207232.got.cif
#   From: 2010.06.25/outbox.cif.g09.slc.cpg/sg2_104_cif.got.tgz:207232.got - 2010.06.27 13:26:56.
