data_PCOD8011148
_publ_section_title
;
Structure prediction by ZEFSAII (Michael W. Deem and Ramdas Pophale) SiO2 
 PCOD8011148
Probable space group: P -1
;
_chemical_formula_sum "Si O2"
_cell_formula_units_Z 12
_cell_length_a 10.682024
_cell_length_b 12.160595
_cell_length_c 5.071551
_cell_angle_alpha 124.086505
_cell_angle_beta 92.166680
_cell_angle_gamma 108.016617
_cell_volume 499.860593
_symmetry_space_group_name_H-M "P -1"
_symmetry_group_IT_number 2
_symmetry_cell_setting 'triclinic'
loop_
_space_group_symop_operation_xyz
x,y,z
-x,-y,-z
loop_
_atom_site_type_symbol
_atom_site_label
_atom_site_fract_x
_atom_site_fract_y
_atom_site_fract_z
Si Si1 0.773467 0.883408 0.329248
Si Si2 0.648472 0.608110 0.572153
Si Si3 0.940238 0.329318 0.276381
Si Si4 0.341752 0.673732 0.802244
Si Si5 0.526181 0.752223 0.422515
Si Si6 0.980747 0.175142 0.576301
O O1 0.649648 0.896873 0.512705
O O2 0.890205 0.868768 0.507078
O O3 0.840918 0.031247 0.366741
O O4 0.712820 0.749164 0.945229
O O5 0.500000 0.500000 0.500000
O O6 0.731594 0.504242 0.462290
O O7 0.616980 0.653793 0.337066
O O8 0.775701 0.266660 0.149257
O O9 0.981204 0.282095 0.491001
O O10 0.000000 0.500000 0.500000
O O11 0.000635 0.261190 0.965837
O O12 0.459041 0.759667 0.710181
O O13 0.405343 0.697207 0.129838
#
# Coordination Sequence:
#
# PCOD8011148 Si02
#       6
#     2   2   2   2   2   2
#     4  11  25  45  73 103 142 176 234 292 348 396
#     4  10  21  38  68 104 134 172 224 289 336 397
#     4  12  27  50  70  99 140 188 234 277 342 425
#     4  11  24  40  69 103 137 176 232 280 345 406
#     4  11  22  40  68 104 133 175 225 291 343 390
#     4  11  29  46  71 102 138 188 232 281 345 417
#
# _framework density 24.006692999999999
#
# number of rings (size 3 to 8) (size 9 to 14) (size 15 to 20)
#    0.000    1.000    3.333    3.000    9.333    1.333 
#    0.000    5.000    0.000    0.000    0.000    0.000 
#    0.000    0.000    0.000    0.000    0.000    0.000 
#
# Total GULP energy -148665.415462 kJ/mol
# GULP energy per Si atom -12388.784622 kJ/mol
# Density = 2.395205 g / cm^3
# Si number density = 24.006693 Si / 1000 Ang^3
#
#
#
# Elastic Constant Matrix: (Units=GPa)
#
#
# Indices 1 2 3 4 5 6 
#
# 1 10.9318 83.8585 46.6982 -53.1400 -1.1012 -14.3411
# 2 83.8585 88.2523 3.9488 30.8822 22.0070 15.8040
# 3 46.6982 3.9488 46.0460 29.5975 21.5103 19.7915
# 4 -53.1400 30.8822 29.5975 14.6153 1.3902 -5.4316
# 5 -1.1012 22.0070 21.5103 1.3902 30.4926 -0.2775
# 6 -14.3411 15.8040 19.7915 -5.4316 -0.2775 28.1244
#
#
#
# Elastic Compliance Matrix: (Units=1/GPa)
#
#
# Indices 1 2 3 4 5 6 
#
# 1 0.003131 0.001851 0.006710 -0.007698 -0.005657 -0.005708
# 2 0.001851 0.007633 -0.006919 0.005659 -0.000796 0.002609
# 3 0.006710 -0.006919 0.016209 0.005669 -0.006485 -0.003067
# 4 -0.007698 0.005659 0.005669 0.014765 -0.009110 -0.008333
# 5 -0.005657 -0.000796 -0.006485 -0.009110 0.038162 0.000743
# 6 -0.005708 0.002609 -0.003067 -0.008333 0.000743 0.031736
#
#
# Mechanical properties :
#
#
# Convention : Reuss Voigt Hill
#
# Bulk Modulus (GPa) = 33.04807 46.02679 39.53743
# Shear Modulus (GPa) = 42.21656 15.36144 28.78900
#
# Velocity S-wave (km/s) = 4.19804 2.53233 3.46671
# Velocity P-wave (km/s) = 6.10689 5.26919 5.70344
#
# Compressibility (1/GPa) = 0.03025895
#
# Stress axis : x y z
#
# Youngs Moduli (GPa) = 319.35136 131.01189 61.69259
#
# Poissons Ratio (x) = -0.24252 -0.41397
# Poissons Ratio (y) = -0.59117 0.42683
# Poissons Ratio (z) = -2.14292 0.90643
#
# Static dielectric constant tensor:
#      x y z
#    x 3.658570 1.313130 1.380150 
#    y 1.313130 3.094890 -1.749700 
#    z 1.380150 -1.749700 2.205150 
# 
# 
# High freq. dielectric constant tensor:
#      x y z
#    x 1.966880 0.005400 0.020140 
#    y 0.005400 1.967300 -0.008150 
#    z 0.020140 -0.008150 1.925270 
# 
# From -- ./inp_files/68033.got.cif
#   From: 2010.06.25/outbox.cif.g09.slc.cpg/sg2_35_cif.got.tgz:68033.got - 2010.06.27 13:26:56.
