data_PCOD8011164
_publ_section_title
;
Structure prediction by ZEFSAII (Michael W. Deem and Ramdas Pophale) SiO2 
 PCOD8011164
Probable space group: P -1
;
_chemical_formula_sum "Si O2"
_cell_formula_units_Z 10
_cell_length_a 16.936603
_cell_length_b 9.828669
_cell_length_c 12.746439
_cell_angle_alpha 151.395669
_cell_angle_beta 25.111438
_cell_angle_gamma 142.603735
_cell_volume 431.101824
_symmetry_space_group_name_H-M "P -1"
_symmetry_group_IT_number 2
_symmetry_cell_setting 'triclinic'
loop_
_space_group_symop_operation_xyz
x,y,z
-x,-y,-z
loop_
_atom_site_type_symbol
_atom_site_label
_atom_site_fract_x
_atom_site_fract_y
_atom_site_fract_z
Si Si1 0.237578 0.337040 0.768430
Si Si2 0.705253 0.266644 0.631753
Si Si3 0.563924 0.677664 0.697237
Si Si4 0.830633 0.384150 0.326897
Si Si5 0.638638 0.858824 0.154854
O O1 0.384810 0.472657 0.764296
O O2 0.302631 0.377919 0.599367
O O3 0.200381 0.004580 0.612222
O O4 0.039006 0.493652 0.128017
O O5 0.804151 0.337038 0.450368
O O6 0.484035 0.195706 0.838889
O O7 0.722886 0.548285 0.875400
O O8 0.678628 0.607282 0.616991
O O9 0.500000 0.000000 0.000000
O O10 0.803258 0.084671 0.093662
O O11 0.500000 0.000000 0.500000
#
# Coordination Sequence:
#
# PCOD8011164 Si02
#       5
#     2   2   2   2   2
#     4  11  25  43  64  96 128 167 218 255 316 388
#     4  10  21  38  68  96 126 164 210 262 318 379
#     4  11  27  43  64  89 132 176 211 260 316 372
#     4  11  23  42  66  96 129 163 213 266 315 374
#     4   9  20  36  64  95 129 161 202 259 324 368
#
# _framework density 23.196376999999998
#
# number of rings (size 3 to 8) (size 9 to 14) (size 15 to 20)
#    0.000    1.600    2.000    1.200    8.400    3.200 
#    0.000    0.000    0.000    0.000    0.000    0.000 
#    0.000    0.000    0.000    0.000    0.000    0.000 
#
# Total GULP energy -123961.020638 kJ/mol
# GULP energy per Si atom -12396.102064 kJ/mol
# Density = 2.314358 g / cm^3
# Si number density = 23.196377 Si / 1000 Ang^3
#
#
#
# Elastic Constant Matrix: (Units=GPa)
#
#
# Indices 1 2 3 4 5 6 
#
# 1 64.3603 37.6861 31.3709 -7.5678 -7.4695 -5.9512
# 2 37.6861 111.9561 67.2601 -1.0161 -6.7674 2.3870
# 3 31.3709 67.2601 111.4139 14.6009 -5.6996 16.5490
# 4 -7.5678 -1.0161 14.6009 59.6837 1.7033 -6.5110
# 5 -7.4695 -6.7674 -5.6996 1.7033 37.1844 -0.1297
# 6 -5.9512 2.3870 16.5490 -6.5110 -0.1297 22.4086
#
#
#
# Elastic Compliance Matrix: (Units=1/GPa)
#
#
# Indices 1 2 3 4 5 6 
#
# 1 0.023417 -0.003754 -0.006988 0.006015 0.002721 0.013543
# 2 -0.003754 0.015962 -0.009688 0.002723 0.000560 0.005251
# 3 -0.006988 -0.009688 0.020601 -0.008106 0.000298 -0.018391
# 4 0.006015 0.002723 -0.008106 0.021022 -0.000455 0.013399
# 5 0.002721 0.000560 0.000298 -0.000455 0.027610 0.000471
# 6 0.013543 0.005251 -0.018391 0.013399 0.000471 0.065141
#
#
# Mechanical properties :
#
#
# Convention : Reuss Voigt Hill
#
# Bulk Modulus (GPa) = 52.29809 62.26274 57.28041
# Shear Modulus (GPa) = 22.62592 33.94954 28.28773
#
# Velocity S-wave (km/s) = 3.12654 3.82981 3.49591
# Velocity P-wave (km/s) = 5.96895 6.81590 6.40644
#
# Compressibility (1/GPa) = 0.01912116
#
# Stress axis : x y z
#
# Youngs Moduli (GPa) = 42.70369 62.64752 48.54200
#
# Poissons Ratio (x) = 0.23518 0.33921
# Poissons Ratio (y) = 0.16031 0.47025
# Poissons Ratio (z) = 0.29841 0.60690
#
# Static dielectric constant tensor:
#      x y z
#    x 4.138780 0.415080 0.072980 
#    y 0.415080 4.605710 0.223470 
#    z 0.072980 0.223470 4.206030 
# 
# 
# High freq. dielectric constant tensor:
#      x y z
#    x 1.898040 0.005750 0.000030 
#    y 0.005750 1.916550 0.007220 
#    z 0.000030 0.007220 1.919580 
# 
# From -- ./inp_files/18255.got.cif
#   From: 2010.06.25/outbox.cif.g09.slc.cpg/sg2_10_cif.got.tgz:18255.got - 2010.06.27 13:26:56.
