data_PCOD8011731
_publ_section_title
;
Structure prediction by ZEFSAII (Michael W. Deem and Ramdas Pophale) SiO2 
 PCOD8011731
Probable space group: P -1
;
_chemical_formula_sum "Si O2"
_cell_formula_units_Z 14
_cell_length_a 18.639106
_cell_length_b 11.848217
_cell_length_c 9.053734
_cell_angle_alpha 33.146484
_cell_angle_beta 126.926207
_cell_angle_gamma 143.466061
_cell_volume 634.703381
_symmetry_space_group_name_H-M "P -1"
_symmetry_group_IT_number 2
_symmetry_cell_setting 'triclinic'
loop_
_space_group_symop_operation_xyz
x,y,z
-x,-y,-z
loop_
_atom_site_type_symbol
_atom_site_label
_atom_site_fract_x
_atom_site_fract_y
_atom_site_fract_z
Si Si1 0.681052 0.928099 0.465789
Si Si2 0.208512 0.218453 0.760917
Si Si3 0.898250 0.185523 0.653538
Si Si4 0.017659 0.245995 0.448583
Si Si5 0.445152 0.617694 0.228569
Si Si6 0.563990 0.205763 0.675858
Si Si7 0.820109 0.128055 0.135840
O O1 0.652043 0.632999 0.735007
O O2 0.562274 0.870359 0.432029
O O3 0.787893 0.136868 0.489115
O O4 0.727169 0.079941 0.194219
O O5 0.093937 0.158871 0.610743
O O6 0.327777 0.554387 0.565700
O O7 0.252834 0.112426 0.817225
O O8 0.165274 0.057526 0.037706
O O9 0.000000 0.500000 0.500000
O O10 0.964891 0.148091 0.656423
O O11 0.908571 0.101476 0.355013
O O12 0.106700 0.582739 0.177289
O O13 0.500000 0.500000 0.500000
O O14 0.388700 0.670883 0.232437
O O15 0.542231 0.925175 0.930613
#
# Coordination Sequence:
#
# PCOD8011731 Si02
#       7
#     2   2   2   2   2   2   2
#     4  10  22  41  66  92 132 163 206 261 315 375
#     4  12  23  39  66  93 127 166 209 258 314 379
#     4  11  24  47  62  88 129 174 211 259 314 368
#     4  10  23  40  62  90 127 164 215 259 313 366
#     4   9  19  38  60  92 129 157 200 254 310 368
#     4  10  22  37  64 101 122 163 208 255 321 373
#     4  10  21  39  63  96 123 162 208 267 311 364
#
# _framework density 22.057547
#
# number of rings (size 3 to 8) (size 9 to 14) (size 15 to 20)
#    0.000    1.714    2.857    0.857    6.000    0.571 
#    7.714    0.714    0.000    0.000    0.000    0.000 
#    0.000    0.000    0.000    0.000    0.000    0.000 
#
# Total GULP energy -173496.282950 kJ/mol
# GULP energy per Si atom -12392.591639 kJ/mol
# Density = 2.200734 g / cm^3
# Si number density = 22.057547 Si / 1000 Ang^3
#
#
#
# Elastic Constant Matrix: (Units=GPa)
#
#
# Indices 1 2 3 4 5 6 
#
# 1 78.0958 22.2077 53.5674 -2.1865 -8.6544 10.4228
# 2 22.2077 103.3205 47.6275 -19.5176 -6.7737 -4.4171
# 3 53.5674 47.6275 128.6081 -22.5606 -30.1703 -0.1993
# 4 -2.1865 -19.5176 -22.5606 37.0412 8.4129 -2.9874
# 5 -8.6544 -6.7737 -30.1703 8.4129 40.3779 -6.6409
# 6 10.4228 -4.4171 -0.1993 -2.9874 -6.6409 29.6066
#
#
#
# Elastic Compliance Matrix: (Units=1/GPa)
#
#
# Indices 1 2 3 4 5 6 
#
# 1 0.020624 -0.001560 -0.009810 -0.005505 -0.003488 -0.008897
# 2 -0.001560 0.012563 -0.003464 0.004949 -0.001422 0.002580
# 3 -0.009810 -0.003464 0.016362 0.005922 0.009249 0.005719
# 4 -0.005505 0.004949 0.005922 0.033806 -0.002036 0.005671
# 5 -0.003488 -0.001422 0.009249 -0.002036 0.032455 0.008152
# 6 -0.008897 0.002580 0.005719 0.005671 0.008152 0.039733
#
#
# Mechanical properties :
#
#
# Convention : Reuss Voigt Hill
#
# Bulk Modulus (GPa) = 50.30108 61.86995 56.08552
# Shear Modulus (GPa) = 26.06364 33.84661 29.95512
#
# Velocity S-wave (km/s) = 3.44120 3.92148 3.68916
# Velocity P-wave (km/s) = 6.21636 6.97239 6.60520
#
# Compressibility (1/GPa) = 0.01988029
#
# Stress axis : x y z
#
# Youngs Moduli (GPa) = 48.48662 79.60120 61.11731
#
# Poissons Ratio (x) = 0.12415 0.59959
# Poissons Ratio (y) = 0.07562 0.21172
# Poissons Ratio (z) = 0.47568 0.27576
#
# Static dielectric constant tensor:
#      x y z
#    x 3.838360 0.094860 -0.072070 
#    y 0.094860 4.352960 -0.337500 
#    z -0.072070 -0.337500 4.031690 
# 
# 
# High freq. dielectric constant tensor:
#      x y z
#    x 1.856880 0.015860 -0.003930 
#    y 0.015860 1.860830 -0.021880 
#    z -0.003930 -0.021880 1.862680 
# 
# From -- ./inp_files/332666.got.cif
#   From: 2010.06.25/outbox.cif.g09.slc.cpg/sg2_167_cif.got.tgz:332666.got - 2010.06.27 13:26:56.
