data_PCOD8011441
_publ_section_title
;
Structure prediction by ZEFSAII (Michael W. Deem and Ramdas Pophale) SiO2 
 PCOD8011441
Probable space group: P -1
;
_chemical_formula_sum "Si O2"
_cell_formula_units_Z 14
_cell_length_a 11.849693
_cell_length_b 6.990056
_cell_length_c 11.144822
_cell_angle_alpha 95.904147
_cell_angle_beta 49.430772
_cell_angle_gamma 115.138003
_cell_volume 614.295255
_symmetry_space_group_name_H-M "P -1"
_symmetry_group_IT_number 2
_symmetry_cell_setting 'triclinic'
loop_
_space_group_symop_operation_xyz
x,y,z
-x,-y,-z
loop_
_atom_site_type_symbol
_atom_site_label
_atom_site_fract_x
_atom_site_fract_y
_atom_site_fract_z
Si Si1 0.913293 0.146727 0.541837
Si Si2 0.169853 0.275889 0.027089
Si Si3 0.528118 0.356152 0.798352
Si Si4 0.171756 0.555921 0.239959
Si Si5 0.176129 0.108656 0.767066
Si Si6 0.382080 0.234719 0.400652
Si Si7 0.581372 0.032002 0.318121
O O1 0.869417 0.243076 0.699524
O O2 0.035169 0.347192 0.390100
O O3 0.742294 0.003701 0.579822
O O4 0.000000 0.000000 0.500000
O O5 0.337178 0.280699 0.968344
O O6 0.176064 0.280234 0.877479
O O7 0.160217 0.486518 0.103011
O O8 0.009471 0.048870 0.166467
O O9 0.641444 0.381438 0.837127
O O10 0.604235 0.580186 0.685502
O O11 0.533347 0.178379 0.695930
O O12 0.306303 0.254833 0.583581
O O13 0.233708 0.947751 0.788744
O O14 0.564981 0.238269 0.286657
O O15 0.500000 0.000000 0.500000
#
# Coordination Sequence:
#
# PCOD8011441 Si02
#       7
#     2   2   2   2   2   2   2
#     4  11  22  38  64  95 119 156 206 259 305 355
#     4  10  21  39  61  91 126 167 199 243 310 370
#     4  11  22  37  64  95 122 159 202 253 308 357
#     4  11  22  39  65  91 123 161 202 250 310 369
#     4   9  20  39  64  85 126 168 202 248 303 360
#     4  11  20  39  64  92 121 155 213 255 298 358
#     4   9  20  36  60  88 121 160 200 253 298 350
#
# _framework density 22.790343
#
# number of rings (size 3 to 8) (size 9 to 14) (size 15 to 20)
#    0.000    1.714    4.286    0.429    0.000    5.143 
#    0.000    4.286    0.000    0.000    0.000    0.000 
#    0.000    0.000    0.000    0.000    0.000    0.000 
#
# Total GULP energy -173452.736861 kJ/mol
# GULP energy per Si atom -12389.481204 kJ/mol
# Density = 2.273847 g / cm^3
# Si number density = 22.790343 Si / 1000 Ang^3
#
#
#
# Elastic Constant Matrix: (Units=GPa)
#
#
# Indices 1 2 3 4 5 6 
#
# 1 88.1334 42.4819 42.8665 11.9585 -12.9561 5.9574
# 2 42.4819 92.4201 49.6756 35.0474 -0.4043 2.8749
# 3 42.8665 49.6756 94.0824 35.3503 -8.7869 12.5534
# 4 11.9585 35.0474 35.3503 49.8041 17.2302 3.1176
# 5 -12.9561 -0.4043 -8.7869 17.2302 33.1609 7.8024
# 6 5.9574 2.8749 12.5534 3.1176 7.8024 38.3940
#
#
#
# Elastic Compliance Matrix: (Units=1/GPa)
#
#
# Indices 1 2 3 4 5 6 
#
# 1 0.017056 -0.005975 -0.004593 0.001799 0.004871 -0.001833
# 2 -0.005975 0.019443 -0.003471 -0.010632 0.002270 0.001008
# 3 -0.004593 -0.003471 0.024395 -0.018941 0.016546 -0.008828
# 4 0.001799 -0.010632 -0.018941 0.051553 -0.033424 0.009316
# 5 0.004871 0.002270 0.016546 -0.033424 0.057437 -0.015294
# 6 -0.001833 0.001008 -0.008828 0.009316 -0.015294 0.031493
#
#
# Mechanical properties :
#
#
# Convention : Reuss Voigt Hill
#
# Bulk Modulus (GPa) = 30.47359 60.52044 45.49702
# Shear Modulus (GPa) = 20.79926 33.57927 27.18927
#
# Velocity S-wave (km/s) = 3.02426 3.84265 3.45775
# Velocity P-wave (km/s) = 5.05917 6.80448 5.99567
#
# Compressibility (1/GPa) = 0.03281530
#
# Stress axis : x y z
#
# Youngs Moduli (GPa) = 58.62904 51.43268 40.99280
#
# Poissons Ratio (x) = 0.30733 0.18827
# Poissons Ratio (y) = 0.35034 0.14229
# Poissons Ratio (z) = 0.26927 0.17852
#
# Static dielectric constant tensor:
#      x y z
#    x 6.677290 0.557060 -0.945180 
#    y 0.557060 4.639300 0.492490 
#    z -0.945180 0.492490 4.426420 
# 
# 
# High freq. dielectric constant tensor:
#      x y z
#    x 1.896430 0.024310 -0.016140 
#    y 0.024310 1.887680 0.034190 
#    z -0.016140 0.034190 1.897640 
# 
# From -- ./inp_files/127371.got.cif
#   From: 2010.06.25/outbox.cif.g09.slc.cpg/sg2_64_cif.got.tgz:127371.got - 2010.06.27 13:26:56.
