data_PCOD8011946
_publ_section_title
;
Structure prediction by ZEFSAII (Michael W. Deem and Ramdas Pophale) SiO2 
 PCOD8011946
Probable space group: P -1
;
_chemical_formula_sum "Si O2"
_cell_formula_units_Z 16
_cell_length_a 14.194995
_cell_length_b 9.147110
_cell_length_c 14.737086
_cell_angle_alpha 58.936968
_cell_angle_beta 150.402149
_cell_angle_gamma 109.303725
_cell_volume 777.405660
_symmetry_space_group_name_H-M "P -1"
_symmetry_group_IT_number 2
_symmetry_cell_setting 'triclinic'
loop_
_space_group_symop_operation_xyz
x,y,z
-x,-y,-z
loop_
_atom_site_type_symbol
_atom_site_label
_atom_site_fract_x
_atom_site_fract_y
_atom_site_fract_z
Si Si1 0.898049 0.986170 0.196037
Si Si2 0.855055 0.149993 0.388998
Si Si3 0.031009 0.893325 0.968589
Si Si4 0.371323 0.507795 0.978983
Si Si5 0.480938 0.763958 0.354275
Si Si6 0.549049 0.877843 0.870470
Si Si7 0.795646 0.629130 0.817023
Si Si8 0.636717 0.369031 0.876519
O O1 0.992925 0.972840 0.179413
O O2 0.825861 0.193398 0.100161
O O3 0.063159 0.860490 0.437442
O O4 0.710731 0.907158 0.067059
O O5 0.836846 0.343459 0.266704
O O6 0.638682 0.118348 0.224887
O O7 0.000000 0.000000 0.500000
O O8 0.256978 0.761030 0.196801
O O9 0.850742 0.803414 0.842061
O O10 0.000000 0.000000 0.000000
O O11 0.500000 0.500000 0.000000
O O12 0.357817 0.307619 0.046175
O O13 0.460218 0.577026 0.122228
O O14 0.639967 0.663518 0.592413
O O15 0.517787 0.667364 0.316437
O O16 0.498830 0.964312 0.294910
O O17 0.709811 0.538995 0.855588
O O18 0.000000 0.500000 0.000000
#
# Coordination Sequence:
#
# PCOD8011946 Si02
#       8
#     2   2   2   2   2   2   2   2
#     4  10  21  41  62  92 124 164 215 251 307 392
#     4  11  21  39  68  89 122 163 210 260 318 368
#     4  10  23  41  61  93 133 165 208 258 311 386
#     4  10  22  42  62  92 125 162 212 270 312 364
#     4  10  23  42  63  94 127 170 212 254 319 391
#     4   9  22  40  64  86 128 160 208 258 319 364
#     4  12  22  39  67  93 130 163 212 262 316 379
#     4  10  21  39  65  91 127 163 214 261 305 381
#
# _framework density 20.581275000000002
#
# number of rings (size 3 to 8) (size 9 to 14) (size 15 to 20)
#    0.000    2.000    3.750    1.125    3.500    1.500 
#    6.750    0.000    0.000    0.000    0.000    0.000 
#    0.000    0.000    0.000    0.000    0.000    0.000 
#
# Total GULP energy -198248.444347 kJ/mol
# GULP energy per Si atom -12390.527772 kJ/mol
# Density = 2.053443 g / cm^3
# Si number density = 20.581275 Si / 1000 Ang^3
#
#
#
# Elastic Constant Matrix: (Units=GPa)
#
#
# Indices 1 2 3 4 5 6 
#
# 1 101.2267 53.6309 40.6554 5.8837 -11.6364 -28.3531
# 2 53.6309 115.8094 57.9959 2.9250 -7.7520 -8.8076
# 3 40.6554 57.9959 122.1978 5.9919 -14.1484 -8.4264
# 4 5.8837 2.9250 5.9919 33.8122 -3.2086 -1.3181
# 5 -11.6364 -7.7520 -14.1484 -3.2086 25.8808 10.6143
# 6 -28.3531 -8.8076 -8.4264 -1.3181 10.6143 35.5366
#
#
#
# Elastic Compliance Matrix: (Units=1/GPa)
#
#
# Indices 1 2 3 4 5 6 
#
# 1 0.017281 -0.006079 -0.001990 -0.001686 -0.000188 0.011803
# 2 -0.006079 0.013551 -0.004624 0.000598 -0.000086 -0.002540
# 3 -0.001990 -0.004624 0.011507 -0.000923 0.004459 -0.001371
# 4 -0.001686 0.000598 -0.000923 0.030233 0.003174 -0.001243
# 5 -0.000188 -0.000086 0.004459 0.003174 0.046664 -0.012934
# 6 0.011803 -0.002540 -0.001371 -0.001243 -0.012934 0.040420
#
#
# Mechanical properties :
#
#
# Convention : Reuss Voigt Hill
#
# Bulk Modulus (GPa) = 58.97896 71.53311 65.25604
# Shear Modulus (GPa) = 26.22042 31.50935 28.86488
#
# Velocity S-wave (km/s) = 3.57318 3.91701 3.74904
# Velocity P-wave (km/s) = 6.76330 7.43567 7.10744
#
# Compressibility (1/GPa) = 0.01695520
#
# Stress axis : x y z
#
# Youngs Moduli (GPa) = 57.86798 73.79370 86.90547
#
# Poissons Ratio (x) = 0.44857 0.17291
# Poissons Ratio (y) = 0.35176 0.40181
# Poissons Ratio (z) = 0.11513 0.34119
#
# Static dielectric constant tensor:
#      x y z
#    x 3.510800 -0.159850 -0.146540 
#    y -0.159850 3.799160 -0.148750 
#    z -0.146540 -0.148750 4.042680 
# 
# 
# High freq. dielectric constant tensor:
#      x y z
#    x 1.794920 0.001380 -0.018790 
#    y 0.001380 1.809670 -0.006820 
#    z -0.018790 -0.006820 1.797340 
# 
# From -- ./inp_files/528344.got.cif
#   From: 2010.06.25/outbox.cif.g09.slc.cpg/sg2_265_cif.got.tgz:528344.got - 2010.06.27 13:26:56.
