data_PCOD8011776
_publ_section_title
;
Structure prediction by ZEFSAII (Michael W. Deem and Ramdas Pophale) SiO2 
 PCOD8011776
Probable space group: P -1
;
_chemical_formula_sum "Si O2"
_cell_formula_units_Z 16
_cell_length_a 8.929555
_cell_length_b 14.001023
_cell_length_c 22.222420
_cell_angle_alpha 158.291055
_cell_angle_beta 129.239799
_cell_angle_gamma 52.209612
_cell_volume 792.885494
_symmetry_space_group_name_H-M "P -1"
_symmetry_group_IT_number 2
_symmetry_cell_setting 'triclinic'
loop_
_space_group_symop_operation_xyz
x,y,z
-x,-y,-z
loop_
_atom_site_type_symbol
_atom_site_label
_atom_site_fract_x
_atom_site_fract_y
_atom_site_fract_z
Si Si1 0.028169 0.349514 0.832338
Si Si2 0.644326 0.150287 0.585368
Si Si3 0.544332 0.911094 0.868204
Si Si4 0.298438 0.513397 0.421120
Si Si5 0.864482 0.842731 0.128746
Si Si6 0.979599 0.628599 0.505566
Si Si7 0.393811 0.619697 0.766923
Si Si8 0.797276 0.016137 0.423125
O O1 0.861245 0.144950 0.664644
O O2 0.132606 0.324392 0.908000
O O3 0.940494 0.650787 0.980517
O O4 0.192063 0.260380 0.771577
O O5 0.572918 0.454487 0.746778
O O6 0.638237 0.041930 0.451338
O O7 0.500000 0.000000 0.500000
O O8 0.697486 0.757734 0.772918
O O9 0.457408 0.696811 0.762235
O O10 0.358127 0.050734 0.870046
O O11 0.660984 0.118791 0.055570
O O12 0.500000 0.500000 0.500000
O O13 0.248770 0.753676 0.503020
O O14 0.139839 0.511920 0.431577
O O15 0.009232 0.067112 0.302696
O O16 0.777559 0.568199 0.389394
O O17 0.000000 0.500000 0.500000
O O18 0.000000 0.000000 0.500000
#
# Coordination Sequence:
#
# PCOD8011776 Si02
#       8
#     2   2   2   2   2   2   2   2
#     4  10  21  39  64  89 120 172 215 253 309 390
#     4  11  22  38  63  92 127 165 207 266 319 377
#     4  11  22  41  66  93 124 173 213 258 317 386
#     4  12  22  41  68  94 128 171 214 264 320 387
#     4  11  20  39  67  88 126 165 215 256 314 381
#     4  12  24  40  63  97 128 165 211 272 323 374
#     4  11  23  39  63  93 130 162 214 261 320 377
#     4  10  22  39  60  95 124 167 216 254 317 386
#
# _framework density 20.179459000000001
#
# number of rings (size 3 to 8) (size 9 to 14) (size 15 to 20)
#    0.000    1.000    6.250    0.750    1.750    0.500 
#    0.000    1.250    0.000    2.250    0.000    0.000 
#    0.000    0.000    0.000    0.000    0.000    0.000 
#
# Total GULP energy -198242.750675 kJ/mol
# GULP energy per Si atom -12390.171917 kJ/mol
# Density = 2.013353 g / cm^3
# Si number density = 20.179459 Si / 1000 Ang^3
#
#
#
# Elastic Constant Matrix: (Units=GPa)
#
#
# Indices 1 2 3 4 5 6 
#
# 1 121.5745 29.5081 58.5129 11.2853 -22.5586 17.9125
# 2 29.5081 107.2268 14.3818 6.6854 -7.1498 3.9169
# 3 58.5129 14.3818 131.6830 8.0978 -28.0203 -2.8771
# 4 11.2853 6.6854 8.0978 26.6745 -13.4515 -4.9958
# 5 -22.5586 -7.1498 -28.0203 -13.4515 41.3701 -8.5133
# 6 17.9125 3.9169 -2.8771 -4.9958 -8.5133 22.9846
#
#
#
# Elastic Compliance Matrix: (Units=1/GPa)
#
#
# Indices 1 2 3 4 5 6 
#
# 1 0.014112 -0.002228 -0.006344 -0.007142 -0.002140 -0.013758
# 2 -0.002228 0.010057 -0.000044 -0.001717 -0.000149 -0.000412
# 3 -0.006344 -0.000044 0.012199 0.005497 0.008836 0.010946
# 4 -0.007142 -0.001717 0.005497 0.056256 0.023477 0.027470
# 5 -0.002140 -0.000149 0.008836 0.023477 0.041377 0.023228
# 6 -0.013758 -0.000412 0.010946 0.027470 0.023228 0.070244
#
#
# Mechanical properties :
#
#
# Convention : Reuss Voigt Hill
#
# Bulk Modulus (GPa) = 52.25393 62.80998 57.53196
# Shear Modulus (GPa) = 21.94369 35.41128 28.67749
#
# Velocity S-wave (km/s) = 3.30119 4.19360 3.77387
# Velocity P-wave (km/s) = 6.36249 7.39200 6.89648
#
# Compressibility (1/GPa) = 0.01913732
#
# Stress axis : x y z
#
# Youngs Moduli (GPa) = 70.85934 99.43260 81.97388
#
# Poissons Ratio (x) = 0.22149 0.52007
# Poissons Ratio (y) = 0.15784 0.00359
# Poissons Ratio (z) = 0.44955 0.00435
#
# Static dielectric constant tensor:
#      x y z
#    x 3.240360 1.253810 1.358870 
#    y 1.253810 1.537760 -3.384810 
#    z 1.358870 -3.384810 -1.041730 
# 
# 
# High freq. dielectric constant tensor:
#      x y z
#    x 1.767400 -0.000240 -0.033810 
#    y -0.000240 1.806630 0.002150 
#    z -0.033810 0.002150 1.788490 
# 
# From -- ./inp_files/266876.got.cif
#   From: 2010.06.25/outbox.cif.g09.slc.cpg/sg2_134_cif.got.tgz:266876.got - 2010.06.27 13:26:56.
