data_PCOD8011434
_publ_section_title
;
Structure prediction by ZEFSAII (Michael W. Deem and Ramdas Pophale) SiO2 
 PCOD8011434
Probable space group: P -1
;
_chemical_formula_sum "Si O2"
_cell_formula_units_Z 16
_cell_length_a 9.337030
_cell_length_b 14.068661
_cell_length_c 14.449965
_cell_angle_alpha 44.458539
_cell_angle_beta 49.050262
_cell_angle_gamma 83.082029
_cell_volume 757.326189
_symmetry_space_group_name_H-M "P -1"
_symmetry_group_IT_number 2
_symmetry_cell_setting 'triclinic'
loop_
_space_group_symop_operation_xyz
x,y,z
-x,-y,-z
loop_
_atom_site_type_symbol
_atom_site_label
_atom_site_fract_x
_atom_site_fract_y
_atom_site_fract_z
Si Si1 0.077544 0.758058 0.076365
Si Si2 0.663121 0.211726 0.294142
Si Si3 0.830413 0.678371 0.049533
Si Si4 0.333037 0.624458 0.005896
Si Si5 0.474123 0.841751 0.406491
Si Si6 0.618732 0.629536 0.446714
Si Si7 0.005248 0.774860 0.604423
Si Si8 0.806427 0.862641 0.776205
O O1 0.939428 0.766450 0.042825
O O2 0.359014 0.946257 0.826045
O O3 0.102881 0.608108 0.154723
O O4 0.909902 0.713773 0.269752
O O5 0.580640 0.232414 0.413596
O O6 0.964254 0.321708 0.088478
O O7 0.500000 0.000000 0.500000
O O8 0.595454 0.287577 0.188643
O O9 0.765125 0.786131 0.948974
O O10 0.554686 0.480301 0.313713
O O11 0.250477 0.426131 0.174785
O O12 0.563433 0.749628 0.891583
O O13 0.613482 0.789337 0.326776
O O14 0.211225 0.753971 0.531551
O O15 0.500000 0.500000 0.500000
O O16 0.998056 0.846733 0.657363
O O17 0.073683 0.932111 0.398069
#
# Coordination Sequence:
#
# PCOD8011434 Si02
#       8
#     2   2   2   2   2   2   2   2
#     4  10  21  42  64  91 123 161 213 264 302 363
#     4  11  20  36  63  98 129 155 204 260 322 371
#     4  10  21  39  61  90 128 160 201 264 305 372
#     4  11  23  41  62  92 132 166 206 253 311 382
#     4  12  20  37  68  94 122 165 205 261 319 366
#     4  10  23  40  61  90 121 163 218 263 304 362
#     4  11  23  36  61  88 130 171 197 251 311 386
#     4  11  23  40  57  92 132 167 207 242 321 376
#
# _framework density 21.126958999999999
#
# number of rings (size 3 to 8) (size 9 to 14) (size 15 to 20)
#    0.000    1.250    5.000    3.000    3.500    1.000 
#    2.250    0.625    0.000    3.750    0.000    0.000 
#    0.000    0.000    0.000    0.000    0.000    0.000 
#
# Total GULP energy -198219.088803 kJ/mol
# GULP energy per Si atom -12388.693050 kJ/mol
# Density = 2.107887 g / cm^3
# Si number density = 21.126959 Si / 1000 Ang^3
#
#
#
# Elastic Constant Matrix: (Units=GPa)
#
#
# Indices 1 2 3 4 5 6 
#
# 1 76.9756 3.9046 30.6470 -10.5871 8.8578 -0.4347
# 2 3.9046 95.3661 30.7587 -6.3850 1.3849 -16.2346
# 3 30.6470 30.7587 118.9108 -9.4680 -4.7497 -4.3828
# 4 -10.5871 -6.3850 -9.4680 43.0519 -15.2186 -1.9115
# 5 8.8578 1.3849 -4.7497 -15.2186 26.6540 -0.6387
# 6 -0.4347 -16.2346 -4.3828 -1.9115 -0.6387 17.5220
#
#
#
# Elastic Compliance Matrix: (Units=1/GPa)
#
#
# Indices 1 2 3 4 5 6 
#
# 1 0.015437 0.000935 -0.004342 0.001103 -0.005320 0.000089
# 2 0.000935 0.013673 -0.003172 0.002055 -0.000123 0.012118
# 3 -0.004342 -0.003172 0.010761 0.002607 0.005016 0.000112
# 4 0.001103 0.002055 0.002607 0.030975 0.017836 0.006612
# 5 -0.005320 -0.000123 0.005016 0.017836 0.050485 0.004795
# 6 0.000089 0.012118 0.000112 0.006612 0.004795 0.069225
#
#
# Mechanical properties :
#
#
# Convention : Reuss Voigt Hill
#
# Bulk Modulus (GPa) = 37.43596 46.87476 42.15536
# Shear Modulus (GPa) = 23.51624 32.50838 28.01231
#
# Velocity S-wave (km/s) = 3.33992 3.92690 3.64525
# Velocity P-wave (km/s) = 5.71239 6.54187 6.14115
#
# Compressibility (1/GPa) = 0.02671228
#
# Stress axis : x y z
#
# Youngs Moduli (GPa) = 64.78043 73.13669 92.92567
#
# Poissons Ratio (x) = -0.06836 0.40345
# Poissons Ratio (y) = -0.06055 0.29479
# Poissons Ratio (z) = 0.28125 0.23202
#
# Static dielectric constant tensor:
#      x y z
#    x 3.599660 -0.239820 -0.090630 
#    y -0.239820 3.921540 0.350140 
#    z -0.090630 0.350140 4.616140 
# 
# 
# High freq. dielectric constant tensor:
#      x y z
#    x 1.801510 -0.020320 -0.011530 
#    y -0.020320 1.815340 -0.010180 
#    z -0.011530 -0.010180 1.841570 
# 
# From -- ./inp_files/505229.got.cif
#   From: 2010.06.25/outbox.cif.g09.slc.cpg/sg2_253_cif.got.tgz:505229.got - 2010.06.27 13:26:56.
