data_PCOD8011525
_publ_section_title
;
Structure prediction by ZEFSAII (Michael W. Deem and Ramdas Pophale) SiO2 
 PCOD8011525
Probable space group: P -1
;
_chemical_formula_sum "Si O2"
_cell_formula_units_Z 14
_cell_length_a 11.860342
_cell_length_b 14.017515
_cell_length_c 6.988297
_cell_angle_alpha 60.497540
_cell_angle_beta 66.634947
_cell_angle_gamma 116.271090
_cell_volume 558.881336
_symmetry_space_group_name_H-M "P -1"
_symmetry_group_IT_number 2
_symmetry_cell_setting 'triclinic'
loop_
_space_group_symop_operation_xyz
x,y,z
-x,-y,-z
loop_
_atom_site_type_symbol
_atom_site_label
_atom_site_fract_x
_atom_site_fract_y
_atom_site_fract_z
Si Si1 0.562213 0.223774 0.303164
Si Si2 0.216028 0.709672 0.231569
Si Si3 0.876513 0.041742 0.210750
Si Si4 0.492659 0.196701 0.803902
Si Si5 0.083755 0.368712 0.273919
Si Si6 0.062695 0.961743 0.260828
Si Si7 0.894949 0.580944 0.210362
O O1 0.502441 0.150243 0.630571
O O2 0.358141 0.099226 0.437722
O O3 0.701222 0.227020 0.107061
O O4 0.700113 0.432288 0.994482
O O5 0.426650 0.842969 0.075652
O O6 0.063217 0.494963 0.600064
O O7 0.102116 0.738431 0.346556
O O8 0.966847 0.012998 0.324032
O O9 0.875841 0.992230 0.048157
O O10 0.021033 0.250733 0.914302
O O11 0.649202 0.411715 0.509554
O O12 0.268404 0.080523 0.124335
O O13 0.101629 0.249787 0.368861
O O14 0.014933 0.370998 0.112405
#
# Coordination Sequence:
#
# PCOD8011525 Si02
#       7
#     2   2   2   2   2   2   2
#     4  10  21  39  62  90 119 163 198 242 302 358
#     4  10  21  41  63  88 126 155 198 250 295 361
#     4  10  22  42  61  87 123 154 209 248 294 356
#     4   8  21  40  59  92 121 154 202 241 305 351
#     4  11  22  39  62  90 123 157 202 242 305 356
#     4  10  22  41  62  87 121 161 198 253 296 355
#     4   9  21  38  60  88 121 156 196 250 295 350
#
# _framework density 25.050044
#
# number of rings (size 3 to 8) (size 9 to 14) (size 15 to 20)
#    0.857    1.429    0.000    1.714    2.000    2.286 
#    0.000    3.571    0.000    0.000    0.000    0.000 
#    0.000    0.000    0.000    0.000    0.000    0.000 
#
# Total GULP energy -173505.053601 kJ/mol
# GULP energy per Si atom -12393.218114 kJ/mol
# Density = 2.499303 g / cm^3
# Si number density = 25.050044 Si / 1000 Ang^3
#
#
#
# Elastic Constant Matrix: (Units=GPa)
#
#
# Indices 1 2 3 4 5 6 
#
# 1 75.0719 17.6614 9.9033 -6.3241 8.1680 -7.1435
# 2 17.6614 69.8881 15.7929 -4.7551 -5.6725 -4.4789
# 3 9.9033 15.7929 64.7740 -1.2974 -4.8026 1.8972
# 4 -6.3241 -4.7551 -1.2974 33.0996 1.8215 -2.5078
# 5 8.1680 -5.6725 -4.8026 1.8215 35.1594 -6.8032
# 6 -7.1435 -4.4789 1.8972 -2.5078 -6.8032 30.5169
#
#
#
# Elastic Compliance Matrix: (Units=1/GPa)
#
#
# Indices 1 2 3 4 5 6 
#
# 1 0.015274 -0.003425 -0.001816 0.002766 -0.004005 0.002520
# 2 -0.003425 0.016480 -0.003286 0.001601 0.003449 0.002722
# 3 -0.001816 -0.003286 0.016695 -0.000387 0.001891 -0.001555
# 4 0.002766 0.001601 -0.000387 0.031274 -0.001447 0.003154
# 5 -0.004005 0.003449 0.001891 -0.001447 0.031491 0.006353
# 6 0.002520 0.002722 -0.001555 0.003154 0.006353 0.035530
#
#
# Mechanical properties :
#
#
# Convention : Reuss Voigt Hill
#
# Bulk Modulus (GPa) = 31.85139 32.93879 32.39509
# Shear Modulus (GPa) = 28.69206 30.84693 29.76950
#
# Velocity S-wave (km/s) = 3.38803 3.51296 3.45106
# Velocity P-wave (km/s) = 5.29601 5.44355 5.37029
#
# Compressibility (1/GPa) = 0.03139580
#
# Stress axis : x y z
#
# Youngs Moduli (GPa) = 65.46897 60.67939 59.89753
#
# Poissons Ratio (x) = 0.20783 0.10875
# Poissons Ratio (y) = 0.22423 0.19684
# Poissons Ratio (z) = 0.11886 0.19941
#
# Static dielectric constant tensor:
#      x y z
#    x 4.487980 0.407260 -0.145850 
#    y 0.407260 4.491740 -0.040060 
#    z -0.145850 -0.040060 4.407380 
# 
# 
# High freq. dielectric constant tensor:
#      x y z
#    x 1.979490 0.033750 0.000510 
#    y 0.033750 2.002990 -0.001950 
#    z 0.000510 -0.001950 2.001350 
# 
# From -- ./inp_files/237298.got.cif
#   From: 2010.06.25/outbox.cif.g09.slc.cpg/sg2_119_cif.got.tgz:237298.got - 2010.06.27 13:26:56.
