data_PCOD8011390
_publ_section_title
;
Structure prediction by ZEFSAII (Michael W. Deem and Ramdas Pophale) SiO2 
 PCOD8011390
Probable space group: P -1
;
_chemical_formula_sum "Si O2"
_cell_formula_units_Z 16
_cell_length_a 9.142436
_cell_length_b 15.268961
_cell_length_c 11.307118
_cell_angle_alpha 55.206852
_cell_angle_beta 42.281116
_cell_angle_gamma 50.978176
_cell_volume 808.255937
_symmetry_space_group_name_H-M "P -1"
_symmetry_group_IT_number 2
_symmetry_cell_setting 'triclinic'
loop_
_space_group_symop_operation_xyz
x,y,z
-x,-y,-z
loop_
_atom_site_type_symbol
_atom_site_label
_atom_site_fract_x
_atom_site_fract_y
_atom_site_fract_z
Si Si1 0.617603 0.389550 0.361406
Si Si2 0.083675 0.097794 0.109896
Si Si3 0.713133 0.923614 0.246376
Si Si4 0.156645 0.276505 0.088700
Si Si5 0.533289 0.350826 0.704215
Si Si6 0.052998 0.865905 0.303738
Si Si7 0.655718 0.828491 0.702234
Si Si8 0.538989 0.219572 0.370929
O O1 0.596011 0.332649 0.542608
O O2 0.476086 0.525677 0.341966
O O3 0.500912 0.338013 0.369738
O O4 0.888720 0.362301 0.192641
O O5 0.179629 0.154009 0.114479
O O6 0.805268 0.154859 0.223752
O O7 0.159499 0.962448 0.196368
O O8 0.192756 0.119987 0.905847
O O9 0.534277 0.864329 0.436415
O O10 0.933641 0.890994 0.227376
O O11 0.580127 0.060932 0.221509
O O12 0.281348 0.253050 0.159206
O O13 0.284321 0.339427 0.881586
O O14 0.734371 0.256588 0.732648
O O15 0.868608 0.868780 0.513497
O O16 0.618885 0.752656 0.674327
#
# Coordination Sequence:
#
# PCOD8011390 Si02
#       8
#     2   2   2   2   2   2   2   2
#     4  10  23  44  64  84 115 157 202 248 288 344
#     4  11  22  36  62  92 118 157 194 238 293 353
#     4  11  21  37  60  89 127 154 191 237 297 356
#     4  11  24  39  63  91 119 151 200 244 293 351
#     4  11  23  41  65  84 118 158 198 245 297 336
#     4  11  21  38  60  91 121 156 195 237 297 354
#     4  11  21  39  60  90 124 159 184 242 302 350
#     4  10  21  39  61  86 121 155 195 239 293 347
#
# _framework density 19.795708999999999
#
# number of rings (size 3 to 8) (size 9 to 14) (size 15 to 20)
#    0.000    1.250    3.750    3.000    1.750    3.500 
#    0.000    3.125    2.750    0.000    0.000    0.000 
#    0.000    0.000    0.000    0.000    0.000    0.000 
#
# Total GULP energy -198491.882317 kJ/mol
# GULP energy per Si atom -12405.742645 kJ/mol
# Density = 1.975065 g / cm^3
# Si number density = 19.795709 Si / 1000 Ang^3
#
#
#
# Elastic Constant Matrix: (Units=GPa)
#
#
# Indices 1 2 3 4 5 6 
#
# 1 78.6641 36.0327 19.0016 2.3870 -0.4188 17.5174
# 2 36.0327 89.7279 4.0548 2.3141 3.7818 13.3175
# 3 19.0016 4.0548 85.4605 16.8383 -1.9511 15.4571
# 4 2.3870 2.3141 16.8383 27.9022 5.2697 0.4142
# 5 -0.4188 3.7818 -1.9511 5.2697 21.9791 -1.3149
# 6 17.5174 13.3175 15.4571 0.4142 -1.3149 25.4581
#
#
#
# Elastic Compliance Matrix: (Units=1/GPa)
#
#
# Indices 1 2 3 4 5 6 
#
# 1 0.017665 -0.005890 -0.002329 0.000384 0.000594 -0.007635
# 2 -0.005890 0.014233 0.001611 -0.001126 -0.002416 -0.004477
# 3 -0.002329 0.001611 0.015671 -0.009817 0.002918 -0.008444
# 4 0.000384 -0.001126 -0.009817 0.043803 -0.010873 0.005011
# 5 0.000594 -0.002416 0.002918 -0.010873 0.048897 0.001785
# 6 -0.007635 -0.004477 -0.008444 0.005011 0.001785 0.052013
#
#
# Mechanical properties :
#
#
# Convention : Reuss Voigt Hill
#
# Bulk Modulus (GPa) = 29.11162 41.33673 35.22418
# Shear Modulus (GPa) = 23.04675 28.05212 25.54943
#
# Velocity S-wave (km/s) = 3.41578 3.76850 3.59647
# Velocity P-wave (km/s) = 5.50406 6.31367 5.92272
#
# Compressibility (1/GPa) = 0.03435054
#
# Stress axis : x y z
#
# Youngs Moduli (GPa) = 56.61005 70.26060 63.81230
#
# Poissons Ratio (x) = 0.41385 0.14864
# Poissons Ratio (y) = 0.33345 -0.10278
# Poissons Ratio (z) = 0.13187 -0.11317
#
# Static dielectric constant tensor:
#      x y z
#    x 3.525920 0.155860 -0.040380 
#    y 0.155860 3.488620 0.106320 
#    z -0.040380 0.106320 3.789460 
# 
# 
# High freq. dielectric constant tensor:
#      x y z
#    x 1.765310 0.007290 -0.003170 
#    y 0.007290 1.759570 0.011870 
#    z -0.003170 0.011870 1.790540 
# 
# From -- ./inp_files/209021.got.cif
#   From: 2010.06.25/outbox.cif.g09.slc.cpg/sg2_105_cif.got.tgz:209021.got - 2010.06.27 13:26:56.
