data_PCOD8011615
_publ_section_title
;
Structure prediction by ZEFSAII (Michael W. Deem and Ramdas Pophale) SiO2 
 PCOD8011615
Probable space group: P -1
;
_chemical_formula_sum "Si O2"
_cell_formula_units_Z 16
_cell_length_a 23.159113
_cell_length_b 9.719026
_cell_length_c 8.611389
_cell_angle_alpha 148.785232
_cell_angle_beta 122.547519
_cell_angle_gamma 50.999055
_cell_volume 780.641766
_symmetry_space_group_name_H-M "P -1"
_symmetry_group_IT_number 2
_symmetry_cell_setting 'triclinic'
loop_
_space_group_symop_operation_xyz
x,y,z
-x,-y,-z
loop_
_atom_site_type_symbol
_atom_site_label
_atom_site_fract_x
_atom_site_fract_y
_atom_site_fract_z
Si Si1 0.288046 0.358741 0.357660
Si Si2 0.788610 0.033928 0.285922
Si Si3 0.961213 0.818092 0.688937
Si Si4 0.211449 0.899815 0.286345
Si Si5 0.417473 0.878309 0.650885
Si Si6 0.582559 0.630471 0.650640
Si Si7 0.038740 0.201707 0.688711
Si Si8 0.711872 0.722653 0.357239
O O1 0.364859 0.364679 0.409797
O O2 0.299607 0.297824 0.497106
O O3 0.226886 0.674253 0.547930
O O4 0.260801 0.134273 0.013739
O O5 0.875225 0.870941 0.222568
O O6 0.770219 0.097377 0.502311
O O7 0.977145 0.784280 0.500054
O O8 0.000000 0.500000 0.500000
O O9 0.875128 0.003735 0.777816
O O10 0.000000 0.000000 0.000000
O O11 0.226516 0.148887 0.458339
O O12 0.261382 0.585790 0.987206
O O13 0.500026 0.684809 0.518340
O O14 0.385511 0.671924 0.500252
O O15 0.364928 0.041027 0.590680
O O16 0.422804 0.115924 0.000125
O O17 0.000000 0.000000 0.500000
O O18 0.000000 0.500000 0.000000
#
# Coordination Sequence:
#
# PCOD8011615 Si02
#       8
#     2   2   2   2   2   2   2   2
#     4  12  24  38  61  93 124 155 197 254 306 345
#     4  11  24  42  62  86 120 163 204 241 294 366
#     4  11  24  41  63  89 119 157 200 249 302 357
#     4  11  24  42  62  86 120 163 204 241 294 366
#     4  10  21  39  63  88 118 161 204 240 291 362
#     4  10  21  39  63  88 118 161 204 240 291 362
#     4  11  24  41  63  89 119 157 200 249 302 357
#     4  12  24  38  61  93 124 155 197 254 306 345
#
# _framework density 20.495956
#
# number of rings (size 3 to 8) (size 9 to 14) (size 15 to 20)
#    0.000    1.000    0.000    7.500    0.000   10.500 
#    0.000    0.000    0.000    7.500    0.000    0.000 
#    0.000    0.000    0.000    0.000    0.000    0.000 
#
# Total GULP energy -198346.603975 kJ/mol
# GULP energy per Si atom -12396.662748 kJ/mol
# Density = 2.044931 g / cm^3
# Si number density = 20.495956 Si / 1000 Ang^3
#
#
#
# Elastic Constant Matrix: (Units=GPa)
#
#
# Indices 1 2 3 4 5 6 
#
# 1 136.9976 73.5937 43.4699 -17.9448 6.2203 7.3064
# 2 73.5937 158.5753 51.2744 1.0951 -9.3835 6.2797
# 3 43.4699 51.2744 121.7844 0.2905 13.3758 -7.9517
# 4 -17.9448 1.0951 0.2905 29.5941 7.9099 3.3873
# 5 6.2203 -9.3835 13.3758 7.9099 25.4679 10.8701
# 6 7.3064 6.2797 -7.9517 3.3873 10.8701 29.4548
#
#
#
# Elastic Compliance Matrix: (Units=1/GPa)
#
#
# Indices 1 2 3 4 5 6 
#
# 1 0.012514 -0.005889 -0.001238 0.009860 -0.007386 -0.000591
# 2 -0.005889 0.011564 -0.004563 -0.006669 0.012812 -0.006198
# 3 -0.001238 -0.004563 0.012506 0.001544 -0.012271 0.009007
# 4 0.009860 -0.006669 0.001544 0.045276 -0.020483 0.001745
# 5 -0.007386 0.012812 -0.012271 -0.020483 0.070492 -0.027871
# 6 -0.000591 -0.006198 0.009007 0.001745 -0.027871 0.047935
#
#
# Mechanical properties :
#
#
# Convention : Reuss Voigt Hill
#
# Bulk Modulus (GPa) = 75.73055 83.78145 79.75600
# Shear Modulus (GPa) = 21.92313 33.50464 27.71389
#
# Velocity S-wave (km/s) = 3.27407 4.04752 3.68117
# Velocity P-wave (km/s) = 7.16393 7.92522 7.55417
#
# Compressibility (1/GPa) = 0.01320471
#
# Stress axis : x y z
#
# Youngs Moduli (GPa) = 79.90825 86.47352 79.95920
#
# Poissons Ratio (x) = 0.50926 0.09901
# Poissons Ratio (y) = 0.47060 0.36483
# Poissons Ratio (z) = 0.09895 0.39455
#
# Static dielectric constant tensor:
#      x y z
#    x 3.969690 -0.125030 0.074940 
#    y -0.125030 3.885040 0.117290 
#    z 0.074940 0.117290 3.853700 
# 
# 
# High freq. dielectric constant tensor:
#      x y z
#    x 1.816910 -0.009380 0.008070 
#    y -0.009380 1.809410 0.011280 
#    z 0.008070 0.011280 1.817920 
# 
# From -- ./inp_files/352520.got.cif
#   From: 2010.06.25/outbox.cif.g09.slc.cpg/sg2_177_cif.got.tgz:352520.got - 2010.06.27 13:26:56.
