data_PCOD8011839
_publ_section_title
;
Structure prediction by ZEFSAII (Michael W. Deem and Ramdas Pophale) SiO2 
 PCOD8011839
Probable space group: P -1
;
_chemical_formula_sum "Si O2"
_cell_formula_units_Z 16
_cell_length_a 8.425909
_cell_length_b 6.388952
_cell_length_c 24.028012
_cell_angle_alpha 61.268537
_cell_angle_beta 136.819677
_cell_angle_gamma 96.454824
_cell_volume 712.431766
_symmetry_space_group_name_H-M "P -1"
_symmetry_group_IT_number 2
_symmetry_cell_setting 'triclinic'
loop_
_space_group_symop_operation_xyz
x,y,z
-x,-y,-z
loop_
_atom_site_type_symbol
_atom_site_label
_atom_site_fract_x
_atom_site_fract_y
_atom_site_fract_z
Si Si1 0.381422 0.229922 0.753907
Si Si2 0.976032 0.145690 0.722543
Si Si3 0.521516 0.712760 0.715911
Si Si4 0.646257 0.428099 0.103810
Si Si5 0.076280 0.484643 0.250798
Si Si6 0.094176 0.199184 0.578367
Si Si7 0.714063 0.683959 0.891664
Si Si8 0.761554 0.011816 0.582178
O O1 0.188979 0.263626 0.750888
O O2 0.410365 0.492915 0.714608
O O3 0.247850 0.141396 0.681687
O O4 0.648778 0.977599 0.861205
O O5 0.846716 0.297636 0.726873
O O6 0.765462 0.191961 0.614032
O O7 0.119126 0.844618 0.810589
O O8 0.706028 0.673346 0.716661
O O9 0.674535 0.686590 0.815200
O O10 0.289719 0.995194 0.611124
O O11 0.463543 0.433557 0.107067
O O12 0.796900 0.612933 0.133757
O O13 0.500000 0.500000 0.000000
O O14 0.056762 0.282513 0.318077
O O15 0.000000 0.500000 0.500000
O O16 0.858443 0.117370 0.539232
O O17 0.000000 0.500000 0.000000
O O18 0.500000 0.000000 0.500000
#
# Coordination Sequence:
#
# PCOD8011839 Si02
#       8
#     2   2   2   2   2   2   2   2
#     4   9  20  39  63  89 122 170 213 264 327 382
#     4   9  20  41  63  88 127 171 214 268 328 395
#     4  11  23  40  65  93 130 171 216 273 328 399
#     4  10  21  39  64  93 129 171 218 272 328 388
#     4  11  23  40  62  94 131 170 216 271 333 390
#     4  10  23  44  68  92 127 168 221 270 331 396
#     4  10  21  39  64  94 129 170 219 270 326 395
#     4  10  23  44  66  95 126 169 218 275 331 391
#
# _framework density 22.458289000000001
#
# number of rings (size 3 to 8) (size 9 to 14) (size 15 to 20)
#    0.000    2.000    0.000    4.500    1.750    7.000 
#    4.500    0.000    0.000    0.000    0.000    0.000 
#    0.000    0.000    0.000    0.000    0.000    0.000 
#
# Total GULP energy -198250.185412 kJ/mol
# GULP energy per Si atom -12390.636588 kJ/mol
# Density = 2.240717 g / cm^3
# Si number density = 22.458289 Si / 1000 Ang^3
#
#
#
# Elastic Constant Matrix: (Units=GPa)
#
#
# Indices 1 2 3 4 5 6 
#
# 1 106.7121 50.5594 51.0037 -2.1582 13.2242 -8.4292
# 2 50.5594 115.6814 51.2319 6.5367 19.5609 -5.3777
# 3 51.0037 51.2319 117.5623 2.4781 18.6257 -1.4046
# 4 -2.1582 6.5367 2.4781 36.3287 0.1309 -1.2138
# 5 13.2242 19.5609 18.6257 0.1309 31.1146 -2.0723
# 6 -8.4292 -5.3777 -1.4046 -1.2138 -2.0723 41.2925
#
#
#
# Elastic Compliance Matrix: (Units=1/GPa)
#
#
# Indices 1 2 3 4 5 6 
#
# 1 0.013473 -0.004007 -0.004006 0.001868 -0.000676 0.002113
# 2 -0.004007 0.012621 -0.003013 -0.002273 -0.004389 0.000436
# 3 -0.004006 -0.003013 0.012149 -0.000545 -0.003740 -0.001001
# 4 0.001868 -0.002273 -0.000545 0.028112 0.000905 0.000938
# 5 -0.000676 -0.004389 -0.003740 0.000905 0.037492 0.001071
# 6 0.002113 0.000436 -0.001001 0.000938 0.001071 0.024753
#
#
# Mechanical properties :
#
#
# Convention : Reuss Voigt Hill
#
# Bulk Modulus (GPa) = 61.76354 71.72730 66.74542
# Shear Modulus (GPa) = 32.04121 34.22455 33.13288
#
# Velocity S-wave (km/s) = 3.78126 3.90797 3.84514
# Velocity P-wave (km/s) = 6.82826 7.23674 7.03546
#
# Compressibility (1/GPa) = 0.01619078
#
# Stress axis : x y z
#
# Youngs Moduli (GPa) = 74.22438 79.23226 82.31032
#
# Poissons Ratio (x) = 0.31751 0.32971
# Poissons Ratio (y) = 0.29744 0.24801
# Poissons Ratio (z) = 0.29732 0.23873
#
# Static dielectric constant tensor:
#      x y z
#    x 4.096540 -0.088200 0.034720 
#    y -0.088200 4.248610 0.187740 
#    z 0.034720 0.187740 4.201910 
# 
# 
# High freq. dielectric constant tensor:
#      x y z
#    x 1.884420 -0.002310 0.003630 
#    y -0.002310 1.891430 0.006990 
#    z 0.003630 0.006990 1.874200 
# 
# From -- ./inp_files/616316.got.cif
#   From: 2010.06.25/outbox.cif.g09.slc.cpg/sg2_309_cif.got.tgz:616316.got - 2010.06.27 13:26:56.
