data_PCOD8011499
_publ_section_title
;
Structure prediction by ZEFSAII (Michael W. Deem and Ramdas Pophale) SiO2 
 PCOD8011499
Probable space group: P -1
;
_chemical_formula_sum "Si O2"
_cell_formula_units_Z 16
_cell_length_a 8.603033
_cell_length_b 23.381736
_cell_length_c 8.749236
_cell_angle_alpha 31.798253
_cell_angle_beta 121.488843
_cell_angle_gamma 108.530982
_cell_volume 759.015798
_symmetry_space_group_name_H-M "P -1"
_symmetry_group_IT_number 2
_symmetry_cell_setting 'triclinic'
loop_
_space_group_symop_operation_xyz
x,y,z
-x,-y,-z
loop_
_atom_site_type_symbol
_atom_site_label
_atom_site_fract_x
_atom_site_fract_y
_atom_site_fract_z
Si Si1 0.363447 0.270534 0.290182
Si Si2 0.355224 0.188540 0.802909
Si Si3 0.753316 0.170087 0.199732
Si Si4 0.104980 0.085113 0.083209
Si Si5 0.997362 0.384405 0.187960
Si Si6 0.247380 0.773380 0.580031
Si Si7 0.022854 0.260229 0.920905
Si Si8 0.105908 0.488135 0.735981
O O1 0.358152 0.189909 0.616424
O O2 0.570116 0.229607 0.417936
O O3 0.320589 0.403663 0.017773
O O4 0.214544 0.257701 0.114691
O O5 0.190478 0.293757 0.545600
O O6 0.555571 0.191218 0.963604
O O7 0.291492 0.082486 0.080765
O O8 0.713137 0.218467 0.239453
O O9 0.868145 0.038772 0.555418
O O10 0.875039 0.236295 0.019190
O O11 0.920161 0.117639 0.805621
O O12 0.075275 0.169914 0.018420
O O13 0.815012 0.340478 0.227516
O O14 0.000000 0.500000 0.000000
O O15 0.999097 0.411664 0.948348
O O16 0.917786 0.383732 0.507288
O O17 0.000000 0.500000 0.500000
#
# Coordination Sequence:
#
# PCOD8011499 Si02
#       8
#     2   2   2   2   2   2   2   2
#     4  10  22  40  62  92 125 158 197 246 302 362
#     4  10  22  40  61  89 122 158 201 249 298 358
#     4  12  24  41  62  88 120 162 207 251 297 351
#     4  11  23  42  62  87 120 160 204 256 302 347
#     4  10  21  39  62  88 121 156 194 246 303 358
#     4  11  23  40  62  90 121 159 202 246 299 362
#     4  11  22  40  63  90 122 159 203 250 299 358
#     4   9  18  36  59  84 117 154 189 238 296 352
#
# _framework density 21.079930000000001
#
# number of rings (size 3 to 8) (size 9 to 14) (size 15 to 20)
#    0.000    1.500    0.000    7.125    0.000    2.000 
#    0.000    8.750    0.000    0.000    0.000    0.000 
#    0.000    0.000    0.000    0.000    0.000    0.000 
#
# Total GULP energy -198290.091188 kJ/mol
# GULP energy per Si atom -12393.130699 kJ/mol
# Density = 2.103195 g / cm^3
# Si number density = 21.079930 Si / 1000 Ang^3
#
#
#
# Elastic Constant Matrix: (Units=GPa)
#
#
# Indices 1 2 3 4 5 6 
#
# 1 119.5230 11.7070 13.5604 1.4398 0.9950 12.6256
# 2 11.7070 35.4462 7.0653 10.9050 9.8320 4.5376
# 3 13.5604 7.0653 65.6347 5.6066 -5.4694 14.0648
# 4 1.4398 10.9050 5.6066 38.2184 0.6776 -2.4165
# 5 0.9950 9.8320 -5.4694 0.6776 22.8824 3.4944
# 6 12.6256 4.5376 14.0648 -2.4165 3.4944 34.4578
#
#
#
# Elastic Compliance Matrix: (Units=1/GPa)
#
#
# Indices 1 2 3 4 5 6 
#
# 1 0.009017 -0.002865 -0.000949 0.000434 0.000998 -0.002610
# 2 -0.002865 0.037680 -0.003679 -0.009903 -0.016432 -0.001438
# 3 -0.000949 -0.003679 0.018218 -0.002188 0.007185 -0.007486
# 4 0.000434 -0.009903 -0.002188 0.029501 0.002248 0.003879
# 5 0.000998 -0.016432 0.007185 0.002248 0.053345 -0.006386
# 6 -0.002610 -0.001438 -0.007486 0.003879 -0.006386 0.034142
#
#
# Mechanical properties :
#
#
# Convention : Reuss Voigt Hill
#
# Bulk Modulus (GPa) = 20.02898 31.69658 25.86278
# Shear Modulus (GPa) = 23.41558 31.66312 27.53935
#
# Velocity S-wave (km/s) = 3.33648 3.87983 3.61837
# Velocity P-wave (km/s) = 4.93608 5.92789 5.45457
#
# Compressibility (1/GPa) = 0.04992764
#
# Stress axis : x y z
#
# Youngs Moduli (GPa) = 110.90066 26.53906 54.89162
#
# Poissons Ratio (x) = 0.07604 0.05210
# Poissons Ratio (y) = 0.31775 0.20196
# Poissons Ratio (z) = 0.10527 0.09765
#
# Static dielectric constant tensor:
#      x y z
#    x 3.477880 -0.160760 0.612000 
#    y -0.160760 3.951270 -0.365440 
#    z 0.612000 -0.365440 3.031200 
# 
# 
# High freq. dielectric constant tensor:
#      x y z
#    x 1.832820 -0.010700 -0.015900 
#    y -0.010700 1.821030 0.007010 
#    z -0.015900 0.007010 1.841480 
# 
# From -- ./inp_files/218478.got.cif
#   From: 2010.06.25/outbox.cif.g09.slc.cpg/sg2_110_cif.got.tgz:218478.got - 2010.06.27 13:26:56.
