data_PCOD8011581
_publ_section_title
;
Structure prediction by ZEFSAII (Michael W. Deem and Ramdas Pophale) SiO2 
 PCOD8011581
Probable space group: P -1
;
_chemical_formula_sum "Si O2"
_cell_formula_units_Z 14
_cell_length_a 11.561967
_cell_length_b 14.987105
_cell_length_c 14.809614
_cell_angle_alpha 160.661569
_cell_angle_beta 67.813354
_cell_angle_gamma 122.644450
_cell_volume 631.172786
_symmetry_space_group_name_H-M "P -1"
_symmetry_group_IT_number 2
_symmetry_cell_setting 'triclinic'
loop_
_space_group_symop_operation_xyz
x,y,z
-x,-y,-z
loop_
_atom_site_type_symbol
_atom_site_label
_atom_site_fract_x
_atom_site_fract_y
_atom_site_fract_z
Si Si1 0.853487 0.784845 0.901984
Si Si2 0.724019 0.643495 0.406223
Si Si3 0.297252 0.807786 0.868485
Si Si4 0.943527 0.362910 0.548850
Si Si5 0.581025 0.503631 0.581198
Si Si6 0.008868 0.369224 0.017185
Si Si7 0.859953 0.615035 0.174275
O O1 0.838086 0.455844 0.622328
O O2 0.699908 0.688571 0.805240
O O3 0.876249 0.988971 0.181430
O O4 0.000000 0.000000 0.000000
O O5 0.702912 0.333117 0.168539
O O6 0.589844 0.684914 0.506512
O O7 0.719190 0.573348 0.232268
O O8 0.893613 0.976515 0.707166
O O9 0.397819 0.760938 0.723482
O O10 0.121340 0.620364 0.706635
O O11 0.380827 0.210980 0.232470
O O12 0.932723 0.380983 0.677263
O O13 0.900438 0.398603 0.010193
O O14 0.161942 0.476881 0.014737
O O15 0.000000 0.000000 0.500000
#
# Coordination Sequence:
#
# PCOD8011581 Si02
#       7
#     2   2   2   2   2   2   2
#     4  12  23  40  59  86 120 173 211 247 281 346
#     4  11  23  38  60  92 127 161 196 250 318 370
#     4  12  22  38  59  91 125 166 199 254 296 362
#     4  12  22  39  65  85 124 158 212 252 293 348
#     4  12  26  38  59  87 133 168 207 239 295 366
#     4  10  21  39  62  95 115 153 199 261 316 360
#     4   9  20  37  63  91 118 148 197 255 324 362
#
# _framework density 22.180931000000001
#
# number of rings (size 3 to 8) (size 9 to 14) (size 15 to 20)
#    0.000    0.857    4.286    3.857    4.000    0.000 
#    0.000    0.000    0.000    1.714    0.000    0.000 
#    0.000    0.000    0.000    0.000    0.000    0.000 
#
# Total GULP energy -173549.144216 kJ/mol
# GULP energy per Si atom -12396.367444 kJ/mol
# Density = 2.213045 g / cm^3
# Si number density = 22.180931 Si / 1000 Ang^3
#
#
#
# Elastic Constant Matrix: (Units=GPa)
#
#
# Indices 1 2 3 4 5 6 
#
# 1 71.5908 49.2779 16.2752 -10.1379 -6.8188 7.6200
# 2 49.2779 152.8336 36.3627 -34.8515 3.2186 20.7782
# 3 16.2752 36.3627 90.6106 -15.4193 -13.4520 6.2571
# 4 -10.1379 -34.8515 -15.4193 42.0878 -2.8447 -8.4174
# 5 -6.8188 3.2186 -13.4520 -2.8447 29.0855 -3.3378
# 6 7.6200 20.7782 6.2571 -8.4174 -3.3378 24.3559
#
#
#
# Elastic Compliance Matrix: (Units=1/GPa)
#
#
# Indices 1 2 3 4 5 6 
#
# 1 0.018672 -0.006154 -0.000211 -0.000338 0.004930 0.000021
# 2 -0.006154 0.011269 -0.002700 0.005453 -0.004055 -0.005666
# 3 -0.000211 -0.002700 0.013715 0.003412 0.007040 0.000990
# 4 -0.000338 0.005453 0.003412 0.030934 0.004598 0.005899
# 5 0.004930 -0.004055 0.007040 0.004598 0.040524 0.007251
# 6 0.000021 -0.005666 0.000990 0.005899 0.007251 0.048663
#
#
# Mechanical properties :
#
#
# Convention : Reuss Voigt Hill
#
# Bulk Modulus (GPa) = 39.17659 57.65183 48.41421
# Shear Modulus (GPa) = 26.25866 33.31379 29.78622
#
# Velocity S-wave (km/s) = 3.44443 3.87965 3.66850
# Velocity P-wave (km/s) = 5.78960 6.79095 6.31017
#
# Compressibility (1/GPa) = 0.02552545
#
# Stress axis : x y z
#
# Youngs Moduli (GPa) = 53.55743 88.74196 72.91295
#
# Poissons Ratio (x) = 0.54610 0.01540
# Poissons Ratio (y) = 0.32958 0.19685
# Poissons Ratio (z) = 0.01132 0.23958
#
# Static dielectric constant tensor:
#      x y z
#    x 4.056100 0.154450 -0.188490 
#    y 0.154450 4.625500 -0.424200 
#    z -0.188490 -0.424200 3.843970 
# 
# 
# High freq. dielectric constant tensor:
#      x y z
#    x 1.843900 0.000420 -0.034820 
#    y 0.000420 1.876950 -0.019040 
#    z -0.034820 -0.019040 1.879590 
# 
# From -- ./inp_files/71776.got.cif
#   From: 2010.06.25/outbox.cif.g09.slc.cpg/sg2_36_cif.got.tgz:71776.got - 2010.06.27 13:26:56.
