data_PCOD8011886
_publ_section_title
;
Structure prediction by ZEFSAII (Michael W. Deem and Ramdas Pophale) SiO2 
 PCOD8011886
Probable space group: P -1
;
_chemical_formula_sum "Si O2"
_cell_formula_units_Z 10
_cell_length_a 13.845719
_cell_length_b 5.685665
_cell_length_c 5.567663
_cell_angle_alpha 73.071662
_cell_angle_beta 120.706876
_cell_angle_gamma 100.612462
_cell_volume 360.180568
_symmetry_space_group_name_H-M "P -1"
_symmetry_group_IT_number 2
_symmetry_cell_setting 'triclinic'
loop_
_space_group_symop_operation_xyz
x,y,z
-x,-y,-z
loop_
_atom_site_type_symbol
_atom_site_label
_atom_site_fract_x
_atom_site_fract_y
_atom_site_fract_z
Si Si1 0.854008 0.211770 0.891025
Si Si2 0.954624 0.660382 0.604879
Si Si3 0.767298 0.914223 0.464803
Si Si4 0.373809 0.558657 0.443647
Si Si5 0.578004 0.241164 0.048975
O O1 0.903843 0.478573 0.796966
O O2 0.723220 0.245786 0.779027
O O3 0.857979 0.993812 0.764495
O O4 0.940544 0.154622 0.234819
O O5 0.841274 0.814646 0.364005
O O6 0.000000 0.500000 0.500000
O O7 0.674510 0.719831 0.511098
O O8 0.707338 0.159814 0.231984
O O9 0.440666 0.617624 0.763223
O O10 0.446255 0.593619 0.272652
O O11 0.500000 0.000000 0.000000
#
# Coordination Sequence:
#
# PCOD8011886 Si02
#       5
#     2   2   2   2   2
#     4   9  21  40  60  96 136 175 223 275 328 402
#     4  10  21  39  64  97 134 176 229 272 323 410
#     4  10  23  43  68  99 135 186 217 279 347 391
#     4  10  24  43  70 101 138 170 232 279 334 414
#     4  11  25  47  70 101 136 174 228 287 340 406
#
# _framework density 27.763849
#
# number of rings (size 3 to 8) (size 9 to 14) (size 15 to 20)
#    0.000    2.000    0.000    1.200    8.400    5.600 
#   14.400    0.000    0.000    0.000    0.000    0.000 
#    0.000    0.000    0.000    0.000    0.000    0.000 
#
# Total GULP energy -123929.009006 kJ/mol
# GULP energy per Si atom -12392.900901 kJ/mol
# Density = 2.770066 g / cm^3
# Si number density = 27.763849 Si / 1000 Ang^3
#
#
#
# Elastic Constant Matrix: (Units=GPa)
#
#
# Indices 1 2 3 4 5 6 
#
# 1 151.6702 42.5762 89.7261 3.2575 -24.5485 -23.8191
# 2 42.5762 109.7935 48.4787 36.6818 -15.3809 14.0656
# 3 89.7261 48.4787 181.7784 26.9382 -8.2423 -6.4943
# 4 3.2575 36.6818 26.9382 56.9727 0.8613 1.9038
# 5 -24.5485 -15.3809 -8.2423 0.8613 38.7878 -1.2023
# 6 -23.8191 14.0656 -6.4943 1.9038 -1.2023 56.3613
#
#
#
# Elastic Compliance Matrix: (Units=1/GPa)
#
#
# Indices 1 2 3 4 5 6 
#
# 1 0.012422 -0.003775 -0.005269 0.003945 0.005330 0.005565
# 2 -0.003775 0.015081 -0.000854 -0.008973 0.003451 -0.005081
# 3 -0.005269 -0.000854 0.008689 -0.003199 -0.001785 -0.000942
# 4 0.003945 -0.008973 -0.003199 0.024561 -0.002204 0.002661
# 5 0.005330 0.003451 -0.001785 -0.002204 0.030252 0.001905
# 6 0.005565 -0.005081 -0.000942 0.002661 0.001905 0.021205
#
#
# Mechanical properties :
#
#
# Convention : Reuss Voigt Hill
#
# Bulk Modulus (GPa) = 60.98811 89.42268 75.20539
# Shear Modulus (GPa) = 36.37158 47.92179 42.14668
#
# Velocity S-wave (km/s) = 3.62337 4.15908 3.90043
# Velocity P-wave (km/s) = 6.28645 7.43923 6.88700
#
# Compressibility (1/GPa) = 0.01639664
#
# Stress axis : x y z
#
# Youngs Moduli (GPa) = 80.50388 66.30835 115.08662
#
# Poissons Ratio (x) = 0.25030 0.60637
# Poissons Ratio (y) = 0.30388 0.09830
# Poissons Ratio (z) = 0.42416 0.05663
#
# Static dielectric constant tensor:
#      x y z
#    x 5.641900 -0.184620 0.593550 
#    y -0.184620 4.908140 -0.193160 
#    z 0.593550 -0.193160 5.547940 
# 
# 
# High freq. dielectric constant tensor:
#      x y z
#    x 2.152830 -0.011000 0.023320 
#    y -0.011000 2.126930 -0.011290 
#    z 0.023320 -0.011290 2.127660 
# 
# From -- ./inp_files/1548.got.cif
#   From: 2010.06.25/outbox.cif.g09.slc.cpg/sg2_1_cif.got.tgz:1548.got - 2010.06.27 13:26:56.
