data_PCOD8011452
_publ_section_title
;
Structure prediction by ZEFSAII (Michael W. Deem and Ramdas Pophale) SiO2 
 PCOD8011452
Probable space group: P -1
;
_chemical_formula_sum "Si O2"
_cell_formula_units_Z 16
_cell_length_a 15.613340
_cell_length_b 11.779078
_cell_length_c 11.456687
_cell_angle_alpha 75.012224
_cell_angle_beta 126.764502
_cell_angle_gamma 148.093229
_cell_volume 720.823209
_symmetry_space_group_name_H-M "P -1"
_symmetry_group_IT_number 2
_symmetry_cell_setting 'triclinic'
loop_
_space_group_symop_operation_xyz
x,y,z
-x,-y,-z
loop_
_atom_site_type_symbol
_atom_site_label
_atom_site_fract_x
_atom_site_fract_y
_atom_site_fract_z
Si Si1 0.501306 0.187750 0.916302
Si Si2 0.498125 0.727080 0.577551
Si Si3 0.291779 0.532882 0.218228
Si Si4 0.612041 0.543043 0.972547
Si Si5 0.244634 0.266305 0.563837
Si Si6 0.187564 0.718516 0.915220
Si Si7 0.163515 0.142481 0.266378
Si Si8 0.189366 0.795068 0.147762
O O1 0.500389 0.230552 0.770047
O O2 0.597808 0.388687 0.024182
O O3 0.686687 0.262883 0.057923
O O4 0.237682 0.884196 0.831910
O O5 0.394061 0.679321 0.386165
O O6 0.281245 0.443820 0.541280
O O7 0.705468 0.834525 0.697691
O O8 0.596980 0.927281 0.686571
O O9 0.247950 0.350417 0.230081
O O10 0.039352 0.347184 0.030912
O O11 0.464118 0.422340 0.767602
O O12 0.500000 0.500000 0.000000
O O13 0.881416 0.852129 0.090214
O O14 0.234711 0.202125 0.443848
O O15 0.000000 0.000000 0.500000
O O16 0.297556 0.848739 0.101255
O O17 0.906602 0.405336 0.791635
#
# Coordination Sequence:
#
# PCOD8011452 Si02
#       8
#     2   2   2   2   2   2   2   2
#     4  10  21  39  62  87 125 160 210 255 311 369
#     4  11  23  38  65  93 126 169 209 254 310 378
#     4  10  21  39  61  92 125 168 201 251 310 380
#     4  12  24  37  64  96 124 163 207 250 312 379
#     4  11  23  39  56  94 136 163 201 254 309 376
#     4   9  21  40  62  88 118 167 206 264 311 351
#     4  11  22  39  60  91 132 167 204 248 314 379
#     4  10  21  40  65  88 118 158 221 257 308 362
#
# _framework density 22.196843000000001
#
# number of rings (size 3 to 8) (size 9 to 14) (size 15 to 20)
#    0.000    1.500    1.250    5.250    3.500    1.500 
#    0.000    6.250    0.000    3.000    0.000    0.000 
#    0.000    0.000    0.000    0.000    0.000    0.000 
#
# Total GULP energy -198298.097677 kJ/mol
# GULP energy per Si atom -12393.631105 kJ/mol
# Density = 2.214632 g / cm^3
# Si number density = 22.196843 Si / 1000 Ang^3
#
#
#
# Elastic Constant Matrix: (Units=GPa)
#
#
# Indices 1 2 3 4 5 6 
#
# 1 91.6115 47.3393 17.8760 7.9675 -22.5913 -4.6010
# 2 47.3393 192.6506 50.3882 7.4994 -20.4520 17.0660
# 3 17.8760 50.3882 108.4691 17.5663 -9.6207 0.6269
# 4 7.9675 7.4994 17.5663 32.6196 -7.3459 -7.9363
# 5 -22.5913 -20.4520 -9.6207 -7.3459 27.8674 10.6526
# 6 -4.6010 17.0660 0.6269 -7.9363 10.6526 33.4034
#
#
#
# Elastic Compliance Matrix: (Units=1/GPa)
#
#
# Indices 1 2 3 4 5 6 
#
# 1 0.014739 -0.002471 -0.000302 -0.000649 0.009860 -0.000001
# 2 -0.002471 0.007483 -0.002615 -0.000012 0.004734 -0.005627
# 3 -0.000302 -0.002615 0.011411 -0.005452 0.000480 -0.000368
# 4 -0.000649 -0.000012 -0.005452 0.036523 0.004426 0.007285
# 5 0.009860 0.004734 0.000480 0.004426 0.055451 -0.017702
# 6 -0.000001 -0.005627 -0.000368 0.007285 -0.017702 0.040195
#
#
# Mechanical properties :
#
#
# Convention : Reuss Voigt Hill
#
# Bulk Modulus (GPa) = 43.74564 69.32647 56.53605
# Shear Modulus (GPa) = 27.14488 37.25324 32.19906
#
# Velocity S-wave (km/s) = 3.50082 4.10117 3.81283
# Velocity P-wave (km/s) = 6.00764 7.32983 6.70143
#
# Compressibility (1/GPa) = 0.02285942
#
# Stress axis : x y z
#
# Youngs Moduli (GPa) = 67.84597 133.63027 87.63351
#
# Poissons Ratio (x) = 0.33018 0.02643
# Poissons Ratio (y) = 0.16764 0.22914
# Poissons Ratio (z) = 0.02046 0.34941
#
# Static dielectric constant tensor:
#      x y z
#    x 4.134790 0.066790 -0.196290 
#    y 0.066790 4.686080 -0.043500 
#    z -0.196290 -0.043500 3.934280 
# 
# 
# High freq. dielectric constant tensor:
#      x y z
#    x 1.881600 0.000210 -0.012880 
#    y 0.000210 1.895940 -0.002570 
#    z -0.012880 -0.002570 1.843420 
# 
# From -- ./inp_files/328994.got.cif
#   From: 2010.06.25/outbox.cif.g09.slc.cpg/sg2_165_cif.got.tgz:328994.got - 2010.06.27 13:26:56.
