data_PCOD8011222
_publ_section_title
;
Structure prediction by ZEFSAII (Michael W. Deem and Ramdas Pophale) SiO2 
 PCOD8011222
Probable space group: P -1
;
_chemical_formula_sum "Si O2"
_cell_formula_units_Z 16
_cell_length_a 14.413054
_cell_length_b 8.739072
_cell_length_c 25.774100
_cell_angle_alpha 49.059865
_cell_angle_beta 21.122948
_cell_angle_gamma 39.962058
_cell_volume 725.987618
_symmetry_space_group_name_H-M "P -1"
_symmetry_group_IT_number 2
_symmetry_cell_setting 'triclinic'
loop_
_space_group_symop_operation_xyz
x,y,z
-x,-y,-z
loop_
_atom_site_type_symbol
_atom_site_label
_atom_site_fract_x
_atom_site_fract_y
_atom_site_fract_z
Si Si1 0.317220 0.096930 0.405478
Si Si2 0.722535 0.666982 0.480015
Si Si3 0.302281 0.901905 0.557748
Si Si4 0.446415 0.753120 0.954733
Si Si5 0.733062 0.211594 0.224383
Si Si6 0.719664 0.864006 0.698770
Si Si7 0.697943 0.952838 0.856005
Si Si8 0.644211 0.270381 0.724109
O O1 0.523407 0.192953 0.294933
O O2 0.430231 0.006032 0.307440
O O3 0.937628 0.296941 0.563825
O O4 0.385826 0.879405 0.457691
O O5 0.635308 0.721543 0.452571
O O6 0.390870 0.775485 0.656512
O O7 0.939943 0.375977 0.440179
O O8 0.859219 0.815989 0.399045
O O9 0.061964 0.824456 0.709736
O O10 0.500000 0.500000 0.000000
O O11 0.550479 0.752315 0.841382
O O12 0.665643 0.775521 0.875014
O O13 0.090872 0.987257 0.089579
O O14 0.678855 0.473160 0.180549
O O15 0.733427 0.053832 0.685156
O O16 0.587872 0.201918 0.825964
O O17 0.500000 0.000000 0.000000
#
# Coordination Sequence:
#
# PCOD8011222 Si02
#       8
#     2   2   2   2   2   2   2   2
#     4  10  21  39  68 101 126 167 221 275 321 382
#     4  10  21  38  72 100 127 175 219 267 338 383
#     4   9  21  38  65  98 130 169 227 268 313 402
#     4  11  28  46  62  95 140 176 216 274 333 389
#     4  11  23  42  70  94 129 180 220 261 329 402
#     4  11  24  40  68  98 135 172 208 280 335 379
#     4  10  22  41  66  93 130 180 219 266 324 392
#     4  10  22  42  66  98 133 165 221 276 325 390
#
# _framework density 22.038944000000001
#
# number of rings (size 3 to 8) (size 9 to 14) (size 15 to 20)
#    0.000    1.750    1.250    1.500   10.500    2.500 
#    2.250    3.125    0.000    0.000    0.000    0.000 
#    0.000    0.000    0.000    0.000    0.000    0.000 
#
# Total GULP energy -198247.303430 kJ/mol
# GULP energy per Si atom -12390.456464 kJ/mol
# Density = 2.198878 g / cm^3
# Si number density = 22.038944 Si / 1000 Ang^3
#
#
#
# Elastic Constant Matrix: (Units=GPa)
#
#
# Indices 1 2 3 4 5 6 
#
# 1 144.0375 40.1502 58.3555 -10.6723 15.3874 -11.8584
# 2 40.1502 98.5498 35.4485 -2.7043 -15.4429 1.3941
# 3 58.3555 35.4485 90.2258 -15.9341 6.3240 -0.1849
# 4 -10.6723 -2.7043 -15.9341 35.1221 -5.3120 1.0521
# 5 15.3874 -15.4429 6.3240 -5.3120 39.6286 -10.9331
# 6 -11.8584 1.3941 -0.1849 1.0521 -10.9331 23.2628
#
#
#
# Elastic Compliance Matrix: (Units=1/GPa)
#
#
# Indices 1 2 3 4 5 6 
#
# 1 0.010681 -0.002941 -0.005532 -0.000113 -0.003316 0.004024
# 2 -0.002941 0.014016 -0.004242 -0.000637 0.007524 0.001192
# 3 -0.005532 -0.004242 0.017502 0.005654 -0.002620 -0.003913
# 4 -0.000113 -0.000637 0.005654 0.031424 0.003126 0.000074
# 5 -0.003316 0.007524 -0.002620 0.003126 0.034074 0.013711
# 6 0.004024 0.001192 -0.003913 0.000074 0.013711 0.051376
#
#
# Mechanical properties :
#
#
# Convention : Reuss Voigt Hill
#
# Bulk Modulus (GPa) = 59.63394 66.74685 63.19039
# Shear Modulus (GPa) = 26.30314 32.85997 29.58156
#
# Velocity S-wave (km/s) = 3.45843 3.86553 3.66763
# Velocity P-wave (km/s) = 6.56238 7.09047 6.83153
#
# Compressibility (1/GPa) = 0.01676898
#
# Stress axis : x y z
#
# Youngs Moduli (GPa) = 93.62636 71.34724 57.13774
#
# Poissons Ratio (x) = 0.20985 0.31607
# Poissons Ratio (y) = 0.27538 0.24236
# Poissons Ratio (z) = 0.51791 0.30263
#
# Static dielectric constant tensor:
#      x y z
#    x 4.262150 -0.212870 0.081420 
#    y -0.212870 3.869490 -0.300090 
#    z 0.081420 -0.300090 3.894390 
# 
# 
# High freq. dielectric constant tensor:
#      x y z
#    x 1.884660 -0.015000 0.004190 
#    y -0.015000 1.854020 -0.024000 
#    z 0.004190 -0.024000 1.849530 
# 
# From -- ./inp_files/619253.got.cif
#   From: 2010.06.25/outbox.cif.g09.slc.cpg/sg2_310_cif.got.tgz:619253.got - 2010.06.27 13:26:56.
