data_PCOD8011440
_publ_section_title
;
Structure prediction by ZEFSAII (Michael W. Deem and Ramdas Pophale) SiO2 
 PCOD8011440
Probable space group: P -1
;
_chemical_formula_sum "Si O2"
_cell_formula_units_Z 14
_cell_length_a 11.131406
_cell_length_b 11.078807
_cell_length_c 9.797375
_cell_angle_alpha 111.488840
_cell_angle_beta 55.825906
_cell_angle_gamma 69.252487
_cell_volume 638.213070
_symmetry_space_group_name_H-M "P -1"
_symmetry_group_IT_number 2
_symmetry_cell_setting 'triclinic'
loop_
_space_group_symop_operation_xyz
x,y,z
-x,-y,-z
loop_
_atom_site_type_symbol
_atom_site_label
_atom_site_fract_x
_atom_site_fract_y
_atom_site_fract_z
Si Si1 0.039010 0.688573 0.796698
Si Si2 0.490629 0.708509 0.150100
Si Si3 0.352975 0.551123 0.294712
Si Si4 0.648137 0.053305 0.308301
Si Si5 0.703011 0.906871 0.506420
Si Si6 0.590027 0.530161 0.341259
Si Si7 0.921610 0.506150 0.904207
O O1 0.167775 0.637695 0.555984
O O2 0.175416 0.586471 0.808336
O O3 0.929271 0.617507 0.833412
O O4 0.859455 0.915894 0.022170
O O5 0.614260 0.592963 0.883948
O O6 0.675587 0.614831 0.111458
O O7 0.318960 0.707140 0.294616
O O8 0.360363 0.924585 0.297714
O O9 0.574947 0.446486 0.183524
O O10 0.710056 0.931308 0.351466
O O11 0.577224 0.242663 0.472480
O O12 0.462382 0.101865 0.363960
O O13 0.931018 0.708160 0.329848
O O14 0.500000 0.500000 0.500000
O O15 0.000000 0.500000 0.000000
#
# Coordination Sequence:
#
# PCOD8011440 Si02
#       7
#     2   2   2   2   2   2   2
#     4  11  22  39  66  98 121 158 211 266 305 359
#     4  11  23  45  61  87 130 171 203 252 309 383
#     4  10  24  42  62  85 133 173 198 245 324 372
#     4  11  20  36  64  96 123 151 207 267 308 351
#     4  11  21  36  64  95 121 159 210 256 309 364
#     4  10  21  39  61  91 126 157 199 255 312 363
#     4  12  21  38  69  96 120 159 214 261 309 357
#
# _framework density 21.936246000000001
#
# number of rings (size 3 to 8) (size 9 to 14) (size 15 to 20)
#    0.000    1.143    5.714    1.714    0.000    2.857 
#    0.000    7.857    0.000    0.000    0.000    0.000 
#    0.000    0.000    0.000    0.000    0.000    0.000 
#
# Total GULP energy -173463.898276 kJ/mol
# GULP energy per Si atom -12390.278448 kJ/mol
# Density = 2.188632 g / cm^3
# Si number density = 21.936246 Si / 1000 Ang^3
#
#
#
# Elastic Constant Matrix: (Units=GPa)
#
#
# Indices 1 2 3 4 5 6 
#
# 1 45.8256 28.9339 44.6400 7.6790 11.8351 12.8894
# 2 28.9339 72.9674 47.6758 4.9780 -8.4112 14.4720
# 3 44.6400 47.6758 149.6726 8.3187 -2.0629 8.3219
# 4 7.6790 4.9780 8.3187 48.3733 1.2425 -4.5478
# 5 11.8351 -8.4112 -2.0629 1.2425 37.2980 1.8880
# 6 12.8894 14.4720 8.3219 -4.5478 1.8880 28.4905
#
#
#
# Elastic Compliance Matrix: (Units=1/GPa)
#
#
# Indices 1 2 3 4 5 6 
#
# 1 0.047593 -0.011698 -0.009716 -0.005403 -0.017467 -0.012456
# 2 -0.011698 0.022754 -0.003260 -0.000721 0.008992 -0.006025
# 3 -0.009716 -0.003260 0.010482 0.000272 0.002774 0.002849
# 4 -0.005403 -0.000721 0.000272 0.022130 0.000514 0.006230
# 5 -0.017467 0.008992 0.002774 0.000514 0.034501 0.000320
# 6 -0.012456 -0.006025 0.002849 0.006230 0.000320 0.043936
#
#
# Mechanical properties :
#
#
# Convention : Reuss Voigt Hill
#
# Bulk Modulus (GPa) = 31.76558 56.77388 44.26973
# Shear Modulus (GPa) = 20.72640 32.64676 26.68658
#
# Velocity S-wave (km/s) = 3.07717 3.86198 3.49169
# Velocity P-wave (km/s) = 5.20938 6.76934 6.03993
#
# Compressibility (1/GPa) = 0.03148062
#
# Stress axis : x y z
#
# Youngs Moduli (GPa) = 21.01168 43.94828 95.39922
#
# Poissons Ratio (x) = 0.51410 0.92693
# Poissons Ratio (y) = 0.24579 0.31100
# Poissons Ratio (z) = 0.20416 0.14327
#
# Static dielectric constant tensor:
#      x y z
#    x 3.126440 0.452330 0.040840 
#    y 0.452330 3.994400 -0.082290 
#    z 0.040840 -0.082290 3.954280 
# 
# 
# High freq. dielectric constant tensor:
#      x y z
#    x 1.837750 0.027050 -0.006550 
#    y 0.027050 1.866040 -0.003170 
#    z -0.006550 -0.003170 1.860860 
# 
# From -- ./inp_files/425291.got.cif
#   From: 2010.06.25/outbox.cif.g09.slc.cpg/sg2_213_cif.got.tgz:425291.got - 2010.06.27 13:26:56.
