data_PCOD8011024
_publ_section_title
;
Structure prediction by ZEFSAII (Michael W. Deem and Ramdas Pophale) SiO2 
 PCOD8011024
Probable space group: P -1
;
_chemical_formula_sum "Si O2"
_cell_formula_units_Z 14
_cell_length_a 12.041017
_cell_length_b 22.044002
_cell_length_c 8.380375
_cell_angle_alpha 40.521142
_cell_angle_beta 140.236921
_cell_angle_gamma 152.814098
_cell_volume 627.432771
_symmetry_space_group_name_H-M "P -1"
_symmetry_group_IT_number 2
_symmetry_cell_setting 'triclinic'
loop_
_space_group_symop_operation_xyz
x,y,z
-x,-y,-z
loop_
_atom_site_type_symbol
_atom_site_label
_atom_site_fract_x
_atom_site_fract_y
_atom_site_fract_z
Si Si1 0.641452 0.195512 0.924819
Si Si2 0.924904 0.982665 0.270969
Si Si3 0.097329 0.694917 0.318254
Si Si4 0.967581 0.507151 0.132758
Si Si5 0.121161 0.244207 0.842218
Si Si6 0.337740 0.469481 0.090062
Si Si7 0.949397 0.789580 0.541346
O O1 0.361122 0.088550 0.904706
O O2 0.768868 0.344638 0.811296
O O3 0.656808 0.197699 0.743038
O O4 0.791200 0.164222 0.221403
O O5 0.966953 0.905511 0.370273
O O6 0.000000 0.000000 0.500000
O O7 0.113589 0.132344 0.100368
O O8 0.119721 0.616561 0.616339
O O9 0.104573 0.790357 0.245740
O O10 0.837370 0.579162 0.159821
O O11 0.000000 0.500000 0.000000
O O12 0.741891 0.493367 0.927841
O O13 0.367687 0.393715 0.892475
O O14 0.105180 0.249166 0.626372
O O15 0.286866 0.344079 0.347308
#
# Coordination Sequence:
#
# PCOD8011024 Si02
#       7
#     2   2   2   2   2   2   2
#     4  10  24  45  66  95 136 177 227 271 328 406
#     4  12  28  44  69  97 136 185 225 271 335 405
#     4  10  21  40  67  95 133 173 223 276 335 388
#     4  10  21  38  66 101 129 173 218 279 341 382
#     4  12  25  41  67 103 131 176 225 275 345 391
#     4  10  22  40  67  99 131 169 225 280 330 398
#     4  10  24  48  67  97 136 172 226 285 335 390
#
# _framework density 22.313147000000001
#
# number of rings (size 3 to 8) (size 9 to 14) (size 15 to 20)
#    0.000    1.714    0.000    6.429    8.000    2.857 
#    0.000    0.000    0.000    0.000    0.000    0.000 
#    0.000    0.000    0.000    0.000    0.000    0.000 
#
# Total GULP energy -173553.135750 kJ/mol
# GULP energy per Si atom -12396.652554 kJ/mol
# Density = 2.226236 g / cm^3
# Si number density = 22.313147 Si / 1000 Ang^3
#
#
#
# Elastic Constant Matrix: (Units=GPa)
#
#
# Indices 1 2 3 4 5 6 
#
# 1 94.7675 7.9145 15.1558 1.7942 3.9261 -14.7680
# 2 7.9145 50.8325 30.1480 -14.3248 12.7571 1.6006
# 3 15.1558 30.1480 99.1255 -19.9237 -2.8679 6.1989
# 4 1.7942 -14.3248 -19.9237 34.7161 -6.3830 5.2228
# 5 3.9261 12.7571 -2.8679 -6.3830 40.6011 -6.5612
# 6 -14.7680 1.6006 6.1989 5.2228 -6.5612 29.2799
#
#
#
# Elastic Compliance Matrix: (Units=1/GPa)
#
#
# Indices 1 2 3 4 5 6 
#
# 1 0.012387 -0.001641 -0.002691 -0.004052 -0.000287 0.007566
# 2 -0.001641 0.028332 -0.007012 0.006739 -0.008838 -0.004074
# 3 -0.002691 -0.007012 0.014401 0.006879 0.003853 -0.004386
# 4 -0.004052 0.006739 0.006879 0.037805 0.003101 -0.009917
# 5 -0.000287 -0.008838 0.003853 0.003101 0.029081 0.005486
# 6 0.007566 -0.004074 -0.004386 -0.009917 0.005486 0.042119
#
#
# Mechanical properties :
#
#
# Convention : Reuss Voigt Hill
#
# Bulk Modulus (GPa) = 30.83423 39.01801 34.92612
# Shear Modulus (GPa) = 25.30063 33.68658 29.49361
#
# Velocity S-wave (km/s) = 3.37098 3.88973 3.63961
# Velocity P-wave (km/s) = 5.38518 6.13985 5.77486
#
# Compressibility (1/GPa) = 0.03243149
#
# Stress axis : x y z
#
# Youngs Moduli (GPa) = 80.72905 35.29547 69.44101
#
# Poissons Ratio (x) = 0.05792 0.18685
# Poissons Ratio (y) = 0.13248 0.48695
# Poissons Ratio (z) = 0.21722 0.24751
#
# Static dielectric constant tensor:
#      x y z
#    x 4.600370 -0.076500 0.649550 
#    y -0.076500 4.141340 -0.423770 
#    z 0.649550 -0.423770 5.194030 
# 
# 
# High freq. dielectric constant tensor:
#      x y z
#    x 1.897290 -0.009980 -0.002150 
#    y -0.009980 1.863260 -0.015810 
#    z -0.002150 -0.015810 1.879960 
# 
# From -- ./inp_files/240035.got.cif
#   From: 2010.06.25/outbox.cif.g09.slc.cpg/sg2_121_cif.got.tgz:240035.got - 2010.06.27 13:26:56.
