data_PCOD8011133
_publ_section_title
;
Structure prediction by ZEFSAII (Michael W. Deem and Ramdas Pophale) SiO2 
 PCOD8011133
Probable space group: P -1
;
_chemical_formula_sum "Si O2"
_cell_formula_units_Z 16
_cell_length_a 9.789316
_cell_length_b 14.773124
_cell_length_c 19.078993
_cell_angle_alpha 152.871076
_cell_angle_beta 143.580927
_cell_angle_gamma 37.003548
_cell_volume 711.488785
_symmetry_space_group_name_H-M "P -1"
_symmetry_group_IT_number 2
_symmetry_cell_setting 'triclinic'
loop_
_space_group_symop_operation_xyz
x,y,z
-x,-y,-z
loop_
_atom_site_type_symbol
_atom_site_label
_atom_site_fract_x
_atom_site_fract_y
_atom_site_fract_z
Si Si1 0.257577 0.099158 0.252110
Si Si2 0.401505 0.645186 0.468456
Si Si3 0.739783 0.241834 0.087795
Si Si4 0.219237 0.754416 0.615271
Si Si5 0.580730 0.891788 0.031454
Si Si6 0.722804 0.977115 0.629199
Si Si7 0.893079 0.421730 0.819578
Si Si8 0.713825 0.405969 0.879562
O O1 0.461680 0.180551 0.356207
O O2 0.996961 0.258158 0.231817
O O3 0.308922 0.091436 0.351604
O O4 0.255108 0.877068 0.066169
O O5 0.249524 0.645652 0.476702
O O6 0.591315 0.415189 0.373771
O O7 0.195974 0.696842 0.360074
O O8 0.569570 0.478979 0.171479
O O9 0.648872 0.115760 0.023538
O O10 0.281166 0.967822 0.775664
O O11 0.952886 0.804749 0.572214
O O12 0.758500 0.665911 0.936098
O O13 0.500000 0.000000 0.000000
O O14 0.755916 0.206267 0.808960
O O15 0.500000 0.000000 0.500000
O O16 0.848756 0.315837 0.800281
O O17 0.173094 0.416125 0.920760
#
# Coordination Sequence:
#
# PCOD8011133 Si02
#       8
#     2   2   2   2   2   2   2   2
#     4  11  25  45  68  99 139 178 228 279 343 404
#     4  11  24  42  68 104 134 178 226 285 340 389
#     4  10  24  43  68  98 136 181 222 281 337 410
#     4  11  24  42  66 101 138 170 232 279 330 409
#     4  11  18  38  68  96 129 172 225 273 327 398
#     4  12  27  45  67 101 139 184 225 281 346 409
#     4  10  21  38  67  97 133 172 225 279 331 401
#     4  10  23  42  65 100 133 178 228 271 344 408
#
# _framework density 22.488054999999999
#
# number of rings (size 3 to 8) (size 9 to 14) (size 15 to 20)
#    0.000    1.250    3.750    1.500    3.500    2.000 
#    2.250    1.875    0.000    0.000    0.000    0.000 
#    0.000    0.000    0.000    0.000    0.000    0.000 
#
# Total GULP energy -198349.687370 kJ/mol
# GULP energy per Si atom -12396.855461 kJ/mol
# Density = 2.243687 g / cm^3
# Si number density = 22.488055 Si / 1000 Ang^3
#
#
#
# Elastic Constant Matrix: (Units=GPa)
#
#
# Indices 1 2 3 4 5 6 
#
# 1 94.4419 29.2528 9.0957 -8.4592 -11.1789 1.3339
# 2 29.2528 78.8672 10.0694 -10.2599 -11.6412 -1.0474
# 3 9.0957 10.0694 70.6323 -23.5694 -4.2601 2.3923
# 4 -8.4592 -10.2599 -23.5694 42.9006 5.6299 1.0939
# 5 -11.1789 -11.6412 -4.2601 5.6299 24.5985 -0.1853
# 6 1.3339 -1.0474 2.3923 1.0939 -0.1853 29.6987
#
#
#
# Elastic Compliance Matrix: (Units=1/GPa)
#
#
# Indices 1 2 3 4 5 6 
#
# 1 0.012340 -0.003902 -0.000547 0.000758 0.003488 -0.000654
# 2 -0.003902 0.015189 -0.000806 0.001761 0.004878 0.000741
# 3 -0.000547 -0.000806 0.017537 0.009345 0.000255 -0.001759
# 4 0.000758 0.001761 0.009345 0.029585 -0.003988 -0.001839
# 5 0.003488 0.004878 0.000255 -0.003988 0.045506 0.000426
# 6 -0.000654 0.000741 -0.001759 -0.001839 0.000426 0.033939
#
#
# Mechanical properties :
#
#
# Convention : Reuss Voigt Hill
#
# Bulk Modulus (GPa) = 28.94013 37.86413 33.40213
# Shear Modulus (GPa) = 28.38891 32.47447 30.43169
#
# Velocity S-wave (km/s) = 3.55688 3.80422 3.68263
# Velocity P-wave (km/s) = 5.45578 6.01416 5.74177
#
# Compressibility (1/GPa) = 0.03455409
#
# Stress axis : x y z
#
# Youngs Moduli (GPa) = 81.03752 65.83796 57.02361
#
# Poissons Ratio (x) = 0.25692 0.03120
# Poissons Ratio (y) = 0.31624 0.04596
# Poissons Ratio (z) = 0.04434 0.05307
#
# Static dielectric constant tensor:
#      x y z
#    x 3.943900 -0.269590 0.269990 
#    y -0.269590 3.546230 0.203600 
#    z 0.269990 0.203600 4.050870 
# 
# 
# High freq. dielectric constant tensor:
#      x y z
#    x 1.878760 0.000700 0.003730 
#    y 0.000700 1.892930 -0.007800 
#    z 0.003730 -0.007800 1.879500 
# 
# From -- ./inp_files/207350.got.cif
#   From: 2010.06.25/outbox.cif.g09.slc.cpg/sg2_104_cif.got.tgz:207350.got - 2010.06.27 13:26:56.
