data_PCOD8011217
_publ_section_title
;
Structure prediction by ZEFSAII (Michael W. Deem and Ramdas Pophale) SiO2 
 PCOD8011217
Probable space group: P -1
;
_chemical_formula_sum "Si O2"
_cell_formula_units_Z 16
_cell_length_a 8.949120
_cell_length_b 8.796169
_cell_length_c 20.099809
_cell_angle_alpha 123.344101
_cell_angle_beta 60.694320
_cell_angle_gamma 73.837583
_cell_volume 760.484211
_symmetry_space_group_name_H-M "P -1"
_symmetry_group_IT_number 2
_symmetry_cell_setting 'triclinic'
loop_
_space_group_symop_operation_xyz
x,y,z
-x,-y,-z
loop_
_atom_site_type_symbol
_atom_site_label
_atom_site_fract_x
_atom_site_fract_y
_atom_site_fract_z
Si Si1 0.876656 0.294327 0.597334
Si Si2 0.699268 0.611562 0.836332
Si Si3 0.351252 0.182202 0.451988
Si Si4 0.822272 0.730280 0.038853
Si Si5 0.811207 0.360067 0.316257
Si Si6 0.522581 0.256263 0.309869
Si Si7 0.609179 0.065365 0.900183
Si Si8 0.853202 0.559389 0.230821
O O1 0.721852 0.433436 0.734474
O O2 0.689526 0.457664 0.614355
O O3 0.080985 0.295032 0.547663
O O4 0.000000 0.000000 0.500000
O O5 0.980993 0.421545 0.761648
O O6 0.595461 0.870488 0.882683
O O7 0.498881 0.717910 0.964768
O O8 0.352638 0.361122 0.540164
O O9 0.388103 0.210625 0.374166
O O10 0.577779 0.865564 0.347680
O O11 0.584368 0.781255 0.084378
O O12 0.713358 0.007684 0.156268
O O13 0.000000 0.500000 0.000000
O O14 0.998028 0.629583 0.912075
O O15 0.678531 0.268959 0.327260
O O16 0.821047 0.409382 0.248621
O O17 0.100148 0.108460 0.224558
#
# Coordination Sequence:
#
# PCOD8011217 Si02
#       8
#     2   2   2   2   2   2   2   2
#     4  12  25  42  67 100 130 168 221 276 324 385
#     4   9  18  37  65  92 122 164 214 268 314 381
#     4  12  23  44  64  91 138 179 210 265 335 394
#     4  11  21  42  66  95 132 172 215 271 336 380
#     4  11  23  41  67  95 126 178 226 263 316 393
#     4  12  26  42  65  97 137 170 218 272 328 385
#     4   9  18  39  66  89 121 173 212 260 326 381
#     4  10  21  38  71  91 125 177 221 262 324 386
#
# _framework density 21.039227
#
# number of rings (size 3 to 8) (size 9 to 14) (size 15 to 20)
#    0.000    1.250    5.000    2.625    1.750    0.500 
#    2.250    0.625    0.000    0.000    0.000    0.000 
#    0.000    0.000    0.000    0.000    0.000    0.000 
#
# Total GULP energy -198424.022569 kJ/mol
# GULP energy per Si atom -12401.501411 kJ/mol
# Density = 2.099134 g / cm^3
# Si number density = 21.039227 Si / 1000 Ang^3
#
#
#
# Elastic Constant Matrix: (Units=GPa)
#
#
# Indices 1 2 3 4 5 6 
#
# 1 94.4024 30.8993 43.6969 6.9522 2.0763 -12.1482
# 2 30.8993 72.0689 29.0389 6.4899 -2.6473 -21.6780
# 3 43.6969 29.0389 122.1715 4.0201 11.0146 -4.3472
# 4 6.9522 6.4899 4.0201 28.4148 -10.1391 -4.3025
# 5 2.0763 -2.6473 11.0146 -10.1391 37.8140 6.8729
# 6 -12.1482 -21.6780 -4.3472 -4.3025 6.8729 34.0721
#
#
#
# Elastic Compliance Matrix: (Units=1/GPa)
#
#
# Indices 1 2 3 4 5 6 
#
# 1 0.014049 -0.003654 -0.003944 -0.002013 -0.000798 0.002087
# 2 -0.003654 0.020080 -0.003035 -0.001585 0.000090 0.010867
# 3 -0.003944 -0.003035 0.010584 -0.001181 -0.003122 -0.001506
# 4 -0.002013 -0.001585 -0.001181 0.040277 0.010962 0.000998
# 5 -0.000798 0.000090 -0.003122 0.010962 0.031356 -0.005566
# 6 0.002087 0.010867 -0.001506 0.000998 -0.005566 0.038064
#
#
# Mechanical properties :
#
#
# Convention : Reuss Voigt Hill
#
# Bulk Modulus (GPa) = 42.65036 55.10145 48.87591
# Shear Modulus (GPa) = 27.24906 32.39406 29.82156
#
# Velocity S-wave (km/s) = 3.60273 3.92816 3.76896
# Velocity P-wave (km/s) = 6.13368 6.84256 6.49779
#
# Compressibility (1/GPa) = 0.02344646
#
# Stress axis : x y z
#
# Youngs Moduli (GPa) = 71.17910 49.80024 94.48289
#
# Poissons Ratio (x) = 0.18199 0.37262
# Poissons Ratio (y) = 0.26012 0.28676
# Poissons Ratio (z) = 0.28072 0.15115
#
# Static dielectric constant tensor:
#      x y z
#    x 3.803060 -0.300780 -0.035620 
#    y -0.300780 3.630590 -0.090490 
#    z -0.035620 -0.090490 4.113310 
# 
# 
# High freq. dielectric constant tensor:
#      x y z
#    x 1.816130 -0.027120 -0.001110 
#    y -0.027120 1.800140 0.000160 
#    z -0.001110 0.000160 1.845430 
# 
# From -- ./inp_files/318136.got.cif
#   From: 2010.06.25/outbox.cif.g09.slc.cpg/sg2_160_cif.got.tgz:318136.got - 2010.06.27 13:26:56.
