data_PCOD8011317
_publ_section_title
;
Structure prediction by ZEFSAII (Michael W. Deem and Ramdas Pophale) SiO2 
 PCOD8011317
Probable space group: P -1
;
_chemical_formula_sum "Si O2"
_cell_formula_units_Z 16
_cell_length_a 8.711479
_cell_length_b 6.444024
_cell_length_c 15.048322
_cell_angle_alpha 115.743242
_cell_angle_beta 87.489307
_cell_angle_gamma 85.490294
_cell_volume 755.703894
_symmetry_space_group_name_H-M "P -1"
_symmetry_group_IT_number 2
_symmetry_cell_setting 'triclinic'
loop_
_space_group_symop_operation_xyz
x,y,z
-x,-y,-z
loop_
_atom_site_type_symbol
_atom_site_label
_atom_site_fract_x
_atom_site_fract_y
_atom_site_fract_z
Si Si1 0.308740 0.711268 0.770411
Si Si2 0.826874 0.518027 0.426577
Si Si3 0.874196 0.859303 0.068854
Si Si4 0.101080 0.758693 0.454780
Si Si5 0.564345 0.027911 0.784599
Si Si6 0.218386 0.913013 0.062479
Si Si7 0.364644 0.007269 0.430495
Si Si8 0.662759 0.541344 0.104149
O O1 0.288534 0.587597 0.655618
O O2 0.312845 0.502346 0.800500
O O3 0.166834 0.903199 0.831344
O O4 0.466998 0.828162 0.785183
O O5 0.862066 0.317237 0.460026
O O6 0.988911 0.572858 0.384834
O O7 0.741507 0.750004 0.515576
O O8 0.809642 0.647382 0.079738
O O9 0.057924 0.803814 0.056107
O O10 0.804311 0.887156 0.975458
O O11 0.262282 0.789470 0.406243
O O12 0.000000 0.000000 0.500000
O O13 0.727629 0.986873 0.825919
O O14 0.573033 0.016851 0.675889
O O15 0.489802 0.279493 0.867081
O O16 0.348737 0.707444 0.988464
O O17 0.500000 0.000000 0.500000
#
# Coordination Sequence:
#
# PCOD8011317 Si02
#       8
#     2   2   2   2   2   2   2   2
#     4  10  22  38  58  85 117 154 192 234 290 347
#     4  10  21  40  62  83 118 159 195 241 295 347
#     4   9  21  39  60  86 116 148 190 244 289 340
#     4   9  21  39  60  84 112 154 201 244 291 344
#     4  11  24  37  57  87 118 152 194 240 286 346
#     4  10  21  39  60  85 115 148 191 242 294 344
#     4  11  23  39  59  88 123 156 197 245 291 345
#     4  10  21  39  60  83 113 154 191 232 292 348
#
# _framework density 21.172312999999999
#
# number of rings (size 3 to 8) (size 9 to 14) (size 15 to 20)
#    0.000    2.000    0.000    2.250    0.000   15.500 
#    0.000    0.000    0.000    0.000    0.000    0.000 
#    0.000    0.000    0.000    0.000    0.000    0.000 
#
# Total GULP energy -198278.763093 kJ/mol
# GULP energy per Si atom -12392.422693 kJ/mol
# Density = 2.112412 g / cm^3
# Si number density = 21.172313 Si / 1000 Ang^3
#
#
#
# Elastic Constant Matrix: (Units=GPa)
#
#
# Indices 1 2 3 4 5 6 
#
# 1 104.3404 50.7774 50.1873 -18.5426 8.4393 -1.9968
# 2 50.7774 121.6628 36.1775 -27.0963 7.1532 6.4021
# 3 50.1873 36.1775 99.7596 -20.3105 15.8316 -7.9397
# 4 -18.5426 -27.0963 -20.3105 29.7678 -0.3308 -6.3338
# 5 8.4393 7.1532 15.8316 -0.3308 34.3413 -8.4590
# 6 -1.9968 6.4021 -7.9397 -6.3338 -8.4590 17.6858
#
#
#
# Elastic Compliance Matrix: (Units=1/GPa)
#
#
# Indices 1 2 3 4 5 6 
#
# 1 0.014514 -0.004125 -0.005297 0.001998 0.000132 0.001532
# 2 -0.004125 0.012066 -0.000847 0.007045 -0.001931 -0.003615
# 3 -0.005297 -0.000847 0.015980 0.008516 -0.003809 0.008110
# 4 0.001998 0.007045 0.008516 0.051218 -0.000571 0.019568
# 5 0.000132 -0.001931 -0.003809 -0.000571 0.035077 0.015577
# 6 0.001532 -0.003615 0.008110 0.019568 0.015577 0.076123
#
#
# Mechanical properties :
#
#
# Convention : Reuss Voigt Hill
#
# Bulk Modulus (GPa) = 45.41450 66.67191 56.04320
# Shear Modulus (GPa) = 21.47237 28.93368 25.20303
#
# Velocity S-wave (km/s) = 3.18806 3.70074 3.45393
# Velocity P-wave (km/s) = 5.92015 7.05827 6.51411
#
# Compressibility (1/GPa) = 0.02201940
#
# Stress axis : x y z
#
# Youngs Moduli (GPa) = 68.90108 82.87832 62.57812
#
# Poissons Ratio (x) = 0.34191 0.33151
# Poissons Ratio (y) = 0.28425 0.05301
# Poissons Ratio (z) = 0.36500 0.07021
#
# Static dielectric constant tensor:
#      x y z
#    x 4.032370 0.108470 -0.069650 
#    y 0.108470 4.057090 -0.118120 
#    z -0.069650 -0.118120 3.590870 
# 
# 
# High freq. dielectric constant tensor:
#      x y z
#    x 1.833650 0.001230 0.000450 
#    y 0.001230 1.845720 -0.010720 
#    z 0.000450 -0.010720 1.811360 
# 
# From -- ./inp_files/81294.got.cif
#   From: 2010.06.25/outbox.cif.g09.slc.cpg/sg2_41_cif.got.tgz:81294.got - 2010.06.27 13:26:56.
