data_PCOD8011077
_publ_section_title
;
Structure prediction by ZEFSAII (Michael W. Deem and Ramdas Pophale) SiO2 
 PCOD8011077
Probable space group: P -1
;
_chemical_formula_sum "Si O2"
_cell_formula_units_Z 14
_cell_length_a 12.837064
_cell_length_b 9.085766
_cell_length_c 13.550416
_cell_angle_alpha 121.540250
_cell_angle_beta 145.499168
_cell_angle_gamma 82.166309
_cell_volume 604.169287
_symmetry_space_group_name_H-M "P -1"
_symmetry_group_IT_number 2
_symmetry_cell_setting 'triclinic'
loop_
_space_group_symop_operation_xyz
x,y,z
-x,-y,-z
loop_
_atom_site_type_symbol
_atom_site_label
_atom_site_fract_x
_atom_site_fract_y
_atom_site_fract_z
Si Si1 0.688595 0.931985 0.089559
Si Si2 0.036329 0.819216 0.287197
Si Si3 0.901918 0.081655 0.849181
Si Si4 0.912356 0.396165 0.119687
Si Si5 0.491110 0.995545 0.220979
Si Si6 0.819857 0.357924 0.395974
Si Si7 0.380717 0.248916 0.336130
O O1 0.868254 0.883074 0.195741
O O2 0.806068 0.141767 0.326446
O O3 0.631828 0.014312 0.977705
O O4 0.439857 0.718908 0.861577
O O5 0.890301 0.561847 0.100619
O O6 0.145198 0.878438 0.282910
O O7 0.259426 0.954336 0.581480
O O8 0.681654 0.839343 0.629670
O O9 0.960643 0.270423 0.036753
O O10 0.134369 0.098015 0.032992
O O11 0.112391 0.518396 0.402878
O O12 0.669640 0.231484 0.927307
O O13 0.545500 0.197683 0.400491
O O14 0.000000 0.500000 0.500000
O O15 0.500000 0.500000 0.500000
#
# Coordination Sequence:
#
# PCOD8011077 Si02
#       7
#     2   2   2   2   2   2   2
#     4  11  25  47  72 101 135 180 232 285 349 407
#     4  12  25  44  69 106 141 183 223 289 348 411
#     4  10  23  40  66 103 143 178 232 279 337 418
#     4  11  24  43  70 104 139 184 233 283 344 412
#     4  11  23  45  67 102 142 178 232 282 337 420
#     4  11  24  47  77  96 134 185 231 287 348 403
#     4  10  21  38  66  97 136 189 228 271 337 406
#
# _framework density 23.172311000000001
#
# number of rings (size 3 to 8) (size 9 to 14) (size 15 to 20)
#    0.000    1.143    4.286    1.286    0.000    5.143 
#    0.000    1.429    0.000    0.000    0.000    0.000 
#    0.000    0.000    0.000    0.000    0.000    0.000 
#
# Total GULP energy -173512.708089 kJ/mol
# GULP energy per Si atom -12393.764864 kJ/mol
# Density = 2.311957 g / cm^3
# Si number density = 23.172311 Si / 1000 Ang^3
#
#
#
# Elastic Constant Matrix: (Units=GPa)
#
#
# Indices 1 2 3 4 5 6 
#
# 1 98.2867 47.3083 45.3804 -1.7203 18.3414 -0.7289
# 2 47.3083 133.2175 51.7472 7.8386 12.7111 5.3950
# 3 45.3804 51.7472 96.9150 11.0743 17.4820 -13.5498
# 4 -1.7203 7.8386 11.0743 44.2508 -2.2412 10.2410
# 5 18.3414 12.7111 17.4820 -2.2412 34.2803 2.3950
# 6 -0.7289 5.3950 -13.5498 10.2410 2.3950 44.6569
#
#
#
# Elastic Compliance Matrix: (Units=1/GPa)
#
#
# Indices 1 2 3 4 5 6 
#
# 1 0.014707 -0.002980 -0.005045 0.002460 -0.003941 -0.001284
# 2 -0.002980 0.010437 -0.004569 -0.000193 0.000228 -0.002664
# 3 -0.005045 -0.004569 0.017863 -0.005888 -0.005628 0.007541
# 4 0.002460 -0.000193 -0.005888 0.026248 0.004030 -0.007958
# 5 -0.003941 0.000228 -0.005628 0.004030 0.034649 -0.004582
# 6 -0.001284 -0.002664 0.007541 -0.007958 -0.004582 0.027053
#
#
# Mechanical properties :
#
#
# Convention : Reuss Voigt Hill
#
# Bulk Modulus (GPa) = 56.12071 68.58789 62.35430
# Shear Modulus (GPa) = 30.84840 36.90314 33.87577
#
# Velocity S-wave (km/s) = 3.65260 3.99501 3.82764
# Velocity P-wave (km/s) = 6.48538 7.13747 6.81922
#
# Compressibility (1/GPa) = 0.01781873
#
# Stress axis : x y z
#
# Youngs Moduli (GPa) = 67.99545 95.81338 55.98301
#
# Poissons Ratio (x) = 0.28550 0.28244
# Poissons Ratio (y) = 0.20261 0.25578
# Poissons Ratio (z) = 0.34305 0.43776
#
# Static dielectric constant tensor:
#      x y z
#    x 4.480840 0.203240 0.140760 
#    y 0.203240 4.260700 0.149460 
#    z 0.140760 0.149460 4.151370 
# 
# 
# High freq. dielectric constant tensor:
#      x y z
#    x 1.932360 0.014600 0.011270 
#    y 0.014600 1.910610 0.011430 
#    z 0.011270 0.011430 1.908570 
# 
# From -- ./inp_files/529020.got.cif
#   From: 2010.06.25/outbox.cif.g09.slc.cpg/sg2_265_cif.got.tgz:529020.got - 2010.06.27 13:26:56.
