data_PCOD8011724
_publ_section_title
;
Structure prediction by ZEFSAII (Michael W. Deem and Ramdas Pophale) SiO2 
 PCOD8011724
Probable space group: P -1
;
_chemical_formula_sum "Si O2"
_cell_formula_units_Z 14
_cell_length_a 9.104612
_cell_length_b 19.485983
_cell_length_c 10.662390
_cell_angle_alpha 34.048451
_cell_angle_beta 77.409432
_cell_angle_gamma 51.744380
_cell_volume 616.605042
_symmetry_space_group_name_H-M "P -1"
_symmetry_group_IT_number 2
_symmetry_cell_setting 'triclinic'
loop_
_space_group_symop_operation_xyz
x,y,z
-x,-y,-z
loop_
_atom_site_type_symbol
_atom_site_label
_atom_site_fract_x
_atom_site_fract_y
_atom_site_fract_z
Si Si1 0.798894 0.737829 0.178213
Si Si2 0.918423 0.247183 0.752602
Si Si3 0.413084 0.826411 0.235065
Si Si4 0.170495 0.722574 0.790078
Si Si5 0.427146 0.546947 0.270963
Si Si6 0.657918 0.978459 0.598980
Si Si7 0.499362 0.289725 0.330480
O O1 0.525867 0.864544 0.075216
O O2 0.000000 0.500000 0.500000
O O3 0.891852 0.769485 0.219054
O O4 0.788085 0.808472 0.936919
O O5 0.695793 0.439146 0.409745
O O6 0.784228 0.275896 0.856894
O O7 0.107207 0.028166 0.980691
O O8 0.515618 0.634624 0.445800
O O9 0.508986 0.776472 0.436452
O O10 0.241506 0.797497 0.583914
O O11 0.873884 0.908077 0.587263
O O12 0.330506 0.640930 0.010136
O O13 0.262626 0.537250 0.985778
O O14 0.500000 0.000000 0.500000
O O15 0.487592 0.195580 0.365593
#
# Coordination Sequence:
#
# PCOD8011724 Si02
#       7
#     2   2   2   2   2   2   2
#     4  12  23  44  66  94 136 175 210 267 326 386
#     4  11  21  37  64  92 125 165 211 264 322 373
#     4  11  21  41  64  94 130 163 213 263 319 387
#     4  10  21  45  67  92 131 169 218 271 327 388
#     4  10  21  39  63  95 127 161 214 270 316 385
#     4  12  26  45  65  98 133 175 221 266 327 392
#     4  10  22  42  70  93 125 177 213 269 331 379
#
# _framework density 22.704968999999998
#
# number of rings (size 3 to 8) (size 9 to 14) (size 15 to 20)
#    0.000    1.143    4.286    2.143    0.000    1.714 
#   10.286    0.000    0.000    0.000    0.000    0.000 
#    0.000    0.000    0.000    0.000    0.000    0.000 
#
# Total GULP energy -173571.877631 kJ/mol
# GULP energy per Si atom -12397.991259 kJ/mol
# Density = 2.265329 g / cm^3
# Si number density = 22.704969 Si / 1000 Ang^3
#
#
#
# Elastic Constant Matrix: (Units=GPa)
#
#
# Indices 1 2 3 4 5 6 
#
# 1 94.5622 29.1817 16.4897 0.2400 9.8782 10.2442
# 2 29.1817 84.6864 6.1499 -14.8291 4.8264 -6.4346
# 3 16.4897 6.1499 43.6029 -7.5664 2.8763 3.9846
# 4 0.2400 -14.8291 -7.5664 28.3598 -6.0857 -1.2689
# 5 9.8782 4.8264 2.8763 -6.0857 29.0615 -0.7742
# 6 10.2442 -6.4346 3.9846 -1.2689 -0.7742 42.1569
#
#
#
# Elastic Compliance Matrix: (Units=1/GPa)
#
#
# Indices 1 2 3 4 5 6 
#
# 1 0.014042 -0.005486 -0.004806 -0.005445 -0.004634 -0.004044
# 2 -0.005486 0.015393 0.000998 0.008782 0.001152 0.003874
# 3 -0.004806 0.000998 0.025973 0.007549 0.000454 -0.000899
# 4 -0.005445 0.008782 0.007549 0.043987 0.008948 0.003438
# 5 -0.004634 0.001152 0.000454 0.008948 0.037682 0.002220
# 6 -0.004044 0.003874 -0.000899 0.003438 0.002220 0.025524
#
#
# Mechanical properties :
#
#
# Convention : Reuss Voigt Hill
#
# Bulk Modulus (GPa) = 27.16031 36.27713 31.71872
# Shear Modulus (GPa) = 25.84447 31.31765 28.58106
#
# Velocity S-wave (km/s) = 3.37749 3.71796 3.55181
# Velocity P-wave (km/s) = 5.21519 5.86884 5.55164
#
# Compressibility (1/GPa) = 0.03681843
#
# Stress axis : x y z
#
# Youngs Moduli (GPa) = 71.21306 64.96532 38.50095
#
# Poissons Ratio (x) = 0.35643 0.18505
# Poissons Ratio (y) = 0.39071 -0.03841
# Poissons Ratio (z) = 0.34227 -0.06482
#
# Static dielectric constant tensor:
#      x y z
#    x 4.115850 -0.018880 -0.122080 
#    y -0.018880 4.371990 -0.352140 
#    z -0.122080 -0.352140 4.449000 
# 
# 
# High freq. dielectric constant tensor:
#      x y z
#    x 1.885410 -0.000850 -0.008380 
#    y -0.000850 1.910020 -0.019850 
#    z -0.008380 -0.019850 1.879950 
# 
# From -- ./inp_files/404504.got.cif
#   From: 2010.06.25/outbox.cif.g09.slc.cpg/sg2_203_cif.got.tgz:404504.got - 2010.06.27 13:26:56.
