data_PCOD8011960
_publ_section_title
;
Structure prediction by ZEFSAII (Michael W. Deem and Ramdas Pophale) SiO2 
 PCOD8011960
Probable space group: P -1
;
_chemical_formula_sum "Si O2"
_cell_formula_units_Z 14
_cell_length_a 12.221047
_cell_length_b 18.843882
_cell_length_c 18.845758
_cell_angle_alpha 20.743934
_cell_angle_beta 28.232236
_cell_angle_gamma 26.894249
_cell_volume 664.740546
_symmetry_space_group_name_H-M "P -1"
_symmetry_group_IT_number 2
_symmetry_cell_setting 'triclinic'
loop_
_space_group_symop_operation_xyz
x,y,z
-x,-y,-z
loop_
_atom_site_type_symbol
_atom_site_label
_atom_site_fract_x
_atom_site_fract_y
_atom_site_fract_z
Si Si1 0.438645 0.539999 0.330454
Si Si2 0.487481 0.653350 0.930273
Si Si3 0.292883 0.049114 0.510626
Si Si4 0.343979 0.666167 0.743554
Si Si5 0.365773 0.219782 0.782497
Si Si6 0.021305 0.989483 0.155373
Si Si7 0.225925 0.243960 0.996527
O O1 0.530928 0.373038 0.368488
O O2 0.393853 0.414076 0.541224
O O3 0.179893 0.745377 0.263191
O O4 0.649627 0.631216 0.141948
O O5 0.494300 0.535239 0.110114
O O6 0.500000 0.500000 0.000000
O O7 0.730434 0.718381 0.725644
O O8 0.234034 0.878829 0.865697
O O9 0.040360 0.046874 0.692834
O O10 0.500000 0.000000 0.500000
O O11 0.369886 0.878916 0.561203
O O12 0.059889 0.686418 0.881056
O O13 0.243433 0.313737 0.840429
O O14 0.180766 0.136281 0.924113
O O15 0.636269 0.018514 0.827095
#
# Coordination Sequence:
#
# PCOD8011960 Si02
#       7
#     2   2   2   2   2   2   2
#     4  11  26  39  65  99 136 168 206 270 334 364
#     4  11  22  40  69  94 125 169 219 267 312 377
#     4  10  21  39  65  92 120 167 223 255 305 387
#     4  12  24  42  65  99 132 169 214 268 322 376
#     4  10  21  42  68  93 131 169 215 268 315 376
#     4  10  22  40  64  97 128 165 223 259 310 398
#     4  10  22  42  65  96 127 171 226 252 309 402
#
# _framework density 21.060848
#
# number of rings (size 3 to 8) (size 9 to 14) (size 15 to 20)
#    0.000    1.429    4.286    0.857    4.000    4.571 
#    0.000    5.000    0.000    0.000    0.000    0.000 
#    0.000    0.000    0.000    0.000    0.000    0.000 
#
# Total GULP energy -173576.831037 kJ/mol
# GULP energy per Si atom -12398.345074 kJ/mol
# Density = 2.101291 g / cm^3
# Si number density = 21.060848 Si / 1000 Ang^3
#
#
#
# Elastic Constant Matrix: (Units=GPa)
#
#
# Indices 1 2 3 4 5 6 
#
# 1 42.8917 25.7818 20.3070 -3.3223 -2.6300 0.4596
# 2 25.7818 107.1608 26.7133 -1.9288 -6.3238 1.8068
# 3 20.3070 26.7133 105.6477 -13.6302 -5.8473 -4.3927
# 4 -3.3223 -1.9288 -13.6302 22.4780 5.0112 -3.1499
# 5 -2.6300 -6.3238 -5.8473 5.0112 29.3460 -4.4076
# 6 0.4596 1.8068 -4.3927 -3.1499 -4.4076 37.3462
#
#
#
# Elastic Compliance Matrix: (Units=1/GPa)
#
#
# Indices 1 2 3 4 5 6 
#
# 1 0.028832 -0.005925 -0.003879 0.001290 0.000256 -0.000385
# 2 -0.005925 0.011300 -0.001842 -0.001488 0.001699 -0.000615
# 3 -0.003879 -0.001842 0.011642 0.006451 0.000796 0.002144
# 4 0.001290 -0.001488 0.006451 0.050604 -0.006920 0.004266
# 5 0.000256 0.001699 0.000796 -0.006920 0.036364 0.003716
# 6 -0.000385 -0.000615 0.002144 0.004266 0.003716 0.027862
#
#
# Mechanical properties :
#
#
# Convention : Reuss Voigt Hill
#
# Bulk Modulus (GPa) = 35.10927 44.58938 39.84932
# Shear Modulus (GPa) = 25.07645 30.02723 27.55184
#
# Velocity S-wave (km/s) = 3.45435 3.77999 3.62083
# Velocity P-wave (km/s) = 5.71110 6.34577 6.03678
#
# Compressibility (1/GPa) = 0.02848251
#
# Stress axis : x y z
#
# Youngs Moduli (GPa) = 34.68336 88.49359 85.89323
#
# Poissons Ratio (x) = 0.52431 0.33321
# Poissons Ratio (y) = 0.20549 0.15822
# Poissons Ratio (z) = 0.13455 0.16301
#
# Static dielectric constant tensor:
#      x y z
#    x 3.942300 -0.227360 -0.044740 
#    y -0.227360 3.815790 0.036360 
#    z -0.044740 0.036360 4.181020 
# 
# 
# High freq. dielectric constant tensor:
#      x y z
#    x 1.809120 -0.008290 -0.008360 
#    y -0.008290 1.820190 -0.003610 
#    z -0.008360 -0.003610 1.837380 
# 
# From -- ./inp_files/427310.got.cif
#   From: 2010.06.25/outbox.cif.g09.slc.cpg/sg2_214_cif.got.tgz:427310.got - 2010.06.27 13:26:56.
