data_PCOD8011699
_publ_section_title
;
Structure prediction by ZEFSAII (Michael W. Deem and Ramdas Pophale) SiO2 
 PCOD8011699
Probable space group: P -1
;
_chemical_formula_sum "Si O2"
_cell_formula_units_Z 16
_cell_length_a 17.704963
_cell_length_b 8.352344
_cell_length_c 8.607245
_cell_angle_alpha 68.662214
_cell_angle_beta 108.055006
_cell_angle_gamma 141.349348
_cell_volume 739.746355
_symmetry_space_group_name_H-M "P -1"
_symmetry_group_IT_number 2
_symmetry_cell_setting 'triclinic'
loop_
_space_group_symop_operation_xyz
x,y,z
-x,-y,-z
loop_
_atom_site_type_symbol
_atom_site_label
_atom_site_fract_x
_atom_site_fract_y
_atom_site_fract_z
Si Si1 0.049550 0.510006 0.687261
Si Si2 0.298266 0.289861 0.909829
Si Si3 0.193300 0.820264 0.199644
Si Si4 0.626610 0.992962 0.507859
Si Si5 0.305010 0.046792 0.734683
Si Si6 0.477288 0.845875 0.745304
Si Si7 0.294666 0.737524 0.062401
Si Si8 0.122320 0.263954 0.909260
O O1 0.160059 0.809144 0.703991
O O2 0.097517 0.393053 0.745877
O O3 0.000000 0.500000 0.500000
O O4 0.943714 0.341785 0.808334
O O5 0.412255 0.603269 0.904634
O O6 0.175803 0.203595 0.852794
O O7 0.329082 0.257476 0.773482
O O8 0.281834 0.120809 0.093915
O O9 0.244110 0.823262 0.390965
O O10 0.193718 0.676641 0.117565
O O11 0.622067 0.839556 0.423382
O O12 0.620834 0.171975 0.361502
O O13 0.520761 0.810155 0.632959
O O14 0.348048 0.947053 0.888748
O O15 0.591241 0.125297 0.803530
O O16 0.223931 0.461051 0.040311
O O17 0.000000 0.000000 0.000000
#
# Coordination Sequence:
#
# PCOD8011699 Si02
#       8
#     2   2   2   2   2   2   2   2
#     4  11  21  39  65  87 127 168 198 252 321 375
#     4  11  24  40  63  93 128 160 213 257 304 358
#     4  10  21  39  63  93 124 165 207 248 314 378
#     4  10  21  41  64  91 125 166 209 248 315 367
#     4  10  22  37  62  95 123 167 206 250 313 377
#     4  10  22  43  66  91 124 165 210 262 298 367
#     4   9  22  39  65  91 120 169 209 246 312 371
#     4  11  23  40  64  95 124 156 209 264 302 361
#
# _framework density 21.629034000000001
#
# number of rings (size 3 to 8) (size 9 to 14) (size 15 to 20)
#    0.000    1.750    2.500    1.500    1.750    8.500 
#    0.000    8.125    0.000    0.000    0.000    0.000 
#    0.000    0.000    0.000    0.000    0.000    0.000 
#
# Total GULP energy -198295.373153 kJ/mol
# GULP energy per Si atom -12393.460822 kJ/mol
# Density = 2.157981 g / cm^3
# Si number density = 21.629034 Si / 1000 Ang^3
#
#
#
# Elastic Constant Matrix: (Units=GPa)
#
#
# Indices 1 2 3 4 5 6 
#
# 1 121.4387 25.1117 35.6625 4.2975 -9.7622 5.6190
# 2 25.1117 99.8228 31.9870 -3.8686 6.5589 3.9895
# 3 35.6625 31.9870 95.8357 11.0322 0.7521 2.3354
# 4 4.2975 -3.8686 11.0322 21.3250 4.6322 -1.5888
# 5 -9.7622 6.5589 0.7521 4.6322 38.9884 -0.2775
# 6 5.6190 3.9895 2.3354 -1.5888 -0.2775 25.0341
#
#
#
# Elastic Compliance Matrix: (Units=1/GPa)
#
#
# Indices 1 2 3 4 5 6 
#
# 1 0.009812 -0.001737 -0.002871 -0.001583 0.002980 -0.001725
# 2 -0.001737 0.012161 -0.003966 0.005200 -0.003028 -0.000882
# 3 -0.002871 -0.003966 0.013682 -0.007375 0.000557 -0.000462
# 4 -0.001583 0.005200 -0.007375 0.053865 -0.007503 0.003550
# 5 0.002980 -0.003028 0.000557 -0.007503 0.027782 -0.000407
# 6 -0.001725 -0.000882 -0.000462 0.003550 -0.000407 0.040737
#
#
# Mechanical properties :
#
#
# Convention : Reuss Voigt Hill
#
# Bulk Modulus (GPa) = 54.02878 55.84663 54.93771
# Shear Modulus (GPa) = 27.56989 32.02525 29.79757
#
# Velocity S-wave (km/s) = 3.57413 3.85211 3.71572
# Velocity P-wave (km/s) = 6.48587 6.75731 6.62298
#
# Compressibility (1/GPa) = 0.01850865
#
# Stress axis : x y z
#
# Youngs Moduli (GPa) = 101.91389 82.22802 73.08650
#
# Poissons Ratio (x) = 0.14281 0.20981
# Poissons Ratio (y) = 0.17699 0.28987
# Poissons Ratio (z) = 0.29257 0.32613
#
# Static dielectric constant tensor:
#      x y z
#    x 4.201070 0.087880 -0.117690 
#    y 0.087880 3.695370 0.089690 
#    z -0.117690 0.089690 3.981900 
# 
# 
# High freq. dielectric constant tensor:
#      x y z
#    x 1.869260 0.014090 -0.009500 
#    y 0.014090 1.822950 -0.000440 
#    z -0.009500 -0.000440 1.842440 
# 
# From -- ./inp_files/273083.got.cif
#   From: 2010.06.25/outbox.cif.g09.slc.cpg/sg2_137_cif.got.tgz:273083.got - 2010.06.27 13:26:56.
