data_PCOD8011564
_publ_section_title
;
Structure prediction by ZEFSAII (Michael W. Deem and Ramdas Pophale) SiO2 
 PCOD8011564
Probable space group: P -1
;
_chemical_formula_sum "Si O2"
_cell_formula_units_Z 14
_cell_length_a 20.158680
_cell_length_b 8.454613
_cell_length_c 9.305469
_cell_angle_alpha 43.343670
_cell_angle_beta 41.883279
_cell_angle_gamma 41.849682
_cell_volume 651.180512
_symmetry_space_group_name_H-M "P -1"
_symmetry_group_IT_number 2
_symmetry_cell_setting 'triclinic'
loop_
_space_group_symop_operation_xyz
x,y,z
-x,-y,-z
loop_
_atom_site_type_symbol
_atom_site_label
_atom_site_fract_x
_atom_site_fract_y
_atom_site_fract_z
Si Si1 0.312453 0.276856 0.742687
Si Si2 0.891197 0.278170 0.094812
Si Si3 0.879416 0.831372 0.275817
Si Si4 0.389372 0.043907 0.071459
Si Si5 0.192736 0.492563 0.229608
Si Si6 0.463831 0.485627 0.231004
Si Si7 0.296527 0.852903 0.868851
O O1 0.194196 0.525716 0.784415
O O2 0.388082 0.334124 0.466468
O O3 0.288931 0.040174 0.888350
O O4 0.376451 0.202388 0.840174
O O5 0.883778 0.007907 0.285681
O O6 0.868721 0.375612 0.902916
O O7 0.016661 0.231631 0.958648
O O8 0.890140 0.560150 0.497235
O O9 0.762130 0.976894 0.287312
O O10 0.390864 0.769265 0.222611
O O11 0.289783 0.209155 0.228444
O O12 0.500000 0.000000 0.000000
O O13 0.237232 0.672136 0.123250
O O14 0.574397 0.334508 0.248209
O O15 0.500000 0.500000 0.000000
#
# Coordination Sequence:
#
# PCOD8011564 Si02
#       7
#     2   2   2   2   2   2   2
#     4  11  25  41  61  88 126 159 201 252 296 364
#     4   9  21  43  61  93 117 158 204 245 307 349
#     4  10  21  39  68  86 122 157 200 256 293 355
#     4  11  23  38  60  89 122 156 200 246 297 358
#     4  10  21  39  62  93 120 157 201 247 297 362
#     4  12  25  41  62  87 124 166 198 245 305 362
#     4  11  24  37  61  91 121 159 204 239 307 355
#
# _framework density 21.499413000000001
#
# number of rings (size 3 to 8) (size 9 to 14) (size 15 to 20)
#    0.000    1.429    2.857    1.714    4.000    1.143 
#    0.000    0.714    0.000    0.000    0.000    0.000 
#    0.000    0.000    0.000    0.000    0.000    0.000 
#
# Total GULP energy -173587.766015 kJ/mol
# GULP energy per Si atom -12399.126144 kJ/mol
# Density = 2.145048 g / cm^3
# Si number density = 21.499413 Si / 1000 Ang^3
#
#
#
# Elastic Constant Matrix: (Units=GPa)
#
#
# Indices 1 2 3 4 5 6 
#
# 1 77.6946 24.8760 40.1376 -2.0106 -12.9231 3.0827
# 2 24.8760 105.5976 30.9249 -4.9854 -16.0459 5.7109
# 3 40.1376 30.9249 119.3496 -10.4154 -20.4331 9.7580
# 4 -2.0106 -4.9854 -10.4154 28.0033 6.0400 -7.2705
# 5 -12.9231 -16.0459 -20.4331 6.0400 25.1249 -5.9067
# 6 3.0827 5.7109 9.7580 -7.2705 -5.9067 36.7237
#
#
#
# Elastic Compliance Matrix: (Units=1/GPa)
#
#
# Indices 1 2 3 4 5 6 
#
# 1 0.016455 -0.002054 -0.004496 -0.001598 0.003987 0.000458
# 2 -0.002054 0.011102 -0.001310 0.000199 0.004829 -0.000390
# 3 -0.004496 -0.001310 0.011434 0.002246 0.005339 -0.001154
# 4 -0.001598 0.000199 0.002246 0.039575 -0.006918 0.006229
# 5 0.003987 0.004829 0.005339 -0.006918 0.051996 0.004489
# 6 0.000458 -0.000390 -0.001154 0.006229 0.004489 0.029514
#
#
# Mechanical properties :
#
#
# Convention : Reuss Voigt Hill
#
# Bulk Modulus (GPa) = 42.97082 54.94652 48.95867
# Shear Modulus (GPa) = 27.24003 31.75061 29.49532
#
# Velocity S-wave (km/s) = 3.56337 3.84710 3.70795
# Velocity P-wave (km/s) = 6.07952 6.73397 6.41509
#
# Compressibility (1/GPa) = 0.02327161
#
# Stress axis : x y z
#
# Youngs Moduli (GPa) = 60.77250 90.07713 87.45477
#
# Poissons Ratio (x) = 0.18502 0.39318
# Poissons Ratio (y) = 0.12483 0.11455
# Poissons Ratio (z) = 0.27322 0.11799
#
# Static dielectric constant tensor:
#      x y z
#    x 3.818670 -0.158690 -0.199170 
#    y -0.158690 4.423790 -0.110370 
#    z -0.199170 -0.110370 3.709940 
# 
# 
# High freq. dielectric constant tensor:
#      x y z
#    x 1.834210 -0.013040 -0.018630 
#    y -0.013040 1.856810 -0.018500 
#    z -0.018630 -0.018500 1.828600 
# 
# From -- ./inp_files/27536.got.cif
#   From: 2010.06.25/outbox.cif.g09.slc.cpg/sg2_14_cif.got.tgz:27536.got - 2010.06.27 13:26:56.
