data_PCOD8011848
_publ_section_title
;
Structure prediction by ZEFSAII (Michael W. Deem and Ramdas Pophale) SiO2 
 PCOD8011848
Probable space group: P -1
;
_chemical_formula_sum "Si O2"
_cell_formula_units_Z 16
_cell_length_a 7.133081
_cell_length_b 13.710696
_cell_length_c 15.380833
_cell_angle_alpha 150.076662
_cell_angle_beta 84.564091
_cell_angle_gamma 106.059083
_cell_volume 687.305294
_symmetry_space_group_name_H-M "P -1"
_symmetry_group_IT_number 2
_symmetry_cell_setting 'triclinic'
loop_
_space_group_symop_operation_xyz
x,y,z
-x,-y,-z
loop_
_atom_site_type_symbol
_atom_site_label
_atom_site_fract_x
_atom_site_fract_y
_atom_site_fract_z
Si Si1 0.563391 0.828824 0.960709
Si Si2 0.012835 0.775193 0.316058
Si Si3 0.999833 0.118293 0.179831
Si Si4 0.622440 0.115253 0.739190
Si Si5 0.318628 0.490146 0.385630
Si Si6 0.554834 0.459108 0.094962
Si Si7 0.644055 0.914197 0.766094
Si Si8 0.310562 0.691493 0.357392
O O1 0.415338 0.957112 0.053313
O O2 0.605795 0.709566 0.782015
O O3 0.457735 0.635878 0.881975
O O4 0.763668 0.015951 0.141159
O O5 0.785746 0.612141 0.184227
O O6 0.155460 0.772372 0.226863
O O7 0.101651 0.705954 0.345490
O O8 0.000000 0.000000 0.500000
O O9 0.100034 0.374795 0.355849
O O10 0.129827 0.070943 0.214153
O O11 0.000000 0.000000 0.000000
O O12 0.654783 0.033651 0.768336
O O13 0.483286 0.926955 0.538344
O O14 0.506307 0.276945 0.882514
O O15 0.481520 0.670761 0.576506
O O16 0.271626 0.571952 0.358929
O O17 0.394713 0.574242 0.189686
#
# Coordination Sequence:
#
# PCOD8011848 Si02
#       8
#     2   2   2   2   2   2   2   2
#     4   9  21  40  61  90 123 164 203 250 310 362
#     4  12  24  42  66  93 124 166 211 256 317 374
#     4  10  21  39  64  94 125 163 207 251 305 370
#     4  10  22  42  63  93 125 167 208 254 314 367
#     4   9  20  39  63  92 122 165 206 251 309 360
#     4  10  22  41  62  92 123 164 211 252 315 366
#     4  10  21  41  62  89 131 159 205 260 299 363
#     4  10  22  44  62  88 133 160 205 267 304 369
#
# _framework density 23.279320999999999
#
# number of rings (size 3 to 8) (size 9 to 14) (size 15 to 20)
#    0.000    2.000    1.250    1.125    0.000    9.000 
#    9.000    3.750    0.000    0.000    0.000    0.000 
#    0.000    0.000    0.000    0.000    0.000    0.000 
#
# Total GULP energy -198286.297540 kJ/mol
# GULP energy per Si atom -12392.893596 kJ/mol
# Density = 2.322634 g / cm^3
# Si number density = 23.279321 Si / 1000 Ang^3
#
#
#
# Elastic Constant Matrix: (Units=GPa)
#
#
# Indices 1 2 3 4 5 6 
#
# 1 83.3983 18.7744 30.9001 15.3498 -17.8559 -13.3035
# 2 18.7744 34.6554 28.7585 10.1277 -0.9046 3.6651
# 3 30.9001 28.7585 103.1484 13.8973 -19.4006 0.6481
# 4 15.3498 10.1277 13.8973 30.1378 8.0801 7.6548
# 5 -17.8559 -0.9046 -19.4006 8.0801 41.1059 3.6955
# 6 -13.3035 3.6651 0.6481 7.6548 3.6955 33.4186
#
#
#
# Elastic Compliance Matrix: (Units=1/GPa)
#
#
# Indices 1 2 3 4 5 6 
#
# 1 0.020042 -0.007706 -0.000319 -0.012850 0.009952 0.010673
# 2 -0.007706 0.042932 -0.010492 -0.002360 -0.006321 -0.006333
# 3 -0.000319 -0.010492 0.014889 -0.005518 0.007638 0.001154
# 4 -0.012850 -0.002360 -0.005518 0.051341 -0.017015 -0.014628
# 5 0.009952 -0.006321 0.007638 -0.017015 0.035054 0.004528
# 6 0.010673 -0.006333 0.001154 -0.014628 0.004528 0.037694
#
#
# Mechanical properties :
#
#
# Convention : Reuss Voigt Hill
#
# Bulk Modulus (GPa) = 24.49381 42.00755 33.25068
# Shear Modulus (GPa) = 19.79441 30.45041 25.12241
#
# Velocity S-wave (km/s) = 2.91915 3.62061 3.28864
# Velocity P-wave (km/s) = 4.68044 5.96344 5.36046
#
# Compressibility (1/GPa) = 0.04082665
#
# Stress axis : x y z
#
# Youngs Moduli (GPa) = 49.89462 23.29267 67.16573
#
# Poissons Ratio (x) = 0.17950 0.02145
# Poissons Ratio (y) = 0.38451 0.70472
# Poissons Ratio (z) = 0.01593 0.24439
#
# Static dielectric constant tensor:
#      x y z
#    x 4.362140 0.279290 -0.085030 
#    y 0.279290 4.229840 0.351250 
#    z -0.085030 0.351250 4.647740 
# 
# 
# High freq. dielectric constant tensor:
#      x y z
#    x 1.907140 0.005550 -0.008380 
#    y 0.005550 1.930870 0.018510 
#    z -0.008380 0.018510 1.929140 
# 
# From -- ./inp_files/550186.got.cif
#   From: 2010.06.25/outbox.cif.g09.slc.cpg/sg2_276_cif.got.tgz:550186.got - 2010.06.27 13:26:56.
