data_PCOD8011333
_publ_section_title
;
Structure prediction by ZEFSAII (Michael W. Deem and Ramdas Pophale) SiO2 
 PCOD8011333
Probable space group: P -1
;
_chemical_formula_sum "Si O2"
_cell_formula_units_Z 16
_cell_length_a 14.428314
_cell_length_b 10.265237
_cell_length_c 13.430825
_cell_angle_alpha 57.387436
_cell_angle_beta 29.023997
_cell_angle_gamma 76.581408
_cell_volume 659.153479
_symmetry_space_group_name_H-M "P -1"
_symmetry_group_IT_number 2
_symmetry_cell_setting 'triclinic'
loop_
_space_group_symop_operation_xyz
x,y,z
-x,-y,-z
loop_
_atom_site_type_symbol
_atom_site_label
_atom_site_fract_x
_atom_site_fract_y
_atom_site_fract_z
Si Si1 0.526832 0.895139 0.219179
Si Si2 0.037791 0.995888 0.705733
Si Si3 0.749534 0.086892 0.187611
Si Si4 0.120698 0.719186 0.816009
Si Si5 0.767247 0.375966 0.937087
Si Si6 0.671440 0.750897 0.485240
Si Si7 0.723097 0.423227 0.575533
Si Si8 0.519962 0.783158 0.918105
O O1 0.398416 0.844010 0.469020
O O2 0.379591 0.701593 0.374308
O O3 0.522736 0.054594 0.098811
O O4 0.795096 0.970007 0.943608
O O5 0.995929 0.790850 0.834336
O O6 0.197656 0.116318 0.598703
O O7 0.204215 0.119411 0.404122
O O8 0.915716 0.251766 0.046148
O O9 0.500000 0.000000 0.500000
O O10 0.763813 0.904952 0.243044
O O11 0.774381 0.188896 0.016684
O O12 0.000000 0.500000 0.000000
O O13 0.039201 0.554555 0.621742
O O14 0.609462 0.373538 0.176649
O O15 0.659022 0.371264 0.934319
O O16 0.766371 0.625099 0.425882
O O17 0.535563 0.327572 0.880926
#
# Coordination Sequence:
#
# PCOD8011333 Si02
#       8
#     2   2   2   2   2   2   2   2
#     4  11  23  39  59  86 121 159 196 238 297 361
#     4   9  21  40  60  84 118 160 199 238 295 352
#     4   9  18  37  62  85 115 154 191 241 297 344
#     4  10  21  39  60  86 122 156 194 243 293 353
#     4  10  21  40  63  86 117 156 199 246 296 347
#     4   9  21  38  59  88 118 152 198 247 294 349
#     4  12  24  36  60  93 119 154 201 246 295 350
#     4  10  23  42  61  84 119 160 200 246 294 346
#
# _framework density 24.273558999999999
#
# number of rings (size 3 to 8) (size 9 to 14) (size 15 to 20)
#    0.000    2.000    0.000    4.500    0.000    8.500 
#    0.000    5.000    0.000    2.250    0.000    0.000 
#    0.000    0.000    0.000    0.000    0.000    0.000 
#
# Total GULP energy -198274.719840 kJ/mol
# GULP energy per Si atom -12392.169990 kJ/mol
# Density = 2.421831 g / cm^3
# Si number density = 24.273559 Si / 1000 Ang^3
#
#
#
# Elastic Constant Matrix: (Units=GPa)
#
#
# Indices 1 2 3 4 5 6 
#
# 1 45.4671 11.6600 9.8414 3.6562 10.3152 -5.7830
# 2 11.6600 73.2661 19.1840 12.6291 -5.4789 -10.3988
# 3 9.8414 19.1840 95.3406 32.3127 -13.5129 -14.6533
# 4 3.6562 12.6291 32.3127 44.1964 -7.3353 -8.1723
# 5 10.3152 -5.4789 -13.5129 -7.3353 30.1950 3.0293
# 6 -5.7830 -10.3988 -14.6533 -8.1723 3.0293 25.0198
#
#
#
# Elastic Compliance Matrix: (Units=1/GPa)
#
#
# Indices 1 2 3 4 5 6 
#
# 1 0.026777 -0.003727 -0.002962 -0.000122 -0.011607 0.004271
# 2 -0.003727 0.015663 -0.001008 -0.002240 0.002719 0.003997
# 3 -0.002962 -0.001008 0.015488 -0.009136 0.005102 0.004365
# 4 -0.000122 -0.002240 -0.009136 0.031059 0.002740 0.003503
# 5 -0.011607 0.002719 0.005102 0.002740 0.040787 -0.002608
# 6 0.004271 0.003997 0.004365 0.003503 -0.002608 0.046633
#
#
# Mechanical properties :
#
#
# Convention : Reuss Voigt Hill
#
# Bulk Modulus (GPa) = 23.51014 32.82716 28.16865
# Shear Modulus (GPa) = 24.27442 31.44146 27.85794
#
# Velocity S-wave (km/s) = 3.16576 3.60293 3.39140
# Velocity P-wave (km/s) = 4.80305 5.55530 5.19281
#
# Compressibility (1/GPa) = 0.04253484
#
# Stress axis : x y z
#
# Youngs Moduli (GPa) = 37.34531 63.84606 64.56696
#
# Poissons Ratio (x) = 0.23794 0.19122
# Poissons Ratio (y) = 0.13918 0.06509
# Poissons Ratio (z) = 0.11060 0.06436
#
# Static dielectric constant tensor:
#      x y z
#    x 2.398690 -2.669870 -0.375850 
#    y -2.669870 -2.434910 0.036750 
#    z -0.375850 0.036750 4.452660 
# 
# 
# High freq. dielectric constant tensor:
#      x y z
#    x 1.941600 -0.006400 -0.000150 
#    y -0.006400 1.959280 0.008530 
#    z -0.000150 0.008530 1.981210 
# 
# From -- ./inp_files/531713.got.cif
#   From: 2010.06.25/outbox.cif.g09.slc.cpg/sg2_266_cif.got.tgz:531713.got - 2010.06.27 13:26:56.
