data_PCOD8011261
_publ_section_title
;
Structure prediction by ZEFSAII (Michael W. Deem and Ramdas Pophale) SiO2 
 PCOD8011261
Probable space group: P -1
;
_chemical_formula_sum "Si O2"
_cell_formula_units_Z 14
_cell_length_a 7.224562
_cell_length_b 13.534302
_cell_length_c 13.851647
_cell_angle_alpha 148.181023
_cell_angle_beta 99.790208
_cell_angle_gamma 91.060879
_cell_volume 668.165690
_symmetry_space_group_name_H-M "P -1"
_symmetry_group_IT_number 2
_symmetry_cell_setting 'triclinic'
loop_
_space_group_symop_operation_xyz
x,y,z
-x,-y,-z
loop_
_atom_site_type_symbol
_atom_site_label
_atom_site_fract_x
_atom_site_fract_y
_atom_site_fract_z
Si Si1 0.305181 0.691957 0.211211
Si Si2 0.593207 0.939076 0.810913
Si Si3 0.522881 0.961659 0.610582
Si Si4 0.073897 0.122667 0.466304
Si Si5 0.115014 0.277402 0.802988
Si Si6 0.098925 0.272441 0.390363
Si Si7 0.277834 0.718697 0.747251
O O1 0.353298 0.777104 0.394830
O O2 0.092104 0.696437 0.161868
O O3 0.473030 0.831710 0.269848
O O4 0.296316 0.461808 0.012721
O O5 0.482980 0.962812 0.721782
O O6 0.787170 0.876683 0.757474
O O7 0.444298 0.773292 0.725338
O O8 0.653341 0.150328 0.043021
O O9 0.734483 0.936254 0.590633
O O10 0.130641 0.276048 0.687201
O O11 0.012057 0.221309 0.448505
O O12 0.886781 0.932180 0.323842
O O13 0.246780 0.494533 0.588168
O O14 0.921346 0.247682 0.280356
#
# Coordination Sequence:
#
# PCOD8011261 Si02
#       7
#     2   2   2   2   2   2   2
#     4   9  18  33  53  79 108 141 183 219 268 337
#     4  10  21  39  58  83 121 142 190 243 277 338
#     4   9  19  34  52  78 109 145 175 227 281 323
#     4   9  19  34  52  77 111 142 176 227 280 324
#     4   9  18  33  53  78 109 141 181 222 268 337
#     4  10  21  39  59  85 115 147 191 239 279 340
#     4  10  22  38  61  86 107 157 190 228 297 331
#
# _framework density 20.952888000000002
#
# number of rings (size 3 to 8) (size 9 to 14) (size 15 to 20)
#    0.000    2.571    0.000    0.857    4.000    0.571 
#    0.000    7.143    0.000    0.000    0.000    0.000 
#    0.000    0.000    0.000    0.000    0.000    0.000 
#
# Total GULP energy -173586.796857 kJ/mol
# GULP energy per Si atom -12399.056918 kJ/mol
# Density = 2.090520 g / cm^3
# Si number density = 20.952888 Si / 1000 Ang^3
#
#
#
# Elastic Constant Matrix: (Units=GPa)
#
#
# Indices 1 2 3 4 5 6 
#
# 1 17.2743 4.9299 6.6662 -3.1745 2.8643 12.1488
# 2 4.9299 120.2240 75.2852 -15.8007 2.5167 12.7709
# 3 6.6662 75.2852 164.9032 -4.2170 13.8742 14.8842
# 4 -3.1745 -15.8007 -4.2170 27.9931 3.5574 -1.2066
# 5 2.8643 2.5167 13.8742 3.5574 25.8328 -2.4940
# 6 12.1488 12.7709 14.8842 -1.2066 -2.4940 26.0119
#
#
#
# Elastic Compliance Matrix: (Units=1/GPa)
#
#
# Indices 1 2 3 4 5 6 
#
# 1 0.095451 0.002457 0.001127 0.012588 -0.017752 -0.047550
# 2 0.002457 0.012942 -0.005485 0.006568 0.000117 -0.004048
# 3 0.001127 -0.005485 0.009218 -0.001133 -0.004734 -0.003615
# 4 0.012588 0.006568 -0.001133 0.041368 -0.007827 -0.007287
# 5 -0.017752 0.000117 -0.004734 -0.007827 0.045733 0.014964
# 6 -0.047550 -0.004048 -0.003615 -0.007287 0.014964 0.065804
#
#
# Mechanical properties :
#
#
# Convention : Reuss Voigt Hill
#
# Bulk Modulus (GPa) = 8.78652 52.90714 30.84683
# Shear Modulus (GPa) = 16.01258 30.33557 23.17408
#
# Velocity S-wave (km/s) = 2.76745 3.80912 3.32928
# Velocity P-wave (km/s) = 3.79661 6.68216 5.43440
#
# Compressibility (1/GPa) = 0.11381065
#
# Stress axis : x y z
#
# Youngs Moduli (GPa) = 10.47657 77.26601 108.48146
#
# Poissons Ratio (x) = -0.18986 -0.12225
# Poissons Ratio (y) = -0.02574 0.59497
# Poissons Ratio (z) = -0.01181 0.42377
#
# Static dielectric constant tensor:
#      x y z
#    x 3.537480 0.131990 0.068090 
#    y 0.131990 4.123390 0.161870 
#    z 0.068090 0.161870 3.900920 
# 
# 
# High freq. dielectric constant tensor:
#      x y z
#    x 1.813740 0.010860 0.002360 
#    y 0.010860 1.815760 0.002320 
#    z 0.002360 0.002320 1.823760 
# 
# From -- ./inp_files/171709.got.cif
#   From: 2010.06.25/outbox.cif.g09.slc.cpg/sg2_86_cif.got.tgz:171709.got - 2010.06.27 13:26:56.
