data_PCOD8011768
_publ_section_title
;
Structure prediction by ZEFSAII (Michael W. Deem and Ramdas Pophale) SiO2 
 PCOD8011768
Probable space group: P -1
;
_chemical_formula_sum "Si O2"
_cell_formula_units_Z 12
_cell_length_a 9.322560
_cell_length_b 9.977228
_cell_length_c 13.072046
_cell_angle_alpha 34.284462
_cell_angle_beta 115.596968
_cell_angle_gamma 117.181663
_cell_volume 605.638310
_symmetry_space_group_name_H-M "P -1"
_symmetry_group_IT_number 2
_symmetry_cell_setting 'triclinic'
loop_
_space_group_symop_operation_xyz
x,y,z
-x,-y,-z
loop_
_atom_site_type_symbol
_atom_site_label
_atom_site_fract_x
_atom_site_fract_y
_atom_site_fract_z
Si Si1 0.341280 0.073341 0.864010
Si Si2 0.928198 0.322255 0.340838
Si Si3 0.444616 0.594089 0.531964
Si Si4 0.861837 0.267254 0.579130
Si Si5 0.762296 0.899786 0.413829
Si Si6 0.990200 0.123652 0.026220
O O1 0.366375 0.357791 0.723111
O O2 0.309352 0.032836 0.758796
O O3 0.197352 0.906801 0.985091
O O4 0.500000 0.000000 0.000000
O O5 0.822131 0.276218 0.440695
O O6 0.108367 0.275155 0.450396
O O7 0.843264 0.147598 0.336414
O O8 0.932857 0.592737 0.131302
O O9 0.500000 0.500000 0.500000
O O10 0.298368 0.743459 0.392821
O O11 0.609423 0.759909 0.523071
O O12 0.000000 0.500000 0.500000
O O13 0.921630 0.015534 0.775164
O O14 0.000000 0.000000 0.000000
#
# Coordination Sequence:
#
# PCOD8011768 Si02
#       6
#     2   2   2   2   2   2
#     4  11  22  38  63  96 123 161 216 260 310 373
#     4  11  23  44  65  93 129 168 211 260 317 377
#     4  10  21  39  64  86 125 165 209 262 312 368
#     4  12  21  42  64  93 129 165 215 261 316 374
#     4  10  23  43  64  91 132 168 207 264 316 373
#     4  12  24  37  67  97 122 167 215 262 311 374
#
# _framework density 19.813806
#
# number of rings (size 3 to 8) (size 9 to 14) (size 15 to 20)
#    0.000    1.000    5.000    2.000    4.667    1.333 
#    3.000    0.833    0.000    0.000    0.000    0.000 
#    0.000    0.000    0.000    0.000    0.000    0.000 
#
# Total GULP energy -148749.901026 kJ/mol
# GULP energy per Si atom -12395.825086 kJ/mol
# Density = 1.976871 g / cm^3
# Si number density = 19.813806 Si / 1000 Ang^3
#
#
#
# Elastic Constant Matrix: (Units=GPa)
#
#
# Indices 1 2 3 4 5 6 
#
# 1 140.1039 41.5843 36.7215 0.0669 7.3735 4.1737
# 2 41.5843 98.5404 55.1346 -6.5402 1.5740 5.7125
# 3 36.7215 55.1346 130.8944 -10.5137 4.3925 3.9082
# 4 0.0669 -6.5402 -10.5137 35.5453 2.1629 0.4180
# 5 7.3735 1.5740 4.3925 2.1629 36.4804 0.5779
# 6 4.1737 5.7125 3.9082 0.4180 0.5779 26.9795
#
#
#
# Elastic Compliance Matrix: (Units=1/GPa)
#
#
# Indices 1 2 3 4 5 6 
#
# 1 0.008384 -0.002909 -0.001130 -0.000796 -0.001378 -0.000476
# 2 -0.002909 0.014422 -0.005130 0.001131 0.000546 -0.001890
# 3 -0.001130 -0.005130 0.010330 0.002173 -0.000919 -0.000249
# 4 -0.000796 0.001131 0.002173 0.029109 -0.001862 -0.000842
# 5 -0.001378 0.000546 -0.000919 -0.001862 0.027893 -0.000338
# 6 -0.000476 -0.001890 -0.000249 -0.000842 -0.000338 0.037595
#
#
# Mechanical properties :
#
#
# Convention : Reuss Voigt Hill
#
# Bulk Modulus (GPa) = 67.57467 70.71326 69.14397
# Shear Modulus (GPa) = 33.11166 35.54094 34.32630
#
# Velocity S-wave (km/s) = 4.09239 4.23986 4.16678
# Velocity P-wave (km/s) = 7.51726 7.72884 7.62378
#
# Compressibility (1/GPa) = 0.01479844
#
# Stress axis : x y z
#
# Youngs Moduli (GPa) = 119.27011 69.34001 96.80248
#
# Poissons Ratio (x) = 0.20171 0.10942
# Poissons Ratio (y) = 0.34696 0.49656
# Poissons Ratio (z) = 0.13481 0.35569
#
# Static dielectric constant tensor:
#      x y z
#    x 4.065240 0.053090 -0.179140 
#    y 0.053090 3.506620 -0.169260 
#    z -0.179140 -0.169260 4.038250 
# 
# 
# High freq. dielectric constant tensor:
#      x y z
#    x 1.786490 0.002300 -0.003100 
#    y 0.002300 1.755610 -0.011490 
#    z -0.003100 -0.011490 1.774170 
# 
# From -- ./inp_files/166405.got.cif
#   From: 2010.06.25/outbox.cif.g09.slc.cpg/sg2_84_cif.got.tgz:166405.got - 2010.06.27 13:26:56.
