data_PCOD8011152
_publ_section_title
;
Structure prediction by ZEFSAII (Michael W. Deem and Ramdas Pophale) SiO2 
 PCOD8011152
Probable space group: P -1
;
_chemical_formula_sum "Si O2"
_cell_formula_units_Z 14
_cell_length_a 19.561384
_cell_length_b 8.333140
_cell_length_c 9.043284
_cell_angle_alpha 84.474482
_cell_angle_beta 51.937477
_cell_angle_gamma 44.003775
_cell_volume 623.063527
_symmetry_space_group_name_H-M "P -1"
_symmetry_group_IT_number 2
_symmetry_cell_setting 'triclinic'
loop_
_space_group_symop_operation_xyz
x,y,z
-x,-y,-z
loop_
_atom_site_type_symbol
_atom_site_label
_atom_site_fract_x
_atom_site_fract_y
_atom_site_fract_z
Si Si1 0.254701 0.364778 0.709446
Si Si2 0.540633 0.133703 0.286917
Si Si3 0.549951 0.462471 0.103170
Si Si4 0.017123 0.211752 0.748356
Si Si5 0.760594 0.665439 0.799370
Si Si6 0.172397 0.768952 0.355574
Si Si7 0.754407 0.865571 0.507833
O O1 0.359599 0.360635 0.542453
O O2 0.207161 0.351502 0.622117
O O3 0.346760 0.082500 0.704719
O O4 0.099741 0.672969 0.978369
O O5 0.551237 0.306361 0.222638
O O6 0.599582 0.938116 0.085480
O O7 0.425282 0.785266 0.311173
O O8 0.500000 0.500000 0.000000
O O9 0.729380 0.257467 0.874837
O O10 0.111866 0.209599 0.697903
O O11 0.916785 0.420520 0.718271
O O12 0.147733 0.873732 0.547282
O O13 0.732269 0.548787 0.748990
O O14 0.777167 0.789388 0.656796
O O15 0.000000 0.000000 0.500000
#
# Coordination Sequence:
#
# PCOD8011152 Si02
#       7
#     2   2   2   2   2   2   2
#     4  10  24  40  64  89 129 171 207 249 320 389
#     4  10  22  45  63  90 126 168 208 261 318 372
#     4  12  23  39  69  95 125 158 216 272 308 358
#     4  10  21  42  59  91 133 167 204 262 318 376
#     4  10  21  38  68  89 124 164 219 261 312 363
#     4  10  22  40  64  96 124 163 210 263 317 369
#     4  12  23  38  65  97 124 163 219 261 312 369
#
# _framework density 22.469619999999999
#
# number of rings (size 3 to 8) (size 9 to 14) (size 15 to 20)
#    0.000    1.429    2.857    1.714    2.000    6.286 
#    0.000    4.286    0.000    0.000    0.000    0.000 
#    0.000    0.000    0.000    0.000    0.000    0.000 
#
# Total GULP energy -173587.740923 kJ/mol
# GULP energy per Si atom -12399.124352 kJ/mol
# Density = 2.241848 g / cm^3
# Si number density = 22.469620 Si / 1000 Ang^3
#
#
#
# Elastic Constant Matrix: (Units=GPa)
#
#
# Indices 1 2 3 4 5 6 
#
# 1 83.5969 11.5995 51.9922 -4.5710 -10.8181 11.0951
# 2 11.5995 58.7276 29.1613 -3.2357 -3.8975 10.2165
# 3 51.9922 29.1613 175.7066 -0.4777 -13.5561 14.8456
# 4 -4.5710 -3.2357 -0.4777 23.4839 9.3310 6.7506
# 5 -10.8181 -3.8975 -13.5561 9.3310 47.0374 -1.9711
# 6 11.0951 10.2165 14.8456 6.7506 -1.9711 30.7262
#
#
#
# Elastic Compliance Matrix: (Units=1/GPa)
#
#
# Indices 1 2 3 4 5 6 
#
# 1 0.015463 0.000022 -0.004091 0.003575 0.001490 -0.004304
# 2 0.000022 0.019715 -0.002763 0.004596 -0.000332 -0.006259
# 3 -0.004091 -0.002763 0.007525 -0.001249 0.001210 -0.000888
# 4 0.003575 0.004596 -0.001249 0.051993 -0.010070 -0.014284
# 5 0.001490 -0.000332 0.001210 -0.010070 0.024036 0.002742
# 6 -0.004304 -0.006259 -0.000888 -0.014284 0.002742 0.039924
#
#
# Mechanical properties :
#
#
# Convention : Reuss Voigt Hill
#
# Bulk Modulus (GPa) = 34.43528 55.94857 45.19193
# Shear Modulus (GPa) = 27.47244 35.26803 31.37024
#
# Velocity S-wave (km/s) = 3.50043 3.96610 3.74052
# Velocity P-wave (km/s) = 5.62991 6.77694 6.22988
#
# Compressibility (1/GPa) = 0.02903998
#
# Stress axis : x y z
#
# Youngs Moduli (GPa) = 64.67095 50.72175 132.88549
#
# Poissons Ratio (x) = -0.00111 0.54361
# Poissons Ratio (y) = -0.00141 0.36713
# Poissons Ratio (z) = 0.26456 0.14013
#
# Static dielectric constant tensor:
#      x y z
#    x 4.011420 0.251390 0.160420 
#    y 0.251390 3.949720 0.150240 
#    z 0.160420 0.150240 4.396720 
# 
# 
# High freq. dielectric constant tensor:
#      x y z
#    x 1.880090 0.009880 -0.000870 
#    y 0.009880 1.863960 0.003630 
#    z -0.000870 0.003630 1.903610 
# 
# From -- ./inp_files/159953.got.cif
#   From: 2010.06.25/outbox.cif.g09.slc.cpg/sg2_80_cif.got.tgz:159953.got - 2010.06.27 13:26:56.
