data_PCOD8011676
_publ_section_title
;
Structure prediction by ZEFSAII (Michael W. Deem and Ramdas Pophale) SiO2 
 PCOD8011676
Probable space group: P -1
;
_chemical_formula_sum "Si O2"
_cell_formula_units_Z 16
_cell_length_a 13.656286
_cell_length_b 14.532839
_cell_length_c 14.040192
_cell_angle_alpha 149.993560
_cell_angle_beta 147.190942
_cell_angle_gamma 44.957175
_cell_volume 752.961987
_symmetry_space_group_name_H-M "P -1"
_symmetry_group_IT_number 2
_symmetry_cell_setting 'triclinic'
loop_
_space_group_symop_operation_xyz
x,y,z
-x,-y,-z
loop_
_atom_site_type_symbol
_atom_site_label
_atom_site_fract_x
_atom_site_fract_y
_atom_site_fract_z
Si Si1 0.011383 0.714682 0.174916
Si Si2 0.279108 0.430153 0.612792
Si Si3 0.398296 0.803925 0.963781
Si Si4 0.213072 0.071202 0.687884
Si Si5 0.112436 0.528847 0.745486
Si Si6 0.855020 0.172111 0.810796
Si Si7 0.976954 0.159342 0.394491
Si Si8 0.466963 0.057911 0.415881
O O1 0.828593 0.805656 0.143133
O O2 0.029611 0.716259 0.076690
O O3 0.181672 0.847290 0.477738
O O4 0.000000 0.500000 0.000000
O O5 0.394137 0.584857 0.784028
O O6 0.278259 0.485932 0.773397
O O7 0.354553 0.235762 0.481384
O O8 0.067759 0.414388 0.401250
O O9 0.240427 0.841838 0.792937
O O10 0.585593 0.869639 0.126555
O O11 0.363247 0.900311 0.123978
O O12 0.053026 0.105462 0.511178
O O13 0.072864 0.356811 0.627434
O O14 0.185823 0.703866 0.022267
O O15 0.654465 0.097899 0.546612
O O16 0.961557 0.994116 0.768109
O O17 0.500000 0.000000 0.500000
#
# Coordination Sequence:
#
# PCOD8011676 Si02
#       8
#     2   2   2   2   2   2   2   2
#     4  10  21  39  63  92 121 162 204 254 311 365
#     4  10  24  37  60  90 125 166 209 255 303 368
#     4  11  23  41  64  92 125 164 206 258 306 364
#     4  10  22  41  64  90 122 157 210 253 306 372
#     4  10  21  40  58  89 125 165 209 252 306 364
#     4  11  22  38  63  88 123 165 199 256 311 362
#     4  10  21  40  65  88 125 165 203 254 309 363
#     4  12  24  38  60  95 126 161 208 251 306 367
#
# _framework density 21.249413000000001
#
# number of rings (size 3 to 8) (size 9 to 14) (size 15 to 20)
#    0.000    1.500    2.500    3.000    3.500    1.000 
#    0.000   10.625    0.000    5.250    0.000    0.000 
#    0.000    0.000    0.000    0.000    0.000    0.000 
#
# Total GULP energy -198248.525604 kJ/mol
# GULP energy per Si atom -12390.532850 kJ/mol
# Density = 2.120105 g / cm^3
# Si number density = 21.249413 Si / 1000 Ang^3
#
#
#
# Elastic Constant Matrix: (Units=GPa)
#
#
# Indices 1 2 3 4 5 6 
#
# 1 78.2440 14.8626 13.4320 -4.7467 12.0144 -13.2260
# 2 14.8626 89.6594 27.1735 21.7849 8.2603 -9.5541
# 3 13.4320 27.1735 68.0069 7.1477 13.3307 -2.0909
# 4 -4.7467 21.7849 7.1477 31.6085 -5.3742 -7.1286
# 5 12.0144 8.2603 13.3307 -5.3742 36.5723 -3.0088
# 6 -13.2260 -9.5541 -2.0909 -7.1286 -3.0088 17.9166
#
#
#
# Elastic Compliance Matrix: (Units=1/GPa)
#
#
# Indices 1 2 3 4 5 6 
#
# 1 0.016595 -0.002184 -0.002374 0.007217 -0.001934 0.013356
# 2 -0.002184 0.015713 -0.004191 -0.010270 -0.002670 0.001743
# 3 -0.002374 -0.004191 0.018222 -0.003527 -0.005782 -0.004235
# 4 0.007217 -0.010270 -0.003527 0.046678 0.009710 0.019642
# 5 -0.001934 -0.002670 -0.005782 0.009710 0.032594 0.005811
# 6 0.013356 0.001743 -0.004235 0.019642 0.005811 0.074900
#
#
# Mechanical properties :
#
#
# Convention : Reuss Voigt Hill
#
# Bulk Modulus (GPa) = 30.27299 38.53852 34.40575
# Shear Modulus (GPa) = 21.44006 29.24896 25.34451
#
# Velocity S-wave (km/s) = 3.17988 3.71409 3.45732
# Velocity P-wave (km/s) = 5.26874 6.04717 5.67133
#
# Compressibility (1/GPa) = 0.03303274
#
# Stress axis : x y z
#
# Youngs Moduli (GPa) = 60.25808 63.64356 54.87982
#
# Poissons Ratio (x) = 0.13898 0.13029
# Poissons Ratio (y) = 0.13159 0.22998
# Poissons Ratio (z) = 0.14306 0.26670
#
# Static dielectric constant tensor:
#      x y z
#    x 4.000870 -0.037360 -0.151820 
#    y -0.037360 3.979170 0.114040 
#    z -0.151820 0.114040 3.965910 
# 
# 
# High freq. dielectric constant tensor:
#      x y z
#    x 1.842310 -0.008770 0.003160 
#    y -0.008770 1.823750 0.024070 
#    z 0.003160 0.024070 1.834420 
# 
# From -- ./inp_files/534645.got.cif
#   From: 2010.06.25/outbox.cif.g09.slc.cpg/sg2_268_cif.got.tgz:534645.got - 2010.06.27 13:26:56.
