data_PCOD8011174
_publ_section_title
;
Structure prediction by ZEFSAII (Michael W. Deem and Ramdas Pophale) SiO2 
 PCOD8011174
Probable space group: P -1
;
_chemical_formula_sum "Si O2"
_cell_formula_units_Z 12
_cell_length_a 9.159404
_cell_length_b 8.381816
_cell_length_c 9.280844
_cell_angle_alpha 106.336762
_cell_angle_beta 99.107433
_cell_angle_gamma 49.204268
_cell_volume 517.306293
_symmetry_space_group_name_H-M "P -1"
_symmetry_group_IT_number 2
_symmetry_cell_setting 'triclinic'
loop_
_space_group_symop_operation_xyz
x,y,z
-x,-y,-z
loop_
_atom_site_type_symbol
_atom_site_label
_atom_site_fract_x
_atom_site_fract_y
_atom_site_fract_z
Si Si1 0.390633 0.907414 0.856699
Si Si2 0.300868 0.721029 0.574029
Si Si3 0.105905 0.036637 0.370213
Si Si4 0.546098 0.034768 0.673418
Si Si5 0.392463 0.403630 0.937666
Si Si6 0.019207 0.837963 0.074733
O O1 0.346397 0.756492 0.748898
O O2 0.496736 0.932893 0.756651
O O3 0.178666 0.124485 0.926745
O O4 0.529886 0.791636 0.986586
O O5 0.500000 0.500000 0.500000
O O6 0.110703 0.739222 0.567920
O O7 0.233369 0.914480 0.502876
O O8 0.224145 0.089009 0.311564
O O9 0.091119 0.869726 0.243233
O O10 0.430619 0.291081 0.758396
O O11 0.500000 0.000000 0.500000
O O12 0.500000 0.500000 0.000000
O O13 0.167543 0.593883 0.976868
O O14 0.000000 0.000000 0.000000
#
# Coordination Sequence:
#
# PCOD8011174 Si02
#       6
#     2   2   2   2   2   2
#     4  11  24  43  70 101 143 177 229 300 344 402
#     4  10  21  38  68  99 129 182 235 275 336 415
#     4  10  21  40  64  94 139 174 226 281 339 403
#     4  12  25  45  67 105 152 183 219 294 358 407
#     4  12  24  44  76 100 131 189 241 278 344 421
#     4  11  22  42  72 102 129 179 245 290 333 410
#
# _framework density 23.197088000000001
#
# number of rings (size 3 to 8) (size 9 to 14) (size 15 to 20)
#    0.000    1.000    5.000    1.500    0.000    0.667 
#    0.000    2.500    0.000    0.000    0.000    0.000 
#    0.000    0.000    0.000    0.000    0.000    0.000 
#
# Total GULP energy -148716.900823 kJ/mol
# GULP energy per Si atom -12393.075069 kJ/mol
# Density = 2.314429 g / cm^3
# Si number density = 23.197088 Si / 1000 Ang^3
#
#
#
# Elastic Constant Matrix: (Units=GPa)
#
#
# Indices 1 2 3 4 5 6 
#
# 1 178.9382 64.4599 41.8435 12.5521 -41.3490 -37.0312
# 2 64.4599 113.7907 50.1631 22.5708 -14.8205 -44.9536
# 3 41.8435 50.1631 138.5673 16.5692 -1.6960 -15.3853
# 4 12.5521 22.5708 16.5692 38.7532 -2.9590 -14.0589
# 5 -41.3490 -14.8205 -1.6960 -2.9590 43.9993 7.9746
# 6 -37.0312 -44.9536 -15.3853 -14.0589 7.9746 47.2665
#
#
#
# Elastic Compliance Matrix: (Units=1/GPa)
#
#
# Indices 1 2 3 4 5 6 
#
# 1 0.009094 -0.002368 -0.001525 0.000876 0.007127 0.003434
# 2 -0.002368 0.017498 -0.003847 -0.003199 0.001057 0.012405
# 3 -0.001525 -0.003847 0.009052 -0.002085 -0.002127 -0.002168
# 4 0.000876 -0.003199 -0.002085 0.030472 0.000641 0.005921
# 5 0.007127 0.001057 -0.002127 0.000641 0.029542 0.001102
# 6 0.003434 0.012405 -0.002168 0.005921 0.001102 0.036514
#
#
# Mechanical properties :
#
#
# Convention : Reuss Voigt Hill
#
# Bulk Modulus (GPa) = 49.59132 82.69212 66.14172
# Shear Modulus (GPa) = 32.38877 44.32576 38.35727
#
# Velocity S-wave (km/s) = 3.74069 4.37605 4.07078
# Velocity P-wave (km/s) = 6.33101 7.82676 7.11828
#
# Compressibility (1/GPa) = 0.02016482
#
# Stress axis : x y z
#
# Youngs Moduli (GPa) = 109.95792 57.14974 110.46865
#
# Poissons Ratio (x) = 0.13534 0.16848
# Poissons Ratio (y) = 0.26040 0.42493
# Poissons Ratio (z) = 0.16770 0.21983
#
# Static dielectric constant tensor:
#      x y z
#    x 4.530830 -0.374440 -0.121400 
#    y -0.374440 4.020040 0.117900 
#    z -0.121400 0.117900 4.787760 
# 
# 
# High freq. dielectric constant tensor:
#      x y z
#    x 1.929880 -0.025830 -0.015280 
#    y -0.025830 1.878430 -0.001400 
#    z -0.015280 -0.001400 1.939050 
# 
# From -- ./inp_files/156426.got.cif
#   From: 2010.06.25/outbox.cif.g09.slc.cpg/sg2_79_cif.got.tgz:156426.got - 2010.06.27 13:26:56.
