data_PCOD8011884
_publ_section_title
;
Structure prediction by ZEFSAII (Michael W. Deem and Ramdas Pophale) SiO2 
 PCOD8011884
Probable space group: P -1
;
_chemical_formula_sum "Si O2"
_cell_formula_units_Z 10
_cell_length_a 9.287780
_cell_length_b 11.749474
_cell_length_c 8.748578
_cell_angle_alpha 144.560235
_cell_angle_beta 106.033412
_cell_angle_gamma 89.638478
_cell_volume 489.359843
_symmetry_space_group_name_H-M "P -1"
_symmetry_group_IT_number 2
_symmetry_cell_setting 'triclinic'
loop_
_space_group_symop_operation_xyz
x,y,z
-x,-y,-z
loop_
_atom_site_type_symbol
_atom_site_label
_atom_site_fract_x
_atom_site_fract_y
_atom_site_fract_z
Si Si1 0.773646 0.364580 0.660799
Si Si2 0.056344 0.210958 0.645021
Si Si3 0.830310 0.861004 0.721988
Si Si4 0.642713 0.450931 0.409688
Si Si5 0.457089 0.997202 0.161437
O O1 0.755774 0.410662 0.528241
O O2 0.903851 0.258565 0.595439
O O3 0.605383 0.193072 0.497375
O O4 0.821018 0.586175 0.005394
O O5 0.151674 0.174166 0.489124
O O6 0.000000 0.000000 0.500000
O O7 0.755606 0.636247 0.538241
O O8 0.712539 0.984436 0.839235
O O9 0.000000 0.000000 0.000000
O O10 0.500000 0.500000 0.500000
O O11 0.563442 0.239066 0.047438
O O12 0.500000 0.000000 0.000000
#
# Coordination Sequence:
#
# PCOD8011884 Si02
#       5
#     2   2   2   2   2
#     4  10  23  43  66  95 134 175 218 263 332 390
#     4  11  26  43  65  94 140 177 213 273 325 385
#     4  12  24  40  69 102 128 171 223 269 329 385
#     4  11  22  41  72  95 128 171 216 277 323 383
#     4  10  21  39  64  97 129 167 216 264 323 392
#
# _framework density 20.434858999999999
#
# number of rings (size 3 to 8) (size 9 to 14) (size 15 to 20)
#    0.000    1.200    4.000    3.600    2.800    7.200 
#    0.000    2.000    0.000    0.000    0.000    0.000 
#    0.000    0.000    0.000    0.000    0.000    0.000 
#
# Total GULP energy -123988.358166 kJ/mol
# GULP energy per Si atom -12398.835817 kJ/mol
# Density = 2.038835 g / cm^3
# Si number density = 20.434859 Si / 1000 Ang^3
#
#
#
# Elastic Constant Matrix: (Units=GPa)
#
#
# Indices 1 2 3 4 5 6 
#
# 1 149.5742 53.2217 81.0408 15.0225 -4.7241 6.6506
# 2 53.2217 125.6466 65.5099 26.4292 -1.9727 15.3130
# 3 81.0408 65.5099 168.8922 34.0910 9.0396 8.0331
# 4 15.0225 26.4292 34.0910 42.2133 5.0682 1.8338
# 5 -4.7241 -1.9727 9.0396 5.0682 42.5806 4.2823
# 6 6.6506 15.3130 8.0331 1.8338 4.2823 39.6034
#
#
#
# Elastic Compliance Matrix: (Units=1/GPa)
#
#
# Indices 1 2 3 4 5 6 
#
# 1 0.009607 -0.002098 -0.004079 0.000989 0.001738 -0.000208
# 2 -0.002098 0.011562 -0.002484 -0.004538 0.001732 -0.003591
# 3 -0.004079 -0.002484 0.009908 -0.004745 -0.002115 0.000084
# 4 0.000989 -0.004538 -0.004745 0.030289 -0.002845 0.001456
# 5 0.001738 0.001732 -0.002115 -0.002845 0.024856 -0.003088
# 6 -0.000208 -0.003591 0.000084 0.001456 -0.003088 0.026924
#
#
# Mechanical properties :
#
#
# Convention : Reuss Voigt Hill
#
# Bulk Modulus (GPa) = 72.69403 93.73976 83.21689
# Shear Modulus (GPa) = 37.02269 41.16884 39.09577
#
# Velocity S-wave (km/s) = 4.26107 4.49334 4.37875
# Velocity P-wave (km/s) = 7.73691 8.53769 8.14715
#
# Compressibility (1/GPa) = 0.01375629
#
# Stress axis : x y z
#
# Youngs Moduli (GPa) = 104.09205 86.49013 100.92411
#
# Poissons Ratio (x) = 0.18147 0.41164
# Poissons Ratio (y) = 0.21840 0.25067
# Poissons Ratio (z) = 0.42456 0.21482
#
# Static dielectric constant tensor:
#      x y z
#    x 3.761030 -0.071820 0.149720 
#    y -0.071820 3.797670 0.367170 
#    z 0.149720 0.367170 4.464280 
# 
# 
# High freq. dielectric constant tensor:
#      x y z
#    x 1.806650 -0.007370 0.006260 
#    y -0.007370 1.788620 0.024050 
#    z 0.006260 0.024050 1.822100 
# 
# From -- ./inp_files/16333.got.cif
#   From: 2010.06.25/outbox.cif.g09.slc.cpg/sg2_9_cif.got.tgz:16333.got - 2010.06.27 13:26:56.
