data_PCOD8011136
_publ_section_title
;
Structure prediction by ZEFSAII (Michael W. Deem and Ramdas Pophale) SiO2 
 PCOD8011136
Probable space group: P -1
;
_chemical_formula_sum "Si O2"
_cell_formula_units_Z 16
_cell_length_a 20.956275
_cell_length_b 8.737071
_cell_length_c 17.204322
_cell_angle_alpha 136.005426
_cell_angle_beta 151.795762
_cell_angle_gamma 61.682166
_cell_volume 903.593773
_symmetry_space_group_name_H-M "P -1"
_symmetry_group_IT_number 2
_symmetry_cell_setting 'triclinic'
loop_
_space_group_symop_operation_xyz
x,y,z
-x,-y,-z
loop_
_atom_site_type_symbol
_atom_site_label
_atom_site_fract_x
_atom_site_fract_y
_atom_site_fract_z
Si Si1 0.884782 0.610817 0.414832
Si Si2 0.985824 0.893168 0.361158
Si Si3 0.697017 0.214591 0.951308
Si Si4 0.888277 0.593022 0.880827
Si Si5 0.719610 0.390769 0.871815
Si Si6 0.003291 0.175641 0.234316
Si Si7 0.965439 0.546600 0.779050
Si Si8 0.431700 0.681047 0.475318
O O1 0.000000 0.500000 0.500000
O O2 0.860472 0.662325 0.497550
O O3 0.732762 0.425901 0.134031
O O4 0.963521 0.887906 0.565513
O O5 0.084636 0.742889 0.405155
O O6 0.805813 0.696055 0.079262
O O7 0.000000 0.000000 0.500000
O O8 0.649831 0.287473 0.844763
O O9 0.554033 0.960290 0.736958
O O10 0.849115 0.190266 0.092893
O O11 0.725009 0.420316 0.682448
O O12 0.871877 0.550805 0.755422
O O13 0.000000 0.500000 0.000000
O O14 0.959154 0.885571 0.083241
O O15 0.588316 0.300433 0.632396
O O16 0.847517 0.306783 0.953655
O O17 0.074555 0.307194 0.276814
O O18 0.500000 0.500000 0.500000
#
# Coordination Sequence:
#
# PCOD8011136 Si02
#       8
#     2   2   2   2   2   2   2   2
#     4  10  18  30  52  84 115 144 187 237 283 332
#     4  10  16  32  57  86 111 141 190 239 280 326
#     4  10  20  35  53  83 118 148 185 235 288 337
#     4  12  21  38  58  83 114 153 193 236 282 342
#     4   9  19  35  54  81 113 142 188 226 287 328
#     4  10  19  35  56  85 115 144 191 243 281 332
#     4   9  20  34  57  86 109 147 192 235 286 331
#     4  12  23  36  55  83 119 150 188 234 285 340
#
# _framework density 17.707073000000001
#
# number of rings (size 3 to 8) (size 9 to 14) (size 15 to 20)
#    0.750    1.000    3.750    3.000    1.750    0.000 
#    0.000    0.000    0.000    3.750    0.000    0.000 
#    0.000    0.000    0.000    0.000    0.000    0.000 
#
# Total GULP energy -198253.649177 kJ/mol
# GULP energy per Si atom -12390.853074 kJ/mol
# Density = 1.766677 g / cm^3
# Si number density = 17.707073 Si / 1000 Ang^3
#
#
#
# Elastic Constant Matrix: (Units=GPa)
#
#
# Indices 1 2 3 4 5 6 
#
# 1 115.8380 38.8962 55.8820 -0.4960 -16.7924 20.4223
# 2 38.8962 89.6404 42.5516 13.5439 0.1391 22.4485
# 3 55.8820 42.5516 101.4128 19.4872 -9.6720 11.5078
# 4 -0.4960 13.5439 19.4872 32.2430 2.4811 -1.6032
# 5 -16.7924 0.1391 -9.6720 2.4811 32.1048 -0.3707
# 6 20.4223 22.4485 11.5078 -1.6032 -0.3707 30.5968
#
#
#
# Elastic Compliance Matrix: (Units=1/GPa)
#
#
# Indices 1 2 3 4 5 6 
#
# 1 0.014331 -0.002535 -0.006700 0.004702 0.005069 -0.004878
# 2 -0.002535 0.017433 -0.004006 -0.005254 -0.002316 -0.009895
# 3 -0.006700 -0.004006 0.017112 -0.008917 0.002363 0.000537
# 4 0.004702 -0.005254 -0.008917 0.039230 -0.003166 0.006088
# 5 0.005069 -0.002316 0.002363 -0.003166 0.034739 -0.002317
# 6 -0.004878 -0.009895 0.000537 0.006088 -0.002317 0.043288
#
#
# Mechanical properties :
#
#
# Convention : Reuss Voigt Hill
#
# Bulk Modulus (GPa) = 44.65607 64.61677 54.63642
# Shear Modulus (GPa) = 24.99027 30.29301 27.64164
#
# Velocity S-wave (km/s) = 3.76082 4.14065 3.95530
# Velocity P-wave (km/s) = 6.64323 7.70917 7.19596
#
# Compressibility (1/GPa) = 0.02239337
#
# Stress axis : x y z
#
# Youngs Moduli (GPa) = 69.77946 57.36340 58.43997
#
# Poissons Ratio (x) = 0.14540 0.39154
# Poissons Ratio (y) = 0.17687 0.23413
# Poissons Ratio (z) = 0.46751 0.22982
#
# Static dielectric constant tensor:
#      x y z
#    x 3.174580 0.056570 -0.434230 
#    y 0.056570 3.136340 0.100390 
#    z -0.434230 0.100390 3.207390 
# 
# 
# High freq. dielectric constant tensor:
#      x y z
#    x 1.675640 0.028810 -0.025560 
#    y 0.028810 1.687540 0.021440 
#    z -0.025560 0.021440 1.667270 
# 
# From -- ./inp_files/577489.got.cif
#   From: 2010.06.25/outbox.cif.g09.slc.cpg/sg2_289_cif.got.tgz:577489.got - 2010.06.27 13:26:56.
