data_PCOD8011118
_publ_section_title
;
Structure prediction by ZEFSAII (Michael W. Deem and Ramdas Pophale) SiO2 
 PCOD8011118
Probable space group: P -1
;
_chemical_formula_sum "Si O2"
_cell_formula_units_Z 16
_cell_length_a 8.117432
_cell_length_b 23.797825
_cell_length_c 8.762654
_cell_angle_alpha 150.118017
_cell_angle_beta 130.031823
_cell_angle_gamma 47.446563
_cell_volume 613.755123
_symmetry_space_group_name_H-M "P -1"
_symmetry_group_IT_number 2
_symmetry_cell_setting 'triclinic'
loop_
_space_group_symop_operation_xyz
x,y,z
-x,-y,-z
loop_
_atom_site_type_symbol
_atom_site_label
_atom_site_fract_x
_atom_site_fract_y
_atom_site_fract_z
Si Si1 0.374770 0.310257 0.447813
Si Si2 0.816467 0.303082 0.857504
Si Si3 0.255417 0.354611 0.141190
Si Si4 0.128720 0.610590 0.581591
Si Si5 0.083919 0.094365 0.358927
Si Si6 0.932512 0.190063 0.193398
Si Si7 0.666196 0.933038 0.070123
Si Si8 0.448028 0.896584 0.328095
O O1 0.571597 0.348609 0.739832
O O2 0.370907 0.351829 0.369162
O O3 0.138401 0.374031 0.540440
O O4 0.423671 0.167574 0.141992
O O5 0.923050 0.159920 0.555887
O O6 0.796125 0.327335 0.081753
O O7 0.992180 0.363704 0.031892
O O8 0.266093 0.470780 0.329942
O O9 0.395522 0.238232 0.856242
O O10 0.187299 0.673850 0.613327
O O11 0.344865 0.048947 0.475100
O O12 0.062495 0.189526 0.429614
O O13 0.000000 0.000000 0.000000
O O14 0.750653 0.116656 0.934552
O O15 0.090247 0.127336 0.999579
O O16 0.673257 0.033315 0.431360
O O17 0.500000 0.000000 0.000000
#
# Coordination Sequence:
#
# PCOD8011118 Si02
#       8
#     2   2   2   2   2   2   2   2
#     4  10  21  39  67  95 126 165 212 261 318 378
#     4  10  21  38  67  94 124 171 209 261 317 375
#     4  10  23  43  63  95 129 163 218 266 308 380
#     4  10  24  42  65  94 131 164 220 266 307 376
#     4  11  24  41  64  95 134 164 212 263 316 387
#     4  11  25  42  65  96 129 170 214 260 323 378
#     4  11  23  41  65  92 132 164 207 265 315 386
#     4  11  24  42  66  93 128 171 208 259 328 376
#
# _framework density 26.069030000000001
#
# number of rings (size 3 to 8) (size 9 to 14) (size 15 to 20)
#    0.000    1.500    1.250    3.375    1.750    7.500 
#    0.000    2.500    2.750    0.000    0.000    0.000 
#    0.000    0.000    0.000    0.000    0.000    0.000 
#
# Total GULP energy -198323.556255 kJ/mol
# GULP energy per Si atom -12395.222266 kJ/mol
# Density = 2.600970 g / cm^3
# Si number density = 26.069030 Si / 1000 Ang^3
#
#
#
# Elastic Constant Matrix: (Units=GPa)
#
#
# Indices 1 2 3 4 5 6 
#
# 1 59.0713 35.6128 24.6172 -2.4177 10.5497 -4.0808
# 2 35.6128 170.7317 63.9870 -12.1036 23.0617 -3.1996
# 3 24.6172 63.9870 101.6650 -8.1474 9.5611 -11.4007
# 4 -2.4177 -12.1036 -8.1474 50.1351 -11.1035 14.4507
# 5 10.5497 23.0617 9.5611 -11.1035 37.1484 -4.4741
# 6 -4.0808 -3.1996 -11.4007 14.4507 -4.4741 37.0170
#
#
#
# Elastic Compliance Matrix: (Units=1/GPa)
#
#
# Indices 1 2 3 4 5 6 
#
# 1 0.020463 -0.002793 -0.002827 -0.001292 -0.003590 0.001214
# 2 -0.002793 0.008634 -0.004564 0.000979 -0.003310 -0.001750
# 3 -0.002827 -0.004564 0.013748 0.000093 0.000554 0.003559
# 4 -0.001292 0.000979 0.000093 0.023926 0.005843 -0.008663
# 5 -0.003590 -0.003310 0.000554 0.005843 0.031723 0.001042
# 6 0.001214 -0.001750 0.003559 -0.008663 0.001042 0.031601
#
#
# Mechanical properties :
#
#
# Convention : Reuss Voigt Hill
#
# Bulk Modulus (GPa) = 44.49089 64.43356 54.46223
# Shear Modulus (GPa) = 31.65455 38.67684 35.16570
#
# Velocity S-wave (km/s) = 3.48840 3.85597 3.67678
# Velocity P-wave (km/s) = 5.77312 6.67794 6.24195
#
# Compressibility (1/GPa) = 0.02247651
#
# Stress axis : x y z
#
# Youngs Moduli (GPa) = 48.86985 115.81983 72.73839
#
# Poissons Ratio (x) = 0.32346 0.20562
# Poissons Ratio (y) = 0.13648 0.33201
# Poissons Ratio (z) = 0.13815 0.52865
#
# Static dielectric constant tensor:
#      x y z
#    x 4.486050 -0.566250 -0.001700 
#    y -0.566250 4.764770 0.230090 
#    z -0.001700 0.230090 5.052530 
# 
# 
# High freq. dielectric constant tensor:
#      x y z
#    x 2.024930 -0.015800 0.013150 
#    y -0.015800 2.072000 -0.001410 
#    z 0.013150 -0.001410 2.046420 
# 
# From -- ./inp_files/226836.got.cif
#   From: 2010.06.25/outbox.cif.g09.slc.cpg/sg2_114_cif.got.tgz:226836.got - 2010.06.27 13:26:56.
