data_PCOD8011515
_publ_section_title
;
Structure prediction by ZEFSAII (Michael W. Deem and Ramdas Pophale) SiO2 
 PCOD8011515
Probable space group: P -1
;
_chemical_formula_sum "Si O2"
_cell_formula_units_Z 16
_cell_length_a 9.173324
_cell_length_b 14.816372
_cell_length_c 12.014813
_cell_angle_alpha 73.852188
_cell_angle_beta 35.883358
_cell_angle_gamma 58.100173
_cell_volume 774.791307
_symmetry_space_group_name_H-M "P -1"
_symmetry_group_IT_number 2
_symmetry_cell_setting 'triclinic'
loop_
_space_group_symop_operation_xyz
x,y,z
-x,-y,-z
loop_
_atom_site_type_symbol
_atom_site_label
_atom_site_fract_x
_atom_site_fract_y
_atom_site_fract_z
Si Si1 0.608426 0.723013 0.635345
Si Si2 0.095256 0.408847 0.716854
Si Si3 0.121198 0.207862 0.366490
Si Si4 0.458907 0.266883 0.753009
Si Si5 0.231285 0.701421 0.056532
Si Si6 0.258279 0.345114 0.085330
Si Si7 0.679804 0.034730 0.656938
Si Si8 0.559516 0.889548 0.451643
O O1 0.829397 0.733374 0.578453
O O2 0.369215 0.712396 0.853859
O O3 0.440306 0.835363 0.628638
O O4 0.775209 0.621266 0.478851
O O5 0.006923 0.533491 0.752734
O O6 0.320410 0.323415 0.700188
O O7 0.800456 0.404416 0.902194
O O8 0.181339 0.255156 0.201734
O O9 0.789632 0.238972 0.562906
O O10 0.353326 0.071399 0.268644
O O11 0.455966 0.153329 0.816542
O O12 0.273293 0.348422 0.941350
O O13 0.430767 0.686483 0.043810
O O14 0.906569 0.809076 0.239132
O O15 0.646952 0.074566 0.538008
O O16 0.000000 0.000000 0.500000
O O17 0.500000 0.000000 0.500000
#
# Coordination Sequence:
#
# PCOD8011515 Si02
#       8
#     2   2   2   2   2   2   2   2
#     4  10  21  40  64  92 124 158 207 253 304 361
#     4  11  23  41  64  91 122 166 204 259 306 350
#     4  10  23  41  61  92 122 162 205 248 311 364
#     4  11  22  41  62  87 126 164 206 252 303 365
#     4  10  23  40  62  97 120 158 207 253 309 363
#     4  11  25  41  62  91 125 163 210 250 305 365
#     4  10  21  39  62  89 121 162 199 243 311 363
#     4  11  20  39  64  90 125 159 200 255 306 363
#
# _framework density 20.650721999999998
#
# number of rings (size 3 to 8) (size 9 to 14) (size 15 to 20)
#    0.000    1.500    3.750    2.250    1.750    5.500 
#    0.000    0.000    0.000    0.000    0.000    0.000 
#    0.000    0.000    0.000    0.000    0.000    0.000 
#
# Total GULP energy -198244.743593 kJ/mol
# GULP energy per Si atom -12390.296475 kJ/mol
# Density = 2.060372 g / cm^3
# Si number density = 20.650722 Si / 1000 Ang^3
#
#
#
# Elastic Constant Matrix: (Units=GPa)
#
#
# Indices 1 2 3 4 5 6 
#
# 1 85.6826 18.1454 31.9481 9.3658 14.5783 -5.5496
# 2 18.1454 95.6669 25.2967 3.7949 3.9394 -0.0267
# 3 31.9481 25.2967 76.5461 -9.4330 19.2582 -2.0487
# 4 9.3658 3.7949 -9.4330 35.6241 -0.1905 2.3134
# 5 14.5783 3.9394 19.2582 -0.1905 24.4471 4.8280
# 6 -5.5496 -0.0267 -2.0487 2.3134 4.8280 28.9720
#
#
#
# Elastic Compliance Matrix: (Units=1/GPa)
#
#
# Indices 1 2 3 4 5 6 
#
# 1 0.015791 -0.001111 -0.005343 -0.005745 -0.005880 0.004085
# 2 -0.001111 0.011779 -0.004265 -0.002033 0.002250 -0.000716
# 3 -0.005343 -0.004265 0.020898 0.007192 -0.012934 0.002032
# 4 -0.005745 -0.002033 0.007192 0.031889 -0.001079 -0.002960
# 5 -0.005880 0.002250 -0.012934 -0.001079 0.056474 -0.011364
# 6 0.004085 -0.000716 0.002032 -0.002960 -0.011364 0.037572
#
#
# Mechanical properties :
#
#
# Convention : Reuss Voigt Hill
#
# Bulk Modulus (GPa) = 36.99419 45.40845 41.20132
# Shear Modulus (GPa) = 24.40805 29.97569 27.19187
#
# Velocity S-wave (km/s) = 3.44167 3.81406 3.63264
# Velocity P-wave (km/s) = 5.80918 6.43682 6.13104
#
# Compressibility (1/GPa) = 0.02703127
#
# Stress axis : x y z
#
# Youngs Moduli (GPa) = 63.32527 84.89528 47.85125
#
# Poissons Ratio (x) = 0.09434 0.25566
# Poissons Ratio (y) = 0.07037 0.20407
# Poissons Ratio (z) = 0.33834 0.36205
#
# Static dielectric constant tensor:
#      x y z
#    x 4.450280 -0.759620 0.807070 
#    y -0.759620 5.802570 -1.085670 
#    z 0.807070 -1.085670 4.319360 
# 
# 
# High freq. dielectric constant tensor:
#      x y z
#    x 1.825290 0.002710 0.011110 
#    y 0.002710 1.822520 0.003950 
#    z 0.011110 0.003950 1.783500 
# 
# From -- ./inp_files/272277.got.cif
#   From: 2010.06.25/outbox.cif.g09.slc.cpg/sg2_137_cif.got.tgz:272277.got - 2010.06.27 13:26:56.
