data_PCOD8011616
_publ_section_title
;
Structure prediction by ZEFSAII (Michael W. Deem and Ramdas Pophale) SiO2 
 PCOD8011616
Probable space group: P -1
;
_chemical_formula_sum "Si O2"
_cell_formula_units_Z 16
_cell_length_a 14.673187
_cell_length_b 17.965249
_cell_length_c 7.195091
_cell_angle_alpha 99.914958
_cell_angle_beta 72.261418
_cell_angle_gamma 154.908224
_cell_volume 740.386286
_symmetry_space_group_name_H-M "P -1"
_symmetry_group_IT_number 2
_symmetry_cell_setting 'triclinic'
loop_
_space_group_symop_operation_xyz
x,y,z
-x,-y,-z
loop_
_atom_site_type_symbol
_atom_site_label
_atom_site_fract_x
_atom_site_fract_y
_atom_site_fract_z
Si Si1 0.737525 0.451885 0.621283
Si Si2 0.599880 0.353452 0.058797
Si Si3 0.167642 0.222337 0.504501
Si Si4 0.239632 0.807914 0.297262
Si Si5 0.387753 0.808324 0.882326
Si Si6 0.359822 0.510437 0.582992
Si Si7 0.244715 0.693846 0.524756
Si Si8 0.107723 0.068437 0.165445
O O1 0.571184 0.395429 0.608988
O O2 0.613900 0.282300 0.584690
O O3 0.977298 0.637346 0.441087
O O4 0.775812 0.486560 0.833285
O O5 0.557415 0.236262 0.096356
O O6 0.716819 0.483826 0.210170
O O7 0.368664 0.226322 0.068972
O O8 0.159524 0.307329 0.563355
O O9 0.427514 0.381093 0.420842
O O10 0.074802 0.124421 0.321822
O O11 0.027367 0.092554 0.710169
O O12 0.355731 0.845591 0.415619
O O13 0.372943 0.980971 0.242431
O O14 0.251413 0.759990 0.094788
O O15 0.219063 0.688015 0.757768
O O16 0.000000 0.500000 0.500000
O O17 0.000000 0.000000 0.000000
#
# Coordination Sequence:
#
# PCOD8011616 Si02
#       8
#     2   2   2   2   2   2   2   2
#     4  11  22  38  59  93 126 159 208 257 311 368
#     4  11  23  38  65  93 124 164 213 253 311 368
#     4   9  21  40  64  90 124 163 208 246 320 370
#     4  10  24  40  62  90 125 166 209 257 320 361
#     4  11  22  42  64  89 125 165 211 262 303 374
#     4  10  21  40  63  91 124 164 205 263 301 375
#     4  10  21  39  63  88 119 163 208 252 309 367
#     4  10  21  40  65  93 127 164 201 256 311 371
#
# _framework density 21.610341999999999
#
# number of rings (size 3 to 8) (size 9 to 14) (size 15 to 20)
#    0.000    1.750    2.500    1.125    1.750    5.000 
#    0.000    5.000    5.500    0.000    0.000    0.000 
#    0.000    0.000    0.000    0.000    0.000    0.000 
#
# Total GULP energy -198245.646293 kJ/mol
# GULP energy per Si atom -12390.352893 kJ/mol
# Density = 2.156116 g / cm^3
# Si number density = 21.610342 Si / 1000 Ang^3
#
#
#
# Elastic Constant Matrix: (Units=GPa)
#
#
# Indices 1 2 3 4 5 6 
#
# 1 99.1731 43.3981 59.0531 20.2776 18.8010 -29.7915
# 2 43.3981 83.1991 57.2805 16.1945 4.1807 -23.4836
# 3 59.0531 57.2805 160.2967 12.6054 25.5375 -12.8712
# 4 20.2776 16.1945 12.6054 34.6189 6.7603 -0.7413
# 5 18.8010 4.1807 25.5375 6.7603 34.6983 3.2081
# 6 -29.7915 -23.4836 -12.8712 -0.7413 3.2081 34.1559
#
#
#
# Elastic Compliance Matrix: (Units=1/GPa)
#
#
# Indices 1 2 3 4 5 6 
#
# 1 0.021535 -0.001735 -0.003968 -0.008348 -0.008457 0.016708
# 2 -0.001735 0.021261 -0.006092 -0.007133 0.003295 0.010344
# 3 -0.003968 -0.006092 0.010186 0.002323 -0.004760 -0.003313
# 4 -0.008348 -0.007133 0.002323 0.036533 -0.002494 -0.010283
# 5 -0.008457 0.003295 -0.004760 -0.002494 0.037967 -0.010525
# 6 0.016708 0.010344 -0.003313 -0.010283 -0.010525 0.050479
#
#
# Mechanical properties :
#
#
# Convention : Reuss Voigt Hill
#
# Bulk Modulus (GPa) = 34.02206 73.57026 53.79616
# Shear Modulus (GPa) = 23.65751 32.89045 28.27398
#
# Velocity S-wave (km/s) = 3.31226 3.90548 3.62104
# Velocity P-wave (km/s) = 5.51414 7.37936 6.51386
#
# Compressibility (1/GPa) = 0.02939270
#
# Stress axis : x y z
#
# Youngs Moduli (GPa) = 46.43701 47.03425 98.16917
#
# Poissons Ratio (x) = 0.08162 0.38952
# Poissons Ratio (y) = 0.08058 0.59800
# Poissons Ratio (z) = 0.18425 0.28651
#
# Static dielectric constant tensor:
#      x y z
#    x 4.508590 -0.442260 0.100040 
#    y -0.442260 3.931410 0.200790 
#    z 0.100040 0.200790 4.110590 
# 
# 
# High freq. dielectric constant tensor:
#      x y z
#    x 1.855910 -0.017940 0.009650 
#    y -0.017940 1.831380 0.011280 
#    z 0.009650 0.011280 1.859370 
# 
# From -- ./inp_files/99798.got.cif
#   From: 2010.06.25/outbox.cif.g09.slc.cpg/sg2_50_cif.got.tgz:99798.got - 2010.06.27 13:26:56.
