data_PCOD8011332
_publ_section_title
;
Structure prediction by ZEFSAII (Michael W. Deem and Ramdas Pophale) SiO2 
 PCOD8011332
Probable space group: P -1
;
_chemical_formula_sum "Si O2"
_cell_formula_units_Z 12
_cell_length_a 6.020388
_cell_length_b 6.896403
_cell_length_c 21.280047
_cell_angle_alpha 135.907190
_cell_angle_beta 100.139263
_cell_angle_gamma 98.159877
_cell_volume 556.791158
_symmetry_space_group_name_H-M "P -1"
_symmetry_group_IT_number 2
_symmetry_cell_setting 'triclinic'
loop_
_space_group_symop_operation_xyz
x,y,z
-x,-y,-z
loop_
_atom_site_type_symbol
_atom_site_label
_atom_site_fract_x
_atom_site_fract_y
_atom_site_fract_z
Si Si1 0.236604 0.255515 0.444334
Si Si2 0.188349 0.693429 0.636238
Si Si3 0.609320 0.328071 0.227700
Si Si4 0.394211 0.787978 0.296694
Si Si5 0.871074 0.185696 0.954513
Si Si6 0.913733 0.281380 0.118019
O O1 0.500000 0.500000 0.500000
O O2 0.142783 0.359799 0.527638
O O3 0.049773 0.235009 0.373271
O O4 0.263589 0.932505 0.374683
O O5 0.214980 0.683965 0.710091
O O6 0.430121 0.951033 0.679146
O O7 0.541246 0.620264 0.302551
O O8 0.748632 0.374714 0.179459
O O9 0.369181 0.018745 0.143662
O O10 0.186182 0.542563 0.186910
O O11 0.791086 0.236805 0.032843
O O12 0.066365 0.028362 0.930355
O O13 0.000000 0.500000 0.000000
#
# Coordination Sequence:
#
# PCOD8011332 Si02
#       6
#     2   2   2   2   2   2
#     4   9  20  39  61  85 120 158 196 244 292 348
#     4  10  21  39  61  88 119 157 200 242 294 346
#     4  11  23  37  62  92 117 154 200 244 293 349
#     4  10  21  39  60  86 121 159 195 241 291 346
#     4  10  22  40  60  85 119 157 193 239 296 349
#     4  10  22  38  58  89 121 151 196 243 289 350
#
# _framework density 21.552064000000001
#
# number of rings (size 3 to 8) (size 9 to 14) (size 15 to 20)
#    0.000    2.000    0.000    2.500    0.000    9.333 
#    0.000   11.667    0.000    0.000    0.000    0.000 
#    0.000    0.000    0.000    0.000    0.000    0.000 
#
# Total GULP energy -148802.819503 kJ/mol
# GULP energy per Si atom -12400.234959 kJ/mol
# Density = 2.150301 g / cm^3
# Si number density = 21.552064 Si / 1000 Ang^3
#
#
#
# Elastic Constant Matrix: (Units=GPa)
#
#
# Indices 1 2 3 4 5 6 
#
# 1 104.0643 48.3305 42.3671 0.8035 -13.2298 -19.7243
# 2 48.3305 107.3624 69.3717 1.0966 -7.5382 -13.1971
# 3 42.3671 69.3717 112.4774 -3.0457 -10.4361 -19.4209
# 4 0.8035 1.0966 -3.0457 40.4358 -7.2201 0.4343
# 5 -13.2298 -7.5382 -10.4361 -7.2201 27.0135 -1.6062
# 6 -19.7243 -13.1971 -19.4209 0.4343 -1.6062 22.8250
#
#
#
# Elastic Compliance Matrix: (Units=1/GPa)
#
#
# Indices 1 2 3 4 5 6 
#
# 1 0.014673 -0.004780 -0.000175 0.000899 0.006633 0.010217
# 2 -0.004780 0.017119 -0.009342 -0.001346 -0.001668 -0.002273
# 3 -0.000175 -0.009342 0.016803 0.002310 0.004954 0.009049
# 4 0.000899 -0.001346 0.002310 0.026351 0.008121 0.002034
# 5 0.006633 -0.001668 0.004954 0.008121 0.044597 0.011967
# 6 0.010217 -0.002273 0.009049 0.002034 0.011967 0.059830
#
#
# Mechanical properties :
#
#
# Convention : Reuss Voigt Hill
#
# Bulk Modulus (GPa) = 49.99426 71.56032 60.77729
# Shear Modulus (GPa) = 23.29533 28.97717 26.13625
#
# Velocity S-wave (km/s) = 3.29125 3.67075 3.48617
# Velocity P-wave (km/s) = 6.13925 7.15831 6.66828
#
# Compressibility (1/GPa) = 0.02000230
#
# Stress axis : x y z
#
# Youngs Moduli (GPa) = 68.15019 58.41331 59.51337
#
# Poissons Ratio (x) = 0.27921 0.01043
# Poissons Ratio (y) = 0.32575 0.55596
# Poissons Ratio (z) = 0.01194 0.54568
#
# Static dielectric constant tensor:
#      x y z
#    x 4.023240 -0.282700 -0.164380 
#    y -0.282700 3.568870 0.259450 
#    z -0.164380 0.259450 4.386830 
# 
# 
# High freq. dielectric constant tensor:
#      x y z
#    x 1.848970 -0.012760 0.004080 
#    y -0.012760 1.819510 0.015080 
#    z 0.004080 0.015080 1.864020 
# 
# From -- ./inp_files/3167.got.cif
#   From: 2010.06.25/outbox.cif.g09.slc.cpg/sg2_2_cif.got.tgz:3167.got - 2010.06.27 13:26:56.
