data_PCOD8011134
_publ_section_title
;
Structure prediction by ZEFSAII (Michael W. Deem and Ramdas Pophale) SiO2 
 PCOD8011134
Probable space group: P -1
;
_chemical_formula_sum "Si O2"
_cell_formula_units_Z 14
_cell_length_a 11.579293
_cell_length_b 8.049951
_cell_length_c 9.163899
_cell_angle_alpha 101.002296
_cell_angle_beta 56.012805
_cell_angle_gamma 123.937214
_cell_volume 578.413679
_symmetry_space_group_name_H-M "P -1"
_symmetry_group_IT_number 2
_symmetry_cell_setting 'triclinic'
loop_
_space_group_symop_operation_xyz
x,y,z
-x,-y,-z
loop_
_atom_site_type_symbol
_atom_site_label
_atom_site_fract_x
_atom_site_fract_y
_atom_site_fract_z
Si Si1 0.863929 0.996499 0.697594
Si Si2 0.245911 0.038239 0.654579
Si Si3 0.417220 0.332192 0.328742
Si Si4 0.248682 0.608992 0.815865
Si Si5 0.061954 0.829570 0.017262
Si Si6 0.163398 0.720566 0.428395
Si Si7 0.416580 0.713568 0.418968
O O1 0.926390 0.041156 0.827283
O O2 0.828544 0.166667 0.705916
O O3 0.690482 0.777515 0.759563
O O4 0.000000 0.000000 0.500000
O O5 0.300743 0.227902 0.539679
O O6 0.416009 0.073761 0.613213
O O7 0.149498 0.832802 0.596082
O O8 0.117799 0.991806 0.870171
O O9 0.574036 0.310620 0.218485
O O10 0.479864 0.565529 0.321872
O O11 0.270017 0.620711 0.627750
O O12 0.121941 0.372331 0.909683
O O13 0.186679 0.752434 0.932566
O O14 0.334996 0.728760 0.329272
O O15 0.000000 0.500000 0.500000
#
# Coordination Sequence:
#
# PCOD8011134 Si02
#       7
#     2   2   2   2   2   2   2
#     4  11  25  44  65  95 134 175 216 272 339 395
#     4  10  22  40  67 101 123 171 228 265 316 389
#     4  10  23  43  69  94 132 181 217 267 326 393
#     4  10  21  38  67  97 134 170 218 267 334 381
#     4  11  23  40  67  99 135 168 220 280 323 387
#     4  11  22  38  67  95 128 176 213 262 327 398
#     4  11  21  44  70  93 131 177 224 263 320 401
#
# _framework density 24.204131
#
# number of rings (size 3 to 8) (size 9 to 14) (size 15 to 20)
#    0.000    1.429    1.429    4.714    6.000    1.714 
#    0.000   12.143    3.143    0.000    0.000    0.000 
#    0.000    0.000    0.000    0.000    0.000    0.000 
#
# Total GULP energy -173551.921767 kJ/mol
# GULP energy per Si atom -12396.565841 kJ/mol
# Density = 2.414904 g / cm^3
# Si number density = 24.204131 Si / 1000 Ang^3
#
#
#
# Elastic Constant Matrix: (Units=GPa)
#
#
# Indices 1 2 3 4 5 6 
#
# 1 75.2261 5.5369 12.6055 2.6414 7.8510 16.1651
# 2 5.5369 50.5938 48.1599 2.5086 16.0207 20.3125
# 3 12.6055 48.1599 93.4027 -4.9232 1.1386 8.6733
# 4 2.6414 2.5086 -4.9232 37.0129 0.1008 1.1917
# 5 7.8510 16.0207 1.1386 0.1008 37.8172 2.7273
# 6 16.1651 20.3125 8.6733 1.1917 2.7273 41.9925
#
#
#
# Elastic Compliance Matrix: (Units=1/GPa)
#
#
# Indices 1 2 3 4 5 6 
#
# 1 0.016712 0.011828 -0.007469 -0.002644 -0.007524 -0.010048
# 2 0.011828 0.081820 -0.040854 -0.010663 -0.033464 -0.033217
# 3 -0.007469 -0.040854 0.031565 0.006977 0.016819 0.014827
# 4 -0.002644 -0.010663 0.006977 0.028728 0.004518 0.003626
# 5 -0.007524 -0.033464 0.016819 0.004518 0.040737 0.012835
# 6 -0.010048 -0.033217 0.014827 0.003626 0.012835 0.039751
#
#
# Mechanical properties :
#
#
# Convention : Reuss Voigt Hill
#
# Bulk Modulus (GPa) = 17.51050 39.09190 28.30120
# Shear Modulus (GPa) = 15.09036 33.55921 24.32478
#
# Velocity S-wave (km/s) = 2.49963 3.72762 3.17359
# Velocity P-wave (km/s) = 3.94729 5.89176 5.01468
#
# Compressibility (1/GPa) = 0.05710860
#
# Stress axis : x y z
#
# Youngs Moduli (GPa) = 59.83892 12.22190 31.68060
#
# Poissons Ratio (x) = -0.14457 0.23662
# Poissons Ratio (y) = -0.70780 1.29427
# Poissons Ratio (z) = 0.44693 0.49931
#
# Static dielectric constant tensor:
#      x y z
#    x 5.107650 0.126430 0.244480 
#    y 0.126430 4.479460 -0.022420 
#    z 0.244480 -0.022420 4.145100 
# 
# 
# High freq. dielectric constant tensor:
#      x y z
#    x 1.981380 0.003850 -0.008860 
#    y 0.003850 1.971150 0.001900 
#    z -0.008860 0.001900 1.923320 
# 
# From -- ./inp_files/235529.got.cif
#   From: 2010.06.25/outbox.cif.g09.slc.cpg/sg2_118_cif.got.tgz:235529.got - 2010.06.27 13:26:56.
