data_PCOD8011877
_publ_section_title
;
Structure prediction by ZEFSAII (Michael W. Deem and Ramdas Pophale) SiO2 
 PCOD8011877
Probable space group: P -1
;
_chemical_formula_sum "Si O2"
_cell_formula_units_Z 14
_cell_length_a 7.575158
_cell_length_b 8.688186
_cell_length_c 15.790400
_cell_angle_alpha 147.756924
_cell_angle_beta 110.418287
_cell_angle_gamma 74.304317
_cell_volume 518.983030
_symmetry_space_group_name_H-M "P -1"
_symmetry_group_IT_number 2
_symmetry_cell_setting 'triclinic'
loop_
_space_group_symop_operation_xyz
x,y,z
-x,-y,-z
loop_
_atom_site_type_symbol
_atom_site_label
_atom_site_fract_x
_atom_site_fract_y
_atom_site_fract_z
Si Si1 0.199432 0.417764 0.233818
Si Si2 0.895970 0.261107 0.927713
Si Si3 0.758314 0.599843 0.427653
Si Si4 0.652445 0.651751 0.156253
Si Si5 0.366490 0.817571 0.305381
Si Si6 0.200354 0.707768 0.539402
Si Si7 0.160255 0.861989 0.888500
O O1 0.237076 0.613851 0.249067
O O2 0.284774 0.571847 0.403668
O O3 0.975638 0.349225 0.175544
O O4 0.277520 0.098744 0.076437
O O5 0.736316 0.119011 0.772446
O O6 0.817540 0.425632 0.074580
O O7 0.030336 0.014982 0.867276
O O8 0.000000 0.500000 0.000000
O O9 0.726928 0.492140 0.467537
O O10 0.699151 0.335012 0.231565
O O11 0.973779 0.711875 0.499564
O O12 0.615175 0.855330 0.499938
O O13 0.567059 0.683664 0.252219
O O14 0.722756 0.966529 0.281600
O O15 0.500000 0.500000 0.000000
#
# Coordination Sequence:
#
# PCOD8011877 Si02
#       7
#     2   2   2   2   2   2   2
#     4  10  22  38  62  93 132 160 205 270 314 369
#     4  11  19  38  67  90 118 165 218 258 294 372
#     4  10  21  39  69  94 120 165 213 266 303 371
#     4  10  24  39  62  95 128 167 210 256 311 381
#     4  11  22  38  61  95 125 166 207 256 323 370
#     4  10  21  40  63  92 128 160 215 262 311 365
#     4  10  21  39  64  96 123 163 215 261 315 358
#
# _framework density 26.975832
#
# number of rings (size 3 to 8) (size 9 to 14) (size 15 to 20)
#    0.000    1.714    1.429    4.286    2.000    3.429 
#    2.571    0.714    0.000    0.000    0.000    0.000 
#    0.000    0.000    0.000    0.000    0.000    0.000 
#
# Total GULP energy -173466.766496 kJ/mol
# GULP energy per Si atom -12390.483321 kJ/mol
# Density = 2.691443 g / cm^3
# Si number density = 26.975832 Si / 1000 Ang^3
#
#
#
# Elastic Constant Matrix: (Units=GPa)
#
#
# Indices 1 2 3 4 5 6 
#
# 1 60.0132 49.9580 33.0762 2.6314 -18.9190 23.1551
# 2 49.9580 100.5571 46.9518 18.5024 -20.7705 33.0219
# 3 33.0762 46.9518 213.1206 -2.6508 -33.7049 19.9697
# 4 2.6314 18.5024 -2.6508 39.7538 6.2055 0.3202
# 5 -18.9190 -20.7705 -33.7049 6.2055 53.1804 -4.2823
# 6 23.1551 33.0219 19.9697 0.3202 -4.2823 26.8491
#
#
#
# Elastic Compliance Matrix: (Units=1/GPa)
#
#
# Indices 1 2 3 4 5 6 
#
# 1 0.033048 -0.010726 -0.000495 0.001964 0.005895 -0.014024
# 2 -0.010726 0.026096 -0.001467 -0.012177 0.005194 -0.020781
# 3 -0.000495 -0.001467 0.005664 0.000695 0.002633 -0.001570
# 4 0.001964 -0.012177 0.000695 0.031645 -0.006394 0.011368
# 5 0.005895 0.005194 0.002633 -0.006394 0.024585 -0.009434
# 6 -0.014024 -0.020781 -0.001570 0.011368 -0.009434 0.074425
#
#
# Mechanical properties :
#
#
# Convention : Reuss Voigt Hill
#
# Bulk Modulus (GPa) = 25.36011 70.40698 47.88354
# Shear Modulus (GPa) = 21.36899 40.20367 30.78633
#
# Velocity S-wave (km/s) = 2.81757 3.86470 3.38191
# Velocity P-wave (km/s) = 4.47285 6.78758 5.74794
#
# Compressibility (1/GPa) = 0.03943201
#
# Stress axis : x y z
#
# Youngs Moduli (GPa) = 30.25913 38.32036 176.53894
#
# Poissons Ratio (x) = 0.41101 0.08742
# Poissons Ratio (y) = 0.32455 0.25904
# Poissons Ratio (z) = 0.01498 0.05623
#
# Static dielectric constant tensor:
#      x y z
#    x 5.039530 0.296040 -0.534050 
#    y 0.296040 4.871990 -0.350550 
#    z -0.534050 -0.350550 5.782480 
# 
# 
# High freq. dielectric constant tensor:
#      x y z
#    x 2.062760 0.019490 -0.010250 
#    y 0.019490 2.089540 -0.009170 
#    z -0.010250 -0.009170 2.114850 
# 
# From -- ./inp_files/556718.got.cif
#   From: 2010.06.25/outbox.cif.g09.slc.cpg/sg2_279_cif.got.tgz:556718.got - 2010.06.27 13:26:56.
