data_PCOD8011111
_publ_section_title
;
Structure prediction by ZEFSAII (Michael W. Deem and Ramdas Pophale) SiO2 
 PCOD8011111
Probable space group: P -1
;
_chemical_formula_sum "Si O2"
_cell_formula_units_Z 16
_cell_length_a 10.990175
_cell_length_b 16.917148
_cell_length_c 8.625970
_cell_angle_alpha 76.294606
_cell_angle_beta 121.422175
_cell_angle_gamma 54.808906
_cell_volume 712.852954
_symmetry_space_group_name_H-M "P -1"
_symmetry_group_IT_number 2
_symmetry_cell_setting 'triclinic'
loop_
_space_group_symop_operation_xyz
x,y,z
-x,-y,-z
loop_
_atom_site_type_symbol
_atom_site_label
_atom_site_fract_x
_atom_site_fract_y
_atom_site_fract_z
Si Si1 0.712097 0.093072 0.317794
Si Si2 0.128938 0.598788 0.567248
Si Si3 0.935325 0.960713 0.852604
Si Si4 0.605561 0.280346 0.940019
Si Si5 0.251754 0.098843 0.677133
Si Si6 0.834396 0.610910 0.566692
Si Si7 0.417818 0.133171 0.512276
Si Si8 0.167223 0.304983 0.960912
O O1 0.397374 0.230614 0.040555
O O2 0.789486 0.071379 0.557456
O O3 0.826671 0.957165 0.370786
O O4 0.785122 0.140663 0.247556
O O5 0.453293 0.432012 0.844880
O O6 0.026499 0.727018 0.532742
O O7 0.026779 0.568266 0.601873
O O8 0.015191 0.661699 0.288304
O O9 0.738486 0.988104 0.782743
O O10 0.201561 0.787476 0.043462
O O11 0.000000 0.000000 0.000000
O O12 0.384416 0.325053 0.714932
O O13 0.340473 0.088878 0.571921
O O14 0.500000 0.000000 0.000000
O O15 0.690112 0.735237 0.537672
O O16 0.997752 0.463391 0.837478
O O17 0.280097 0.193831 0.224419
#
# Coordination Sequence:
#
# PCOD8011111 Si02
#       8
#     2   2   2   2   2   2   2   2
#     4  11  21  38  62  90 118 157 202 242 294 348
#     4  10  19  35  61  87 121 152 195 247 296 346
#     4  11  24  38  56  88 125 160 195 243 295 349
#     4  11  19  38  60  89 117 155 201 242 288 352
#     4  11  22  40  61  91 118 157 195 250 301 353
#     4  10  16  32  57  83 123 145 190 251 296 341
#     4  10  22  35  56  88 124 153 195 243 303 354
#     4  10  17  30  53  90 117 144 187 251 298 337
#
# _framework density 22.445022999999999
#
# number of rings (size 3 to 8) (size 9 to 14) (size 15 to 20)
#    0.000    1.500    5.000    2.250    0.000    2.000 
#    0.000    0.625    0.000    0.750    3.250    0.000 
#    0.000    0.000    0.000    0.000    0.000    0.000 
#
# Total GULP energy -198304.439686 kJ/mol
# GULP energy per Si atom -12394.027480 kJ/mol
# Density = 2.239394 g / cm^3
# Si number density = 22.445023 Si / 1000 Ang^3
#
#
#
# Elastic Constant Matrix: (Units=GPa)
#
#
# Indices 1 2 3 4 5 6 
#
# 1 74.7192 43.2049 33.2184 -10.8671 -0.7807 -15.3007
# 2 43.2049 138.2641 49.9537 -25.2986 7.2959 -14.1954
# 3 33.2184 49.9537 82.2603 -6.4784 -7.5549 1.2513
# 4 -10.8671 -25.2986 -6.4784 39.8979 -14.3793 9.1603
# 5 -0.7807 7.2959 -7.5549 -14.3793 21.9215 -3.1921
# 6 -15.3007 -14.1954 1.2513 9.1603 -3.1921 31.8024
#
#
#
# Elastic Compliance Matrix: (Units=1/GPa)
#
#
# Indices 1 2 3 4 5 6 
#
# 1 0.019645 -0.003004 -0.005995 0.001170 0.001591 0.008169
# 2 -0.003004 0.011326 -0.005676 0.003808 -0.002979 0.002438
# 3 -0.005995 -0.005676 0.019144 0.002513 0.009050 -0.005986
# 4 0.001170 0.003808 0.002513 0.038269 0.023800 -0.006470
# 5 0.001591 -0.002979 0.009050 0.023800 0.065217 -0.001230
# 6 0.008169 0.002438 -0.005986 -0.006470 -0.001230 0.038438
#
#
# Mechanical properties :
#
#
# Convention : Reuss Voigt Hill
#
# Bulk Modulus (GPa) = 48.15480 60.88864 54.52172
# Shear Modulus (GPa) = 21.89995 29.98211 25.94103
#
# Velocity S-wave (km/s) = 3.12703 3.65883 3.40333
# Velocity P-wave (km/s) = 5.87698 6.71090 6.30774
#
# Compressibility (1/GPa) = 0.02076636
#
# Stress axis : x y z
#
# Youngs Moduli (GPa) = 50.90262 88.29149 52.23509
#
# Poissons Ratio (x) = 0.26522 0.31315
# Poissons Ratio (y) = 0.15291 0.29647
# Poissons Ratio (z) = 0.30517 0.50112
#
# Static dielectric constant tensor:
#      x y z
#    x 3.853120 -0.316620 0.050550 
#    y -0.316620 4.324460 -0.339110 
#    z 0.050550 -0.339110 4.270290 
# 
# 
# High freq. dielectric constant tensor:
#      x y z
#    x 1.855230 -0.020160 0.003340 
#    y -0.020160 1.897280 -0.010830 
#    z 0.003340 -0.010830 1.889510 
# 
# From -- ./inp_files/279417.got.cif
#   From: 2010.06.25/outbox.cif.g09.slc.cpg/sg2_140_cif.got.tgz:279417.got - 2010.06.27 13:26:56.
