data_PCOD8011085
_publ_section_title
;
Structure prediction by ZEFSAII (Michael W. Deem and Ramdas Pophale) SiO2 
 PCOD8011085
Probable space group: P -1
;
_chemical_formula_sum "Si O2"
_cell_formula_units_Z 12
_cell_length_a 14.367867
_cell_length_b 13.826512
_cell_length_c 10.599694
_cell_angle_alpha 34.930240
_cell_angle_beta 50.103194
_cell_angle_gamma 26.232337
_cell_volume 494.800321
_symmetry_space_group_name_H-M "P -1"
_symmetry_group_IT_number 2
_symmetry_cell_setting 'triclinic'
loop_
_space_group_symop_operation_xyz
x,y,z
-x,-y,-z
loop_
_atom_site_type_symbol
_atom_site_label
_atom_site_fract_x
_atom_site_fract_y
_atom_site_fract_z
Si Si1 0.662906 0.278717 0.959633
Si Si2 0.643158 0.207709 0.528812
Si Si3 0.350085 0.172253 0.070326
Si Si4 0.188094 0.695887 0.562656
Si Si5 0.893173 0.163592 0.108258
Si Si6 0.536603 0.834502 0.760702
O O1 0.687661 0.321126 0.036282
O O2 0.650942 0.090934 0.166756
O O3 0.443363 0.614995 0.719134
O O4 0.892287 0.055111 0.929736
O O5 0.426759 0.436876 0.561772
O O6 0.823603 0.128312 0.519179
O O7 0.760931 0.884077 0.757357
O O8 0.498070 0.029294 0.221596
O O9 0.173179 0.535005 0.821771
O O10 0.500000 0.000000 0.000000
O O11 0.976747 0.943043 0.384469
O O12 0.791594 0.457557 0.936163
O O13 0.500000 0.000000 0.500000
#
# Coordination Sequence:
#
# PCOD8011085 Si02
#       6
#     2   2   2   2   2   2
#     4  10  21  44  69  92 137 185 217 278 345 398
#     4   9  17  36  67  89 126 180 217 265 335 396
#     4  10  21  38  66  98 132 179 224 267 338 406
#     4   9  18  37  62  94 130 168 220 276 327 395
#     4  10  23  40  68 101 129 177 231 274 340 404
#     4  12  25  43  67 100 138 178 228 282 336 402
#
# _framework density 24.252206999999999
#
# number of rings (size 3 to 8) (size 9 to 14) (size 15 to 20)
#    0.000    2.000    1.667    1.500    2.333    2.667 
#    3.000    0.833    0.000    0.000    0.000    0.000 
#    0.000    0.000    0.000    0.000    0.000    0.000 
#
# Total GULP energy -148801.435026 kJ/mol
# GULP energy per Si atom -12400.119586 kJ/mol
# Density = 2.419701 g / cm^3
# Si number density = 24.252207 Si / 1000 Ang^3
#
#
#
# Elastic Constant Matrix: (Units=GPa)
#
#
# Indices 1 2 3 4 5 6 
#
# 1 215.2316 58.6763 108.8622 10.9681 2.0408 -3.2091
# 2 58.6763 48.6226 29.6421 3.3112 17.4480 7.4726
# 3 108.8622 29.6421 225.7825 13.7750 -2.3703 1.1149
# 4 10.9681 3.3112 13.7750 35.5894 8.5627 9.4179
# 5 2.0408 17.4480 -2.3703 8.5627 45.8893 -2.1146
# 6 -3.2091 7.4726 1.1149 9.4179 -2.1146 51.6774
#
#
#
# Elastic Compliance Matrix: (Units=1/GPa)
#
#
# Indices 1 2 3 4 5 6 
#
# 1 0.009287 -0.011340 -0.002802 -0.002545 0.004363 0.002919
# 2 -0.011340 0.041472 -0.000485 0.006119 -0.016823 -0.008494
# 3 -0.002802 -0.000485 0.005954 -0.001647 0.000929 0.000106
# 4 -0.002545 0.006119 -0.001647 0.033022 -0.008801 -0.007386
# 5 0.004363 -0.016823 0.000929 -0.008801 0.029938 0.005512
# 6 0.002919 -0.008494 0.000106 -0.007386 0.005512 0.022330
#
#
# Mechanical properties :
#
#
# Convention : Reuss Voigt Hill
#
# Bulk Modulus (GPa) = 36.41899 98.22198 67.32049
# Shear Modulus (GPa) = 27.71468 46.12829 36.92148
#
# Velocity S-wave (km/s) = 3.38415 4.36595 3.90602
# Velocity P-wave (km/s) = 5.50630 8.12426 6.93985
#
# Compressibility (1/GPa) = 0.02745820
#
# Stress axis : x y z
#
# Youngs Moduli (GPa) = 107.68011 24.11253 167.96560
#
# Poissons Ratio (x) = 0.27343 0.47069
# Poissons Ratio (y) = 1.22106 0.08150
# Poissons Ratio (z) = 0.30175 0.01170
#
# Static dielectric constant tensor:
#      x y z
#    x 4.832870 0.134550 -0.059170 
#    y 0.134550 4.605880 0.135780 
#    z -0.059170 0.135780 4.790520 
# 
# 
# High freq. dielectric constant tensor:
#      x y z
#    x 1.972950 0.007380 0.007380 
#    y 0.007380 2.000420 0.017810 
#    z 0.007380 0.017810 1.967850 
# 
# From -- ./inp_files/309353.got.cif
#   From: 2010.06.25/outbox.cif.g09.slc.cpg/sg2_155_cif.got.tgz:309353.got - 2010.06.27 13:26:56.
