data_PCOD8011861
_publ_section_title
;
Structure prediction by ZEFSAII (Michael W. Deem and Ramdas Pophale) SiO2 
 PCOD8011861
Probable space group: P -1
;
_chemical_formula_sum "Si O2"
_cell_formula_units_Z 16
_cell_length_a 15.576395
_cell_length_b 11.130565
_cell_length_c 8.309410
_cell_angle_alpha 113.342553
_cell_angle_beta 88.218478
_cell_angle_gamma 139.887395
_cell_volume 756.835443
_symmetry_space_group_name_H-M "P -1"
_symmetry_group_IT_number 2
_symmetry_cell_setting 'triclinic'
loop_
_space_group_symop_operation_xyz
x,y,z
-x,-y,-z
loop_
_atom_site_type_symbol
_atom_site_label
_atom_site_fract_x
_atom_site_fract_y
_atom_site_fract_z
Si Si1 0.463467 0.327350 0.309879
Si Si2 0.232703 0.833985 0.143860
Si Si3 0.452085 0.646474 0.171245
Si Si4 0.017227 0.304880 0.355646
Si Si5 0.516839 0.046859 0.835496
Si Si6 0.688205 0.791377 0.075073
Si Si7 0.000585 0.468403 0.726436
Si Si8 0.667490 0.398339 0.509906
O O1 0.500000 0.500000 0.500000
O O2 0.605460 0.405547 0.364994
O O3 0.316604 0.076268 0.258591
O O4 0.424164 0.313200 0.121380
O O5 0.342607 0.854066 0.196891
O O6 0.104038 0.693374 0.204617
O O7 0.166075 0.712445 0.908482
O O8 0.459872 0.772261 0.107098
O O9 0.616357 0.780331 0.225334
O O10 0.417317 0.656190 0.355376
O O11 0.323850 0.380370 0.988263
O O12 0.061596 0.485405 0.342461
O O13 0.005606 0.340783 0.557669
O O14 0.151470 0.366062 0.362458
O O15 0.861495 0.043822 0.170837
O O16 0.371088 0.803240 0.625521
O O17 0.500000 0.000000 0.000000
#
# Coordination Sequence:
#
# PCOD8011861 Si02
#       8
#     2   2   2   2   2   2   2   2
#     4  11  22  44  66  93 131 179 221 264 327 405
#     4  10  21  39  64  95 124 179 216 272 324 391
#     4  11  24  42  65  98 129 173 224 268 323 401
#     4  11  24  40  64  99 132 171 212 279 332 384
#     4  11  23  39  67  96 135 165 222 276 328 378
#     4  11  25  43  68  93 135 179 218 266 333 400
#     4  10  22  38  63  91 137 166 219 267 336 390
#     4  11  24  40  69 100 130 168 225 274 329 380
#
# _framework density 21.14066
#
# number of rings (size 3 to 8) (size 9 to 14) (size 15 to 20)
#    0.000    1.250    2.500    3.375    7.000    0.500 
#    0.000    0.000    0.000    8.250    0.000    0.000 
#    0.000    0.000    0.000    0.000    0.000    0.000 
#
# Total GULP energy -198345.319105 kJ/mol
# GULP energy per Si atom -12396.582444 kJ/mol
# Density = 2.109254 g / cm^3
# Si number density = 21.140660 Si / 1000 Ang^3
#
#
#
# Elastic Constant Matrix: (Units=GPa)
#
#
# Indices 1 2 3 4 5 6 
#
# 1 96.6345 56.4257 45.9889 11.1624 -5.6747 -11.7410
# 2 56.4257 95.8629 46.4686 11.9475 -2.3953 -4.6915
# 3 45.9889 46.4686 109.3530 7.9031 -4.4949 3.0250
# 4 11.1624 11.9475 7.9031 32.8829 3.0266 -2.4266
# 5 -5.6747 -2.3953 -4.4949 3.0266 36.7503 7.8975
# 6 -11.7410 -4.6915 3.0250 -2.4266 7.8975 40.9491
#
#
#
# Elastic Compliance Matrix: (Units=1/GPa)
#
#
# Indices 1 2 3 4 5 6 
#
# 1 0.017713 -0.008034 -0.003970 -0.001925 0.000994 0.004146
# 2 -0.008034 0.017315 -0.003799 -0.002630 -0.000332 -0.000131
# 3 -0.003970 -0.003799 0.012607 -0.000631 0.001335 -0.002800
# 4 -0.001925 -0.002630 -0.000631 0.032640 -0.003627 0.001827
# 5 0.000994 -0.000332 0.001335 -0.003627 0.029022 -0.005664
# 6 0.004146 -0.000131 -0.002800 0.001827 -0.005664 0.027002
#
#
# Mechanical properties :
#
#
# Convention : Reuss Voigt Hill
#
# Bulk Modulus (GPa) = 62.38863 66.62410 64.50636
# Shear Modulus (GPa) = 28.86034 32.31426 30.58730
#
# Velocity S-wave (km/s) = 3.69881 3.91389 3.80787
# Velocity P-wave (km/s) = 6.91498 7.21164 7.06487
#
# Compressibility (1/GPa) = 0.01602856
#
# Stress axis : x y z
#
# Youngs Moduli (GPa) = 56.45482 57.75294 79.32289
#
# Poissons Ratio (x) = 0.46399 0.31492
# Poissons Ratio (y) = 0.45356 0.30136
# Poissons Ratio (z) = 0.22413 0.21941
#
# Static dielectric constant tensor:
#      x y z
#    x 3.887100 -0.070000 -0.040420 
#    y -0.070000 3.793680 0.083620 
#    z -0.040420 0.083620 4.005700 
# 
# 
# High freq. dielectric constant tensor:
#      x y z
#    x 1.820820 -0.000670 -0.009580 
#    y -0.000670 1.828620 0.001330 
#    z -0.009580 0.001330 1.835590 
# 
# From -- ./inp_files/308047.got.cif
#   From: 2010.06.25/outbox.cif.g09.slc.cpg/sg2_155_cif.got.tgz:308047.got - 2010.06.27 13:26:56.
