data_PCOD8011925
_publ_section_title
;
Structure prediction by ZEFSAII (Michael W. Deem and Ramdas Pophale) SiO2 
 PCOD8011925
Probable space group: P -1
;
_chemical_formula_sum "Si O2"
_cell_formula_units_Z 16
_cell_length_a 8.954945
_cell_length_b 14.894259
_cell_length_c 11.891282
_cell_angle_alpha 149.795667
_cell_angle_beta 71.677413
_cell_angle_gamma 99.396862
_cell_volume 737.678887
_symmetry_space_group_name_H-M "P -1"
_symmetry_group_IT_number 2
_symmetry_cell_setting 'triclinic'
loop_
_space_group_symop_operation_xyz
x,y,z
-x,-y,-z
loop_
_atom_site_type_symbol
_atom_site_label
_atom_site_fract_x
_atom_site_fract_y
_atom_site_fract_z
Si Si1 0.334973 0.006774 0.194987
Si Si2 0.942752 0.600952 0.780732
Si Si3 0.223949 0.524914 0.977486
Si Si4 0.056795 0.329616 0.642113
Si Si5 0.726572 0.813269 0.236172
Si Si6 0.263133 0.487071 0.462529
Si Si7 0.392585 0.835165 0.228376
Si Si8 0.483476 0.750248 0.693940
O O1 0.151386 0.120851 0.375576
O O2 0.455590 0.148123 0.316109
O O3 0.380424 0.861635 0.126546
O O4 0.354295 0.895147 0.953815
O O5 0.801676 0.610239 0.732473
O O6 0.973895 0.405309 0.625895
O O7 0.109629 0.620804 0.704906
O O8 0.883180 0.759347 0.059493
O O9 0.362670 0.636504 0.050321
O O10 0.073331 0.665319 0.222744
O O11 0.174625 0.460906 0.797589
O O12 0.284401 0.345227 0.844228
O O13 0.570920 0.845036 0.229686
O O14 0.734607 0.999128 0.500788
O O15 0.389860 0.600749 0.509355
O O16 0.356624 0.335682 0.363635
#
# Coordination Sequence:
#
# PCOD8011925 Si02
#       8
#     2   2   2   2   2   2   2   2
#     4  11  22  39  60  90 129 157 208 263 302 366
#     4  10  21  39  65  89 127 160 205 260 307 366
#     4  10  22  40  64  89 126 167 206 248 310 370
#     4  10  21  40  59  91 127 163 202 257 306 372
#     4  10  22  42  60  97 127 159 208 257 305 373
#     4  10  21  41  66  89 115 168 213 251 314 368
#     4  11  23  39  65  92 126 167 203 255 313 368
#     4  10  23  40  63  91 119 161 212 259 307 366
#
# _framework density 21.689651999999999
#
# number of rings (size 3 to 8) (size 9 to 14) (size 15 to 20)
#    0.000    1.750    2.500    1.125    1.750    2.500 
#    9.000    0.625    0.000    0.000    0.000    0.000 
#    0.000    0.000    0.000    0.000    0.000    0.000 
#
# Total GULP energy -198402.075974 kJ/mol
# GULP energy per Si atom -12400.129748 kJ/mol
# Density = 2.164029 g / cm^3
# Si number density = 21.689652 Si / 1000 Ang^3
#
#
#
# Elastic Constant Matrix: (Units=GPa)
#
#
# Indices 1 2 3 4 5 6 
#
# 1 57.8690 11.3955 10.4894 3.1410 -2.6122 -9.5863
# 2 11.3955 69.3123 10.8874 0.4662 3.4083 -4.7589
# 3 10.4894 10.8874 61.4549 0.9760 -17.4101 0.3821
# 4 3.1410 0.4662 0.9760 30.9255 4.3177 0.9468
# 5 -2.6122 3.4083 -17.4101 4.3177 28.9731 6.5613
# 6 -9.5863 -4.7589 0.3821 0.9468 6.5613 27.1520
#
#
#
# Elastic Compliance Matrix: (Units=1/GPa)
#
#
# Indices 1 2 3 4 5 6 
#
# 1 0.019495 -0.002131 -0.003326 -0.001876 -0.001280 0.006931
# 2 -0.002131 0.015893 -0.003995 0.000745 -0.005332 0.003352
# 3 -0.003326 -0.003995 0.021844 -0.002199 0.014917 -0.005710
# 4 -0.001876 0.000745 -0.002199 0.033502 -0.006551 -0.000086
# 5 -0.001280 -0.005332 0.014917 -0.006551 0.047898 -0.012943
# 6 0.006931 0.003352 -0.005710 -0.000086 -0.012943 0.043075
#
#
# Mechanical properties :
#
#
# Convention : Reuss Voigt Hill
#
# Bulk Modulus (GPa) = 26.09113 28.24231 27.16672
# Shear Modulus (GPa) = 23.43161 27.80106 25.61634
#
# Velocity S-wave (km/s) = 3.29038 3.58406 3.44035
# Velocity P-wave (km/s) = 5.14693 5.49333 5.32295
#
# Compressibility (1/GPa) = 0.03832720
#
# Stress axis : x y z
#
# Youngs Moduli (GPa) = 51.29479 62.92187 45.77923
#
# Poissons Ratio (x) = 0.13411 0.15226
# Poissons Ratio (y) = 0.10932 0.18289
# Poissons Ratio (z) = 0.17060 0.25138
#
# Static dielectric constant tensor:
#      x y z
#    x 3.761750 -0.039890 -0.258670 
#    y -0.039890 3.817800 -0.111500 
#    z -0.258670 -0.111500 4.012520 
# 
# 
# High freq. dielectric constant tensor:
#      x y z
#    x 1.836290 -0.004030 -0.022330 
#    y -0.004030 1.848580 -0.011110 
#    z -0.022330 -0.011110 1.855050 
# 
# From -- ./inp_files/239883.got.cif
#   From: 2010.06.25/outbox.cif.g09.slc.cpg/sg2_120_cif.got.tgz:239883.got - 2010.06.27 13:26:56.
