data_PCOD8011107
_publ_section_title
;
Structure prediction by ZEFSAII (Michael W. Deem and Ramdas Pophale) SiO2 
 PCOD8011107
Probable space group: P -1
;
_chemical_formula_sum "Si O2"
_cell_formula_units_Z 16
_cell_length_a 9.086645
_cell_length_b 21.352384
_cell_length_c 9.096452
_cell_angle_alpha 49.738736
_cell_angle_beta 77.096851
_cell_angle_gamma 116.589351
_cell_volume 795.064697
_symmetry_space_group_name_H-M "P -1"
_symmetry_group_IT_number 2
_symmetry_cell_setting 'triclinic'
loop_
_space_group_symop_operation_xyz
x,y,z
-x,-y,-z
loop_
_atom_site_type_symbol
_atom_site_label
_atom_site_fract_x
_atom_site_fract_y
_atom_site_fract_z
Si Si1 0.757059 0.908404 0.288496
Si Si2 0.621428 0.124173 0.689125
Si Si3 0.139170 0.383171 0.678460
Si Si4 0.009328 0.076066 0.267516
Si Si5 0.753696 0.126575 0.333370
Si Si6 0.118884 0.365956 0.376154
Si Si7 0.548781 0.645632 0.693222
Si Si8 0.536876 0.639961 0.371685
O O1 0.575171 0.888162 0.268247
O O2 0.630845 0.766406 0.564742
O O3 0.824608 0.980065 0.318547
O O4 0.000000 0.000000 0.000000
O O5 0.707470 0.126812 0.511007
O O6 0.861375 0.264947 0.502105
O O7 0.500000 0.000000 0.000000
O O8 0.064613 0.371126 0.546675
O O9 0.291984 0.525509 0.498145
O O10 0.305847 0.374523 0.653289
O O11 0.892888 0.261888 0.015164
O O12 0.926238 0.121411 0.301501
O O13 0.000000 0.000000 0.500000
O O14 0.293866 0.210179 0.944768
O O15 0.500000 0.000000 0.500000
O O16 0.214791 0.313660 0.422437
O O17 0.324607 0.514967 0.038149
O O18 0.451489 0.617677 0.591834
#
# Coordination Sequence:
#
# PCOD8011107 Si02
#       8
#     2   2   2   2   2   2   2   2
#     4  12  25  44  64  94 133 173 210 277 323 383
#     4  12  26  41  68  95 129 172 219 263 326 384
#     4   9  19  36  62  89 124 157 213 259 310 369
#     4  11  25  39  66  95 128 167 215 260 326 380
#     4  11  22  42  63  90 129 169 208 265 317 382
#     4  10  22  39  65 101 121 171 217 263 317 394
#     4  10  21  38  67  90 136 163 216 261 322 383
#     4   9  18  37  59  89 122 166 202 260 311 369
#
# _framework density 20.124147000000001
#
# number of rings (size 3 to 8) (size 9 to 14) (size 15 to 20)
#    0.000    1.500    2.500    2.250    7.000    2.500 
#    0.000    0.000    0.000    2.250    0.000    0.000 
#    0.000    0.000    0.000    0.000    0.000    0.000 
#
# Total GULP energy -198456.789404 kJ/mol
# GULP energy per Si atom -12403.549338 kJ/mol
# Density = 2.007834 g / cm^3
# Si number density = 20.124147 Si / 1000 Ang^3
#
#
#
# Elastic Constant Matrix: (Units=GPa)
#
#
# Indices 1 2 3 4 5 6 
#
# 1 90.9312 41.0466 49.4551 -3.3430 3.3587 10.8859
# 2 41.0466 148.3244 76.0767 0.3232 -2.8958 19.3557
# 3 49.4551 76.0767 151.5321 3.6765 11.6722 8.1948
# 4 -3.3430 0.3232 3.6765 47.6077 0.4560 -2.1840
# 5 3.3587 -2.8958 11.6722 0.4560 31.3823 -3.4767
# 6 10.8859 19.3557 8.1948 -2.1840 -3.4767 34.6014
#
#
#
# Elastic Compliance Matrix: (Units=1/GPa)
#
#
# Indices 1 2 3 4 5 6 
#
# 1 0.014103 -0.001752 -0.003560 0.001164 -0.000652 -0.002606
# 2 -0.001752 0.010048 -0.004448 -0.000044 0.002351 -0.003783
# 3 -0.003560 -0.004448 0.010266 -0.000943 -0.003752 0.000740
# 4 0.001164 -0.000044 -0.000943 0.021216 0.000050 0.001226
# 5 -0.000652 0.002351 -0.003752 0.000050 0.033900 0.003188
# 6 -0.002606 -0.003783 0.000740 0.001226 0.003188 0.032059
#
#
# Mechanical properties :
#
#
# Convention : Reuss Voigt Hill
#
# Bulk Modulus (GPa) = 67.12975 80.43826 73.78401
# Shear Modulus (GPa) = 34.22816 37.66557 35.94687
#
# Velocity S-wave (km/s) = 4.12861 4.33096 4.23100
# Velocity P-wave (km/s) = 7.49383 8.06644 7.78540
#
# Compressibility (1/GPa) = 0.01489653
#
# Stress axis : x y z
#
# Youngs Moduli (GPa) = 70.90481 99.52276 97.40582
#
# Poissons Ratio (x) = 0.17436 0.34680
# Poissons Ratio (y) = 0.12422 0.43328
# Poissons Ratio (z) = 0.25245 0.44270
#
# Static dielectric constant tensor:
#      x y z
#    x 3.757500 -0.371700 0.212670 
#    y -0.371700 4.655230 -0.370200 
#    z 0.212670 -0.370200 4.009360 
# 
# 
# High freq. dielectric constant tensor:
#      x y z
#    x 1.756110 0.006380 0.001210 
#    y 0.006380 1.800070 -0.001070 
#    z 0.001210 -0.001070 1.804030 
# 
# From -- ./inp_files/223211.got.cif
#   From: 2010.06.25/outbox.cif.g09.slc.cpg/sg2_112_cif.got.tgz:223211.got - 2010.06.27 13:26:56.
