data_PCOD8011171
_publ_section_title
;
Structure prediction by ZEFSAII (Michael W. Deem and Ramdas Pophale) SiO2 
 PCOD8011171
Probable space group: P -1
;
_chemical_formula_sum "Si O2"
_cell_formula_units_Z 14
_cell_length_a 9.429014
_cell_length_b 21.028149
_cell_length_c 9.609058
_cell_angle_alpha 47.096546
_cell_angle_beta 133.156874
_cell_angle_gamma 151.306290
_cell_volume 649.315487
_symmetry_space_group_name_H-M "P -1"
_symmetry_group_IT_number 2
_symmetry_cell_setting 'triclinic'
loop_
_space_group_symop_operation_xyz
x,y,z
-x,-y,-z
loop_
_atom_site_type_symbol
_atom_site_label
_atom_site_fract_x
_atom_site_fract_y
_atom_site_fract_z
Si Si1 0.849595 0.024297 0.949727
Si Si2 0.307939 0.669395 0.774311
Si Si3 0.369980 0.524073 0.483899
Si Si4 0.037698 0.179830 0.588447
Si Si5 0.776188 0.246389 0.157799
Si Si6 0.591908 0.495265 0.923366
Si Si7 0.126297 0.045622 0.360342
O O1 0.948801 0.141672 0.749863
O O2 0.488166 0.884137 0.920648
O O3 0.961533 0.062889 0.127654
O O4 0.000000 0.000000 0.000000
O O5 0.324575 0.703191 0.897588
O O6 0.450807 0.622622 0.937388
O O7 0.518409 0.805142 0.618919
O O8 0.964583 0.555272 0.655950
O O9 0.500000 0.500000 0.500000
O O10 0.597858 0.685720 0.392526
O O11 0.372890 0.473561 0.705780
O O12 0.870227 0.210283 0.391738
O O13 0.916066 0.061067 0.585005
O O14 0.053461 0.362670 0.070711
O O15 0.500000 0.500000 0.000000
O O16 0.000000 0.000000 0.500000
#
# Coordination Sequence:
#
# PCOD8011171 Si02
#       7
#     2   2   2   2   2   2   2
#     4  10  21  38  68  98 130 181 229 277 340 407
#     4  12  25  44  75 101 139 185 237 281 349 418
#     4  11  25  43  74 108 137 182 234 293 340 414
#     4  10  22  43  69  98 142 169 239 279 342 406
#     4  11  22  42  72 104 129 185 231 290 337 415
#     4  11  28  45  67 104 145 179 232 289 354 410
#     4  11  27  43  65 100 142 181 228 287 348 414
#
# _framework density 21.561167999999999
#
# number of rings (size 3 to 8) (size 9 to 14) (size 15 to 20)
#    0.000    1.143    5.714    0.857   10.000    1.714 
#    0.000    0.714    0.000    0.000    0.000    0.000 
#    0.000    0.000    0.000    0.000    0.000    0.000 
#
# Total GULP energy -173541.535007 kJ/mol
# GULP energy per Si atom -12395.823929 kJ/mol
# Density = 2.151209 g / cm^3
# Si number density = 21.561168 Si / 1000 Ang^3
#
#
#
# Elastic Constant Matrix: (Units=GPa)
#
#
# Indices 1 2 3 4 5 6 
#
# 1 99.5739 30.2127 52.9607 -16.1366 -24.4286 1.8190
# 2 30.2127 148.7829 48.7903 -6.4333 1.4275 11.0534
# 3 52.9607 48.7903 105.3272 -7.3905 -30.1886 -3.8739
# 4 -16.1366 -6.4333 -7.3905 38.1157 -1.4791 3.0803
# 5 -24.4286 1.4275 -30.1886 -1.4791 38.1944 -5.0764
# 6 1.8190 11.0534 -3.8739 3.0803 -5.0764 28.6271
#
#
#
# Elastic Compliance Matrix: (Units=1/GPa)
#
#
# Indices 1 2 3 4 5 6 
#
# 1 0.015579 -0.001228 -0.005158 0.005684 0.006053 -0.000752
# 2 -0.001228 0.009314 -0.005712 0.000137 -0.006365 -0.005435
# 3 -0.005158 -0.005712 0.018647 0.000372 0.012632 0.007257
# 4 0.005684 0.000137 0.000372 0.029135 0.004698 -0.002666
# 5 0.006053 -0.006365 0.012632 0.004698 0.041880 0.010704
# 6 -0.000752 -0.005435 0.007257 -0.002666 0.010704 0.040245
#
#
# Mechanical properties :
#
#
# Convention : Reuss Voigt Hill
#
# Bulk Modulus (GPa) = 51.69662 68.62346 60.16004
# Shear Modulus (GPa) = 26.96217 35.76881 31.36549
#
# Velocity S-wave (km/s) = 3.54007 4.07743 3.81822
# Velocity P-wave (km/s) = 6.38265 7.35280 6.88484
#
# Compressibility (1/GPa) = 0.01934362
#
# Stress axis : x y z
#
# Youngs Moduli (GPa) = 64.18940 107.36009 53.62739
#
# Poissons Ratio (x) = 0.13189 0.27663
# Poissons Ratio (y) = 0.07885 0.30630
# Poissons Ratio (z) = 0.33111 0.61321
#
# Static dielectric constant tensor:
#      x y z
#    x 3.553450 0.038870 0.044450 
#    y 0.038870 3.434780 0.304920 
#    z 0.044450 0.304920 4.310170 
# 
# 
# High freq. dielectric constant tensor:
#      x y z
#    x 1.813070 0.007010 0.005710 
#    y 0.007010 1.868030 -0.007510 
#    z 0.005710 -0.007510 1.856990 
# 
# From -- ./inp_files/223293.got.cif
#   From: 2010.06.25/outbox.cif.g09.slc.cpg/sg2_112_cif.got.tgz:223293.got - 2010.06.27 13:26:56.
