data_PCOD8011430
_publ_section_title
;
Structure prediction by ZEFSAII (Michael W. Deem and Ramdas Pophale) SiO2 
 PCOD8011430
Probable space group: P -1
;
_chemical_formula_sum "Si O2"
_cell_formula_units_Z 16
_cell_length_a 9.364485
_cell_length_b 9.077324
_cell_length_c 18.470403
_cell_angle_alpha 37.119909
_cell_angle_beta 58.408322
_cell_angle_gamma 44.725601
_cell_volume 663.403005
_symmetry_space_group_name_H-M "P -1"
_symmetry_group_IT_number 2
_symmetry_cell_setting 'triclinic'
loop_
_space_group_symop_operation_xyz
x,y,z
-x,-y,-z
loop_
_atom_site_type_symbol
_atom_site_label
_atom_site_fract_x
_atom_site_fract_y
_atom_site_fract_z
Si Si1 0.510026 0.795514 0.711546
Si Si2 0.899853 0.924166 0.691547
Si Si3 0.041758 0.205229 0.652455
Si Si4 0.866746 0.782675 0.551335
Si Si5 0.134196 0.829372 0.138798
Si Si6 0.502402 0.040747 0.768884
Si Si7 0.122012 0.261954 0.870304
Si Si8 0.225533 0.682886 0.565183
O O1 0.650938 0.872510 0.601933
O O2 0.625045 0.439591 0.810800
O O3 0.490827 0.870090 0.771383
O O4 0.285972 0.995823 0.657395
O O5 0.087656 0.579915 0.765405
O O6 0.947578 0.135073 0.638298
O O7 0.734987 0.889767 0.792215
O O8 0.782123 0.102546 0.578661
O O9 0.937064 0.569872 0.544074
O O10 0.985740 0.110212 0.778229
O O11 0.059929 0.599070 0.627724
O O12 0.839545 0.106352 0.425825
O O13 0.042894 0.718340 0.147636
O O14 0.111412 0.126530 0.002608
O O15 0.356077 0.042961 0.866766
O O16 0.438536 0.373936 0.635684
#
# Coordination Sequence:
#
# PCOD8011430 Si02
#       8
#     2   2   2   2   2   2   2   2
#     4  11  20  40  68  90 123 167 208 252 310 371
#     4  12  26  41  62  96 131 163 207 260 312 370
#     4  11  24  43  62  92 135 163 199 262 321 363
#     4  10  21  39  61  90 123 162 208 254 297 366
#     4  10  22  42  68  94 125 161 208 264 308 368
#     4  12  22  40  68  94 121 167 217 253 302 373
#     4  11  23  41  67  98 121 160 218 259 302 372
#     4  11  21  41  67  90 126 166 211 260 302 361
#
# _framework density 24.118071
#
# number of rings (size 3 to 8) (size 9 to 14) (size 15 to 20)
#    0.000    1.000    5.000    3.375    0.000    4.500 
#    0.000    2.500    0.000    0.000    0.000    0.000 
#    0.000    0.000    0.000    0.000    0.000    0.000 
#
# Total GULP energy -198261.937738 kJ/mol
# GULP energy per Si atom -12391.371109 kJ/mol
# Density = 2.406318 g / cm^3
# Si number density = 24.118071 Si / 1000 Ang^3
#
#
#
# Elastic Constant Matrix: (Units=GPa)
#
#
# Indices 1 2 3 4 5 6 
#
# 1 94.7591 36.9110 10.6489 4.1742 -7.9319 -2.8732
# 2 36.9110 128.0681 26.2352 14.0954 3.4730 -2.4535
# 3 10.6489 26.2352 115.1129 -7.9346 -11.4179 10.6103
# 4 4.1742 14.0954 -7.9346 28.1643 -3.6042 -7.8182
# 5 -7.9319 3.4730 -11.4179 -3.6042 23.8870 -1.5789
# 6 -2.8732 -2.4535 10.6103 -7.8182 -1.5789 49.3710
#
#
#
# Elastic Compliance Matrix: (Units=1/GPa)
#
#
# Indices 1 2 3 4 5 6 
#
# 1 0.012430 -0.003860 0.000222 0.001015 0.005001 0.000805
# 2 -0.003860 0.010325 -0.002905 -0.006129 -0.005111 -0.000221
# 3 0.000222 -0.002905 0.010389 0.004732 0.006082 -0.001420
# 4 0.001015 -0.006129 0.004732 0.042694 0.010317 0.005828
# 5 0.005001 -0.005111 0.006082 0.010317 0.048859 0.001926
# 6 0.000805 -0.000221 -0.001420 0.005828 0.001926 0.021580
#
#
# Mechanical properties :
#
#
# Convention : Reuss Voigt Hill
#
# Bulk Modulus (GPa) = 49.85694 53.94782 51.90238
# Shear Modulus (GPa) = 30.11151 37.89413 34.00282
#
# Velocity S-wave (km/s) = 3.53725 3.96813 3.75887
# Velocity P-wave (km/s) = 6.11553 6.58874 6.35654
#
# Compressibility (1/GPa) = 0.02005739
#
# Stress axis : x y z
#
# Youngs Moduli (GPa) = 80.45086 96.85358 96.25511
#
# Poissons Ratio (x) = 0.37384 -0.02134
# Poissons Ratio (y) = 0.31053 0.27963
# Poissons Ratio (z) = -0.01783 0.28137
#
# Static dielectric constant tensor:
#      x y z
#    x 4.178540 -0.154340 -0.236770 
#    y -0.154340 4.905310 0.175550 
#    z -0.236770 0.175550 4.379600 
# 
# 
# High freq. dielectric constant tensor:
#      x y z
#    x 1.931280 -0.010180 -0.024440 
#    y -0.010180 1.991980 0.010500 
#    z -0.024440 0.010500 1.953880 
# 
# From -- ./inp_files/587140.got.cif
#   From: 2010.06.25/outbox.cif.g09.slc.cpg/sg2_294_cif.got.tgz:587140.got - 2010.06.27 13:26:56.
