data_PCOD8011238
_publ_section_title
;
Structure prediction by ZEFSAII (Michael W. Deem and Ramdas Pophale) SiO2 
 PCOD8011238
Probable space group: P -1
;
_chemical_formula_sum "Si O2"
_cell_formula_units_Z 16
_cell_length_a 9.800958
_cell_length_b 14.676502
_cell_length_c 5.186820
_cell_angle_alpha 91.823488
_cell_angle_beta 68.481808
_cell_angle_gamma 93.694286
_cell_volume 692.620838
_symmetry_space_group_name_H-M "P -1"
_symmetry_group_IT_number 2
_symmetry_cell_setting 'triclinic'
loop_
_space_group_symop_operation_xyz
x,y,z
-x,-y,-z
loop_
_atom_site_type_symbol
_atom_site_label
_atom_site_fract_x
_atom_site_fract_y
_atom_site_fract_z
Si Si1 0.796777 0.548171 0.716292
Si Si2 0.684625 0.417009 0.141158
Si Si3 0.934557 0.110864 0.814599
Si Si4 0.610031 0.651225 0.493575
Si Si5 0.393328 0.230842 0.980655
Si Si6 0.906434 0.376652 0.379200
Si Si7 0.286076 0.757386 0.218557
Si Si8 0.883152 0.898900 0.814922
O O1 0.725155 0.577109 0.498608
O O2 0.871816 0.451187 0.627509
O O3 0.915824 0.626705 0.744439
O O4 0.676574 0.517858 0.019567
O O5 0.549942 0.402086 0.434668
O O6 0.845323 0.410763 0.155089
O O7 0.659831 0.333066 0.957797
O O8 0.794922 0.173248 0.902278
O O9 0.047029 0.131720 0.504567
O O10 0.870846 0.007176 0.843361
O O11 0.016073 0.135158 0.026746
O O12 0.656679 0.696833 0.193431
O O13 0.613975 0.725924 0.726693
O O14 0.556416 0.197123 0.789459
O O15 0.281668 0.142841 0.043624
O O16 0.829316 0.276304 0.481425
#
# Coordination Sequence:
#
# PCOD8011238 Si02
#       8
#     2   2   2   2   2   2   2   2
#     4  10  23  36  57  87 116 166 208 257 309 356
#     4  10  21  40  58  85 124 161 208 260 300 367
#     4  10  23  42  68  96 125 163 200 249 310 363
#     4  11  24  40  62  90 122 167 207 253 308 361
#     4  11  24  41  62  94 127 160 209 253 301 372
#     4  10  21  39  56  84 123 154 211 258 300 366
#     4  10  23  39  61  90 124 164 202 252 311 362
#     4  10  23  43  65  97 129 156 204 253 299 374
#
# _framework density 23.100662
#
# number of rings (size 3 to 8) (size 9 to 14) (size 15 to 20)
#    0.000    1.750    1.250    1.500    7.000    1.000 
#    0.000    0.000    0.000    6.750    0.000    0.000 
#    0.000    0.000    0.000    0.000    0.000    0.000 
#
# Total GULP energy -198325.717699 kJ/mol
# GULP energy per Si atom -12395.357356 kJ/mol
# Density = 2.304808 g / cm^3
# Si number density = 23.100662 Si / 1000 Ang^3
#
#
#
# Elastic Constant Matrix: (Units=GPa)
#
#
# Indices 1 2 3 4 5 6 
#
# 1 149.2018 47.5375 34.2861 -38.6111 -9.9190 3.7335
# 2 47.5375 66.3580 20.9837 -27.0275 -13.9911 -2.3556
# 3 34.2861 20.9837 77.5800 -32.6513 -0.3280 10.7859
# 4 -38.6111 -27.0275 -32.6513 29.7716 4.3604 -1.2398
# 5 -9.9190 -13.9911 -0.3280 4.3604 40.8906 -12.2362
# 6 3.7335 -2.3556 10.7859 -1.2398 -12.2362 34.9908
#
#
#
# Elastic Compliance Matrix: (Units=1/GPa)
#
#
# Indices 1 2 3 4 5 6 
#
# 1 0.010633 -0.002994 0.001805 0.013029 -0.000277 -0.001528
# 2 -0.002994 0.027707 0.003295 0.023961 0.007627 0.004685
# 3 0.001805 0.003295 0.027453 0.035757 -0.004660 -0.008796
# 4 0.013029 0.023961 0.035757 0.111507 -0.002562 -0.007744
# 5 -0.000277 0.007627 -0.004660 -0.002562 0.031048 0.012746
# 6 -0.001528 0.004685 -0.008796 -0.007744 0.012746 0.035952
#
#
# Mechanical properties :
#
#
# Convention : Reuss Voigt Hill
#
# Bulk Modulus (GPa) = 14.28489 55.41716 34.85102
# Shear Modulus (GPa) = 18.98093 33.81944 26.40018
#
# Velocity S-wave (km/s) = 2.86957 3.83038 3.38425
# Velocity P-wave (km/s) = 4.14445 6.60333 5.51273
#
# Compressibility (1/GPa) = 0.07000402
#
# Stress axis : x y z
#
# Youngs Moduli (GPa) = 94.04814 36.09243 36.42546
#
# Poissons Ratio (x) = 0.10807 -0.06576
# Poissons Ratio (y) = 0.28160 -0.12000
# Poissons Ratio (z) = -0.16979 -0.11891
#
# Static dielectric constant tensor:
#      x y z
#    x 4.272420 0.154590 -0.171080 
#    y 0.154590 3.927910 -0.245600 
#    z -0.171080 -0.245600 4.221190 
# 
# 
# High freq. dielectric constant tensor:
#      x y z
#    x 1.922310 0.007890 0.000750 
#    y 0.007890 1.890920 -0.015100 
#    z 0.000750 -0.015100 1.914460 
# 
# From -- ./inp_files/37827.got.cif
#   From: 2010.06.25/outbox.cif.g09.slc.cpg/sg2_19_cif.got.tgz:37827.got - 2010.06.27 13:26:56.
