data_PCOD8011163
_publ_section_title
;
Structure prediction by ZEFSAII (Michael W. Deem and Ramdas Pophale) SiO2 
 PCOD8011163
Probable space group: P -1
;
_chemical_formula_sum "Si O2"
_cell_formula_units_Z 16
_cell_length_a 11.404608
_cell_length_b 19.023640
_cell_length_c 17.285039
_cell_angle_alpha 147.896654
_cell_angle_beta 157.076233
_cell_angle_gamma 43.035062
_cell_volume 753.986202
_symmetry_space_group_name_H-M "P -1"
_symmetry_group_IT_number 2
_symmetry_cell_setting 'triclinic'
loop_
_space_group_symop_operation_xyz
x,y,z
-x,-y,-z
loop_
_atom_site_type_symbol
_atom_site_label
_atom_site_fract_x
_atom_site_fract_y
_atom_site_fract_z
Si Si1 0.199378 0.836234 0.220560
Si Si2 0.883408 0.640185 0.261625
Si Si3 0.172762 0.859279 0.908131
Si Si4 0.535516 0.852848 0.597637
Si Si5 0.865675 0.577407 0.697561
Si Si6 0.778571 0.391111 0.211465
Si Si7 0.761381 0.394161 0.704260
Si Si8 0.150948 0.127487 0.430422
O O1 0.286468 0.837860 0.364467
O O2 0.491042 0.833355 0.340658
O O3 0.056627 0.965681 0.237477
O O4 0.937246 0.699624 0.917530
O O5 0.888922 0.787999 0.438699
O O6 0.023023 0.552540 0.325997
O O7 0.068760 0.660772 0.313834
O O8 0.528811 0.559639 0.953161
O O9 0.334210 0.744291 0.931228
O O10 0.869688 0.846707 0.764264
O O11 0.072872 0.835105 0.735879
O O12 0.425136 0.001231 0.201771
O O13 0.416043 0.735398 0.476530
O O14 0.496160 0.532003 0.417120
O O15 0.038913 0.634542 0.777432
O O16 0.000000 0.500000 0.500000
O O17 0.000000 0.500000 0.000000
#
# Coordination Sequence:
#
# PCOD8011163 Si02
#       8
#     2   2   2   2   2   2   2   2
#     4  10  21  38  68  95 133 173 229 275 335 397
#     4  12  26  42  65 102 138 176 227 284 339 400
#     4  10  21  39  68  97 131 169 230 277 331 392
#     4  10  21  40  67  96 129 180 224 273 329 404
#     4  12  24  43  68  97 133 183 230 276 339 399
#     4  12  24  39  66 101 134 173 227 288 333 389
#     4  12  26  46  67  99 141 185 224 272 347 417
#     4  10  21  39  63 100 136 174 217 284 338 392
#
# _framework density 21.220547
#
# number of rings (size 3 to 8) (size 9 to 14) (size 15 to 20)
#    0.000    1.000    2.500    4.500    7.000    0.000 
#    0.000    5.000    0.000    1.500    0.000    0.000 
#    0.000    0.000    0.000    0.000    0.000    0.000 
#
# Total GULP energy -198470.125583 kJ/mol
# GULP energy per Si atom -12404.382849 kJ/mol
# Density = 2.117225 g / cm^3
# Si number density = 21.220547 Si / 1000 Ang^3
#
#
#
# Elastic Constant Matrix: (Units=GPa)
#
#
# Indices 1 2 3 4 5 6 
#
# 1 101.7960 34.9066 39.9463 -4.6716 -18.0030 -5.8987
# 2 34.9066 109.6585 56.0930 2.5173 -13.7706 -1.7170
# 3 39.9463 56.0930 143.3560 -5.8329 -15.8887 -2.7341
# 4 -4.6716 2.5173 -5.8329 37.4111 1.0730 5.0264
# 5 -18.0030 -13.7706 -15.8887 1.0730 27.5449 -1.8682
# 6 -5.8987 -1.7170 -2.7341 5.0264 -1.8682 22.8923
#
#
#
# Elastic Compliance Matrix: (Units=1/GPa)
#
#
# Indices 1 2 3 4 5 6 
#
# 1 0.012657 -0.002265 -0.001852 0.000835 0.006256 0.003198
# 2 -0.002265 0.012215 -0.003943 -0.001853 0.002456 0.000469
# 3 -0.001852 -0.003943 0.009335 0.001399 0.002163 0.000211
# 4 0.000835 -0.001853 0.001399 0.028013 -0.001071 -0.005995
# 5 0.006256 0.002456 0.002163 -0.001071 0.043306 0.005824
# 6 0.003198 0.000469 0.000211 -0.005995 0.005824 0.046359
#
#
# Mechanical properties :
#
#
# Convention : Reuss Voigt Hill
#
# Bulk Modulus (GPa) = 55.28669 68.52248 61.90459
# Shear Modulus (GPa) = 28.72990 32.49397 30.61193
#
# Velocity S-wave (km/s) = 3.68349 3.91736 3.80223
# Velocity P-wave (km/s) = 6.64836 7.26786 6.96500
#
# Compressibility (1/GPa) = 0.01808754
#
# Stress axis : x y z
#
# Youngs Moduli (GPa) = 79.00667 81.86427 107.12139
#
# Poissons Ratio (x) = 0.18542 0.19842
# Poissons Ratio (y) = 0.17895 0.42235
# Poissons Ratio (z) = 0.14635 0.32277
#
# Static dielectric constant tensor:
#      x y z
#    x 3.757810 0.231900 -0.185140 
#    y 0.231900 3.278550 -0.398570 
#    z -0.185140 -0.398570 3.829020 
# 
# 
# High freq. dielectric constant tensor:
#      x y z
#    x 1.820200 0.014290 -0.023990 
#    y 0.014290 1.837790 -0.001740 
#    z -0.023990 -0.001740 1.838100 
# 
# From -- ./inp_files/529085.got.cif
#   From: 2010.06.25/outbox.cif.g09.slc.cpg/sg2_265_cif.got.tgz:529085.got - 2010.06.27 13:26:56.
