data_PCOD8011239
_publ_section_title
;
Structure prediction by ZEFSAII (Michael W. Deem and Ramdas Pophale) SiO2 
 PCOD8011239
Probable space group: P -1
;
_chemical_formula_sum "Si O2"
_cell_formula_units_Z 16
_cell_length_a 6.952845
_cell_length_b 13.351727
_cell_length_c 17.820839
_cell_angle_alpha 44.438540
_cell_angle_beta 50.037943
_cell_angle_gamma 76.870679
_cell_volume 800.982432
_symmetry_space_group_name_H-M "P -1"
_symmetry_group_IT_number 2
_symmetry_cell_setting 'triclinic'
loop_
_space_group_symop_operation_xyz
x,y,z
-x,-y,-z
loop_
_atom_site_type_symbol
_atom_site_label
_atom_site_fract_x
_atom_site_fract_y
_atom_site_fract_z
Si Si1 0.567558 0.944662 0.897330
Si Si2 0.293199 0.302826 0.078874
Si Si3 0.208495 0.500504 0.585107
Si Si4 0.474071 0.837248 0.327165
Si Si5 0.664019 0.178946 0.334870
Si Si6 0.588118 0.663628 0.799270
Si Si7 0.809597 0.309471 0.384802
Si Si8 0.064025 0.846417 0.182321
O O1 0.577282 0.024361 0.772071
O O2 0.833635 0.060984 0.815518
O O3 0.582384 0.779343 0.967774
O O4 0.288181 0.925154 0.018992
O O5 0.377755 0.480920 0.933540
O O6 0.425946 0.302775 0.126997
O O7 0.961587 0.204750 0.214591
O O8 0.500000 0.500000 0.500000
O O9 0.240292 0.663422 0.448478
O O10 0.160267 0.524544 0.673792
O O11 0.974416 0.335654 0.700785
O O12 0.417979 0.837861 0.430713
O O13 0.782971 0.855631 0.222893
O O14 0.497951 0.219940 0.289725
O O15 0.706303 0.296710 0.332001
O O16 0.500000 0.000000 0.500000
O O17 0.898173 0.699547 0.678981
#
# Coordination Sequence:
#
# PCOD8011239 Si02
#       8
#     2   2   2   2   2   2   2   2
#     4  11  23  36  61  86 117 155 194 241 293 347
#     4  10  24  41  61  86 119 159 196 242 293 348
#     4   8  17  36  58  79 117 151 189 235 281 341
#     4   9  21  37  60  82 120 154 191 236 294 341
#     4  11  25  37  64  92 120 150 196 247 296 348
#     4  10  22  43  62  85 119 156 201 238 289 356
#     4   9  21  38  60  89 117 156 194 236 293 348
#     4  10  21  39  56  87 119 150 199 239 286 351
#
# _framework density 19.975469
#
# number of rings (size 3 to 8) (size 9 to 14) (size 15 to 20)
#    0.750    1.500    0.000    1.500    5.250    1.500 
#    0.000    7.500    0.000    0.000    0.000    0.000 
#    0.000    0.000    0.000    0.000    0.000    0.000 
#
# Total GULP energy -198256.909150 kJ/mol
# GULP energy per Si atom -12391.056822 kJ/mol
# Density = 1.993000 g / cm^3
# Si number density = 19.975469 Si / 1000 Ang^3
#
#
#
# Elastic Constant Matrix: (Units=GPa)
#
#
# Indices 1 2 3 4 5 6 
#
# 1 71.4033 30.2289 29.2612 -8.6748 10.5781 4.0546
# 2 30.2289 102.7858 17.2861 0.8562 -4.0922 6.8921
# 3 29.2612 17.2861 83.1123 -10.5703 0.8107 -1.8021
# 4 -8.6748 0.8562 -10.5703 35.6069 2.9723 0.5553
# 5 10.5781 -4.0922 0.8107 2.9723 27.5630 -6.0598
# 6 4.0546 6.8921 -1.8021 0.5553 -6.0598 18.7392
#
#
#
# Elastic Compliance Matrix: (Units=1/GPa)
#
#
# Indices 1 2 3 4 5 6 
#
# 1 0.021132 -0.005245 -0.005814 0.004548 -0.010703 -0.006798
# 2 -0.005245 0.011726 -0.000939 -0.002103 0.003556 -0.002056
# 3 -0.005814 -0.000939 0.014678 0.002726 0.002165 0.003634
# 4 0.004548 -0.002103 0.002726 0.030602 -0.006057 -0.002814
# 5 -0.010703 0.003556 0.002165 -0.006057 0.045012 0.015951
# 6 -0.006798 -0.002056 0.003634 -0.002814 0.015951 0.061182
#
#
# Mechanical properties :
#
#
# Convention : Reuss Voigt Hill
#
# Bulk Modulus (GPa) = 42.47872 45.65044 44.06458
# Shear Modulus (GPa) = 23.12925 28.41683 25.77304
#
# Velocity S-wave (km/s) = 3.40646 3.77581 3.59588
# Velocity P-wave (km/s) = 6.06495 6.47394 6.27278
#
# Compressibility (1/GPa) = 0.02354120
#
# Stress axis : x y z
#
# Youngs Moduli (GPa) = 47.32123 85.27703 68.12734
#
# Poissons Ratio (x) = 0.44731 0.39606
# Poissons Ratio (y) = 0.24822 0.06397
# Poissons Ratio (z) = 0.27511 0.08007
#
# Static dielectric constant tensor:
#      x y z
#    x 3.273290 0.060870 -0.154590 
#    y 0.060870 3.663710 -0.027620 
#    z -0.154590 -0.027620 3.778490 
# 
# 
# High freq. dielectric constant tensor:
#      x y z
#    x 1.750080 -0.000340 -0.015670 
#    y -0.000340 1.787040 0.004800 
#    z -0.015670 0.004800 1.787500 
# 
# From -- ./inp_files/550064.got.cif
#   From: 2010.06.25/outbox.cif.g09.slc.cpg/sg2_276_cif.got.tgz:550064.got - 2010.06.27 13:26:56.
