data_PCOD8011511
_publ_section_title
;
Structure prediction by ZEFSAII (Michael W. Deem and Ramdas Pophale) SiO2 
 PCOD8011511
Probable space group: P -1
;
_chemical_formula_sum "Si O2"
_cell_formula_units_Z 16
_cell_length_a 6.929888
_cell_length_b 6.150631
_cell_length_c 26.867640
_cell_angle_alpha 97.051524
_cell_angle_beta 135.729022
_cell_angle_gamma 96.059694
_cell_volume 761.788025
_symmetry_space_group_name_H-M "P -1"
_symmetry_group_IT_number 2
_symmetry_cell_setting 'triclinic'
loop_
_space_group_symop_operation_xyz
x,y,z
-x,-y,-z
loop_
_atom_site_type_symbol
_atom_site_label
_atom_site_fract_x
_atom_site_fract_y
_atom_site_fract_z
Si Si1 0.769948 0.518797 0.163664
Si Si2 0.300996 0.101533 0.033045
Si Si3 0.244956 0.719907 0.409065
Si Si4 0.811449 0.245341 0.333306
Si Si5 0.817738 0.772900 0.765363
Si Si6 0.116498 0.062307 0.468495
Si Si7 0.752886 0.851520 0.087101
Si Si8 0.040601 0.077222 0.722039
O O1 0.492944 0.300632 0.109301
O O2 0.787517 0.630179 0.115544
O O3 0.062758 0.446658 0.224808
O O4 0.744726 0.698555 0.206688
O O5 0.454947 0.901318 0.049745
O O6 0.250587 0.203798 0.973307
O O7 0.000000 0.000000 0.000000
O O8 0.583119 0.737045 0.470529
O O9 0.185032 0.855886 0.353834
O O10 0.066190 0.457236 0.367132
O O11 0.164929 0.833535 0.447452
O O12 0.519224 0.318173 0.286846
O O13 0.887948 0.152415 0.397465
O O14 0.766044 0.050094 0.277138
O O15 0.857926 0.917013 0.726248
O O16 0.983346 0.927514 0.845588
O O17 0.000000 0.000000 0.500000
#
# Coordination Sequence:
#
# PCOD8011511 Si02
#       8
#     2   2   2   2   2   2   2   2
#     4  10  21  40  63  87 123 162 197 247 300 353
#     4  10  21  39  62  89 119 155 199 248 300 351
#     4  10  22  38  60  90 120 154 200 251 298 354
#     4  11  23  39  63  91 121 159 202 248 299 356
#     4  10  22  39  60  87 121 161 201 246 299 357
#     4  10  22  40  61  88 121 157 199 247 301 355
#     4   9  21  39  58  87 122 154 198 247 294 357
#     4  10  22  40  59  86 123 158 201 248 299 358
#
# _framework density 21.003218
#
# number of rings (size 3 to 8) (size 9 to 14) (size 15 to 20)
#    0.000    2.000    0.000    2.250    0.000   11.000 
#    0.000    6.250    0.000    0.000    0.000    0.000 
#    0.000    0.000    0.000    0.000    0.000    0.000 
#
# Total GULP energy -198472.689108 kJ/mol
# GULP energy per Si atom -12404.543069 kJ/mol
# Density = 2.095541 g / cm^3
# Si number density = 21.003218 Si / 1000 Ang^3
#
#
#
# Elastic Constant Matrix: (Units=GPa)
#
#
# Indices 1 2 3 4 5 6 
#
# 1 127.6258 54.4341 77.6674 6.9290 7.6374 -2.4020
# 2 54.4341 104.9111 43.7242 5.0833 1.4322 -6.2537
# 3 77.6674 43.7242 112.4750 2.7662 2.0740 -7.5679
# 4 6.9290 5.0833 2.7662 29.4968 1.1325 1.6586
# 5 7.6374 1.4322 2.0740 1.1325 39.3542 1.5028
# 6 -2.4020 -6.2537 -7.5679 1.6586 1.5028 14.7903
#
#
#
# Elastic Compliance Matrix: (Units=1/GPa)
#
#
# Indices 1 2 3 4 5 6 
#
# 1 0.015348 -0.004272 -0.009095 -0.001734 -0.002158 -0.003553
# 2 -0.004272 0.012756 -0.001720 -0.001268 0.000342 0.003927
# 3 -0.009095 -0.001720 0.016213 0.000549 0.000730 0.005956
# 4 -0.001734 -0.001268 0.000549 0.034741 -0.000479 -0.004384
# 5 -0.002158 0.000342 0.000730 -0.000479 0.025884 -0.002409
# 6 -0.003553 0.003927 0.005956 -0.004384 -0.002409 0.072479
#
#
# Mechanical properties :
#
#
# Convention : Reuss Voigt Hill
#
# Bulk Modulus (GPa) = 70.69521 77.40703 74.05112
# Shear Modulus (GPa) = 23.55056 28.00733 25.77895
#
# Velocity S-wave (km/s) = 3.35219 3.65564 3.50720
# Velocity P-wave (km/s) = 6.97963 7.39954 7.19265
#
# Compressibility (1/GPa) = 0.01414523
#
# Stress axis : x y z
#
# Youngs Moduli (GPa) = 65.15421 78.39486 61.67754
#
# Poissons Ratio (x) = 0.33487 0.56093
# Poissons Ratio (y) = 0.27831 0.10609
# Poissons Ratio (z) = 0.59255 0.13485
#
# Static dielectric constant tensor:
#      x y z
#    x 3.536450 -0.098260 -0.149790 
#    y -0.098260 3.829170 -0.065240 
#    z -0.149790 -0.065240 4.031350 
# 
# 
# High freq. dielectric constant tensor:
#      x y z
#    x 1.805570 -0.000690 -0.010510 
#    y -0.000690 1.823760 -0.005710 
#    z -0.010510 -0.005710 1.838900 
# 
# From -- ./inp_files/15001.got.cif
#   From: 2010.06.25/outbox.cif.g09.slc.cpg/sg2_8_cif.got.tgz:15001.got - 2010.06.27 13:26:56.
