data_PCOD8011610
_publ_section_title
;
Structure prediction by ZEFSAII (Michael W. Deem and Ramdas Pophale) SiO2 
 PCOD8011610
Probable space group: P -1
;
_chemical_formula_sum "Si O2"
_cell_formula_units_Z 16
_cell_length_a 15.018210
_cell_length_b 9.166291
_cell_length_c 12.398227
_cell_angle_alpha 111.238851
_cell_angle_beta 149.584575
_cell_angle_gamma 81.371062
_cell_volume 756.204897
_symmetry_space_group_name_H-M "P -1"
_symmetry_group_IT_number 2
_symmetry_cell_setting 'triclinic'
loop_
_space_group_symop_operation_xyz
x,y,z
-x,-y,-z
loop_
_atom_site_type_symbol
_atom_site_label
_atom_site_fract_x
_atom_site_fract_y
_atom_site_fract_z
Si Si1 0.912850 0.657288 0.837632
Si Si2 0.021346 0.258241 0.521842
Si Si3 0.375567 0.849127 0.179011
Si Si4 0.727573 0.319782 0.666611
Si Si5 0.994615 0.582632 0.672964
Si Si6 0.411539 0.933350 0.726153
Si Si7 0.641202 0.846540 0.637939
Si Si8 0.729222 0.922795 0.193176
O O1 0.803192 0.511731 0.766004
O O2 0.827473 0.800758 0.810760
O O3 0.879470 0.597523 0.662727
O O4 0.134531 0.720886 0.113533
O O5 0.071613 0.329100 0.472183
O O6 0.953686 0.387656 0.554570
O O7 0.199907 0.233873 0.761223
O O8 0.865001 0.074693 0.304441
O O9 0.556167 0.839160 0.427874
O O10 0.442883 0.919499 0.150433
O O11 0.291024 0.969474 0.190371
O O12 0.216716 0.670211 0.949104
O O13 0.724199 0.210463 0.528290
O O14 0.521003 0.276466 0.488666
O O15 0.282331 0.008292 0.680806
O O16 0.528363 0.854657 0.906827
#
# Coordination Sequence:
#
# PCOD8011610 Si02
#       8
#     2   2   2   2   2   2   2   2
#     4  11  23  39  65  91 123 165 200 249 311 369
#     4  10  23  40  61  90 120 161 205 257 306 358
#     4  10  21  40  58  89 127 161 199 255 306 364
#     4  10  22  42  59  95 126 156 204 255 302 368
#     4  11  22  41  60  89 130 158 200 262 305 361
#     4  10  21  39  63  87 122 159 205 256 299 364
#     4  10  22  40  62  89 125 164 202 246 306 366
#     4  10  21  41  64  88 116 163 212 247 305 366
#
# _framework density 21.158287000000001
#
# number of rings (size 3 to 8) (size 9 to 14) (size 15 to 20)
#    0.000    1.750    2.500    1.125    1.750    2.500 
#   11.250    0.625    0.000    0.000    0.000    0.000 
#    0.000    0.000    0.000    0.000    0.000    0.000 
#
# Total GULP energy -198431.201209 kJ/mol
# GULP energy per Si atom -12401.950076 kJ/mol
# Density = 2.111013 g / cm^3
# Si number density = 21.158287 Si / 1000 Ang^3
#
#
#
# Elastic Constant Matrix: (Units=GPa)
#
#
# Indices 1 2 3 4 5 6 
#
# 1 79.2539 25.7274 11.0847 -17.7400 -15.0207 -2.5058
# 2 25.7274 108.4730 26.6196 -18.7533 -4.0203 -3.8368
# 3 11.0847 26.6196 56.9894 -4.6598 -10.6971 -2.4183
# 4 -17.7400 -18.7533 -4.6598 26.4764 0.1541 0.7196
# 5 -15.0207 -4.0203 -10.6971 0.1541 30.5814 -3.9521
# 6 -2.5058 -3.8368 -2.4183 0.7196 -3.9521 21.1068
#
#
#
# Elastic Compliance Matrix: (Units=1/GPa)
#
#
# Indices 1 2 3 4 5 6 
#
# 1 0.017196 -0.001952 0.000120 0.010030 0.008564 0.002962
# 2 -0.001952 0.011953 -0.004832 0.006287 -0.000981 0.000989
# 3 0.000120 -0.004832 0.021288 0.000283 0.007246 0.002922
# 4 0.010030 0.006287 0.000283 0.048911 0.005837 0.001792
# 5 0.008564 -0.000981 0.007246 0.005837 0.040451 0.009044
# 6 0.002962 0.000989 0.002922 0.001792 0.009044 0.049877
#
#
# Mechanical properties :
#
#
# Convention : Reuss Voigt Hill
#
# Bulk Modulus (GPa) = 26.94627 41.28661 34.11644
# Shear Modulus (GPa) = 23.21555 27.71855 25.46705
#
# Velocity S-wave (km/s) = 3.31604 3.62340 3.47312
# Velocity P-wave (km/s) = 5.23686 6.08777 5.67828
#
# Compressibility (1/GPa) = 0.03711089
#
# Stress axis : x y z
#
# Youngs Moduli (GPa) = 58.15168 83.66022 46.97493
#
# Poissons Ratio (x) = 0.16329 -0.00565
# Poissons Ratio (y) = 0.11350 0.22697
# Poissons Ratio (z) = -0.00699 0.40422
#
# Static dielectric constant tensor:
#      x y z
#    x 3.795590 0.150560 -0.164410 
#    y 0.150560 3.706120 -0.080500 
#    z -0.164410 -0.080500 3.729100 
# 
# 
# High freq. dielectric constant tensor:
#      x y z
#    x 1.833680 0.014950 -0.010010 
#    y 0.014950 1.822650 -0.002940 
#    z -0.010010 -0.002940 1.823520 
# 
# From -- ./inp_files/331978.got.cif
#   From: 2010.06.25/outbox.cif.g09.slc.cpg/sg2_166_cif.got.tgz:331978.got - 2010.06.27 13:26:56.
