data_PCOD8011536
_publ_section_title
;
Structure prediction by ZEFSAII (Michael W. Deem and Ramdas Pophale) SiO2 
 PCOD8011536
Probable space group: P -1
;
_chemical_formula_sum "Si O2"
_cell_formula_units_Z 12
_cell_length_a 7.168223
_cell_length_b 6.946318
_cell_length_c 18.181492
_cell_angle_alpha 68.884593
_cell_angle_beta 134.340224
_cell_angle_gamma 120.576194
_cell_volume 557.431454
_symmetry_space_group_name_H-M "P -1"
_symmetry_group_IT_number 2
_symmetry_cell_setting 'triclinic'
loop_
_space_group_symop_operation_xyz
x,y,z
-x,-y,-z
loop_
_atom_site_type_symbol
_atom_site_label
_atom_site_fract_x
_atom_site_fract_y
_atom_site_fract_z
Si Si1 0.291364 0.548829 0.491951
Si Si2 0.697036 0.477025 0.188421
Si Si3 0.822810 0.122746 0.682984
Si Si4 0.343524 0.691142 0.645441
Si Si5 0.277798 0.682551 0.020322
Si Si6 0.725543 0.082961 0.160016
O O1 0.500000 0.500000 0.500000
O O2 0.413514 0.589073 0.603052
O O3 0.986486 0.341996 0.437157
O O4 0.255409 0.776895 0.426403
O O5 0.591364 0.438531 0.249717
O O6 0.490341 0.561612 0.073237
O O7 0.690753 0.243103 0.190482
O O8 0.013099 0.670137 0.245109
O O9 0.539327 0.954593 0.667466
O O10 0.027287 0.995195 0.735796
O O11 0.428921 0.873003 0.096666
O O12 0.188242 0.786422 0.910919
O O13 0.000000 0.500000 0.000000
#
# Coordination Sequence:
#
# PCOD8011536 Si02
#       6
#     2   2   2   2   2   2
#     4  10  23  43  64  91 125 164 208 258 308 367
#     4  10  22  40  60  96 123 164 209 251 311 366
#     4  10  22  40  61  90 125 158 209 258 299 372
#     4  10  22  41  62  93 125 158 213 250 308 375
#     4  10  21  39  62  90 126 163 208 252 301 376
#     4  10  22  39  63  88 128 162 201 262 305 358
#
# _framework density 21.52731
#
# number of rings (size 3 to 8) (size 9 to 14) (size 15 to 20)
#    0.000    2.000    0.000    2.000    4.667    2.667 
#   12.000    0.000    0.000    0.000    0.000    0.000 
#    0.000    0.000    0.000    0.000    0.000    0.000 
#
# Total GULP energy -148779.475908 kJ/mol
# GULP energy per Si atom -12398.289659 kJ/mol
# Density = 2.147831 g / cm^3
# Si number density = 21.527310 Si / 1000 Ang^3
#
#
#
# Elastic Constant Matrix: (Units=GPa)
#
#
# Indices 1 2 3 4 5 6 
#
# 1 116.1677 73.5348 42.7308 14.6599 0.9545 6.4140
# 2 73.5348 155.7388 54.2310 5.6883 5.9921 13.3921
# 3 42.7308 54.2310 81.3426 -7.0666 -0.0409 -6.5329
# 4 14.6599 5.6883 -7.0666 33.9228 0.5108 9.9533
# 5 0.9545 5.9921 -0.0409 0.5108 19.9469 5.2516
# 6 6.4140 13.3921 -6.5329 9.9533 5.2516 58.1026
#
#
#
# Elastic Compliance Matrix: (Units=1/GPa)
#
#
# Indices 1 2 3 4 5 6 
#
# 1 0.014241 -0.004861 -0.004791 -0.006355 0.000928 0.000014
# 2 -0.004861 0.010643 -0.004721 0.000024 -0.002386 -0.002236
# 3 -0.004791 -0.004721 0.018688 0.005974 0.000843 0.002619
# 4 -0.006355 0.000024 0.005974 0.034822 0.000643 -0.004656
# 5 0.000928 -0.002386 0.000843 0.000643 0.051912 -0.004260
# 6 0.000014 -0.002236 0.002619 -0.004656 -0.004260 0.019202
#
#
# Mechanical properties :
#
#
# Convention : Reuss Voigt Hill
#
# Bulk Modulus (GPa) = 67.44671 77.13804 72.29237
# Shear Modulus (GPa) = 27.29327 34.57797 30.93562
#
# Velocity S-wave (km/s) = 3.56454 4.01214 3.79494
# Velocity P-wave (km/s) = 6.95270 7.57452 7.27026
#
# Compressibility (1/GPa) = 0.01482652
#
# Stress axis : x y z
#
# Youngs Moduli (GPa) = 70.21991 93.95674 53.51101
#
# Poissons Ratio (x) = 0.45669 0.25637
# Poissons Ratio (y) = 0.34131 0.25263
# Poissons Ratio (z) = 0.33642 0.44358
#
# Static dielectric constant tensor:
#      x y z
#    x 3.570110 0.226760 0.152340 
#    y 0.226760 4.136290 -0.050900 
#    z 0.152340 -0.050900 4.207430 
# 
# 
# High freq. dielectric constant tensor:
#      x y z
#    x 1.816220 0.022300 0.006330 
#    y 0.022300 1.854830 0.001400 
#    z 0.006330 0.001400 1.856730 
# 
# From -- ./inp_files/8646.got.cif
#   From: 2010.06.25/outbox.cif.g09.slc.cpg/sg2_5_cif.got.tgz:8646.got - 2010.06.27 13:26:56.
