data_PCOD8011305
_publ_section_title
;
Structure prediction by ZEFSAII (Michael W. Deem and Ramdas Pophale) SiO2 
 PCOD8011305
Probable space group: P -1
;
_chemical_formula_sum "Si O2"
_cell_formula_units_Z 16
_cell_length_a 8.883775
_cell_length_b 8.839889
_cell_length_c 11.460729
_cell_angle_alpha 112.859128
_cell_angle_beta 76.841677
_cell_angle_gamma 111.875196
_cell_volume 766.003019
_symmetry_space_group_name_H-M "P -1"
_symmetry_group_IT_number 2
_symmetry_cell_setting 'triclinic'
loop_
_space_group_symop_operation_xyz
x,y,z
-x,-y,-z
loop_
_atom_site_type_symbol
_atom_site_label
_atom_site_fract_x
_atom_site_fract_y
_atom_site_fract_z
Si Si1 0.047741 0.328439 0.356597
Si Si2 0.608025 0.244301 0.739030
Si Si3 0.705751 0.869354 0.114650
Si Si4 0.003343 0.233457 0.899692
Si Si5 0.745267 0.886634 0.848819
Si Si6 0.270743 0.662584 0.507421
Si Si7 0.470944 0.878996 0.730711
Si Si8 0.938443 0.490940 0.827624
O O1 0.873353 0.246711 0.428210
O O2 0.123495 0.184768 0.258583
O O3 0.179359 0.456190 0.458963
O O4 0.007709 0.441963 0.291517
O O5 0.442663 0.266147 0.829314
O O6 0.623451 0.280749 0.610266
O O7 0.748675 0.379338 0.827908
O O8 0.602087 0.043706 0.693997
O O9 0.869761 0.874945 0.155114
O O10 0.679145 0.059007 0.175533
O O11 0.715805 0.811988 0.962257
O O12 0.031493 0.359384 0.819590
O O13 0.821749 0.095200 0.894068
O O14 0.029409 0.346295 0.045374
O O15 0.568047 0.820967 0.799602
O O16 0.397565 0.717828 0.608594
#
# Coordination Sequence:
#
# PCOD8011305 Si02
#       8
#     2   2   2   2   2   2   2   2
#     4  10  23  41  68  89 124 158 213 261 300 361
#     4   9  21  41  60  88 127 161 201 252 307 362
#     4  10  22  37  64  94 126 165 196 258 310 374
#     4  11  21  37  62  90 128 159 206 241 314 374
#     4  12  22  41  61 100 123 161 206 255 312 372
#     4  10  21  44  65  85 121 172 208 252 308 355
#     4  10  22  38  64  90 129 163 200 254 309 368
#     4  10  21  39  59  91 127 162 195 259 302 366
#
# _framework density 20.887646
#
# number of rings (size 3 to 8) (size 9 to 14) (size 15 to 20)
#    0.750    1.000    2.500    1.875    1.750    1.000 
#    2.250    4.375    0.000    0.000    0.000    0.000 
#    0.000    0.000    0.000    0.000    0.000    0.000 
#
# Total GULP energy -198269.447622 kJ/mol
# GULP energy per Si atom -12391.840476 kJ/mol
# Density = 2.084010 g / cm^3
# Si number density = 20.887646 Si / 1000 Ang^3
#
#
#
# Elastic Constant Matrix: (Units=GPa)
#
#
# Indices 1 2 3 4 5 6 
#
# 1 104.8597 33.2554 52.8869 0.1797 13.0112 -5.7087
# 2 33.2554 59.7059 32.8020 6.1201 7.9390 6.5492
# 3 52.8869 32.8020 97.5260 20.3302 9.6004 9.8615
# 4 0.1797 6.1201 20.3302 22.6578 8.7499 5.1013
# 5 13.0112 7.9390 9.6004 8.7499 43.0309 3.2355
# 6 -5.7087 6.5492 9.8615 5.1013 3.2355 36.6723
#
#
#
# Elastic Compliance Matrix: (Units=1/GPa)
#
#
# Indices 1 2 3 4 5 6 
#
# 1 0.016864 -0.005103 -0.009696 0.010548 -0.004521 0.005076
# 2 -0.005103 0.022496 -0.004099 -0.001116 -0.001207 -0.003448
# 3 -0.009696 -0.004099 0.020684 -0.017583 0.002961 -0.004155
# 4 0.010548 -0.001116 -0.017583 0.065162 -0.012204 -0.001418
# 5 -0.004521 -0.001207 0.002961 -0.012204 0.026796 -0.001951
# 6 0.005076 -0.003448 -0.004155 -0.001418 -0.001951 0.030161
#
#
# Mechanical properties :
#
#
# Convention : Reuss Voigt Hill
#
# Bulk Modulus (GPa) = 44.94607 55.55333 50.24970
# Shear Modulus (GPa) = 21.98999 30.01535 26.00267
#
# Velocity S-wave (km/s) = 3.24817 3.79488 3.53212
# Velocity P-wave (km/s) = 5.96927 6.77167 6.38309
#
# Compressibility (1/GPa) = 0.02224889
#
# Stress axis : x y z
#
# Youngs Moduli (GPa) = 59.29667 44.45203 48.34596
#
# Poissons Ratio (x) = 0.22685 0.46875
# Poissons Ratio (y) = 0.30260 0.19817
# Poissons Ratio (z) = 0.57493 0.18221
#
# Static dielectric constant tensor:
#      x y z
#    x 3.685990 0.106400 0.097210 
#    y 0.106400 3.596130 0.035110 
#    z 0.097210 0.035110 3.739100 
# 
# 
# High freq. dielectric constant tensor:
#      x y z
#    x 1.811010 0.016090 0.010620 
#    y 0.016090 1.798980 0.007770 
#    z 0.010620 0.007770 1.818520 
# 
# From -- ./inp_files/379933.got.cif
#   From: 2010.06.25/outbox.cif.g09.slc.cpg/sg2_190_cif.got.tgz:379933.got - 2010.06.27 13:26:56.
