data_PCOD8011327
_publ_section_title
;
Structure prediction by ZEFSAII (Michael W. Deem and Ramdas Pophale) SiO2 
 PCOD8011327
Probable space group: P -1
;
_chemical_formula_sum "Si O2"
_cell_formula_units_Z 16
_cell_length_a 29.696371
_cell_length_b 9.609579
_cell_length_c 14.344939
_cell_angle_alpha 50.338796
_cell_angle_beta 20.351605
_cell_angle_gamma 38.847173
_cell_volume 809.772695
_symmetry_space_group_name_H-M "P -1"
_symmetry_group_IT_number 2
_symmetry_cell_setting 'triclinic'
loop_
_space_group_symop_operation_xyz
x,y,z
-x,-y,-z
loop_
_atom_site_type_symbol
_atom_site_label
_atom_site_fract_x
_atom_site_fract_y
_atom_site_fract_z
Si Si1 0.687393 0.380465 0.267035
Si Si2 0.632219 0.571690 0.108658
Si Si3 0.335061 0.546887 0.260344
Si Si4 0.565213 0.939968 0.794737
Si Si5 0.500266 0.788051 0.602706
Si Si6 0.218523 0.662534 0.634041
Si Si7 0.205812 0.803838 0.205856
Si Si8 0.155870 0.024200 0.732040
O O1 0.760265 0.399819 0.020157
O O2 0.547945 0.350124 0.541488
O O3 0.594408 0.628962 0.395992
O O4 0.846263 0.137530 0.117882
O O5 0.587132 0.825798 0.073979
O O6 0.705538 0.435337 0.926117
O O7 0.394158 0.292170 0.225749
O O8 0.197382 0.672242 0.559218
O O9 0.240654 0.730779 0.277883
O O10 0.500000 0.500000 0.000000
O O11 0.740319 0.896735 0.472871
O O12 0.500000 0.000000 0.000000
O O13 0.610057 0.615184 0.552824
O O14 0.500000 0.000000 0.500000
O O15 0.300001 0.903992 0.952240
O O16 0.237342 0.853845 0.552930
O O17 0.048479 0.731612 0.983870
O O18 0.000000 0.000000 0.500000
#
# Coordination Sequence:
#
# PCOD8011327 Si02
#       8
#     2   2   2   2   2   2   2   2
#     4   8  17  33  59  81 110 153 198 244 301 353
#     4   9  18  36  56  84 113 153 201 249 301 360
#     4  12  24  40  64  89 122 168 208 255 319 370
#     4  11  21  37  62  87 124 161 211 252 304 376
#     4  10  21  39  60  85 123 160 197 250 312 368
#     4  10  21  39  63  89 126 158 206 257 319 369
#     4  11  24  41  61  90 127 161 205 258 312 371
#     4   9  20  39  61  90 120 159 205 263 306 368
#
# _framework density 19.75863
#
# number of rings (size 3 to 8) (size 9 to 14) (size 15 to 20)
#    0.000    2.000    2.500    1.500    3.500    1.500 
#    0.000    0.000    0.000    1.500    0.000    0.000 
#    0.000    0.000    0.000    0.000    0.000    0.000 
#
# Total GULP energy -198246.068555 kJ/mol
# GULP energy per Si atom -12390.379285 kJ/mol
# Density = 1.971366 g / cm^3
# Si number density = 19.758630 Si / 1000 Ang^3
#
#
#
# Elastic Constant Matrix: (Units=GPa)
#
#
# Indices 1 2 3 4 5 6 
#
# 1 131.9695 44.1477 32.3523 -2.8398 12.5728 -2.5064
# 2 44.1477 115.0859 44.5343 -11.8719 -6.7488 14.7807
# 3 32.3523 44.5343 91.5742 2.2902 -13.2624 -0.0402
# 4 -2.8398 -11.8719 2.2902 20.1826 1.2633 -5.5832
# 5 12.5728 -6.7488 -13.2624 1.2633 32.7483 0.0054
# 6 -2.5064 14.7807 -0.0402 -5.5832 0.0054 32.1331
#
#
#
# Elastic Compliance Matrix: (Units=1/GPa)
#
#
# Indices 1 2 3 4 5 6 
#
# 1 0.009963 -0.003326 -0.002739 0.000785 -0.005651 0.002441
# 2 -0.003326 0.013465 -0.005298 0.006474 0.001657 -0.005335
# 3 -0.002739 -0.005298 0.015532 -0.005303 0.006455 0.001320
# 4 0.000785 0.006474 -0.005303 0.056165 -0.003283 0.006836
# 5 -0.005651 0.001657 0.006455 -0.003283 0.035788 -0.001771
# 6 0.002441 -0.005335 0.001320 0.006836 -0.001771 0.034955
#
#
# Mechanical properties :
#
#
# Convention : Reuss Voigt Hill
#
# Bulk Modulus (GPa) = 61.59525 64.52202 63.05864
# Shear Modulus (GPa) = 25.77248 31.51916 28.64582
#
# Velocity S-wave (km/s) = 3.61552 3.99834 3.81174
# Velocity P-wave (km/s) = 6.97645 7.35130 7.16633
#
# Compressibility (1/GPa) = 0.01623502
#
# Stress axis : x y z
#
# Youngs Moduli (GPa) = 100.36903 74.26558 64.38189
#
# Poissons Ratio (x) = 0.24698 0.17637
# Poissons Ratio (y) = 0.33380 0.34107
# Poissons Ratio (z) = 0.27496 0.39343
#
# Static dielectric constant tensor:
#      x y z
#    x 4.281420 -0.198420 0.123460 
#    y -0.198420 3.648100 -0.049110 
#    z 0.123460 -0.049110 3.504320 
# 
# 
# High freq. dielectric constant tensor:
#      x y z
#    x 1.782410 -0.005760 0.006860 
#    y -0.005760 1.759990 0.003850 
#    z 0.006860 0.003850 1.751410 
# 
# From -- ./inp_files/544875.got.cif
#   From: 2010.06.25/outbox.cif.g09.slc.cpg/sg2_273_cif.got.tgz:544875.got - 2010.06.27 13:26:56.
