data_PCOD8011979
_publ_section_title
;
Structure prediction by ZEFSAII (Michael W. Deem and Ramdas Pophale) SiO2 
 PCOD8011979
Probable space group: P -1
;
_chemical_formula_sum "Si O2"
_cell_formula_units_Z 16
_cell_length_a 8.970657
_cell_length_b 11.024143
_cell_length_c 13.293781
_cell_angle_alpha 120.393154
_cell_angle_beta 133.578128
_cell_angle_gamma 84.734931
_cell_volume 748.817238
_symmetry_space_group_name_H-M "P -1"
_symmetry_group_IT_number 2
_symmetry_cell_setting 'triclinic'
loop_
_space_group_symop_operation_xyz
x,y,z
-x,-y,-z
loop_
_atom_site_type_symbol
_atom_site_label
_atom_site_fract_x
_atom_site_fract_y
_atom_site_fract_z
Si Si1 0.585981 0.291685 0.958816
Si Si2 0.653406 0.004181 0.790935
Si Si3 0.242763 0.695907 0.402824
Si Si4 0.202834 0.576158 0.548890
Si Si5 0.134065 0.135556 0.005749
Si Si6 0.371360 0.468587 0.243142
Si Si7 0.519283 0.167562 0.082247
Si Si8 0.224172 0.391261 0.912800
O O1 0.766816 0.447768 0.061818
O O2 0.566504 0.139659 0.824375
O O3 0.656841 0.269355 0.095539
O O4 0.351296 0.312785 0.868863
O O5 0.446930 0.858453 0.589588
O O6 0.768038 0.968407 0.928363
O O7 0.864297 0.060865 0.834152
O O8 0.141851 0.589302 0.410250
O O9 0.327077 0.609221 0.323327
O O10 0.040267 0.723636 0.265567
O O11 0.363676 0.485312 0.594750
O O12 0.346644 0.753986 0.722124
O O13 0.000000 0.500000 0.500000
O O14 0.216841 0.309037 0.163503
O O15 0.261247 0.157604 0.965090
O O16 0.321844 0.439632 0.089685
O O17 0.500000 0.000000 0.000000
#
# Coordination Sequence:
#
# PCOD8011979 Si02
#       8
#     2   2   2   2   2   2   2   2
#     4  11  22  43  68  91 128 175 219 256 323 395
#     4  11  23  40  64  99 128 168 211 272 324 378
#     4  12  24  42  65 100 130 168 215 275 321 376
#     4  11  23  38  64  99 131 158 217 272 319 372
#     4  10  21  39  65  93 130 164 217 254 329 379
#     4  11  23  46  66  95 130 175 217 259 326 395
#     4  11  19  39  66  94 127 167 211 262 318 386
#     4  11  25  42  70  91 128 178 219 261 319 391
#
# _framework density 21.367028000000001
#
# number of rings (size 3 to 8) (size 9 to 14) (size 15 to 20)
#    0.000    1.000    6.250    2.250    1.750    1.500 
#    0.000    2.500    0.000    0.000    0.000    0.000 
#    0.000    0.000    0.000    0.000    0.000    0.000 
#
# Total GULP energy -198224.376179 kJ/mol
# GULP energy per Si atom -12389.023511 kJ/mol
# Density = 2.131840 g / cm^3
# Si number density = 21.367028 Si / 1000 Ang^3
#
#
#
# Elastic Constant Matrix: (Units=GPa)
#
#
# Indices 1 2 3 4 5 6 
#
# 1 97.9165 24.3200 35.7388 13.7379 6.4017 -13.0597
# 2 24.3200 102.4389 27.2572 18.6444 -3.5856 -22.7234
# 3 35.7388 27.2572 79.2810 3.4481 10.8099 -23.0210
# 4 13.7379 18.6444 3.4481 31.3793 -0.5268 -6.2845
# 5 6.4017 -3.5856 10.8099 -0.5268 31.5630 -0.0759
# 6 -13.0597 -22.7234 -23.0210 -6.2845 -0.0759 46.1917
#
#
#
# Elastic Compliance Matrix: (Units=1/GPa)
#
#
# Indices 1 2 3 4 5 6 
#
# 1 0.013065 -0.000901 -0.005234 -0.004624 -0.001037 0.000011
# 2 -0.000901 0.012798 -0.002999 -0.006091 0.002571 0.003722
# 3 -0.005234 -0.002999 0.018578 0.003288 -0.005571 0.006742
# 4 -0.004624 -0.006091 0.003288 0.037638 -0.000246 0.002455
# 5 -0.001037 0.002571 -0.005571 -0.000246 0.034085 -0.001782
# 6 0.000011 0.003722 0.006742 0.002455 -0.001782 0.027174
#
#
# Mechanical properties :
#
#
# Convention : Reuss Voigt Hill
#
# Bulk Modulus (GPa) = 38.20659 50.47426 44.34043
# Shear Modulus (GPa) = 29.35468 34.64814 32.00141
#
# Velocity S-wave (km/s) = 3.71054 4.03124 3.87421
# Velocity P-wave (km/s) = 6.02307 6.73362 6.38823
#
# Compressibility (1/GPa) = 0.02617350
#
# Stress axis : x y z
#
# Youngs Moduli (GPa) = 76.53985 78.13679 53.82715
#
# Poissons Ratio (x) = 0.07042 0.28173
# Poissons Ratio (y) = 0.06898 0.16141
# Poissons Ratio (z) = 0.40061 0.23430
#
# Static dielectric constant tensor:
#      x y z
#    x 4.094450 -0.397350 0.041220 
#    y -0.397350 3.264850 -0.150910 
#    z 0.041220 -0.150910 3.593690 
# 
# 
# High freq. dielectric constant tensor:
#      x y z
#    x 1.852140 -0.004560 0.010480 
#    y -0.004560 1.844610 0.005800 
#    z 0.010480 0.005800 1.813320 
# 
# From -- ./inp_files/500918.got.cif
#   From: 2010.06.25/outbox.cif.g09.slc.cpg/sg2_251_cif.got.tgz:500918.got - 2010.06.27 13:26:56.
