data_PCOD8011770
_publ_section_title
;
Structure prediction by ZEFSAII (Michael W. Deem and Ramdas Pophale) SiO2 
 PCOD8011770
Probable space group: P -1
;
_chemical_formula_sum "Si O2"
_cell_formula_units_Z 16
_cell_length_a 8.528748
_cell_length_b 12.284801
_cell_length_c 19.975970
_cell_angle_alpha 42.503522
_cell_angle_beta 44.050185
_cell_angle_gamma 31.053858
_cell_volume 706.268269
_symmetry_space_group_name_H-M "P -1"
_symmetry_group_IT_number 2
_symmetry_cell_setting 'triclinic'
loop_
_space_group_symop_operation_xyz
x,y,z
-x,-y,-z
loop_
_atom_site_type_symbol
_atom_site_label
_atom_site_fract_x
_atom_site_fract_y
_atom_site_fract_z
Si Si1 0.802208 0.105372 0.113330
Si Si2 0.369335 0.785597 0.473762
Si Si3 0.245725 0.707434 0.413883
Si Si4 0.697246 0.866757 0.604781
Si Si5 0.067268 0.314429 0.110504
Si Si6 0.131016 0.931081 0.743103
Si Si7 0.773813 0.885987 0.102207
Si Si8 0.099242 0.409904 0.205208
O O1 0.945927 0.982631 0.196153
O O2 0.435420 0.331885 0.130631
O O3 0.845476 0.931814 0.130423
O O4 0.983317 0.170916 0.001837
O O5 0.424652 0.736158 0.399056
O O6 0.519987 0.549877 0.567682
O O7 0.516238 0.871371 0.425320
O O8 0.000000 0.000000 0.500000
O O9 0.939791 0.781451 0.509574
O O10 0.147335 0.863483 0.310565
O O11 0.466489 0.841866 0.660203
O O12 0.889190 0.725056 0.677402
O O13 0.001225 0.378436 0.179678
O O14 0.846551 0.274006 0.176210
O O15 0.427331 0.089890 0.089483
O O16 0.000000 0.500000 0.000000
O O17 0.829558 0.668941 0.191006
#
# Coordination Sequence:
#
# PCOD8011770 Si02
#       8
#     2   2   2   2   2   2   2   2
#     4   9  21  39  62  90 118 153 206 264 313 370
#     4   9  20  40  62  86 120 164 207 248 299 360
#     4  10  21  40  66  90 124 165 204 251 305 368
#     4  10  22  39  61  92 127 163 206 253 302 368
#     4  11  25  42  61  91 129 164 207 263 315 367
#     4  11  23  40  62  94 129 163 205 258 317 366
#     4  10  21  41  64  85 117 163 211 253 310 376
#     4  10  21  39  64  87 119 164 206 252 307 371
#
# _framework density 22.654281000000001
#
# number of rings (size 3 to 8) (size 9 to 14) (size 15 to 20)
#    0.000    2.000    0.000    2.250    0.000   13.500 
#    0.000    8.750    0.000    0.000    0.000    0.000 
#    0.000    0.000    0.000    0.000    0.000    0.000 
#
# Total GULP energy -198355.537827 kJ/mol
# GULP energy per Si atom -12397.221114 kJ/mol
# Density = 2.260272 g / cm^3
# Si number density = 22.654281 Si / 1000 Ang^3
#
#
#
# Elastic Constant Matrix: (Units=GPa)
#
#
# Indices 1 2 3 4 5 6 
#
# 1 97.7812 22.2979 38.1402 -8.0860 -7.2135 1.4867
# 2 22.2979 108.8782 42.3893 -26.2983 -4.7489 11.2093
# 3 38.1402 42.3893 94.9807 -21.9593 7.1400 5.9495
# 4 -8.0860 -26.2983 -21.9593 40.8067 1.4580 -2.9921
# 5 -7.2135 -4.7489 7.1400 1.4580 48.6694 -2.7216
# 6 1.4867 11.2093 5.9495 -2.9921 -2.7216 16.3497
#
#
#
# Elastic Compliance Matrix: (Units=1/GPa)
#
#
# Indices 1 2 3 4 5 6 
#
# 1 0.012525 -0.000795 -0.005153 -0.000782 0.002647 0.001579
# 2 -0.000795 0.012875 -0.003842 0.005580 0.001192 -0.006137
# 3 -0.005153 -0.003842 0.015905 0.005021 -0.003756 -0.002392
# 4 -0.000782 0.005580 0.005021 0.030680 -0.001237 -0.000173
# 5 0.002647 0.001192 -0.003756 -0.001237 0.021851 0.003720
# 6 0.001579 -0.006137 -0.002392 -0.000173 0.003720 0.066685
#
#
# Mechanical properties :
#
#
# Convention : Reuss Voigt Hill
#
# Bulk Modulus (GPa) = 46.03045 56.36608 51.19826
# Shear Modulus (GPa) = 26.68896 34.41934 30.55415
#
# Velocity S-wave (km/s) = 3.43607 3.90209 3.67647
# Velocity P-wave (km/s) = 6.00873 6.72582 6.37736
#
# Compressibility (1/GPa) = 0.02172475
#
# Stress axis : x y z
#
# Youngs Moduli (GPa) = 79.84134 77.67235 62.87137
#
# Poissons Ratio (x) = 0.06173 0.32401
# Poissons Ratio (y) = 0.06345 0.24154
# Poissons Ratio (z) = 0.41146 0.29841
#
# Static dielectric constant tensor:
#      x y z
#    x 4.346080 0.187140 -0.153490 
#    y 0.187140 4.045830 -0.099050 
#    z -0.153490 -0.099050 4.190390 
# 
# 
# High freq. dielectric constant tensor:
#      x y z
#    x 1.894850 0.005060 -0.003020 
#    y 0.005060 1.884420 0.000210 
#    z -0.003020 0.000210 1.897910 
# 
# From -- ./inp_files/589462.got.cif
#   From: 2010.06.25/outbox.cif.g09.slc.cpg/sg2_295_cif.got.tgz:589462.got - 2010.06.27 13:26:56.
