data_PCOD8011672
_publ_section_title
;
Structure prediction by ZEFSAII (Michael W. Deem and Ramdas Pophale) SiO2 
 PCOD8011672
Probable space group: P -1
;
_chemical_formula_sum "Si O2"
_cell_formula_units_Z 14
_cell_length_a 16.332997
_cell_length_b 15.691996
_cell_length_c 8.930040
_cell_angle_alpha 112.271718
_cell_angle_beta 132.217401
_cell_angle_gamma 27.973824
_cell_volume 625.535132
_symmetry_space_group_name_H-M "P -1"
_symmetry_group_IT_number 2
_symmetry_cell_setting 'triclinic'
loop_
_space_group_symop_operation_xyz
x,y,z
-x,-y,-z
loop_
_atom_site_type_symbol
_atom_site_label
_atom_site_fract_x
_atom_site_fract_y
_atom_site_fract_z
Si Si1 0.491625 0.650252 0.856342
Si Si2 0.580441 0.662942 0.429784
Si Si3 0.252810 0.987477 0.980588
Si Si4 0.629628 0.443382 0.475275
Si Si5 0.000361 0.699802 0.553261
Si Si6 0.467871 0.234551 0.246783
Si Si7 0.641303 0.815616 0.153318
O O1 0.368689 0.641125 0.699345
O O2 0.501549 0.684134 0.722184
O O3 0.290132 0.865362 0.852564
O O4 0.797684 0.417196 0.148986
O O5 0.349436 0.894662 0.207285
O O6 0.455175 0.661360 0.335330
O O7 0.649680 0.673731 0.667638
O O8 0.849795 0.431581 0.509470
O O9 0.433759 0.933075 0.100664
O O10 0.929682 0.257419 0.759604
O O11 0.500000 0.500000 0.500000
O O12 0.891590 0.679538 0.452603
O O13 0.763588 0.956755 0.412498
O O14 0.261882 0.338907 0.946610
O O15 0.500000 0.000000 0.000000
#
# Coordination Sequence:
#
# PCOD8011672 Si02
#       7
#     2   2   2   2   2   2   2
#     4  10  22  41  63  92 123 174 209 254 321 372
#     4  11  24  40  63  99 126 167 213 259 313 381
#     4  10  24  41  66  92 129 164 216 257 315 378
#     4  12  24  40  63  93 131 164 212 265 312 373
#     4  10  23  42  66  92 130 162 212 261 314 378
#     4  10  21  39  63  91 131 166 206 257 315 372
#     4   9  19  43  68  91 126 170 203 262 317 373
#
# _framework density 22.380835999999999
#
# number of rings (size 3 to 8) (size 9 to 14) (size 15 to 20)
#    0.000    1.714    1.429    3.000    2.000    9.714 
#    0.000    2.857    0.000    0.000    0.000    1.000 
#    0.000    0.000    0.000    0.000    0.000    0.000 
#
# Total GULP energy -173509.932075 kJ/mol
# GULP energy per Si atom -12393.566577 kJ/mol
# Density = 2.232990 g / cm^3
# Si number density = 22.380836 Si / 1000 Ang^3
#
#
#
# Elastic Constant Matrix: (Units=GPa)
#
#
# Indices 1 2 3 4 5 6 
#
# 1 148.5810 29.4264 63.5584 12.2193 -2.2371 4.6295
# 2 29.4264 63.4099 28.3277 3.1032 -3.0694 -5.2183
# 3 63.5584 28.3277 107.4989 2.0788 3.3499 -4.1672
# 4 12.2193 3.1032 2.0788 24.1910 0.9147 -0.2178
# 5 -2.2371 -3.0694 3.3499 0.9147 38.1262 5.3134
# 6 4.6295 -5.2183 -4.1672 -0.2178 5.3134 39.7380
#
#
#
# Elastic Compliance Matrix: (Units=1/GPa)
#
#
# Indices 1 2 3 4 5 6 
#
# 1 0.009866 -0.002108 -0.005318 -0.004324 0.001284 -0.002179
# 2 -0.002108 0.018657 -0.003612 -0.001053 0.001425 0.002120
# 3 -0.005318 -0.003612 0.013496 0.002086 -0.002097 0.001852
# 4 -0.004324 -0.001053 0.002086 0.043552 -0.001713 0.001052
# 5 0.001284 0.001425 -0.002097 -0.001713 0.027177 -0.003826
# 6 -0.002179 0.002120 0.001852 0.001052 -0.003826 0.026409
#
#
# Mechanical properties :
#
#
# Convention : Reuss Voigt Hill
#
# Bulk Modulus (GPa) = 50.14617 62.45719 56.30168
# Shear Modulus (GPa) = 29.78306 33.62287 31.70297
#
# Velocity S-wave (km/s) = 3.65189 3.88016 3.76776
# Velocity P-wave (km/s) = 6.34320 6.93119 6.64370
#
# Compressibility (1/GPa) = 0.01994170
#
# Stress axis : x y z
#
# Youngs Moduli (GPa) = 101.36081 53.59829 74.09824
#
# Poissons Ratio (x) = 0.11298 0.39409
# Poissons Ratio (y) = 0.21367 0.26764
# Poissons Ratio (z) = 0.53909 0.19360
#
# Static dielectric constant tensor:
#      x y z
#    x 4.325390 0.324320 0.184930 
#    y 0.324320 3.981590 0.356740 
#    z 0.184930 0.356740 4.566480 
# 
# 
# High freq. dielectric constant tensor:
#      x y z
#    x 1.890860 0.016480 -0.013430 
#    y 0.016480 1.874030 0.013240 
#    z -0.013430 0.013240 1.875090 
# 
# From -- ./inp_files/221061.got.cif
#   From: 2010.06.25/outbox.cif.g09.slc.cpg/sg2_111_cif.got.tgz:221061.got - 2010.06.27 13:26:56.
