data_PCOD8011596
_publ_section_title
;
Structure prediction by ZEFSAII (Michael W. Deem and Ramdas Pophale) SiO2 
 PCOD8011596
Probable space group: P -1
;
_chemical_formula_sum "Si O2"
_cell_formula_units_Z 16
_cell_length_a 21.548826
_cell_length_b 13.107551
_cell_length_c 6.669715
_cell_angle_alpha 137.831018
_cell_angle_beta 129.027284
_cell_angle_gamma 33.384631
_cell_volume 695.601887
_symmetry_space_group_name_H-M "P -1"
_symmetry_group_IT_number 2
_symmetry_cell_setting 'triclinic'
loop_
_space_group_symop_operation_xyz
x,y,z
-x,-y,-z
loop_
_atom_site_type_symbol
_atom_site_label
_atom_site_fract_x
_atom_site_fract_y
_atom_site_fract_z
Si Si1 0.113554 0.492528 0.511886
Si Si2 0.342328 0.245220 0.430766
Si Si3 0.492600 0.763928 0.001662
Si Si4 0.199995 0.875461 0.232167
Si Si5 0.064673 0.220744 0.136021
Si Si6 0.007424 0.147008 0.524372
Si Si7 0.632754 0.363399 0.440997
Si Si8 0.225789 0.650290 0.601241
O O1 0.248840 0.331358 0.537565
O O2 0.078652 0.367551 0.290392
O O3 0.055549 0.627894 0.385735
O O4 0.058462 0.648203 0.822587
O O5 0.282138 0.407181 0.351902
O O6 0.431571 0.247437 0.701224
O O7 0.396602 0.017558 0.121017
O O8 0.558189 0.610830 0.716099
O O9 0.438080 0.681643 0.864275
O O10 0.300779 0.797163 0.466288
O O11 0.161810 0.056452 0.259931
O O12 0.248408 0.668103 0.905170
O O13 0.094824 0.954354 0.265272
O O14 0.079136 0.099451 0.793088
O O15 0.910364 0.161880 0.426180
O O16 0.721714 0.300570 0.370143
#
# Coordination Sequence:
#
# PCOD8011596 Si02
#       8
#     2   2   2   2   2   2   2   2
#     4   9  21  39  64  96 139 168 216 271 325 397
#     4  10  22  45  71  95 135 171 218 282 336 379
#     4  10  24  47  69  95 129 174 224 289 324 382
#     4  11  23  40  63  98 137 171 214 270 322 393
#     4  10  21  39  63 101 131 181 213 259 333 398
#     4  10  22  38  65  98 136 171 217 263 322 409
#     4  11  25  45  70  96 134 170 229 275 328 390
#     4  11  24  41  68 101 130 177 212 270 337 395
#
# _framework density 23.001663000000001
#
# number of rings (size 3 to 8) (size 9 to 14) (size 15 to 20)
#    0.000    1.750    1.250    1.500    5.250    4.000 
#    4.500    0.000    0.000    0.000    0.000    0.000 
#    0.000    0.000    0.000    0.000    0.000    0.000 
#
# Total GULP energy -198220.049538 kJ/mol
# GULP energy per Si atom -12388.753096 kJ/mol
# Density = 2.294931 g / cm^3
# Si number density = 23.001663 Si / 1000 Ang^3
#
#
#
# Elastic Constant Matrix: (Units=GPa)
#
#
# Indices 1 2 3 4 5 6 
#
# 1 142.2064 43.1227 46.0479 1.0682 -6.1572 -7.8129
# 2 43.1227 95.9449 36.8292 20.1478 -10.8791 -8.4415
# 3 46.0479 36.8292 94.6118 11.4879 -6.1045 7.5808
# 4 1.0682 20.1478 11.4879 34.9025 0.8258 1.1507
# 5 -6.1572 -10.8791 -6.1045 0.8258 28.1847 0.4262
# 6 -7.8129 -8.4415 7.5808 1.1507 0.4262 22.6503
#
#
#
# Elastic Compliance Matrix: (Units=1/GPa)
#
#
# Indices 1 2 3 4 5 6 
#
# 1 0.009385 -0.002943 -0.004015 0.002624 -0.000083 0.003353
# 2 -0.002943 0.016190 -0.004093 -0.008245 0.004860 0.006716
# 3 -0.004015 -0.004093 0.015084 -0.002243 0.000994 -0.007864
# 4 0.002624 -0.008245 -0.002243 0.034266 -0.004052 -0.003081
# 5 -0.000083 0.004860 0.000994 -0.004052 0.037658 0.000947
# 6 0.003353 0.006716 -0.007864 -0.003081 0.000947 0.050580
#
#
# Mechanical properties :
#
#
# Convention : Reuss Voigt Hill
#
# Bulk Modulus (GPa) = 53.88908 64.97363 59.43135
# Shear Modulus (GPa) = 26.11649 30.93173 28.52411
#
# Velocity S-wave (km/s) = 3.37325 3.67108 3.52531
# Velocity P-wave (km/s) = 6.21699 6.80278 6.51647
#
# Compressibility (1/GPa) = 0.01855663
#
# Stress axis : x y z
#
# Youngs Moduli (GPa) = 106.54897 61.76736 66.29672
#
# Poissons Ratio (x) = 0.18175 0.26619
# Poissons Ratio (y) = 0.31352 0.27139
# Poissons Ratio (z) = 0.42780 0.25284
#
# Static dielectric constant tensor:
#      x y z
#    x 4.253910 -0.142400 -0.123580 
#    y -0.142400 4.358360 0.318700 
#    z -0.123580 0.318700 4.095940 
# 
# 
# High freq. dielectric constant tensor:
#      x y z
#    x 1.912770 -0.004630 -0.003010 
#    y -0.004630 1.921040 0.021080 
#    z -0.003010 0.021080 1.888670 
# 
# From -- ./inp_files/118913.got.cif
#   From: 2010.06.25/outbox.cif.g09.slc.cpg/sg2_60_cif.got.tgz:118913.got - 2010.06.27 13:26:56.
