data_PCOD8011175
_publ_section_title
;
Structure prediction by ZEFSAII (Michael W. Deem and Ramdas Pophale) SiO2 
 PCOD8011175
Probable space group: P -1
;
_chemical_formula_sum "Si O2"
_cell_formula_units_Z 12
_cell_length_a 12.487739
_cell_length_b 18.441102
_cell_length_c 7.266079
_cell_angle_alpha 115.748656
_cell_angle_beta 114.849469
_cell_angle_gamma 20.726500
_cell_volume 532.880505
_symmetry_space_group_name_H-M "P -1"
_symmetry_group_IT_number 2
_symmetry_cell_setting 'triclinic'
loop_
_space_group_symop_operation_xyz
x,y,z
-x,-y,-z
loop_
_atom_site_type_symbol
_atom_site_label
_atom_site_fract_x
_atom_site_fract_y
_atom_site_fract_z
Si Si1 0.643998 0.224971 0.952553
Si Si2 0.764472 0.662804 0.227252
Si Si3 0.657076 0.199872 0.516889
Si Si4 0.321437 0.112815 0.687245
Si Si5 0.655745 0.765328 0.682068
Si Si6 0.649690 0.490942 0.639761
O O1 0.510236 0.221696 0.906826
O O2 0.576613 0.280682 0.751405
O O3 0.470513 0.404981 0.132687
O O4 0.000000 0.000000 0.000000
O O5 0.750254 0.748034 0.170309
O O6 0.766187 0.691935 0.469968
O O7 0.082528 0.413664 0.172776
O O8 0.602706 0.139720 0.377317
O O9 0.440696 0.385154 0.434214
O O10 0.000000 0.000000 0.500000
O O11 0.010347 0.256908 0.622574
O O12 0.500000 0.000000 0.500000
O O13 0.522084 0.940364 0.798265
O O14 0.500000 0.500000 0.500000
#
# Coordination Sequence:
#
# PCOD8011175 Si02
#       6
#     2   2   2   2   2   2
#     4  11  25  43  69 103 136 186 232 282 351 417
#     4   9  19  38  66  93 133 173 229 279 338 407
#     4  11  21  42  71  95 137 185 224 280 348 410
#     4  10  21  38  68  99 132 182 228 280 345 405
#     4   9  18  37  65  97 128 177 224 279 342 401
#     4  12  26  44  67 103 142 181 234 288 346 411
#
# _framework density 22.519120000000001
#
# number of rings (size 3 to 8) (size 9 to 14) (size 15 to 20)
#    0.000    1.667    3.333    1.000    7.000    1.333 
#    0.000    2.500    0.000    0.000    0.000    0.000 
#    0.000    0.000    0.000    0.000    0.000    0.000 
#
# Total GULP energy -148718.877165 kJ/mol
# GULP energy per Si atom -12393.239764 kJ/mol
# Density = 2.246787 g / cm^3
# Si number density = 22.519120 Si / 1000 Ang^3
#
#
#
# Elastic Constant Matrix: (Units=GPa)
#
#
# Indices 1 2 3 4 5 6 
#
# 1 153.4387 77.3173 37.5125 3.8200 28.1167 14.3299
# 2 77.3173 164.9243 21.3217 -4.6937 19.3035 8.0064
# 3 37.5125 21.3217 93.6057 15.2613 11.8607 -7.0190
# 4 3.8200 -4.6937 15.2613 23.7831 -12.2175 -2.6147
# 5 28.1167 19.3035 11.8607 -12.2175 28.0693 1.3779
# 6 14.3299 8.0064 -7.0190 -2.6147 1.3779 64.1173
#
#
#
# Elastic Compliance Matrix: (Units=1/GPa)
#
#
# Indices 1 2 3 4 5 6 
#
# 1 0.011277 -0.003923 -0.000987 -0.008170 -0.011628 -0.002222
# 2 -0.003923 0.008094 -0.000652 0.002496 -0.000271 -0.000098
# 3 -0.000987 -0.000652 0.015489 -0.015967 -0.012137 0.001607
# 4 -0.008170 0.002496 -0.015967 0.078633 0.047344 0.001956
# 5 -0.011628 -0.000271 -0.012137 0.047344 0.073114 0.001664
# 6 -0.002222 -0.000098 0.001607 0.001956 0.001664 0.016325
#
#
# Mechanical properties :
#
#
# Convention : Reuss Voigt Hill
#
# Bulk Modulus (GPa) = 42.12813 76.03019 59.07916
# Shear Modulus (GPa) = 22.52593 41.58175 32.05384
#
# Velocity S-wave (km/s) = 3.16619 4.30176 3.77690
# Velocity P-wave (km/s) = 5.66698 7.64914 6.73142
#
# Compressibility (1/GPa) = 0.02373711
#
# Stress axis : x y z
#
# Youngs Moduli (GPa) = 88.67719 123.54750 64.56357
#
# Poissons Ratio (x) = 0.48464 0.06372
# Poissons Ratio (y) = 0.34785 0.04207
# Poissons Ratio (z) = 0.08751 0.08051
#
# Static dielectric constant tensor:
#      x y z
#    x 4.639620 0.192980 0.282220 
#    y 0.192980 4.468320 0.151650 
#    z 0.282220 0.151650 4.179370 
# 
# 
# High freq. dielectric constant tensor:
#      x y z
#    x 1.900850 -0.003990 -0.001480 
#    y -0.003990 1.896060 0.002740 
#    z -0.001480 0.002740 1.878480 
# 
# From -- ./inp_files/169102.got.cif
#   From: 2010.06.25/outbox.cif.g09.slc.cpg/sg2_85_cif.got.tgz:169102.got - 2010.06.27 13:26:56.
