data_PCOD8011013
_publ_section_title
;
Structure prediction by ZEFSAII (Michael W. Deem and Ramdas Pophale) SiO2 
 PCOD8011013
Probable space group: P -1
;
_chemical_formula_sum "Si O2"
_cell_formula_units_Z 16
_cell_length_a 9.404256
_cell_length_b 8.978529
_cell_length_c 14.707029
_cell_angle_alpha 100.502600
_cell_angle_beta 109.160967
_cell_angle_gamma 131.079626
_cell_volume 733.220245
_symmetry_space_group_name_H-M "P -1"
_symmetry_group_IT_number 2
_symmetry_cell_setting 'triclinic'
loop_
_space_group_symop_operation_xyz
x,y,z
-x,-y,-z
loop_
_atom_site_type_symbol
_atom_site_label
_atom_site_fract_x
_atom_site_fract_y
_atom_site_fract_z
Si Si1 0.641289 0.040807 0.950244
Si Si2 0.407235 0.006984 0.351849
Si Si3 0.135120 0.309733 0.155757
Si Si4 0.862766 0.317376 0.584046
Si Si5 0.012378 0.750900 0.682003
Si Si6 0.571979 0.738900 0.766246
Si Si7 0.536463 0.192957 0.804058
Si Si8 0.115546 0.250911 0.532373
O O1 0.497525 0.796787 0.838436
O O2 0.691412 0.220394 0.913448
O O3 0.500000 0.000000 0.000000
O O4 0.882262 0.150904 0.043804
O O5 0.619950 0.209871 0.488397
O O6 0.347656 0.103575 0.287361
O O7 0.171512 0.783951 0.334909
O O8 0.491118 0.926168 0.305372
O O9 0.203721 0.186430 0.146255
O O10 0.332498 0.552031 0.166814
O O11 0.133963 0.344695 0.266574
O O12 0.052630 0.601151 0.658546
O O13 0.940989 0.250519 0.523057
O O14 0.855496 0.709402 0.565897
O O15 0.275652 0.028036 0.771567
O O16 0.358080 0.460076 0.662802
O O17 0.000000 0.000000 0.500000
#
# Coordination Sequence:
#
# PCOD8011013 Si02
#       8
#     2   2   2   2   2   2   2   2
#     4  11  24  48  77 100 133 187 242 290 348 411
#     4  10  21  38  65  97 134 186 231 282 340 414
#     4  12  26  45  71 104 142 180 233 296 349 409
#     4  11  21  39  65  98 138 186 238 276 336 420
#     4  12  23  42  72 100 143 187 228 282 347 419
#     4  11  26  44  69 101 146 181 228 292 356 406
#     4  11  22  43  70 103 130 180 237 283 344 415
#     4  12  26  41  66 104 149 183 228 286 352 422
#
# _framework density 21.821545
#
# number of rings (size 3 to 8) (size 9 to 14) (size 15 to 20)
#    0.000    0.750    5.000    3.375    1.750    0.500 
#    0.000    0.625    0.000    0.000    0.000    0.000 
#    0.000    0.000    0.000    0.000    0.000    0.000 
#
# Total GULP energy -198391.708503 kJ/mol
# GULP energy per Si atom -12399.481781 kJ/mol
# Density = 2.177188 g / cm^3
# Si number density = 21.821545 Si / 1000 Ang^3
#
#
#
# Elastic Constant Matrix: (Units=GPa)
#
#
# Indices 1 2 3 4 5 6 
#
# 1 89.4443 40.2142 38.0651 -11.1123 6.9933 -10.5265
# 2 40.2142 126.7457 46.8856 -8.4139 -2.2162 -6.1761
# 3 38.0651 46.8856 104.4451 -15.0382 4.2414 -0.5319
# 4 -11.1123 -8.4139 -15.0382 34.2600 2.7060 0.1030
# 5 6.9933 -2.2162 4.2414 2.7060 38.1413 0.8211
# 6 -10.5265 -6.1761 -0.5319 0.1030 0.8211 33.3628
#
#
#
# Elastic Compliance Matrix: (Units=1/GPa)
#
#
# Indices 1 2 3 4 5 6 
#
# 1 0.015188 -0.003154 -0.003580 0.002794 -0.002859 0.004213
# 2 -0.003154 0.010254 -0.003540 -0.000184 0.001563 0.000809
# 3 -0.003580 -0.003540 0.013058 0.003804 -0.001238 -0.001558
# 4 0.002794 -0.000184 0.003804 0.031972 -0.003233 0.000889
# 5 -0.002859 0.001563 -0.001238 -0.003233 0.027228 -0.001292
# 6 0.004213 0.000809 -0.001558 0.000889 -0.001292 0.031457
#
#
# Mechanical properties :
#
#
# Convention : Reuss Voigt Hill
#
# Bulk Modulus (GPa) = 55.69857 63.44055 59.56956
# Shear Modulus (GPa) = 32.11548 34.18416 33.14982
#
# Velocity S-wave (km/s) = 3.84048 3.96224 3.90183
# Velocity P-wave (km/s) = 6.72649 7.07587 6.90339
#
# Compressibility (1/GPa) = 0.01795378
#
# Stress axis : x y z
#
# Youngs Moduli (GPa) = 65.84164 97.51902 76.58141
#
# Poissons Ratio (x) = 0.30757 0.27414
# Poissons Ratio (y) = 0.20766 0.27107
# Poissons Ratio (z) = 0.23569 0.34518
#
# Static dielectric constant tensor:
#      x y z
#    x 3.748540 -0.002430 -0.000060 
#    y -0.002430 4.093010 -0.182210 
#    z -0.000060 -0.182210 4.022250 
# 
# 
# High freq. dielectric constant tensor:
#      x y z
#    x 1.844010 -0.004130 0.001940 
#    y -0.004130 1.864120 -0.015880 
#    z 0.001940 -0.015880 1.858840 
# 
# From -- ./inp_files/186365.got.cif
#   From: 2010.06.25/outbox.cif.g09.slc.cpg/sg2_94_cif.got.tgz:186365.got - 2010.06.27 13:26:56.
