data_PCOD8011475
_publ_section_title
;
Structure prediction by ZEFSAII (Michael W. Deem and Ramdas Pophale) SiO2 
 PCOD8011475
Probable space group: P -1
;
_chemical_formula_sum "Si O2"
_cell_formula_units_Z 16
_cell_length_a 11.986491
_cell_length_b 8.803926
_cell_length_c 20.837846
_cell_angle_alpha 37.220952
_cell_angle_beta 36.300716
_cell_angle_gamma 41.077371
_cell_volume 747.926313
_symmetry_space_group_name_H-M "P -1"
_symmetry_group_IT_number 2
_symmetry_cell_setting 'triclinic'
loop_
_space_group_symop_operation_xyz
x,y,z
-x,-y,-z
loop_
_atom_site_type_symbol
_atom_site_label
_atom_site_fract_x
_atom_site_fract_y
_atom_site_fract_z
Si Si1 0.074648 0.953179 0.151661
Si Si2 0.078887 0.199558 0.935345
Si Si3 0.006730 0.775782 0.768177
Si Si4 0.458508 0.628216 0.640998
Si Si5 0.349862 0.083245 0.636636
Si Si6 0.508513 0.390834 0.961946
Si Si7 0.336031 0.981237 0.234721
Si Si8 0.454185 0.940978 0.774516
O O1 0.269536 0.705000 0.136491
O O2 0.885677 0.848516 0.268902
O O3 0.082766 0.091362 0.168497
O O4 0.068299 0.164243 0.028043
O O5 0.956306 0.501344 0.875205
O O6 0.304880 0.135700 0.828823
O O7 0.000000 0.000000 0.000000
O O8 0.243186 0.714342 0.677788
O O9 0.894583 0.965517 0.697568
O O10 0.611252 0.681633 0.501028
O O11 0.540404 0.326511 0.727081
O O12 0.447838 0.802886 0.650781
O O13 0.450751 0.076918 0.661782
O O14 0.404402 0.663527 0.878656
O O15 0.500000 0.500000 0.000000
O O16 0.414303 0.151663 0.087170
O O17 0.343107 0.087445 0.269208
#
# Coordination Sequence:
#
# PCOD8011475 Si02
#       8
#     2   2   2   2   2   2   2   2
#     4  11  22  40  65  98 128 178 216 266 333 395
#     4  12  21  39  64  96 136 171 212 268 329 397
#     4  11  25  41  66  97 134 176 219 267 332 386
#     4  10  23  50  63  92 135 171 228 275 318 379
#     4  10  24  43  71  89 124 184 222 272 323 384
#     4  10  21  39  61  98 135 162 212 265 328 396
#     4  11  23  41  65  95 132 172 210 273 326 389
#     4  11  22  39  64  96 131 174 209 267 332 386
#
# _framework density 21.392482000000001
#
# number of rings (size 3 to 8) (size 9 to 14) (size 15 to 20)
#    0.000    1.250    5.000    1.125    3.500    2.000 
#    2.250    2.500    0.000    0.000    0.000    0.000 
#    0.000    0.000    0.000    0.000    0.000    0.000 
#
# Total GULP energy -198299.270448 kJ/mol
# GULP energy per Si atom -12393.704403 kJ/mol
# Density = 2.134379 g / cm^3
# Si number density = 21.392482 Si / 1000 Ang^3
#
#
#
# Elastic Constant Matrix: (Units=GPa)
#
#
# Indices 1 2 3 4 5 6 
#
# 1 132.1449 37.7769 31.9759 1.3581 7.4249 -3.4717
# 2 37.7769 123.6515 47.6751 -6.9155 -2.0474 -8.3993
# 3 31.9759 47.6751 85.8727 7.2375 13.2619 3.1462
# 4 1.3581 -6.9155 7.2375 29.4768 1.5962 -2.6714
# 5 7.4249 -2.0474 13.2619 1.5962 18.5985 -2.6130
# 6 -3.4717 -8.3993 3.1462 -2.6714 -2.6130 31.3857
#
#
#
# Elastic Compliance Matrix: (Units=1/GPa)
#
#
# Indices 1 2 3 4 5 6 
#
# 1 0.008714 -0.002018 -0.001747 -0.000283 -0.002378 0.000377
# 2 -0.002018 0.012608 -0.008140 0.005062 0.008278 0.005087
# 3 -0.001747 -0.008140 0.019848 -0.006464 -0.014658 -0.006132
# 4 -0.000283 0.005062 -0.006464 0.037044 0.002854 0.005362
# 5 -0.002378 0.008278 -0.014658 0.002854 0.067136 0.009254
# 6 0.000377 0.005087 -0.006132 0.005362 0.009254 0.035106
#
#
# Mechanical properties :
#
#
# Convention : Reuss Voigt Hill
#
# Bulk Modulus (GPa) = 57.60391 64.05832 60.83111
# Shear Modulus (GPa) = 23.80374 30.84160 27.32267
#
# Velocity S-wave (km/s) = 3.33936 3.80110 3.57768
# Velocity P-wave (km/s) = 6.46947 7.01953 6.75010
#
# Compressibility (1/GPa) = 0.01735993
#
# Stress axis : x y z
#
# Youngs Moduli (GPa) = 114.76431 79.31585 50.38350
#
# Poissons Ratio (x) = 0.16007 0.08801
# Poissons Ratio (y) = 0.23161 0.41010
# Poissons Ratio (z) = 0.20047 0.64560
#
# Static dielectric constant tensor:
#      x y z
#    x 3.939170 -0.133210 -0.128230 
#    y -0.133210 5.665850 -1.009230 
#    z -0.128230 -1.009230 4.536150 
# 
# 
# High freq. dielectric constant tensor:
#      x y z
#    x 1.842800 -0.001130 -0.003110 
#    y -0.001130 1.845680 -0.005520 
#    z -0.003110 -0.005520 1.814500 
# 
# From -- ./inp_files/593395.got.cif
#   From: 2010.06.25/outbox.cif.g09.slc.cpg/sg2_297_cif.got.tgz:593395.got - 2010.06.27 13:26:56.
