data_PCOD8011803
_publ_section_title
;
Structure prediction by ZEFSAII (Michael W. Deem and Ramdas Pophale) SiO2 
 PCOD8011803
Probable space group: P -1
;
_chemical_formula_sum "Si O2"
_cell_formula_units_Z 16
_cell_length_a 18.544812
_cell_length_b 11.956819
_cell_length_c 11.018118
_cell_angle_alpha 65.507403
_cell_angle_beta 132.431888
_cell_angle_gamma 152.975114
_cell_volume 681.021394
_symmetry_space_group_name_H-M "P -1"
_symmetry_group_IT_number 2
_symmetry_cell_setting 'triclinic'
loop_
_space_group_symop_operation_xyz
x,y,z
-x,-y,-z
loop_
_atom_site_type_symbol
_atom_site_label
_atom_site_fract_x
_atom_site_fract_y
_atom_site_fract_z
Si Si1 0.079761 0.555948 0.904804
Si Si2 0.517786 0.289059 0.728064
Si Si3 0.203454 0.545584 0.834412
Si Si4 0.779083 0.072002 0.957269
Si Si5 0.421487 0.938404 0.684964
Si Si6 0.274211 0.555315 0.552360
Si Si7 0.090862 0.950869 0.447710
Si Si8 0.867080 0.725501 0.718531
O O1 0.083095 0.520440 0.783613
O O2 0.845256 0.233999 0.844976
O O3 0.112387 0.740807 0.879769
O O4 0.293986 0.736791 0.143396
O O5 0.716631 0.572830 0.738254
O O6 0.349385 0.998804 0.593067
O O7 0.364509 0.223764 0.639454
O O8 0.628126 0.340309 0.940400
O O9 0.355515 0.779615 0.796667
O O10 0.014675 0.235044 0.706924
O O11 0.495985 0.743600 0.787280
O O12 0.884528 0.056474 0.068181
O O13 0.299605 0.734038 0.520493
O O14 0.277694 0.524353 0.428979
O O15 0.037168 0.234938 0.490265
O O16 0.073114 0.076144 0.361282
#
# Coordination Sequence:
#
# PCOD8011803 Si02
#       8
#     2   2   2   2   2   2   2   2
#     4   9  17  36  61  95 122 151 202 259 312 372
#     4  11  23  41  66  95 127 162 207 268 313 367
#     4  10  21  40  67  93 125 166 204 260 319 373
#     4  10  21  39  64  91 126 160 206 258 318 367
#     4   9  19  40  65  98 123 158 210 253 328 379
#     4  10  25  42  63  93 127 165 213 260 310 378
#     4  11  27  43  60  93 129 172 220 245 305 381
#     4  12  25  42  65  92 127 173 211 258 307 369
#
# _framework density 23.494122999999998
#
# number of rings (size 3 to 8) (size 9 to 14) (size 15 to 20)
#    0.000    1.750    2.500    2.250    1.750    9.500 
#    0.000    0.000    0.000    0.000    0.000    0.000 
#    0.000    0.000    0.000    0.000    0.000    0.000 
#
# Total GULP energy -198392.553480 kJ/mol
# GULP energy per Si atom -12399.534593 kJ/mol
# Density = 2.344065 g / cm^3
# Si number density = 23.494123 Si / 1000 Ang^3
#
#
#
# Elastic Constant Matrix: (Units=GPa)
#
#
# Indices 1 2 3 4 5 6 
#
# 1 95.8142 12.3916 18.6231 2.8284 15.7308 10.9794
# 2 12.3916 45.9538 2.0123 -3.1205 10.3456 -1.1708
# 3 18.6231 2.0123 10.9562 2.5801 4.8177 4.4905
# 4 2.8284 -3.1205 2.5801 22.5632 -5.4477 5.9308
# 5 15.7308 10.3456 4.8177 -5.4477 43.6233 -2.6577
# 6 10.9794 -1.1708 4.4905 5.9308 -2.6577 33.6539
#
#
#
# Elastic Compliance Matrix: (Units=1/GPa)
#
#
# Indices 1 2 3 4 5 6 
#
# 1 0.016405 -0.002768 -0.025412 0.000469 -0.002537 -0.002341
# 2 -0.002768 0.023610 0.001490 0.002159 -0.004448 0.000794
# 3 -0.025412 0.001490 0.145301 -0.013006 -0.009439 -0.009499
# 4 0.000469 0.002159 -0.013006 0.049335 0.006519 -0.006522
# 5 -0.002537 -0.004448 -0.009439 0.006519 0.026927 0.002910
# 6 -0.002341 0.000794 -0.009499 -0.006522 0.002910 0.033152
#
#
# Mechanical properties :
#
#
# Convention : Reuss Voigt Hill
#
# Bulk Modulus (GPa) = 7.57941 24.30867 15.94404
# Shear Modulus (GPa) = 12.75222 27.94789 20.35005
#
# Velocity S-wave (km/s) = 2.33230 3.45276 2.94628
# Velocity P-wave (km/s) = 3.23820 5.12489 4.28663
#
# Compressibility (1/GPa) = 0.13193639
#
# Stress axis : x y z
#
# Youngs Moduli (GPa) = 60.95730 42.35459 6.88227
#
# Poissons Ratio (x) = 0.11722 0.17489
# Poissons Ratio (y) = 0.16870 -0.01025
# Poissons Ratio (z) = 1.54906 -0.06310
#
# Static dielectric constant tensor:
#      x y z
#    x 4.615540 -0.048490 0.068600 
#    y -0.048490 3.883050 0.164340 
#    z 0.068600 0.164340 3.944820 
# 
# 
# High freq. dielectric constant tensor:
#      x y z
#    x 1.946620 0.009920 0.007750 
#    y 0.009920 1.910860 0.006200 
#    z 0.007750 0.006200 1.918280 
# 
# From -- ./inp_files/285884.got.cif
#   From: 2010.06.25/outbox.cif.g09.slc.cpg/sg2_143_cif.got.tgz:285884.got - 2010.06.27 13:26:56.
