data_PCOD8011313
_publ_section_title
;
Structure prediction by ZEFSAII (Michael W. Deem and Ramdas Pophale) SiO2 
 PCOD8011313
Probable space group: P -1
;
_chemical_formula_sum "Si O2"
_cell_formula_units_Z 14
_cell_length_a 8.730750
_cell_length_b 7.730440
_cell_length_c 12.191942
_cell_angle_alpha 116.345296
_cell_angle_beta 73.229124
_cell_angle_gamma 73.315042
_cell_volume 617.883870
_symmetry_space_group_name_H-M "P -1"
_symmetry_group_IT_number 2
_symmetry_cell_setting 'triclinic'
loop_
_space_group_symop_operation_xyz
x,y,z
-x,-y,-z
loop_
_atom_site_type_symbol
_atom_site_label
_atom_site_fract_x
_atom_site_fract_y
_atom_site_fract_z
Si Si1 0.025185 0.390767 0.804240
Si Si2 0.102000 0.761243 0.854006
Si Si3 0.931578 0.816834 0.683388
Si Si4 0.851384 0.421100 0.634720
Si Si5 0.534753 0.188922 0.872567
Si Si6 0.800901 0.821638 0.087407
Si Si7 0.531909 0.419963 0.154996
O O1 0.950910 0.303889 0.695416
O O2 0.138648 0.509191 0.771334
O O3 0.150613 0.180806 0.795208
O O4 0.857088 0.572567 0.963771
O O5 0.294381 0.734576 0.848083
O O6 0.043876 0.855748 0.769439
O O7 0.924601 0.907311 0.016573
O O8 0.871092 0.638613 0.680122
O O9 0.056938 0.747366 0.530705
O O10 0.746903 0.039810 0.758010
O O11 0.641018 0.482780 0.700951
O O12 0.419085 0.053166 0.848393
O O13 0.450548 0.386081 0.856543
O O14 0.513215 0.266219 0.024099
#
# Coordination Sequence:
#
# PCOD8011313 Si02
#       7
#     2   2   2   2   2   2   2
#     4   8  14  31  55  80 103 146 179 223 263 333
#     4   9  18  33  57  82 113 146 178 229 280 328
#     4  10  23  40  56  78 118 152 186 217 281 338
#     4  10  21  39  60  77 111 158 185 220 275 341
#     4  11  21  35  58  91 109 141 188 237 270 330
#     4   9  15  31  56  83 109 140 181 233 269 322
#     4  11  21  34  62  85 110 143 191 230 280 316
#
# _framework density 22.657979999999998
#
# number of rings (size 3 to 8) (size 9 to 14) (size 15 to 20)
#    0.857    1.429    2.857    0.000    2.000    4.000 
#    0.000    0.714    0.000    0.000    0.000    0.000 
#    0.000    0.000    0.000    0.000    0.000    0.000 
#
# Total GULP energy -173541.633741 kJ/mol
# GULP energy per Si atom -12395.830982 kJ/mol
# Density = 2.260641 g / cm^3
# Si number density = 22.657980 Si / 1000 Ang^3
#
#
#
# Elastic Constant Matrix: (Units=GPa)
#
#
# Indices 1 2 3 4 5 6 
#
# 1 169.6669 60.4216 71.7658 -18.5332 -18.1406 -32.6896
# 2 60.4216 53.2738 41.3488 -6.1992 2.9126 -20.6135
# 3 71.7658 41.3488 139.4970 -17.3186 -9.9049 -23.1332
# 4 -18.5332 -6.1992 -17.3186 24.6996 -5.6372 3.7682
# 5 -18.1406 2.9126 -9.9049 -5.6372 37.5553 -9.2520
# 6 -32.6896 -20.6135 -23.1332 3.7682 -9.2520 41.7727
#
#
#
# Elastic Compliance Matrix: (Units=1/GPa)
#
#
# Indices 1 2 3 4 5 6 
#
# 1 0.013603 -0.012293 -0.000714 0.008025 0.009935 0.005660
# 2 -0.012293 0.038953 -0.006050 -0.006769 -0.010451 0.004547
# 3 -0.000714 -0.006050 0.010928 0.006220 0.004675 0.002982
# 4 0.008025 -0.006769 0.006220 0.051839 0.015066 0.005045
# 5 0.009935 -0.010451 0.004675 0.015066 0.038796 0.012440
# 6 0.005660 0.004547 0.002982 0.005045 0.012440 0.034564
#
#
# Mechanical properties :
#
#
# Convention : Reuss Voigt Hill
#
# Bulk Modulus (GPa) = 39.41830 78.83445 59.12638
# Shear Modulus (GPa) = 21.25369 33.39896 27.32632
#
# Velocity S-wave (km/s) = 3.06604 3.84350 3.47657
# Velocity P-wave (km/s) = 5.47439 7.38684 6.50132
#
# Compressibility (1/GPa) = 0.02536893
#
# Stress axis : x y z
#
# Youngs Moduli (GPa) = 73.51242 25.67215 91.50937
#
# Poissons Ratio (x) = 0.31560 0.06534
# Poissons Ratio (y) = 0.90372 0.55362
# Poissons Ratio (z) = 0.05249 0.15531
#
# Static dielectric constant tensor:
#      x y z
#    x 4.072860 -0.059870 0.037050 
#    y -0.059870 4.013740 -0.136750 
#    z 0.037050 -0.136750 3.759450 
# 
# 
# High freq. dielectric constant tensor:
#      x y z
#    x 1.906670 -0.001930 -0.000100 
#    y -0.001930 1.897650 -0.016620 
#    z -0.000100 -0.016620 1.854930 
# 
# From -- ./inp_files/382912.got.cif
#   From: 2010.06.25/outbox.cif.g09.slc.cpg/sg2_192_cif.got.tgz:382912.got - 2010.06.27 13:26:56.
