data_PCOD8011012
_publ_section_title
;
Structure prediction by ZEFSAII (Michael W. Deem and Ramdas Pophale) SiO2 
 PCOD8011012
Probable space group: P -1
;
_chemical_formula_sum "Si O2"
_cell_formula_units_Z 16
_cell_length_a 16.845457
_cell_length_b 12.056152
_cell_length_c 8.821280
_cell_angle_alpha 132.829804
_cell_angle_beta 145.030331
_cell_angle_gamma 54.214405
_cell_volume 751.397591
_symmetry_space_group_name_H-M "P -1"
_symmetry_group_IT_number 2
_symmetry_cell_setting 'triclinic'
loop_
_space_group_symop_operation_xyz
x,y,z
-x,-y,-z
loop_
_atom_site_type_symbol
_atom_site_label
_atom_site_fract_x
_atom_site_fract_y
_atom_site_fract_z
Si Si1 0.264059 0.653718 0.957120
Si Si2 0.804977 0.498522 0.820459
Si Si3 0.368733 0.791739 0.736155
Si Si4 0.390412 0.412820 0.155767
Si Si5 0.171239 0.898814 0.276977
Si Si6 0.136972 0.113787 0.160744
Si Si7 0.635796 0.084783 0.828596
Si Si8 0.882109 0.565696 0.677921
O O1 0.158542 0.587843 0.609665
O O2 0.349321 0.512379 0.036173
O O3 0.178076 0.752592 0.040430
O O4 0.368181 0.758190 0.127085
O O5 0.714283 0.357606 0.515944
O O6 0.737983 0.608484 0.949969
O O7 0.816293 0.586890 0.762264
O O8 0.953166 0.435667 0.054686
O O9 0.532766 0.747721 0.922020
O O10 0.302154 0.892002 0.587788
O O11 0.357979 0.889925 0.960364
O O12 0.500000 0.500000 0.500000
O O13 0.178072 0.053920 0.337065
O O14 0.025936 0.903296 0.143952
O O15 0.173081 0.288671 0.370935
O O16 0.224315 0.016308 0.083010
O O17 0.500000 0.000000 0.500000
#
# Coordination Sequence:
#
# PCOD8011012 Si02
#       8
#     2   2   2   2   2   2   2   2
#     4  11  22  41  70  97 132 170 216 273 325 381
#     4  10  21  41  67 104 133 164 216 272 332 378
#     4  11  21  45  67  91 130 179 215 269 320 390
#     4  10  21  38  65  97 131 173 215 262 329 381
#     4  10  21  44  69  94 134 172 216 267 322 389
#     4  10  23  43  65  96 133 172 219 263 321 390
#     4  11  27  45  63  95 132 176 220 264 325 393
#     4  11  22  40  70 103 133 165 217 276 322 389
#
# _framework density 21.293654
#
# number of rings (size 3 to 8) (size 9 to 14) (size 15 to 20)
#    0.000    1.500    5.000    0.000    1.750    5.000 
#    0.000    6.250    0.000    0.000    0.000    0.000 
#    0.000    0.000    0.000    0.000    0.000    0.000 
#
# Total GULP energy -198403.134757 kJ/mol
# GULP energy per Si atom -12400.195922 kJ/mol
# Density = 2.124519 g / cm^3
# Si number density = 21.293654 Si / 1000 Ang^3
#
#
#
# Elastic Constant Matrix: (Units=GPa)
#
#
# Indices 1 2 3 4 5 6 
#
# 1 155.8279 75.2919 59.1631 -5.5928 -6.5272 -11.3907
# 2 75.2919 122.5922 57.6679 -19.0175 -0.4720 7.3474
# 3 59.1631 57.6679 88.8506 -1.0272 -9.0367 -3.3840
# 4 -5.5928 -19.0175 -1.0272 31.8555 0.1884 -1.4803
# 5 -6.5272 -0.4720 -9.0367 0.1884 29.3605 0.4089
# 6 -11.3907 7.3474 -3.3840 -1.4803 0.4089 31.3399
#
#
#
# Elastic Compliance Matrix: (Units=1/GPa)
#
#
# Indices 1 2 3 4 5 6 
#
# 1 0.010655 -0.005506 -0.003231 -0.001308 0.001228 0.004737
# 2 -0.005506 0.016902 -0.007783 0.008597 -0.003315 -0.006355
# 3 -0.003231 -0.007783 0.019007 -0.004518 0.005002 0.002424
# 4 -0.001308 0.008597 -0.004518 0.036101 -0.001757 -0.001251
# 5 0.001228 -0.003315 0.005002 -0.001757 0.035813 0.001213
# 6 0.004737 -0.006355 0.002424 -0.001251 0.001213 0.035307
#
#
# Mechanical properties :
#
#
# Convention : Reuss Voigt Hill
#
# Bulk Modulus (GPa) = 73.94967 83.50186 78.72576
# Shear Modulus (GPa) = 26.13231 30.18770 28.16000
#
# Velocity S-wave (km/s) = 3.50699 3.76930 3.64051
# Velocity P-wave (km/s) = 7.15560 7.63171 7.39749
#
# Compressibility (1/GPa) = 0.01352271
#
# Stress axis : x y z
#
# Youngs Moduli (GPa) = 93.84965 59.16456 52.61240
#
# Poissons Ratio (x) = 0.32578 0.16999
# Poissons Ratio (y) = 0.51676 0.40951
# Poissons Ratio (z) = 0.30323 0.46050
#
# Static dielectric constant tensor:
#      x y z
#    x 4.999420 -0.799960 1.267260 
#    y -0.799960 4.629970 -1.426100 
#    z 1.267260 -1.426100 6.092780 
# 
# 
# High freq. dielectric constant tensor:
#      x y z
#    x 1.848480 -0.000200 0.000540 
#    y -0.000200 1.832020 -0.013880 
#    z 0.000540 -0.013880 1.822280 
# 
# From -- ./inp_files/333861.got.cif
#   From: 2010.06.25/outbox.cif.g09.slc.cpg/sg2_167_cif.got.tgz:333861.got - 2010.06.27 13:26:56.
