data_PCOD8011054
_publ_section_title
;
Structure prediction by ZEFSAII (Michael W. Deem and Ramdas Pophale) SiO2 
 PCOD8011054
Probable space group: P -1
;
_chemical_formula_sum "Si O2"
_cell_formula_units_Z 16
_cell_length_a 14.282439
_cell_length_b 17.150077
_cell_length_c 11.414355
_cell_angle_alpha 130.336098
_cell_angle_beta 128.906052
_cell_angle_gamma 21.350905
_cell_volume 772.718257
_symmetry_space_group_name_H-M "P -1"
_symmetry_group_IT_number 2
_symmetry_cell_setting 'triclinic'
loop_
_space_group_symop_operation_xyz
x,y,z
-x,-y,-z
loop_
_atom_site_type_symbol
_atom_site_label
_atom_site_fract_x
_atom_site_fract_y
_atom_site_fract_z
Si Si1 0.518933 0.223029 0.303489
Si Si2 0.881291 0.525713 0.594981
Si Si3 0.894011 0.860385 0.656927
Si Si4 0.876742 0.008266 0.569146
Si Si5 0.300356 0.574475 0.358010
Si Si6 0.747399 0.387705 0.086892
Si Si7 0.662615 0.686593 0.324286
Si Si8 0.005819 0.850272 0.186800
O O1 0.305405 0.309414 0.279571
O O2 0.619732 0.213397 0.486813
O O3 0.373436 0.403397 0.271640
O O4 0.746170 0.997474 0.186028
O O5 0.720966 0.663691 0.484357
O O6 0.995504 0.324569 0.496924
O O7 0.113950 0.431424 0.694043
O O8 0.097069 0.746431 0.801568
O O9 0.833234 0.001121 0.659024
O O10 0.607640 0.055574 0.674403
O O11 0.027937 0.001636 0.683073
O O12 0.027833 0.804438 0.425484
O O13 0.500000 0.500000 0.500000
O O14 0.264015 0.618666 0.232891
O O15 0.649477 0.576413 0.179798
O O16 0.500000 0.500000 0.000000
O O17 0.954154 0.208538 0.973179
#
# Coordination Sequence:
#
# PCOD8011054 Si02
#       8
#     2   2   2   2   2   2   2   2
#     4  11  20  36  58  91 121 148 196 255 304 350
#     4  10  21  38  66  93 116 152 204 261 304 346
#     4  11  22  38  64  91 120 158 200 251 306 355
#     4  11  20  32  57  92 120 152 196 246 303 352
#     4  11  19  33  56  83 120 157 192 250 299 346
#     4  11  27  42  59  88 126 169 201 234 296 373
#     4  10  22  42  62  88 124 157 202 253 297 354
#     4  11  24  36  54  88 126 162 202 239 294 367
#
# _framework density 20.706123999999999
#
# number of rings (size 3 to 8) (size 9 to 14) (size 15 to 20)
#    0.000    1.250    5.000    1.875    3.500    3.000 
#    0.000    0.625    0.000    1.500    0.000    0.000 
#    0.000    0.000    0.000    0.000    0.000    0.000 
#
# Total GULP energy -198308.094332 kJ/mol
# GULP energy per Si atom -12394.255896 kJ/mol
# Density = 2.065900 g / cm^3
# Si number density = 20.706124 Si / 1000 Ang^3
#
#
#
# Elastic Constant Matrix: (Units=GPa)
#
#
# Indices 1 2 3 4 5 6 
#
# 1 114.2027 40.7954 30.0072 -5.9308 -7.1178 -18.8372
# 2 40.7954 104.4137 25.7264 -4.9124 -1.3680 -8.3445
# 3 30.0072 25.7264 60.7906 -0.2977 -5.5473 -6.1052
# 4 -5.9308 -4.9124 -0.2977 21.9102 -9.4576 -7.0234
# 5 -7.1178 -1.3680 -5.5473 -9.4576 26.9276 -1.5579
# 6 -18.8372 -8.3445 -6.1052 -7.0234 -1.5579 45.1758
#
#
#
# Elastic Compliance Matrix: (Units=1/GPa)
#
#
# Indices 1 2 3 4 5 6 
#
# 1 0.012360 -0.003116 -0.003782 0.006373 0.004870 0.005226
# 2 -0.003116 0.011770 -0.003384 0.001879 -0.000222 0.000702
# 3 -0.003782 -0.003384 0.020083 -0.000021 0.002994 0.000612
# 4 0.006373 0.001879 -0.000021 0.062772 0.024610 0.013609
# 5 0.004870 -0.000222 0.002994 0.024610 0.048129 0.007880
# 6 0.005226 0.000702 0.000612 0.013609 0.007880 0.026915
#
#
# Mechanical properties :
#
#
# Convention : Reuss Voigt Hill
#
# Bulk Modulus (GPa) = 42.28294 52.49611 47.38952
# Shear Modulus (GPa) = 23.75584 30.99460 27.37522
#
# Velocity S-wave (km/s) = 3.39084 3.87315 3.63999
# Velocity P-wave (km/s) = 5.98291 6.73867 6.37201
#
# Compressibility (1/GPa) = 0.02365020
#
# Stress axis : x y z
#
# Youngs Moduli (GPa) = 80.90894 84.96223 49.79303
#
# Poissons Ratio (x) = 0.26474 0.18831
# Poissons Ratio (y) = 0.25211 0.16848
# Poissons Ratio (z) = 0.30598 0.28747
#
# Static dielectric constant tensor:
#      x y z
#    x 3.931350 0.084080 -0.177300 
#    y 0.084080 4.458380 -0.091460 
#    z -0.177300 -0.091460 3.356010 
# 
# 
# High freq. dielectric constant tensor:
#      x y z
#    x 1.812580 -0.003890 -0.017630 
#    y -0.003890 1.827900 -0.003700 
#    z -0.017630 -0.003700 1.760670 
# 
# From -- ./inp_files/70666.got.cif
#   From: 2010.06.25/outbox.cif.g09.slc.cpg/sg2_36_cif.got.tgz:70666.got - 2010.06.27 13:26:56.
