data_PCOD8011813
_publ_section_title
;
Structure prediction by ZEFSAII (Michael W. Deem and Ramdas Pophale) SiO2 
 PCOD8011813
Probable space group: P -1
;
_chemical_formula_sum "Si O2"
_cell_formula_units_Z 14
_cell_length_a 14.439216
_cell_length_b 11.310783
_cell_length_c 7.685045
_cell_angle_alpha 120.492707
_cell_angle_beta 35.682671
_cell_angle_gamma 119.115608
_cell_volume 623.896114
_symmetry_space_group_name_H-M "P -1"
_symmetry_group_IT_number 2
_symmetry_cell_setting 'triclinic'
loop_
_space_group_symop_operation_xyz
x,y,z
-x,-y,-z
loop_
_atom_site_type_symbol
_atom_site_label
_atom_site_fract_x
_atom_site_fract_y
_atom_site_fract_z
Si Si1 0.838415 0.363117 0.984314
Si Si2 0.179944 0.381770 0.375250
Si Si3 0.585278 0.389080 0.646609
Si Si4 0.658167 0.862441 0.084794
Si Si5 0.691618 0.080144 0.892394
Si Si6 0.656841 0.877313 0.501405
Si Si7 0.292391 0.411055 0.868004
O O1 0.829584 0.211606 0.797662
O O2 0.029058 0.421859 0.744013
O O3 0.754316 0.347882 0.288114
O O4 0.734782 0.463886 0.118181
O O5 0.353029 0.475800 0.227937
O O6 0.197226 0.220333 0.255101
O O7 0.157397 0.403607 0.219870
O O8 0.504181 0.250515 0.767574
O O9 0.470192 0.428310 0.695766
O O10 0.674992 0.918779 0.300451
O O11 0.661382 0.989631 0.046115
O O12 0.747292 0.996450 0.578938
O O13 0.526401 0.142212 0.164041
O O14 0.727378 0.733505 0.318555
#
# Coordination Sequence:
#
# PCOD8011813 Si02
#       7
#     2   2   2   2   2   2   2
#     4  12  23  38  63  97 130 157 209 256 323 377
#     4  10  23  40  62  93 129 166 200 262 322 369
#     4  10  21  39  64  92 119 166 211 260 305 365
#     4  10  21  42  63  90 128 161 219 255 308 377
#     4  11  22  37  65  94 125 165 205 264 316 369
#     4   9  21  38  62  92 118 165 214 262 301 365
#     4  10  21  42  63  90 124 162 216 262 299 373
#
# _framework density 22.439632
#
# number of rings (size 3 to 8) (size 9 to 14) (size 15 to 20)
#    0.000    2.000    2.857    3.429    2.000    4.000 
#    0.000    2.857    0.000    0.000    0.000    0.000 
#    0.000    0.000    0.000    0.000    0.000    0.000 
#
# Total GULP energy -173463.689635 kJ/mol
# GULP energy per Si atom -12390.263545 kJ/mol
# Density = 2.238856 g / cm^3
# Si number density = 22.439632 Si / 1000 Ang^3
#
#
#
# Elastic Constant Matrix: (Units=GPa)
#
#
# Indices 1 2 3 4 5 6 
#
# 1 36.4373 29.8999 9.4938 10.9287 7.3781 0.8799
# 2 29.8999 104.7860 12.0938 22.0153 6.7379 -7.9383
# 3 9.4938 12.0938 103.4935 8.7431 1.9238 -7.2605
# 4 10.9287 22.0153 8.7431 31.9909 14.0016 2.8796
# 5 7.3781 6.7379 1.9238 14.0016 31.6486 1.8286
# 6 0.8799 -7.9383 -7.2605 2.8796 1.8286 21.1121
#
#
#
# Elastic Compliance Matrix: (Units=1/GPa)
#
#
# Indices 1 2 3 4 5 6 
#
# 1 0.038420 -0.010198 -0.002389 -0.002723 -0.005121 -0.005443
# 2 -0.010198 0.014527 0.000384 -0.008363 0.002561 0.006938
# 3 -0.002389 0.000384 0.010370 -0.003078 0.000967 0.004146
# 4 -0.002723 -0.008363 -0.003078 0.047410 -0.017852 -0.009010
# 5 -0.005121 0.002561 0.000967 -0.017852 0.040057 0.000474
# 6 -0.005443 0.006938 0.004146 -0.009010 0.000474 0.052816
#
#
# Mechanical properties :
#
#
# Convention : Reuss Voigt Hill
#
# Bulk Modulus (GPa) = 25.70073 38.63241 32.16657
# Shear Modulus (GPa) = 20.74882 29.83229 25.29056
#
# Velocity S-wave (km/s) = 3.04411 3.65011 3.36080
# Velocity P-wave (km/s) = 4.88196 5.91760 5.42455
#
# Compressibility (1/GPa) = 0.03890940
#
# Stress axis : x y z
#
# Youngs Moduli (GPa) = 26.02779 68.83722 96.43446
#
# Poissons Ratio (x) = 0.70202 0.23041
# Poissons Ratio (y) = 0.26544 -0.03699
# Poissons Ratio (z) = 0.06219 -0.02641
#
# Static dielectric constant tensor:
#      x y z
#    x 3.682850 0.184970 0.217720 
#    y 0.184970 4.000940 0.275130 
#    z 0.217720 0.275130 4.154960 
# 
# 
# High freq. dielectric constant tensor:
#      x y z
#    x 1.845940 0.003670 0.014920 
#    y 0.003670 1.878270 0.019410 
#    z 0.014920 0.019410 1.904560 
# 
# From -- ./inp_files/333665.got.cif
#   From: 2010.06.25/outbox.cif.g09.slc.cpg/sg2_167_cif.got.tgz:333665.got - 2010.06.27 13:26:56.
