data_PCOD8011398
_publ_section_title
;
Structure prediction by ZEFSAII (Michael W. Deem and Ramdas Pophale) SiO2 
 PCOD8011398
Probable space group: P -1
;
_chemical_formula_sum "Si O2"
_cell_formula_units_Z 14
_cell_length_a 14.006992
_cell_length_b 11.971245
_cell_length_c 12.358413
_cell_angle_alpha 69.320904
_cell_angle_beta 111.244346
_cell_angle_gamma 159.621130
_cell_volume 672.002128
_symmetry_space_group_name_H-M "P -1"
_symmetry_group_IT_number 2
_symmetry_cell_setting 'triclinic'
loop_
_space_group_symop_operation_xyz
x,y,z
-x,-y,-z
loop_
_atom_site_type_symbol
_atom_site_label
_atom_site_fract_x
_atom_site_fract_y
_atom_site_fract_z
Si Si1 0.738522 0.314587 0.234251
Si Si2 0.101060 0.474063 0.545887
Si Si3 0.170862 0.053154 0.436537
Si Si4 0.196988 0.620273 0.303780
Si Si5 0.296450 0.265750 0.649016
Si Si6 0.561824 0.204487 0.981839
Si Si7 0.940257 0.195581 0.163231
O O1 0.721738 0.361763 0.328958
O O2 0.032672 0.568067 0.257955
O O3 0.485255 0.947057 0.248254
O O4 0.694432 0.360087 0.103004
O O5 0.271769 0.649391 0.443684
O O6 0.000000 0.500000 0.500000
O O7 0.857147 0.112979 0.560467
O O8 0.276793 0.167779 0.564145
O O9 0.384228 0.350400 0.341758
O O10 0.877982 0.801840 0.400865
O O11 0.002816 0.319026 0.263722
O O12 0.196966 0.081151 0.774656
O O13 0.772514 0.499337 0.887412
O O14 0.269060 0.952791 0.942843
O O15 0.500000 0.000000 0.000000
#
# Coordination Sequence:
#
# PCOD8011398 Si02
#       7
#     2   2   2   2   2   2   2
#     4  11  23  36  54  85 124 157 193 228 305 361
#     4  10  23  40  62  92 125 159 188 246 307 370
#     4  10  21  39  61  87 121 150 200 242 301 350
#     4  11  20  36  56  86 120 153 187 242 298 358
#     4  10  22  38  61  89 114 159 197 251 289 346
#     4  12  22  35  58  86 121 162 193 251 292 349
#     4  12  21  37  60  85 121 150 202 249 295 343
#
# _framework density 20.833269000000001
#
# number of rings (size 3 to 8) (size 9 to 14) (size 15 to 20)
#    0.000    1.143    4.286    2.571    0.000    4.571 
#    0.000    0.000    0.000    5.143    0.000    0.000 
#    0.000    0.000    0.000    0.000    0.000    0.000 
#
# Total GULP energy -173551.833524 kJ/mol
# GULP energy per Si atom -12396.559537 kJ/mol
# Density = 2.078585 g / cm^3
# Si number density = 20.833269 Si / 1000 Ang^3
#
#
#
# Elastic Constant Matrix: (Units=GPa)
#
#
# Indices 1 2 3 4 5 6 
#
# 1 51.3049 34.3549 16.4347 5.2271 1.4906 -11.7904
# 2 34.3549 101.5493 25.8492 -19.0333 -0.1274 -5.3786
# 3 16.4347 25.8492 121.6675 0.0185 -11.6244 -12.7675
# 4 5.2271 -19.0333 0.0185 43.3231 -0.7122 1.6895
# 5 1.4906 -0.1274 -11.6244 -0.7122 20.5779 -5.2780
# 6 -11.7904 -5.3786 -12.7675 1.6895 -5.2780 35.1148
#
#
#
# Elastic Compliance Matrix: (Units=1/GPa)
#
#
# Indices 1 2 3 4 5 6 
#
# 1 0.030125 -0.011187 -0.000902 -0.008890 -0.000924 0.008363
# 2 -0.011187 0.015592 -0.002148 0.008293 -0.000700 -0.002653
# 3 -0.000902 -0.002148 0.009847 -0.000886 0.006606 0.003984
# 4 -0.008890 0.008293 -0.000886 0.027934 0.000306 -0.003335
# 5 -0.000924 -0.000700 0.006606 0.000306 0.055027 0.010241
# 6 0.008363 -0.002653 0.003984 -0.003335 0.010241 0.034028
#
#
# Mechanical properties :
#
#
# Convention : Reuss Voigt Hill
#
# Bulk Modulus (GPa) = 36.91343 47.53326 42.22334
# Shear Modulus (GPa) = 23.80321 32.99534 28.39928
#
# Velocity S-wave (km/s) = 3.38384 3.98399 3.69612
# Velocity P-wave (km/s) = 5.74666 6.63540 6.20696
#
# Compressibility (1/GPa) = 0.02709041
#
# Stress axis : x y z
#
# Youngs Moduli (GPa) = 33.19448 64.13714 101.55773
#
# Poissons Ratio (x) = 0.71748 0.09160
# Poissons Ratio (y) = 0.37133 0.21815
# Poissons Ratio (z) = 0.02994 0.13777
#
# Static dielectric constant tensor:
#      x y z
#    x 3.448820 0.009680 -0.107390 
#    y 0.009680 3.761870 0.047570 
#    z -0.107390 0.047570 4.119090 
# 
# 
# High freq. dielectric constant tensor:
#      x y z
#    x 1.779850 0.014780 -0.000670 
#    y 0.014780 1.817380 -0.009330 
#    z -0.000670 -0.009330 1.816820 
# 
# From -- ./inp_files/65841.got.cif
#   From: 2010.06.25/outbox.cif.g09.slc.cpg/sg2_33_cif.got.tgz:65841.got - 2010.06.27 13:26:56.
