data_PCOD8011640
_publ_section_title
;
Structure prediction by ZEFSAII (Michael W. Deem and Ramdas Pophale) SiO2 
 PCOD8011640
Probable space group: P -1
;
_chemical_formula_sum "Si O2"
_cell_formula_units_Z 16
_cell_length_a 5.188215
_cell_length_b 8.975909
_cell_length_c 19.854896
_cell_angle_alpha 89.674362
_cell_angle_beta 125.952781
_cell_angle_gamma 98.001031
_cell_volume 737.854146
_symmetry_space_group_name_H-M "P -1"
_symmetry_group_IT_number 2
_symmetry_cell_setting 'triclinic'
loop_
_space_group_symop_operation_xyz
x,y,z
-x,-y,-z
loop_
_atom_site_type_symbol
_atom_site_label
_atom_site_fract_x
_atom_site_fract_y
_atom_site_fract_z
Si Si1 0.282496 0.581828 0.173259
Si Si2 0.579715 0.412740 0.326817
Si Si3 0.727225 0.096916 0.367346
Si Si4 0.694413 0.932752 0.088099
Si Si5 0.432840 0.409797 0.922260
Si Si6 0.595687 0.877546 0.466903
Si Si7 0.698267 0.448404 0.589458
Si Si8 0.452813 0.932143 0.195911
O O1 0.409674 0.447605 0.232056
O O2 0.315196 0.534489 0.099810
O O3 0.473524 0.754176 0.210898
O O4 0.932287 0.576682 0.152005
O O5 0.521314 0.235099 0.339070
O O6 0.458901 0.513716 0.365186
O O7 0.947757 0.465552 0.365213
O O8 0.082236 0.167634 0.450130
O O9 0.612332 0.950991 0.395703
O O10 0.687270 0.031321 0.285705
O O11 0.540885 0.759905 0.057104
O O12 0.605439 0.990885 0.147619
O O13 0.083835 0.963266 0.140474
O O14 0.500000 0.000000 0.000000
O O15 0.500000 0.500000 0.000000
O O16 0.318534 0.731909 0.418477
O O17 0.500000 0.000000 0.500000
O O18 0.500000 0.500000 0.500000
#
# Coordination Sequence:
#
# PCOD8011640 Si02
#       8
#     2   2   2   2   2   2   2   2
#     4  10  22  40  60  92 124 167 207 257 319 378
#     4  12  26  43  67  96 130 169 222 268 325 381
#     4  11  26  42  64  99 129 172 221 275 321 386
#     4  10  22  40  64  93 124 163 208 256 320 384
#     4  10  21  39  63  90 124 161 207 255 314 380
#     4  11  26  43  67  93 132 173 226 268 329 383
#     4  12  25  44  67  91 128 172 215 269 325 378
#     4  10  23  40  63  91 130 166 208 261 320 380
#
# _framework density 21.684505000000001
#
# number of rings (size 3 to 8) (size 9 to 14) (size 15 to 20)
#    0.000    1.250    1.250    3.375    7.000    3.000 
#    0.000    0.000    0.000    0.000    0.000    0.000 
#    0.000    0.000    0.000    0.000    0.000    0.000 
#
# Total GULP energy -198272.163791 kJ/mol
# GULP energy per Si atom -12392.010237 kJ/mol
# Density = 2.163515 g / cm^3
# Si number density = 21.684505 Si / 1000 Ang^3
#
#
#
# Elastic Constant Matrix: (Units=GPa)
#
#
# Indices 1 2 3 4 5 6 
#
# 1 105.0765 14.1382 23.6125 -5.8673 -22.5743 -9.0280
# 2 14.1382 107.2717 56.4429 -13.5981 -6.5644 -13.8294
# 3 23.6125 56.4429 122.3618 -16.7075 -25.7033 -4.9111
# 4 -5.8673 -13.5981 -16.7075 47.6242 -10.0421 0.1954
# 5 -22.5743 -6.5644 -25.7033 -10.0421 35.5240 6.2334
# 6 -9.0280 -13.8294 -4.9111 0.1954 6.2334 28.1109
#
#
#
# Elastic Compliance Matrix: (Units=1/GPa)
#
#
# Indices 1 2 3 4 5 6 
#
# 1 0.011566 -0.000517 0.000143 0.002986 0.007901 0.001712
# 2 -0.000517 0.013471 -0.006471 0.000777 -0.003367 0.006072
# 3 0.000143 -0.006471 0.014109 0.005498 0.011219 -0.003199
# 4 0.002986 0.000777 0.005498 0.026397 0.013641 -0.000906
# 5 0.007901 -0.003367 0.011219 0.013641 0.045823 -0.007415
# 6 0.001712 0.006072 -0.003199 -0.000906 -0.007415 0.040202
#
#
# Mechanical properties :
#
#
# Convention : Reuss Voigt Hill
#
# Bulk Modulus (GPa) = 39.28563 58.12189 48.70376
# Shear Modulus (GPa) = 28.77817 38.28624 33.53220
#
# Velocity S-wave (km/s) = 3.64693 4.20647 3.93665
# Velocity P-wave (km/s) = 5.99080 7.10310 6.57053
#
# Compressibility (1/GPa) = 0.02545460
#
# Stress axis : x y z
#
# Youngs Moduli (GPa) = 86.46287 74.23624 70.87599
#
# Poissons Ratio (x) = 0.03835 -0.01011
# Poissons Ratio (y) = 0.04466 0.45867
# Poissons Ratio (z) = -0.01233 0.48042
#
# Static dielectric constant tensor:
#      x y z
#    x 4.532160 -0.172350 0.029380 
#    y -0.172350 3.907320 0.104060 
#    z 0.029380 0.104060 3.522350 
# 
# 
# High freq. dielectric constant tensor:
#      x y z
#    x 1.856000 -0.006550 -0.009800 
#    y -0.006550 1.857770 -0.007830 
#    z -0.009800 -0.007830 1.858810 
# 
# From -- ./inp_files/55616.got.cif
#   From: 2010.06.25/outbox.cif.g09.slc.cpg/sg2_28_cif.got.tgz:55616.got - 2010.06.27 13:26:56.
