data_PCOD8011629
_publ_section_title
;
Structure prediction by ZEFSAII (Michael W. Deem and Ramdas Pophale) SiO2 
 PCOD8011629
Probable space group: P -1
;
_chemical_formula_sum "Si O2"
_cell_formula_units_Z 16
_cell_length_a 12.911617
_cell_length_b 15.275714
_cell_length_c 8.800027
_cell_angle_alpha 140.148035
_cell_angle_beta 105.361801
_cell_angle_gamma 52.775396
_cell_volume 815.133510
_symmetry_space_group_name_H-M "P -1"
_symmetry_group_IT_number 2
_symmetry_cell_setting 'triclinic'
loop_
_space_group_symop_operation_xyz
x,y,z
-x,-y,-z
loop_
_atom_site_type_symbol
_atom_site_label
_atom_site_fract_x
_atom_site_fract_y
_atom_site_fract_z
Si Si1 0.784802 0.486301 0.858588
Si Si2 0.870475 0.198760 0.754354
Si Si3 0.523832 0.613684 0.760424
Si Si4 0.613157 0.759701 0.404313
Si Si5 0.871987 0.580593 0.762347
Si Si6 0.584857 0.306162 0.844078
Si Si7 0.878898 0.442086 0.264788
Si Si8 0.544314 0.891014 0.027552
O O1 0.856302 0.326652 0.791635
O O2 0.685702 0.479273 0.700067
O O3 0.899497 0.471053 0.781072
O O4 0.688799 0.680851 0.165239
O O5 0.745742 0.193192 0.708758
O O6 0.884879 0.273280 0.015590
O O7 0.000000 0.000000 0.500000
O O8 0.500000 0.500000 0.500000
O O9 0.423484 0.695478 0.978326
O O10 0.499864 0.768234 0.852402
O O11 0.477341 0.773046 0.372117
O O12 0.727367 0.627872 0.403030
O O13 0.547601 0.963093 0.678626
O O14 0.896782 0.456076 0.467425
O O15 0.989493 0.601211 0.833752
O O16 0.712627 0.772013 0.957259
O O17 0.500000 0.500000 0.000000
O O18 0.500000 0.000000 0.000000
#
# Coordination Sequence:
#
# PCOD8011629 Si02
#       8
#     2   2   2   2   2   2   2   2
#     4   9  21  40  62  87 122 161 205 255 309 369
#     4  11  24  41  59  89 121 165 210 248 307 374
#     4  10  23  38  64  95 124 162 207 250 320 374
#     4  10  21  39  63  89 123 158 209 257 304 366
#     4  10  22  39  61  88 120 160 203 255 317 363
#     4  11  21  40  64  87 122 167 202 254 315 369
#     4  10  21  41  60  84 122 167 199 248 317 371
#     4  11  23  38  64  98 123 162 209 265 302 365
#
# _framework density 19.628686999999999
#
# number of rings (size 3 to 8) (size 9 to 14) (size 15 to 20)
#    0.000    1.750    5.000    0.000    7.000    6.500 
#    2.250    0.625    0.000    0.000    0.000    0.000 
#    0.000    0.000    0.000    0.000    0.000    0.000 
#
# Total GULP energy -198319.580037 kJ/mol
# GULP energy per Si atom -12394.973752 kJ/mol
# Density = 1.958401 g / cm^3
# Si number density = 19.628687 Si / 1000 Ang^3
#
#
#
# Elastic Constant Matrix: (Units=GPa)
#
#
# Indices 1 2 3 4 5 6 
#
# 1 129.9732 41.3834 50.5180 4.8949 -9.2181 2.7664
# 2 41.3834 72.1797 35.8852 1.4041 -1.8296 12.2743
# 3 50.5180 35.8852 116.8406 15.7530 9.1954 -4.2808
# 4 4.8949 1.4041 15.7530 30.5021 -3.7056 -2.1127
# 5 -9.2181 -1.8296 9.1954 -3.7056 37.0431 -2.5594
# 6 2.7664 12.2743 -4.2808 -2.1127 -2.5594 32.4019
#
#
#
# Elastic Compliance Matrix: (Units=1/GPa)
#
#
# Indices 1 2 3 4 5 6 
#
# 1 0.010702 -0.004343 -0.003658 0.000835 0.003480 0.000578
# 2 -0.004343 0.020060 -0.004876 0.001853 0.000774 -0.007690
# 3 -0.003658 -0.004876 0.012971 -0.006255 -0.004783 0.003087
# 4 0.000835 0.001853 -0.006255 0.036560 0.005594 0.001226
# 5 0.003480 0.000774 -0.004783 0.005594 0.029750 0.001492
# 6 0.000578 -0.007690 0.003087 0.001226 0.001492 0.034332
#
#
# Mechanical properties :
#
#
# Convention : Reuss Voigt Hill
#
# Bulk Modulus (GPa) = 55.62418 63.84074 59.73246
# Shear Modulus (GPa) = 28.38951 32.73655 30.56303
#
# Velocity S-wave (km/s) = 3.80719 4.08829 3.95024
# Velocity P-wave (km/s) = 6.90840 7.40812 7.16262
#
# Compressibility (1/GPa) = 0.01797779
#
# Stress axis : x y z
#
# Youngs Moduli (GPa) = 93.44204 49.85121 77.09640
#
# Poissons Ratio (x) = 0.21651 0.28206
# Poissons Ratio (y) = 0.40583 0.37589
# Poissons Ratio (z) = 0.34186 0.24306
#
# Static dielectric constant tensor:
#      x y z
#    x 3.573070 0.058370 0.003070 
#    y 0.058370 3.537810 -0.099270 
#    z 0.003070 -0.099270 3.775850 
# 
# 
# High freq. dielectric constant tensor:
#      x y z
#    x 1.772610 0.000810 -0.001030 
#    y 0.000810 1.753970 -0.015440 
#    z -0.001030 -0.015440 1.762350 
# 
# From -- ./inp_files/274683.got.cif
#   From: 2010.06.25/outbox.cif.g09.slc.cpg/sg2_138_cif.got.tgz:274683.got - 2010.06.27 13:26:56.
