data_PCOD8011087
_publ_section_title
;
Structure prediction by ZEFSAII (Michael W. Deem and Ramdas Pophale) SiO2 
 PCOD8011087
Probable space group: P -1
;
_chemical_formula_sum "Si O2"
_cell_formula_units_Z 16
_cell_length_a 21.915705
_cell_length_b 24.403473
_cell_length_c 9.794034
_cell_angle_alpha 40.470376
_cell_angle_beta 152.316074
_cell_angle_gamma 159.401435
_cell_volume 778.155735
_symmetry_space_group_name_H-M "P -1"
_symmetry_group_IT_number 2
_symmetry_cell_setting 'triclinic'
loop_
_space_group_symop_operation_xyz
x,y,z
-x,-y,-z
loop_
_atom_site_type_symbol
_atom_site_label
_atom_site_fract_x
_atom_site_fract_y
_atom_site_fract_z
Si Si1 0.706840 0.689604 0.515513
Si Si2 0.585754 0.384241 0.710971
Si Si3 0.619688 0.649097 0.890226
Si Si4 0.797967 0.833700 0.154041
Si Si5 0.624301 0.896808 0.283789
Si Si6 0.201574 0.989530 0.291146
Si Si7 0.919837 0.248277 0.883758
Si Si8 0.558169 0.036686 0.323859
O O1 0.500000 0.500000 0.500000
O O2 0.680082 0.741411 0.488428
O O3 0.646700 0.708572 0.221676
O O4 0.988987 0.799286 0.855580
O O5 0.585716 0.435995 0.471530
O O6 0.579573 0.282155 0.854032
O O7 0.845829 0.554309 0.991518
O O8 0.500000 0.500000 0.000000
O O9 0.637786 0.725909 0.902465
O O10 0.906218 0.793436 0.116346
O O11 0.811695 0.943638 0.976171
O O12 0.088747 0.954432 0.499156
O O13 0.649427 0.891835 0.503724
O O14 0.513866 0.928903 0.987196
O O15 0.359391 0.998372 0.531307
O O16 0.794474 0.201763 0.577481
O O17 0.700493 0.134982 0.779551
#
# Coordination Sequence:
#
# PCOD8011087 Si02
#       8
#     2   2   2   2   2   2   2   2
#     4  10  21  38  66  99 129 162 216 271 324 381
#     4  11  22  40  65  96 132 161 220 278 322 382
#     4  11  21  38  68  98 129 168 211 279 328 372
#     4  11  21  41  67  97 133 164 218 272 323 386
#     4  11  22  42  65  97 127 174 215 272 323 387
#     4  11  23  43  67  99 129 171 224 262 329 396
#     4  10  23  41  60  92 131 174 214 262 329 396
#     4  11  24  42  65  88 135 180 216 259 326 396
#
# _framework density 20.561437999999999
#
# number of rings (size 3 to 8) (size 9 to 14) (size 15 to 20)
#    0.000    1.250    3.750    3.375    1.750    4.000 
#    0.000    3.125    0.000    0.000    0.000    0.000 
#    0.000    0.000    0.000    0.000    0.000    0.000 
#
# Total GULP energy -198346.296826 kJ/mol
# GULP energy per Si atom -12396.643552 kJ/mol
# Density = 2.051464 g / cm^3
# Si number density = 20.561438 Si / 1000 Ang^3
#
#
#
# Elastic Constant Matrix: (Units=GPa)
#
#
# Indices 1 2 3 4 5 6 
#
# 1 85.7006 56.9531 33.0025 -10.4164 3.1401 3.0811
# 2 56.9531 108.3194 50.7290 -14.5354 4.0877 -3.2176
# 3 33.0025 50.7290 98.2948 -19.7874 -3.5859 -0.6833
# 4 -10.4164 -14.5354 -19.7874 41.7085 -8.9653 -10.5908
# 5 3.1401 4.0877 -3.5859 -8.9653 33.2171 -8.6221
# 6 3.0811 -3.2176 -0.6833 -10.5908 -8.6221 28.8596
#
#
#
# Elastic Compliance Matrix: (Units=1/GPa)
#
#
# Indices 1 2 3 4 5 6 
#
# 1 0.018477 -0.009011 -0.001827 -0.000847 -0.002090 -0.003956
# 2 -0.009011 0.016796 -0.005267 0.001833 -0.000445 0.003250
# 3 -0.001827 -0.005267 0.015178 0.007166 0.005493 0.004238
# 4 -0.000847 0.001833 0.007166 0.035565 0.014890 0.017965
# 5 -0.002090 -0.000445 0.005493 0.014890 0.039532 0.017578
# 6 -0.003956 0.003250 0.004238 0.017965 0.017578 0.047380
#
#
# Mechanical properties :
#
#
# Convention : Reuss Voigt Hill
#
# Bulk Modulus (GPa) = 54.82750 63.74269 59.28509
# Shear Modulus (GPa) = 23.67213 30.86571 27.26892
#
# Velocity S-wave (km/s) = 3.39674 3.87867 3.64568
# Velocity P-wave (km/s) = 6.48898 7.15032 6.82767
#
# Compressibility (1/GPa) = 0.01823902
#
# Stress axis : x y z
#
# Youngs Moduli (GPa) = 54.12262 59.53712 65.88611
#
# Poissons Ratio (x) = 0.53651 0.12038
# Poissons Ratio (y) = 0.48772 0.34705
# Poissons Ratio (z) = 0.09888 0.31360
#
# Static dielectric constant tensor:
#      x y z
#    x 4.266630 -0.514770 0.091000 
#    y -0.514770 4.446830 -0.230630 
#    z 0.091000 -0.230630 3.889060 
# 
# 
# High freq. dielectric constant tensor:
#      x y z
#    x 1.812610 -0.006080 -0.011710 
#    y -0.006080 1.796060 -0.008380 
#    z -0.011710 -0.008380 1.799220 
# 
# From -- ./inp_files/295528.got.cif
#   From: 2010.06.25/outbox.cif.g09.slc.cpg/sg2_148_cif.got.tgz:295528.got - 2010.06.27 13:26:56.
