data_PCOD8011904
_publ_section_title
;
Structure prediction by ZEFSAII (Michael W. Deem and Ramdas Pophale) SiO2 
 PCOD8011904
Probable space group: P -1
;
_chemical_formula_sum "Si O2"
_cell_formula_units_Z 16
_cell_length_a 7.502323
_cell_length_b 9.117573
_cell_length_c 11.716278
_cell_angle_alpha 103.940937
_cell_angle_beta 108.074375
_cell_angle_gamma 109.558886
_cell_volume 662.612039
_symmetry_space_group_name_H-M "P -1"
_symmetry_group_IT_number 2
_symmetry_cell_setting 'triclinic'
loop_
_space_group_symop_operation_xyz
x,y,z
-x,-y,-z
loop_
_atom_site_type_symbol
_atom_site_label
_atom_site_fract_x
_atom_site_fract_y
_atom_site_fract_z
Si Si1 0.458104 0.733801 0.729337
Si Si2 0.136585 0.434840 0.234435
Si Si3 0.608491 0.628380 0.348995
Si Si4 0.153543 0.185576 0.028934
Si Si5 0.885329 0.852571 0.249984
Si Si6 0.551867 0.859472 0.542360
Si Si7 0.903907 0.296323 0.611157
Si Si8 0.949086 0.221944 0.359396
O O1 0.376082 0.539178 0.636987
O O2 0.609882 0.765833 0.874398
O O3 0.609830 0.871494 0.690192
O O4 0.258130 0.765285 0.723011
O O5 0.364684 0.578437 0.272956
O O6 0.060763 0.308497 0.087537
O O7 0.994809 0.531882 0.258647
O O8 0.131941 0.320101 0.322628
O O9 0.727673 0.694793 0.265074
O O10 0.691151 0.787692 0.485650
O O11 0.160860 0.204294 0.898743
O O12 0.000000 0.000000 0.000000
O O13 0.111774 0.863038 0.341188
O O14 0.876552 0.023345 0.309135
O O15 0.311728 0.710749 0.476701
O O16 0.500000 0.000000 0.500000
O O17 0.030156 0.299994 0.518458
#
# Coordination Sequence:
#
# PCOD8011904 Si02
#       8
#     2   2   2   2   2   2   2   2
#     4  10  23  40  68  92 133 172 215 265 323 387
#     4  10  22  43  68  94 130 173 217 264 323 389
#     4  10  22  40  64  99 131 170 211 273 328 380
#     4  11  25  46  65  94 128 175 225 264 316 386
#     4  12  25  42  65  95 137 173 217 265 319 383
#     4  10  21  39  65 101 131 167 213 269 331 384
#     4  10  23  39  65  99 131 164 211 272 328 382
#     4  11  22  43  67 100 128 170 216 267 329 382
#
# _framework density 24.146858000000002
#
# number of rings (size 3 to 8) (size 9 to 14) (size 15 to 20)
#    0.000    1.500    1.250    3.375    1.750    8.000 
#    0.000    0.000    0.000    0.000    0.000    0.000 
#    0.000    0.000    0.000    0.000    0.000    0.000 
#
# Total GULP energy -198218.206831 kJ/mol
# GULP energy per Si atom -12388.637927 kJ/mol
# Density = 2.409190 g / cm^3
# Si number density = 24.146858 Si / 1000 Ang^3
#
#
#
# Elastic Constant Matrix: (Units=GPa)
#
#
# Indices 1 2 3 4 5 6 
#
# 1 75.3811 17.5438 41.2669 -3.6713 -15.9374 -27.6241
# 2 17.5438 110.0078 32.2590 -8.4922 -20.2573 -35.6934
# 3 41.2669 32.2590 154.2126 -12.5456 -24.0883 -15.1254
# 4 -3.6713 -8.4922 -12.5456 45.4025 -2.8737 -13.5206
# 5 -15.9374 -20.2573 -24.0883 -2.8737 43.5820 -1.8972
# 6 -27.6241 -35.6934 -15.1254 -13.5206 -1.8972 42.6742
#
#
#
# Elastic Compliance Matrix: (Units=1/GPa)
#
#
# Indices 1 2 3 4 5 6 
#
# 1 0.027378 0.010002 -0.003068 0.013073 0.015125 0.029815
# 2 0.010002 0.020972 -0.000705 0.014109 0.015204 0.028912
# 3 -0.003068 -0.000705 0.008314 0.002524 0.003370 0.001321
# 4 0.013073 0.014109 0.002524 0.037537 0.016680 0.033792
# 5 0.015125 0.015204 0.003370 0.016680 0.039845 0.030758
# 6 0.029815 0.028912 0.001321 0.033792 0.030758 0.079458
#
#
# Mechanical properties :
#
#
# Convention : Reuss Voigt Hill
#
# Bulk Modulus (GPa) = 14.46733 57.97120 36.21926
# Shear Modulus (GPa) = 22.31275 42.90054 32.60665
#
# Velocity S-wave (km/s) = 3.04311 4.21961 3.67869
# Velocity P-wave (km/s) = 4.28389 6.91375 5.75116
#
# Compressibility (1/GPa) = 0.06912126
#
# Stress axis : x y z
#
# Youngs Moduli (GPa) = 36.52525 47.68357 120.27510
#
# Poissons Ratio (x) = -0.47692 0.36903
# Poissons Ratio (y) = -0.36532 0.08479
# Poissons Ratio (z) = 0.11207 0.03361
#
# Static dielectric constant tensor:
#      x y z
#    x 5.135270 0.006410 -0.124150 
#    y 0.006410 4.506120 0.080630 
#    z -0.124150 0.080630 4.459740 
# 
# 
# High freq. dielectric constant tensor:
#      x y z
#    x 1.981350 -0.004890 -0.008120 
#    y -0.004890 1.979860 -0.002950 
#    z -0.008120 -0.002950 1.931590 
# 
# From -- ./inp_files/382413.got.cif
#   From: 2010.06.25/outbox.cif.g09.slc.cpg/sg2_192_cif.got.tgz:382413.got - 2010.06.27 13:26:56.
