data_PCOD8011471
_publ_section_title
;
Structure prediction by ZEFSAII (Michael W. Deem and Ramdas Pophale) SiO2 
 PCOD8011471
Probable space group: P -1
;
_chemical_formula_sum "Si O2"
_cell_formula_units_Z 16
_cell_length_a 9.541360
_cell_length_b 9.153449
_cell_length_c 23.786805
_cell_angle_alpha 38.163960
_cell_angle_beta 47.682800
_cell_angle_gamma 76.057624
_cell_volume 736.241567
_symmetry_space_group_name_H-M "P -1"
_symmetry_group_IT_number 2
_symmetry_cell_setting 'triclinic'
loop_
_space_group_symop_operation_xyz
x,y,z
-x,-y,-z
loop_
_atom_site_type_symbol
_atom_site_label
_atom_site_fract_x
_atom_site_fract_y
_atom_site_fract_z
Si Si1 0.267345 0.362182 0.645310
Si Si2 0.955594 0.296550 0.384357
Si Si3 0.245807 0.839577 0.336398
Si Si4 0.995406 0.104441 0.312931
Si Si5 0.990584 0.255180 0.147380
Si Si6 0.609774 0.592495 0.714538
Si Si7 0.385566 0.721097 0.817069
Si Si8 0.515056 0.421201 0.672135
O O1 0.500000 0.500000 0.500000
O O2 0.176722 0.558683 0.614772
O O3 0.312620 0.309207 0.713260
O O4 0.043327 0.037988 0.777795
O O5 0.031018 0.301485 0.297623
O O6 0.203944 0.476701 0.300844
O O7 0.765802 0.953342 0.559136
O O8 0.442694 0.827610 0.256365
O O9 0.000000 0.500000 0.500000
O O10 0.352471 0.951562 0.337299
O O11 0.213736 0.084435 0.250265
O O12 0.998725 0.274907 0.206496
O O13 0.749706 0.758321 0.488446
O O14 0.752174 0.213509 0.207243
O O15 0.235532 0.560823 0.963520
O O16 0.423404 0.495997 0.845066
O O17 0.446061 0.435596 0.750114
#
# Coordination Sequence:
#
# PCOD8011471 Si02
#       8
#     2   2   2   2   2   2   2   2
#     4  12  23  39  62  95 127 161 214 270 309 369
#     4  10  23  37  64  94 125 160 212 268 319 369
#     4  10  21  39  66  92 123 159 214 262 313 374
#     4  10  21  39  61  96 122 162 213 262 315 372
#     4  11  25  40  65  93 128 174 211 260 316 383
#     4  10  22  40  61  91 130 167 205 262 321 376
#     4  11  23  45  63  88 133 173 210 255 325 380
#     4  10  22  35  63  95 121 160 208 264 321 360
#
# _framework density 21.731998999999998
#
# number of rings (size 3 to 8) (size 9 to 14) (size 15 to 20)
#    0.000    1.500    3.750    0.750    5.250    1.500 
#    0.000    2.500    0.000    0.000    0.000    0.000 
#    0.000    0.000    0.000    0.000    0.000    0.000 
#
# Total GULP energy -198210.017802 kJ/mol
# GULP energy per Si atom -12388.126113 kJ/mol
# Density = 2.168254 g / cm^3
# Si number density = 21.731999 Si / 1000 Ang^3
#
#
#
# Elastic Constant Matrix: (Units=GPa)
#
#
# Indices 1 2 3 4 5 6 
#
# 1 125.9311 57.4374 36.1473 7.7953 0.9101 5.2052
# 2 57.4374 128.1532 27.2402 6.2092 2.6221 -3.7601
# 3 36.1473 27.2402 30.6660 2.5577 2.5017 2.5145
# 4 7.7953 6.2092 2.5577 18.7589 3.2830 1.7561
# 5 0.9101 2.6221 2.5017 3.2830 21.9486 -1.1116
# 6 5.2052 -3.7601 2.5145 1.7561 -1.1116 52.8628
#
#
#
# Elastic Compliance Matrix: (Units=1/GPa)
#
#
# Indices 1 2 3 4 5 6 
#
# 1 0.013191 -0.003155 -0.012572 -0.002940 0.001662 -0.000793
# 2 -0.003155 0.010525 -0.005602 -0.001503 -0.000194 0.001372
# 3 -0.012572 -0.005602 0.052890 0.000924 -0.005068 -0.001814
# 4 -0.002940 -0.001503 0.000924 0.056544 -0.008358 -0.001916
# 5 0.001662 -0.000194 -0.005068 -0.008358 0.047411 0.001338
# 6 -0.000793 0.001372 -0.001814 -0.001916 0.001338 0.019271
#
#
# Mechanical properties :
#
#
# Convention : Reuss Voigt Hill
#
# Bulk Modulus (GPa) = 29.45632 58.48889 43.97260
# Shear Modulus (GPa) = 19.70025 29.64242 24.67133
#
# Velocity S-wave (km/s) = 3.01409 3.69724 3.37301
# Velocity P-wave (km/s) = 5.06920 6.72297 5.95378
#
# Compressibility (1/GPa) = 0.03394857
#
# Stress axis : x y z
#
# Youngs Moduli (GPa) = 75.80844 95.01349 18.90729
#
# Poissons Ratio (x) = 0.29974 0.23770
# Poissons Ratio (y) = 0.23915 0.10591
# Poissons Ratio (z) = 0.95307 0.53224
#
# Static dielectric constant tensor:
#      x y z
#    x 4.244620 -0.026420 -0.166790 
#    y -0.026420 4.305870 0.011030 
#    z -0.166790 0.011030 3.498280 
# 
# 
# High freq. dielectric constant tensor:
#      x y z
#    x 1.866930 0.004140 -0.009550 
#    y 0.004140 1.869350 -0.002000 
#    z -0.009550 -0.002000 1.800860 
# 
# From -- ./inp_files/242890.got.cif
#   From: 2010.06.25/outbox.cif.g09.slc.cpg/sg2_122_cif.got.tgz:242890.got - 2010.06.27 13:26:56.
