data_PCOD8011797
_publ_section_title
;
Structure prediction by ZEFSAII (Michael W. Deem and Ramdas Pophale) SiO2 
 PCOD8011797
Probable space group: P -1
;
_chemical_formula_sum "Si O2"
_cell_formula_units_Z 16
_cell_length_a 9.034354
_cell_length_b 9.107066
_cell_length_c 14.600496
_cell_angle_alpha 118.526096
_cell_angle_beta 83.682256
_cell_angle_gamma 56.737230
_cell_volume 761.036591
_symmetry_space_group_name_H-M "P -1"
_symmetry_group_IT_number 2
_symmetry_cell_setting 'triclinic'
loop_
_space_group_symop_operation_xyz
x,y,z
-x,-y,-z
loop_
_atom_site_type_symbol
_atom_site_label
_atom_site_fract_x
_atom_site_fract_y
_atom_site_fract_z
Si Si1 0.674635 0.439416 0.905881
Si Si2 0.722714 0.750569 0.919566
Si Si3 0.154930 0.144103 0.395348
Si Si4 0.967101 0.067284 0.242886
Si Si5 0.960938 0.218525 0.101641
Si Si6 0.512687 0.417927 0.374990
Si Si7 0.492887 0.632943 0.264459
Si Si8 0.174740 0.424510 0.342640
O O1 0.699581 0.620578 0.957432
O O2 0.623421 0.420361 0.800878
O O3 0.500000 0.500000 0.000000
O O4 0.884756 0.204319 0.861820
O O5 0.809545 0.606963 0.776418
O O6 0.879169 0.773108 0.950989
O O7 0.500000 0.000000 0.000000
O O8 0.198898 0.231142 0.334022
O O9 0.004376 0.117729 0.356118
O O10 0.043459 0.319824 0.540919
O O11 0.374156 0.900094 0.339179
O O12 0.002586 0.182850 0.197570
O O13 0.740922 0.167707 0.273939
O O14 0.731037 0.460071 0.165651
O O15 0.000000 0.000000 0.000000
O O16 0.500000 0.500000 0.500000
O O17 0.474622 0.598930 0.361490
O O18 0.358040 0.389523 0.360860
#
# Coordination Sequence:
#
# PCOD8011797 Si02
#       8
#     2   2   2   2   2   2   2   2
#     4  11  23  42  64  96 130 175 221 271 327 392
#     4  12  25  41  66  98 130 176 223 270 330 399
#     4  10  22  41  67  94 129 173 212 273 326 395
#     4  10  21  39  64  90 128 168 213 264 332 385
#     4  11  23  43  65  94 133 173 217 273 332 388
#     4  11  22  39  64  95 128 164 212 267 326 392
#     4  10  23  40  66  95 130 171 217 270 334 386
#     4  11  23  42  64  96 131 171 222 264 332 398
#
# _framework density 21.023956999999999
#
# number of rings (size 3 to 8) (size 9 to 14) (size 15 to 20)
#    0.000    1.250    3.750    2.250    3.500    2.500 
#    0.000    3.750    0.000    0.000    0.000    0.000 
#    0.000    0.000    0.000    0.000    0.000    0.000 
#
# Total GULP energy -198380.995473 kJ/mol
# GULP energy per Si atom -12398.812217 kJ/mol
# Density = 2.097611 g / cm^3
# Si number density = 21.023957 Si / 1000 Ang^3
#
#
#
# Elastic Constant Matrix: (Units=GPa)
#
#
# Indices 1 2 3 4 5 6 
#
# 1 130.4084 51.2515 28.3731 16.5468 -13.3802 10.3377
# 2 51.2515 130.3150 48.0310 35.2676 -16.4782 -2.9228
# 3 28.3731 48.0310 97.6929 12.5604 -7.8266 2.8283
# 4 16.5468 35.2676 12.5604 43.2053 -6.2199 -4.6149
# 5 -13.3802 -16.4782 -7.8266 -6.2199 30.1416 1.6937
# 6 10.3377 -2.9228 2.8283 -4.6149 1.6937 36.0902
#
#
#
# Elastic Compliance Matrix: (Units=1/GPa)
#
#
# Indices 1 2 3 4 5 6 
#
# 1 0.009657 -0.002943 -0.000943 -0.001015 0.002402 -0.003173
# 2 -0.002943 0.012866 -0.004289 -0.007579 0.002987 0.001112
# 3 -0.000943 -0.004289 0.012681 0.000150 0.000621 -0.001081
# 4 -0.001015 -0.007579 0.000150 0.030263 0.001495 0.003465
# 5 0.002402 0.002987 0.000621 0.001495 0.036459 -0.002015
# 6 -0.003173 0.001112 -0.001081 0.003465 -0.002015 0.029330
#
#
# Mechanical properties :
#
#
# Convention : Reuss Voigt Hill
#
# Bulk Modulus (GPa) = 53.04228 68.19195 60.61711
# Shear Modulus (GPa) = 32.49090 37.27146 34.88118
#
# Velocity S-wave (km/s) = 3.93545 4.21504 4.07764
# Velocity P-wave (km/s) = 6.77751 7.49630 7.14595
#
# Compressibility (1/GPa) = 0.01885289
#
# Stress axis : x y z
#
# Youngs Moduli (GPa) = 103.55398 77.72422 78.86077
#
# Poissons Ratio (x) = 0.22876 0.07435
# Poissons Ratio (y) = 0.30478 0.33825
# Poissons Ratio (z) = 0.09763 0.33338
#
# Static dielectric constant tensor:
#      x y z
#    x 3.697960 -0.127740 -0.213820 
#    y -0.127740 3.874430 0.018180 
#    z -0.213820 0.018180 3.976930 
# 
# 
# High freq. dielectric constant tensor:
#      x y z
#    x 1.821690 -0.005740 -0.008500 
#    y -0.005740 1.824490 0.002680 
#    z -0.008500 0.002680 1.827660 
# 
# From -- ./inp_files/177424.got.cif
#   From: 2010.06.25/outbox.cif.g09.slc.cpg/sg2_89_cif.got.tgz:177424.got - 2010.06.27 13:26:56.
