data_PCOD8011223
_publ_section_title
;
Structure prediction by ZEFSAII (Michael W. Deem and Ramdas Pophale) SiO2 
 PCOD8011223
Probable space group: P -1
;
_chemical_formula_sum "Si O2"
_cell_formula_units_Z 14
_cell_length_a 10.315343
_cell_length_b 8.854605
_cell_length_c 9.281110
_cell_angle_alpha 89.341708
_cell_angle_beta 111.965169
_cell_angle_gamma 126.133282
_cell_volume 609.724243
_symmetry_space_group_name_H-M "P -1"
_symmetry_group_IT_number 2
_symmetry_cell_setting 'triclinic'
loop_
_space_group_symop_operation_xyz
x,y,z
-x,-y,-z
loop_
_atom_site_type_symbol
_atom_site_label
_atom_site_fract_x
_atom_site_fract_y
_atom_site_fract_z
Si Si1 0.287964 0.357048 0.884179
Si Si2 0.130996 0.416709 0.575767
Si Si3 0.405290 0.031216 0.308181
Si Si4 0.329854 0.673633 0.386914
Si Si5 0.190587 0.966583 0.945932
Si Si6 0.768713 0.195938 0.311063
Si Si7 0.119166 0.427898 0.054950
O O1 0.248792 0.364662 0.699304
O O2 0.190868 0.134459 0.882518
O O3 0.500000 0.500000 0.000000
O O4 0.187863 0.422360 0.928672
O O5 0.192332 0.500782 0.439534
O O6 0.156900 0.582968 0.684603
O O7 0.924144 0.219751 0.471911
O O8 0.470759 0.195636 0.457218
O O9 0.584097 0.067175 0.324335
O O10 0.280502 0.817637 0.331405
O O11 0.315185 0.054715 0.138417
O O12 0.303131 0.573480 0.223702
O O13 0.266218 0.904182 0.857258
O O14 0.992096 0.782515 0.913658
O O15 0.000000 0.500000 0.000000
#
# Coordination Sequence:
#
# PCOD8011223 Si02
#       7
#     2   2   2   2   2   2   2
#     4  12  29  46  68 104 150 184 225 287 358 418
#     4  10  22  43  67 101 138 185 230 287 340 418
#     4  10  22  37  70 107 137 173 234 296 339 402
#     4  10  21  41  66 102 133 174 237 291 334 394
#     4  12  24  44  68 103 143 183 229 284 358 415
#     4  10  21  38  72 101 136 178 241 286 339 404
#     4  12  25  46  77 100 135 187 243 281 340 418
#
# _framework density 22.961200000000002
#
# number of rings (size 3 to 8) (size 9 to 14) (size 15 to 20)
#    0.000    1.143    2.857    3.429    6.000    0.571 
#    0.000    4.286    0.000    0.000    0.000    0.000 
#    0.000    0.000    0.000    0.000    0.000    0.000 
#
# Total GULP energy -173457.774207 kJ/mol
# GULP energy per Si atom -12389.841015 kJ/mol
# Density = 2.290894 g / cm^3
# Si number density = 22.961200 Si / 1000 Ang^3
#
#
#
# Elastic Constant Matrix: (Units=GPa)
#
#
# Indices 1 2 3 4 5 6 
#
# 1 53.4544 16.0426 10.2643 -6.4936 0.3859 4.6201
# 2 16.0426 99.8876 44.4233 -5.1912 6.1608 5.7831
# 3 10.2643 44.4233 140.7674 -0.3274 14.4665 -6.4102
# 4 -6.4936 -5.1912 -0.3274 47.3686 -2.2850 -0.9174
# 5 0.3859 6.1608 14.4665 -2.2850 36.1849 4.0902
# 6 4.6201 5.7831 -6.4102 -0.9174 4.0902 26.2408
#
#
#
# Elastic Compliance Matrix: (Units=1/GPa)
#
#
# Indices 1 2 3 4 5 6 
#
# 1 0.020240 -0.002592 -0.000918 0.002474 0.001122 -0.003305
# 2 -0.002592 0.012375 -0.003845 0.000907 -0.000128 -0.003159
# 3 -0.000918 -0.003845 0.008894 -0.000576 -0.003344 0.003683
# 4 0.002474 0.000907 -0.000576 0.021610 0.001442 -0.000245
# 5 0.001122 -0.000128 -0.003344 0.001442 0.029703 -0.005566
# 6 -0.003305 -0.003159 0.003683 -0.000245 -0.005566 0.041145
#
#
# Mechanical properties :
#
#
# Convention : Reuss Voigt Hill
#
# Bulk Modulus (GPa) = 37.31334 48.39664 42.85499
# Shear Modulus (GPa) = 31.72371 36.85080 34.28726
#
# Velocity S-wave (km/s) = 3.72105 4.01049 3.86848
# Velocity P-wave (km/s) = 5.89470 6.52447 6.21756
#
# Compressibility (1/GPa) = 0.02680006
#
# Stress axis : x y z
#
# Youngs Moduli (GPa) = 49.40773 80.80537 112.43136
#
# Poissons Ratio (x) = 0.20942 0.10322
# Poissons Ratio (y) = 0.12805 0.43230
# Poissons Ratio (z) = 0.04536 0.31070
#
# Static dielectric constant tensor:
#      x y z
#    x 3.690310 0.156690 -0.062310 
#    y 0.156690 4.223830 0.216130 
#    z -0.062310 0.216130 4.525450 
# 
# 
# High freq. dielectric constant tensor:
#      x y z
#    x 1.857540 0.023710 -0.005910 
#    y 0.023710 1.909730 0.006340 
#    z -0.005910 0.006340 1.934140 
# 
# From -- ./inp_files/238743.got.cif
#   From: 2010.06.25/outbox.cif.g09.slc.cpg/sg2_120_cif.got.tgz:238743.got - 2010.06.27 13:26:56.
