data_PCOD8011821
_publ_section_title
;
Structure prediction by ZEFSAII (Michael W. Deem and Ramdas Pophale) SiO2 
 PCOD8011821
Probable space group: P -1
;
_chemical_formula_sum "Si O2"
_cell_formula_units_Z 16
_cell_length_a 11.614322
_cell_length_b 9.138137
_cell_length_c 10.624986
_cell_angle_alpha 84.813880
_cell_angle_beta 47.424412
_cell_angle_gamma 97.616978
_cell_volume 797.627183
_symmetry_space_group_name_H-M "P -1"
_symmetry_group_IT_number 2
_symmetry_cell_setting 'triclinic'
loop_
_space_group_symop_operation_xyz
x,y,z
-x,-y,-z
loop_
_atom_site_type_symbol
_atom_site_label
_atom_site_fract_x
_atom_site_fract_y
_atom_site_fract_z
Si Si1 0.749879 0.055193 0.307376
Si Si2 0.686652 0.287144 0.717419
Si Si3 0.607337 0.292140 0.067255
Si Si4 0.086369 0.184446 0.730522
Si Si5 0.503679 0.032815 0.707091
Si Si6 0.015249 0.838060 0.455517
Si Si7 0.103395 0.655916 0.967348
Si Si8 0.705402 0.622051 0.630319
O O1 0.661015 0.036743 0.507835
O O2 0.809100 0.234358 0.218729
O O3 0.895563 0.976582 0.220211
O O4 0.641607 0.965164 0.280168
O O5 0.533747 0.176537 0.767719
O O6 0.723277 0.451908 0.613242
O O7 0.837962 0.214916 0.586648
O O8 0.650504 0.306961 0.888088
O O9 0.765260 0.370322 0.027461
O O10 0.472697 0.382057 0.188712
O O11 0.536464 0.115988 0.165595
O O12 0.952696 0.150993 0.720050
O O13 0.256430 0.292810 0.540651
O O14 0.024258 0.266338 0.882963
O O15 0.843698 0.712933 0.619712
O O16 0.000000 0.000000 0.500000
O O17 0.000000 0.500000 0.000000
#
# Coordination Sequence:
#
# PCOD8011821 Si02
#       8
#     2   2   2   2   2   2   2   2
#     4  10  21  42  64  90 130 160 221 251 312 384
#     4  12  22  39  65  96 129 163 212 263 322 367
#     4  11  21  45  60  92 133 160 215 263 308 388
#     4  10  21  43  59  91 127 166 213 256 311 380
#     4  10  22  38  67  94 118 175 203 265 313 375
#     4  10  21  39  64  92 126 170 209 256 315 381
#     4  11  25  41  66  93 127 168 208 270 319 365
#     4  10  23  38  63  91 132 167 205 262 320 374
#
# _framework density 20.059497
#
# number of rings (size 3 to 8) (size 9 to 14) (size 15 to 20)
#    0.750    0.750    2.500    3.000    1.750    1.000 
#    2.250    1.250    0.000    0.000    0.000    0.000 
#    0.000    0.000    0.000    0.000    0.000    0.000 
#
# Total GULP energy -198370.617232 kJ/mol
# GULP energy per Si atom -12398.163577 kJ/mol
# Density = 2.001384 g / cm^3
# Si number density = 20.059497 Si / 1000 Ang^3
#
#
#
# Elastic Constant Matrix: (Units=GPa)
#
#
# Indices 1 2 3 4 5 6 
#
# 1 77.9955 38.9663 9.0807 -6.1682 -6.0059 5.4170
# 2 38.9663 125.7468 2.4739 -7.7931 -8.7553 14.4108
# 3 9.0807 2.4739 52.1832 -7.5569 -7.0316 3.3032
# 4 -6.1682 -7.7931 -7.5569 22.3807 -3.5294 -6.5663
# 5 -6.0059 -8.7553 -7.0316 -3.5294 30.3394 3.0668
# 6 5.4170 14.4108 3.3032 -6.5663 3.0668 36.4708
#
#
#
# Elastic Compliance Matrix: (Units=1/GPa)
#
#
# Indices 1 2 3 4 5 6 
#
# 1 0.015628 -0.004542 -0.001950 0.002299 0.001606 -0.000071
# 2 -0.004542 0.010042 0.001217 0.002151 0.002860 -0.003257
# 3 -0.001950 0.001217 0.021441 0.007699 0.005956 -0.001248
# 4 0.002299 0.002151 0.007699 0.051947 0.008219 0.006773
# 5 0.001606 0.002860 0.005956 0.008219 0.036796 -0.003523
# 6 -0.000071 -0.003257 -0.001248 0.006773 -0.003523 0.030345
#
#
# Mechanical properties :
#
#
# Convention : Reuss Voigt Hill
#
# Bulk Modulus (GPa) = 27.35128 39.66304 33.50716
# Shear Modulus (GPa) = 26.46394 31.53182 28.99788
#
# Velocity S-wave (km/s) = 3.63612 3.96904 3.80622
# Velocity P-wave (km/s) = 5.59403 6.38905 6.00471
#
# Compressibility (1/GPa) = 0.03656136
#
# Stress axis : x y z
#
# Youngs Moduli (GPa) = 63.98821 99.58470 46.63853
#
# Poissons Ratio (x) = 0.45231 0.09096
# Poissons Ratio (y) = 0.29063 -0.05678
# Poissons Ratio (z) = 0.12480 -0.12124
#
# Static dielectric constant tensor:
#      x y z
#    x 3.653760 0.008220 0.021170 
#    y 0.008220 3.565470 -0.069170 
#    z 0.021170 -0.069170 3.585360 
# 
# 
# High freq. dielectric constant tensor:
#      x y z
#    x 1.782390 -0.006320 0.000880 
#    y -0.006320 1.780120 -0.000580 
#    z 0.000880 -0.000580 1.780300 
# 
# From -- ./inp_files/415110.got.cif
#   From: 2010.06.25/outbox.cif.g09.slc.cpg/sg2_208_cif.got.tgz:415110.got - 2010.06.27 13:26:56.
