data_PCOD8011389
_publ_section_title
;
Structure prediction by ZEFSAII (Michael W. Deem and Ramdas Pophale) SiO2 
 PCOD8011389
Probable space group: P -1
;
_chemical_formula_sum "Si O2"
_cell_formula_units_Z 16
_cell_length_a 7.625346
_cell_length_b 15.580312
_cell_length_c 10.607197
_cell_angle_alpha 72.205689
_cell_angle_beta 41.893108
_cell_angle_gamma 61.897795
_cell_volume 740.106678
_symmetry_space_group_name_H-M "P -1"
_symmetry_group_IT_number 2
_symmetry_cell_setting 'triclinic'
loop_
_space_group_symop_operation_xyz
x,y,z
-x,-y,-z
loop_
_atom_site_type_symbol
_atom_site_label
_atom_site_fract_x
_atom_site_fract_y
_atom_site_fract_z
Si Si1 0.467806 0.594296 0.612374
Si Si2 0.187618 0.948198 0.301527
Si Si3 0.025416 0.570992 0.690299
Si Si4 0.670237 0.149222 0.105751
Si Si5 0.258392 0.756229 0.222386
Si Si6 0.686810 0.549882 0.090553
Si Si7 0.249228 0.290791 0.447220
Si Si8 0.781503 0.952010 0.009794
O O1 0.170178 0.629682 0.676939
O O2 0.729806 0.536694 0.405541
O O3 0.469506 0.523245 0.760895
O O4 0.527457 0.685802 0.594171
O O5 0.156248 0.845799 0.336288
O O6 0.097158 0.022384 0.197791
O O7 0.525081 0.916393 0.149660
O O8 0.000000 0.000000 0.500000
O O9 0.932787 0.618626 0.583485
O O10 0.743825 0.562085 0.906478
O O11 0.612305 0.216370 0.983787
O O12 0.667310 0.044814 0.120901
O O13 0.415605 0.197590 0.315820
O O14 0.967378 0.136326 0.018348
O O15 0.497971 0.658136 0.197715
O O16 0.981334 0.735095 0.338050
O O17 0.000000 0.500000 0.000000
#
# Coordination Sequence:
#
# PCOD8011389 Si02
#       8
#     2   2   2   2   2   2   2   2
#     4  10  23  40  59  88 122 166 211 256 314 365
#     4  10  21  41  67  96 123 161 203 257 317 377
#     4  10  21  40  60  82 123 163 206 262 306 359
#     4  10  22  42  61  91 125 161 205 260 311 377
#     4  11  23  39  62  92 126 161 213 256 309 377
#     4  10  21  39  61  86 119 167 211 256 305 363
#     4  12  23  39  62  91 125 166 208 260 313 369
#     4   9  21  42  65  88 127 161 200 254 320 378
#
# _framework density 21.618504999999999
#
# number of rings (size 3 to 8) (size 9 to 14) (size 15 to 20)
#    0.000    1.750    2.500    1.125    0.000    4.500 
#    6.750    3.750    0.000    0.000    0.000    0.000 
#    0.000    0.000    0.000    0.000    0.000    0.000 
#
# Total GULP energy -198322.097327 kJ/mol
# GULP energy per Si atom -12395.131083 kJ/mol
# Density = 2.156930 g / cm^3
# Si number density = 21.618505 Si / 1000 Ang^3
#
#
#
# Elastic Constant Matrix: (Units=GPa)
#
#
# Indices 1 2 3 4 5 6 
#
# 1 79.5744 17.5370 2.4370 2.4525 -2.7165 8.6688
# 2 17.5370 64.9370 24.0574 4.4108 -11.5903 8.8407
# 3 2.4370 24.0574 94.4010 10.0380 0.0630 17.7383
# 4 2.4525 4.4108 10.0380 27.0702 3.2601 -8.7504
# 5 -2.7165 -11.5903 0.0630 3.2601 24.6040 1.9731
# 6 8.6688 8.8407 17.7383 -8.7504 1.9731 32.3982
#
#
#
# Elastic Compliance Matrix: (Units=1/GPa)
#
#
# Indices 1 2 3 4 5 6 
#
# 1 0.013874 -0.003445 0.001665 -0.002842 0.000641 -0.004491
# 2 -0.003445 0.020448 -0.003878 -0.004191 0.010161 -0.004286
# 3 0.001665 -0.003878 0.014087 -0.007723 0.000081 -0.009191
# 4 -0.002842 -0.004191 -0.007723 0.048391 -0.010270 0.019828
# 5 0.000641 0.010161 0.000081 -0.010270 0.047556 -0.008659
# 6 -0.004491 -0.004286 -0.009191 0.019828 -0.008659 0.044151
#
#
# Mechanical properties :
#
#
# Convention : Reuss Voigt Hill
#
# Bulk Modulus (GPa) = 26.95895 36.33058 31.64476
# Shear Modulus (GPa) = 23.56407 29.80656 26.68531
#
# Velocity S-wave (km/s) = 3.30509 3.71718 3.51718
# Velocity P-wave (km/s) = 5.20213 5.93844 5.58244
#
# Compressibility (1/GPa) = 0.03709343
#
# Stress axis : x y z
#
# Youngs Moduli (GPa) = 72.07862 48.90381 70.98961
#
# Poissons Ratio (x) = 0.16846 -0.11822
# Poissons Ratio (y) = 0.24830 0.27530
# Poissons Ratio (z) = -0.12003 0.18965
#
# Static dielectric constant tensor:
#      x y z
#    x 3.942410 -0.035280 0.023900 
#    y -0.035280 3.814440 -0.211060 
#    z 0.023900 -0.211060 4.277650 
# 
# 
# High freq. dielectric constant tensor:
#      x y z
#    x 1.836770 -0.003760 -0.007050 
#    y -0.003760 1.834250 -0.001870 
#    z -0.007050 -0.001870 1.860270 
# 
# From -- ./inp_files/397336.got.cif
#   From: 2010.06.25/outbox.cif.g09.slc.cpg/sg2_199_cif.got.tgz:397336.got - 2010.06.27 13:26:56.
