data_PCOD8011533
_publ_section_title
;
Structure prediction by ZEFSAII (Michael W. Deem and Ramdas Pophale) SiO2 
 PCOD8011533
Probable space group: P -1
;
_chemical_formula_sum "Si O2"
_cell_formula_units_Z 16
_cell_length_a 7.065317
_cell_length_b 18.669069
_cell_length_c 19.043975
_cell_angle_alpha 21.322961
_cell_angle_beta 113.403930
_cell_angle_gamma 102.717598
_cell_volume 748.962607
_symmetry_space_group_name_H-M "P -1"
_symmetry_group_IT_number 2
_symmetry_cell_setting 'triclinic'
loop_
_space_group_symop_operation_xyz
x,y,z
-x,-y,-z
loop_
_atom_site_type_symbol
_atom_site_label
_atom_site_fract_x
_atom_site_fract_y
_atom_site_fract_z
Si Si1 0.261381 0.461365 0.157347
Si Si2 0.032295 0.080376 0.683517
Si Si3 0.004475 0.651140 0.084963
Si Si4 0.976443 0.493117 0.368401
Si Si5 0.433014 0.306891 0.676271
Si Si6 0.246563 0.608139 0.753367
Si Si7 0.523906 0.895922 0.985365
Si Si8 0.966606 0.243274 0.273528
O O1 0.526361 0.392400 0.244784
O O2 0.199697 0.259293 0.316441
O O3 0.204353 0.537104 0.160369
O O4 0.103477 0.663861 0.899467
O O5 0.915940 0.290664 0.527107
O O6 0.969298 0.174715 0.508841
O O7 0.309391 0.955751 0.846770
O O8 0.925072 0.912413 0.837565
O O9 0.102118 0.539588 0.276871
O O10 0.780342 0.611090 0.071167
O O11 0.751929 0.718263 0.144567
O O12 0.153996 0.415343 0.530610
O O13 0.500000 0.500000 0.500000
O O14 0.523263 0.203787 0.859472
O O15 0.548121 0.116823 0.807345
O O16 0.237903 0.623376 0.822566
O O17 0.000000 0.000000 0.500000
#
# Coordination Sequence:
#
# PCOD8011533 Si02
#       8
#     2   2   2   2   2   2   2   2
#     4  10  22  39  63  87 126 161 199 264 301 360
#     4  10  22  39  58  89 124 157 209 252 302 369
#     4  10  22  39  58  89 124 157 209 252 302 369
#     4  10  22  40  59  93 121 164 211 248 313 369
#     4  10  21  39  62  90 124 159 208 254 306 369
#     4  10  22  40  59  93 121 164 211 248 313 369
#     4  10  22  39  63  87 126 161 199 264 301 360
#     4  10  21  39  62  90 124 159 208 254 306 369
#
# _framework density 21.362881999999999
#
# number of rings (size 3 to 8) (size 9 to 14) (size 15 to 20)
#    0.000    2.000    0.000    2.250    3.500    3.000 
#    9.000    0.000    0.000    0.000    0.000    0.000 
#    0.000    0.000    0.000    0.000    0.000    0.000 
#
# Total GULP energy -198346.849115 kJ/mol
# GULP energy per Si atom -12396.678070 kJ/mol
# Density = 2.131426 g / cm^3
# Si number density = 21.362882 Si / 1000 Ang^3
#
#
#
# Elastic Constant Matrix: (Units=GPa)
#
#
# Indices 1 2 3 4 5 6 
#
# 1 126.9965 51.6308 54.4774 -17.6110 -0.8701 8.6781
# 2 51.6308 80.4504 51.6225 -13.2004 -3.6230 6.2603
# 3 54.4774 51.6225 121.7458 -25.8513 -9.6043 14.5792
# 4 -17.6110 -13.2004 -25.8513 40.7627 10.6029 -11.8627
# 5 -0.8701 -3.6230 -9.6043 10.6029 46.4619 -10.8886
# 6 8.6781 6.2603 14.5792 -11.8627 -10.8886 30.2894
#
#
#
# Elastic Compliance Matrix: (Units=1/GPa)
#
#
# Indices 1 2 3 4 5 6 
#
# 1 0.011433 -0.005493 -0.002430 0.001736 -0.001289 -0.000755
# 2 -0.005493 0.019764 -0.005887 0.000391 0.000266 0.000571
# 3 -0.002430 -0.005887 0.013086 0.004482 0.000613 -0.002410
# 4 0.001736 0.000391 0.004482 0.031750 -0.004349 0.008136
# 5 -0.001289 0.000266 0.000613 -0.004349 0.024291 0.007048
# 6 -0.000755 0.000571 -0.002410 0.008136 0.007048 0.039993
#
#
# Mechanical properties :
#
#
# Convention : Reuss Voigt Hill
#
# Bulk Modulus (GPa) = 60.00879 71.62822 65.81851
# Shear Modulus (GPa) = 28.81992 34.93360 31.87676
#
# Velocity S-wave (km/s) = 3.67695 4.04821 3.86703
# Velocity P-wave (km/s) = 6.79542 7.44666 7.12848
#
# Compressibility (1/GPa) = 0.01666423
#
# Stress axis : x y z
#
# Youngs Moduli (GPa) = 87.46567 50.59606 76.41833
#
# Poissons Ratio (x) = 0.27792 0.18567
# Poissons Ratio (y) = 0.48044 0.44987
# Poissons Ratio (z) = 0.21251 0.29786
#
# Static dielectric constant tensor:
#      x y z
#    x 3.701540 0.059110 -0.256540 
#    y 0.059110 4.259270 0.091910 
#    z -0.256540 0.091910 3.970030 
# 
# 
# High freq. dielectric constant tensor:
#      x y z
#    x 1.815800 0.007670 -0.023530 
#    y 0.007670 1.853890 0.001620 
#    z -0.023530 0.001620 1.838330 
# 
# From -- ./inp_files/584286.got.cif
#   From: 2010.06.25/outbox.cif.g09.slc.cpg/sg2_293_cif.got.tgz:584286.got - 2010.06.27 13:26:56.
