data_PCOD8011281
_publ_section_title
;
Structure prediction by ZEFSAII (Michael W. Deem and Ramdas Pophale) SiO2 
 PCOD8011281
Probable space group: P -1
;
_chemical_formula_sum "Si O2"
_cell_formula_units_Z 16
_cell_length_a 11.015161
_cell_length_b 11.159764
_cell_length_c 9.878281
_cell_angle_alpha 67.580987
_cell_angle_beta 129.373336
_cell_angle_gamma 89.712699
_cell_volume 814.284136
_symmetry_space_group_name_H-M "P -1"
_symmetry_group_IT_number 2
_symmetry_cell_setting 'triclinic'
loop_
_space_group_symop_operation_xyz
x,y,z
-x,-y,-z
loop_
_atom_site_type_symbol
_atom_site_label
_atom_site_fract_x
_atom_site_fract_y
_atom_site_fract_z
Si Si1 0.948742 0.378886 0.232169
Si Si2 0.630162 0.187573 0.778457
Si Si3 0.642743 0.300499 0.458729
Si Si4 0.177512 0.000557 0.782675
Si Si5 0.290520 0.210217 0.631236
Si Si6 0.809322 0.497712 0.574368
Si Si7 0.815964 0.188673 0.373975
Si Si8 0.679431 0.459785 0.785104
O O1 0.838508 0.332534 0.284130
O O2 0.125977 0.248024 0.398514
O O3 0.996155 0.512612 0.258489
O O4 0.853805 0.412181 0.009051
O O5 0.669702 0.189540 0.646191
O O6 0.461248 0.151986 0.692529
O O7 0.612981 0.334013 0.770359
O O8 0.778867 0.066594 0.009309
O O9 0.791654 0.366931 0.541637
O O10 0.667340 0.223537 0.365041
O O11 0.461311 0.419015 0.286574
O O12 0.236056 0.879806 0.763506
O O13 0.282468 0.101544 0.785631
O O14 0.980523 0.081487 0.605314
O O15 0.279250 0.356703 0.631026
O O16 0.710542 0.517378 0.638793
#
# Coordination Sequence:
#
# PCOD8011281 Si02
#       8
#     2   2   2   2   2   2   2   2
#     4   9  18  33  53  82 110 146 180 215 271 325
#     4  11  19  36  61  85 106 147 182 229 273 323
#     4  11  21  35  58  84 119 135 181 231 278 326
#     4  10  21  39  59  76 109 147 200 213 267 332
#     4   9  18  35  58  83 105 148 183 230 261 327
#     4   9  18  33  55  86 108 144 173 226 278 321
#     4  10  22  38  55  83 108 153 180 231 269 317
#     4  11  17  33  59  85 114 141 182 221 278 336
#
# _framework density 19.649160999999999
#
# number of rings (size 3 to 8) (size 9 to 14) (size 15 to 20)
#    0.750    1.250    3.750    1.500    0.000    1.500 
#    0.000    0.625    2.750    0.000    0.000    0.000 
#    0.000    0.000    0.000    0.000    0.000    0.000 
#
# Total GULP energy -198227.821084 kJ/mol
# GULP energy per Si atom -12389.238818 kJ/mol
# Density = 1.960444 g / cm^3
# Si number density = 19.649161 Si / 1000 Ang^3
#
#
#
# Elastic Constant Matrix: (Units=GPa)
#
#
# Indices 1 2 3 4 5 6 
#
# 1 57.6575 24.2458 16.2236 -7.9011 -10.9163 8.8316
# 2 24.2458 31.6254 14.2363 -8.5353 -13.8471 -2.4333
# 3 16.2236 14.2363 79.3197 -11.6585 -2.0129 7.9250
# 4 -7.9011 -8.5353 -11.6585 20.6792 7.7216 -6.4775
# 5 -10.9163 -13.8471 -2.0129 7.7216 23.3045 -4.0189
# 6 8.8316 -2.4333 7.9250 -6.4775 -4.0189 29.9795
#
#
#
# Elastic Compliance Matrix: (Units=1/GPa)
#
#
# Indices 1 2 3 4 5 6 
#
# 1 0.028592 -0.023808 -0.000839 -0.002014 -0.002028 -0.010840
# 2 -0.023808 0.071384 -0.007634 0.011360 0.030526 0.021372
# 3 -0.000839 -0.007634 0.015306 0.006313 -0.006373 -0.003909
# 4 -0.002014 0.011360 0.006313 0.064431 -0.012921 0.012036
# 5 -0.002028 0.030526 -0.006373 -0.012921 0.065687 0.010773
# 6 -0.010840 0.021372 -0.003909 0.012036 0.010773 0.043362
#
#
# Mechanical properties :
#
#
# Convention : Reuss Voigt Hill
#
# Bulk Modulus (GPa) = 19.71581 30.89045 25.30313
# Shear Modulus (GPa) = 13.50512 22.38577 17.94545
#
# Velocity S-wave (km/s) = 2.62451 3.37897 3.02535
# Velocity P-wave (km/s) = 4.38632 5.56583 5.01090
#
# Compressibility (1/GPa) = 0.05072071
#
# Stress axis : x y z
#
# Youngs Moduli (GPa) = 34.97472 14.00866 65.33541
#
# Poissons Ratio (x) = 0.33351 0.05485
# Poissons Ratio (y) = 0.83267 0.49874
# Poissons Ratio (z) = 0.02936 0.10694
#
# Static dielectric constant tensor:
#      x y z
#    x 3.541910 0.394170 -0.036590 
#    y 0.394170 3.345830 -0.126440 
#    z -0.036590 -0.126440 3.539880 
# 
# 
# High freq. dielectric constant tensor:
#      x y z
#    x 1.762880 0.031500 -0.001470 
#    y 0.031500 1.727080 -0.015590 
#    z -0.001470 -0.015590 1.761820 
# 
# From -- ./inp_files/257667.got.cif
#   From: 2010.06.25/outbox.cif.g09.slc.cpg/sg2_129_cif.got.tgz:257667.got - 2010.06.27 13:26:56.
