data_PCOD8011816
_publ_section_title
;
Structure prediction by ZEFSAII (Michael W. Deem and Ramdas Pophale) SiO2 
 PCOD8011816
Probable space group: P -1
;
_chemical_formula_sum "Si O2"
_cell_formula_units_Z 16
_cell_length_a 8.521651
_cell_length_b 18.260053
_cell_length_c 6.445807
_cell_angle_alpha 132.745795
_cell_angle_beta 89.184032
_cell_angle_gamma 92.939989
_cell_volume 735.320145
_symmetry_space_group_name_H-M "P -1"
_symmetry_group_IT_number 2
_symmetry_cell_setting 'triclinic'
loop_
_space_group_symop_operation_xyz
x,y,z
-x,-y,-z
loop_
_atom_site_type_symbol
_atom_site_label
_atom_site_fract_x
_atom_site_fract_y
_atom_site_fract_z
Si Si1 0.355615 0.479858 0.626637
Si Si2 0.183448 0.317864 0.069764
Si Si3 0.873143 0.190901 0.838064
Si Si4 0.857806 0.026237 0.200964
Si Si5 0.658930 0.309372 0.804145
Si Si6 0.665366 0.833094 0.949707
Si Si7 0.664063 0.674151 0.319744
Si Si8 0.687196 0.161193 0.174243
O O1 0.500000 0.500000 0.500000
O O2 0.213932 0.418587 0.395895
O O3 0.403929 0.414554 0.699190
O O4 0.284590 0.578019 0.915392
O O5 0.303195 0.232696 0.972704
O O6 0.196451 0.348661 0.885099
O O7 0.006594 0.277772 0.032524
O O8 0.929623 0.102950 0.520559
O O9 0.717636 0.236741 0.838532
O O10 0.826083 0.150085 0.985931
O O11 0.714924 0.073404 0.168872
O O12 0.778133 0.932611 0.146252
O O13 0.000000 0.000000 0.000000
O O14 0.471374 0.302452 0.796340
O O15 0.709623 0.269840 0.498076
O O16 0.722614 0.771280 0.632504
O O17 0.482022 0.854408 0.964603
#
# Coordination Sequence:
#
# PCOD8011816 Si02
#       8
#     2   2   2   2   2   2   2   2
#     4  11  23  38  68  97 118 159 215 253 307 370
#     4  11  23  39  61  93 126 164 207 253 310 370
#     4  11  25  41  61  91 129 169 201 254 316 369
#     4  11  23  41  64  92 126 166 212 254 311 372
#     4  10  22  39  63  90 124 160 201 258 307 361
#     4  10  22  39  64  93 123 164 211 258 304 363
#     4  10  21  39  64  92 123 158 205 262 304 360
#     4  10  23  41  63  91 128 164 208 260 308 360
#
# _framework density 21.759229000000001
#
# number of rings (size 3 to 8) (size 9 to 14) (size 15 to 20)
#    0.000    1.500    1.250    3.000    3.500    7.000 
#    0.000    1.250    0.000    0.000    0.000    0.000 
#    0.000    0.000    0.000    0.000    0.000    0.000 
#
# Total GULP energy -198299.834060 kJ/mol
# GULP energy per Si atom -12393.739629 kJ/mol
# Density = 2.170970 g / cm^3
# Si number density = 21.759229 Si / 1000 Ang^3
#
#
#
# Elastic Constant Matrix: (Units=GPa)
#
#
# Indices 1 2 3 4 5 6 
#
# 1 50.4055 24.9266 30.2096 -1.1991 5.0932 15.0077
# 2 24.9266 98.1478 41.4967 -2.6697 2.6580 13.3828
# 3 30.2096 41.4967 122.7543 13.7322 0.0154 21.1517
# 4 -1.1991 -2.6697 13.7322 39.6243 4.1890 -0.5411
# 5 5.0932 2.6580 0.0154 4.1890 33.1557 3.5248
# 6 15.0077 13.3828 21.1517 -0.5411 3.5248 33.9756
#
#
#
# Elastic Compliance Matrix: (Units=1/GPa)
#
#
# Indices 1 2 3 4 5 6 
#
# 1 0.026897 -0.003859 -0.004315 0.002303 -0.003336 -0.007291
# 2 -0.003859 0.012836 -0.003415 0.001976 -0.000564 -0.001136
# 3 -0.004315 -0.003415 0.011617 -0.004653 0.001972 -0.004260
# 4 0.002303 0.001976 -0.004653 0.027523 -0.004197 0.001975
# 5 -0.003336 -0.000564 0.001972 -0.004197 0.031553 -0.002872
# 6 -0.007291 -0.001136 -0.004260 0.001975 -0.002872 0.036082
#
#
# Mechanical properties :
#
#
# Convention : Reuss Voigt Hill
#
# Bulk Modulus (GPa) = 35.49720 51.61928 43.55824
# Shear Modulus (GPa) = 27.92076 32.99609 30.45842
#
# Velocity S-wave (km/s) = 3.58602 3.89835 3.74544
# Velocity P-wave (km/s) = 5.78750 6.63606 6.22625
#
# Compressibility (1/GPa) = 0.02817123
#
# Stress axis : x y z
#
# Youngs Moduli (GPa) = 37.17927 77.90294 86.08050
#
# Poissons Ratio (x) = 0.30065 0.37147
# Poissons Ratio (y) = 0.14348 0.29395
# Poissons Ratio (z) = 0.16044 0.26603
#
# Static dielectric constant tensor:
#      x y z
#    x 3.689730 -0.179330 0.110990 
#    y -0.179330 3.892240 -0.005920 
#    z 0.110990 -0.005920 4.184840 
# 
# 
# High freq. dielectric constant tensor:
#      x y z
#    x 1.837630 -0.005890 0.011010 
#    y -0.005890 1.853950 -0.005510 
#    z 0.011010 -0.005510 1.867900 
# 
# From -- ./inp_files/39826.got.cif
#   From: 2010.06.25/outbox.cif.g09.slc.cpg/sg2_20_cif.got.tgz:39826.got - 2010.06.27 13:26:56.
