data_PCOD8011059
_publ_section_title
;
Structure prediction by ZEFSAII (Michael W. Deem and Ramdas Pophale) SiO2 
 PCOD8011059
Probable space group: P -1
;
_chemical_formula_sum "Si O2"
_cell_formula_units_Z 16
_cell_length_a 16.729204
_cell_length_b 7.246528
_cell_length_c 6.455458
_cell_angle_alpha 65.620818
_cell_angle_beta 123.653003
_cell_angle_gamma 98.279195
_cell_volume 589.627976
_symmetry_space_group_name_H-M "P -1"
_symmetry_group_IT_number 2
_symmetry_cell_setting 'triclinic'
loop_
_space_group_symop_operation_xyz
x,y,z
-x,-y,-z
loop_
_atom_site_type_symbol
_atom_site_label
_atom_site_fract_x
_atom_site_fract_y
_atom_site_fract_z
Si Si1 0.367104 0.541300 0.715281
Si Si2 0.679205 0.226888 0.081656
Si Si3 0.010686 0.720786 0.326160
Si Si4 0.519841 0.290247 0.513691
Si Si5 0.351685 0.179287 0.565517
Si Si6 0.158530 0.720717 0.205735
Si Si7 0.139518 0.298938 0.219286
Si Si8 0.118072 0.953080 0.659641
O O1 0.355597 0.559448 0.941018
O O2 0.459238 0.661180 0.720848
O O3 0.379980 0.311051 0.746982
O O4 0.272216 0.662929 0.417037
O O5 0.792411 0.215338 0.200551
O O6 0.655081 0.052486 0.284661
O O7 0.620074 0.191726 0.805570
O O8 0.113800 0.745740 0.358804
O O9 0.015956 0.873976 0.462410
O O10 0.000000 0.500000 0.500000
O O11 0.928262 0.788683 0.008896
O O12 0.500000 0.500000 0.500000
O O13 0.428913 0.166917 0.490719
O O14 0.247331 0.276564 0.289348
O O15 0.107537 0.536050 0.110647
O O16 0.127017 0.929834 0.933840
O O17 0.136445 0.172398 0.490627
#
# Coordination Sequence:
#
# PCOD8011059 Si02
#       8
#     2   2   2   2   2   2   2   2
#     4  10  21  40  66  92 126 170 214 265 328 387
#     4  11  21  41  67  91 129 171 213 265 329 387
#     4  12  24  41  68  96 126 174 215 262 334 391
#     4  10  21  38  66  93 127 170 210 265 328 384
#     4   9  22  40  62  94 129 166 216 269 316 386
#     4  11  22  44  65  92 132 168 214 269 330 386
#     4  10  23  42  63  94 131 166 219 266 318 389
#     4  11  23  42  68  92 128 174 211 270 329 384
#
# _framework density 27.135753000000001
#
# number of rings (size 3 to 8) (size 9 to 14) (size 15 to 20)
#    0.000    1.500    3.750    1.125    0.000    3.000 
#    2.250    2.500    0.000    0.000    0.000    0.000 
#    0.000    0.000    0.000    0.000    0.000    0.000 
#
# Total GULP energy -198287.794587 kJ/mol
# GULP energy per Si atom -12392.987162 kJ/mol
# Density = 2.707399 g / cm^3
# Si number density = 27.135753 Si / 1000 Ang^3
#
#
#
# Elastic Constant Matrix: (Units=GPa)
#
#
# Indices 1 2 3 4 5 6 
#
# 1 93.9958 -6.0556 1.1877 3.5859 -12.7532 13.9578
# 2 -6.0556 61.6635 2.8902 8.9616 -7.8287 0.0014
# 3 1.1877 2.8902 58.3035 -11.3829 -20.7021 7.1214
# 4 3.5859 8.9616 -11.3829 30.4132 2.3100 -4.2137
# 5 -12.7532 -7.8287 -20.7021 2.3100 40.8453 3.6933
# 6 13.9578 0.0014 7.1214 -4.2137 3.6933 35.6333
#
#
#
# Elastic Compliance Matrix: (Units=1/GPa)
#
#
# Indices 1 2 3 4 5 6 
#
# 1 0.012643 0.002328 0.002049 -0.002754 0.006160 -0.006326
# 2 0.002328 0.017956 -0.000296 -0.006310 0.004563 -0.002072
# 3 0.002049 -0.000296 0.023754 0.006927 0.012778 -0.006055
# 4 -0.002754 -0.006310 0.006927 0.038344 -0.001120 0.004345
# 5 0.006160 0.004563 0.012778 -0.001120 0.034606 -0.008686
# 6 -0.006326 -0.002072 -0.006055 0.004345 -0.008686 0.033166
#
#
# Mechanical properties :
#
#
# Convention : Reuss Voigt Hill
#
# Bulk Modulus (GPa) = 15.99611 23.33417 19.66514
# Shear Modulus (GPa) = 28.87759 35.77441 32.32600
#
# Velocity S-wave (km/s) = 3.26573 3.63485 3.45522
# Velocity P-wave (km/s) = 4.48638 5.12190 4.81464
#
# Compressibility (1/GPa) = 0.06251518
#
# Stress axis : x y z
#
# Youngs Moduli (GPa) = 79.09423 55.69208 42.09866
#
# Poissons Ratio (x) = -0.12965 -0.08628
# Poissons Ratio (y) = -0.18413 0.01247
# Poissons Ratio (z) = -0.16210 0.01650
#
# Static dielectric constant tensor:
#      x y z
#    x 5.525880 -0.271870 -0.486920 
#    y -0.271870 4.629570 -0.123800 
#    z -0.486920 -0.123800 4.804420 
# 
# 
# High freq. dielectric constant tensor:
#      x y z
#    x 2.123250 -0.006770 0.008000 
#    y -0.006770 2.074350 -0.003710 
#    z 0.008000 -0.003710 2.090680 
# 
# From -- ./inp_files/52583.got.cif
#   From: 2010.06.25/outbox.cif.g09.slc.cpg/sg2_27_cif.got.tgz:52583.got - 2010.06.27 13:26:56.
