data_PCOD8011588
_publ_section_title
;
Structure prediction by ZEFSAII (Michael W. Deem and Ramdas Pophale) SiO2 
 PCOD8011588
Probable space group: P -1
;
_chemical_formula_sum "Si O2"
_cell_formula_units_Z 16
_cell_length_a 12.053748
_cell_length_b 17.688032
_cell_length_c 9.451652
_cell_angle_alpha 119.673904
_cell_angle_beta 49.896077
_cell_angle_gamma 151.359882
_cell_volume 725.070308
_symmetry_space_group_name_H-M "P -1"
_symmetry_group_IT_number 2
_symmetry_cell_setting 'triclinic'
loop_
_space_group_symop_operation_xyz
x,y,z
-x,-y,-z
loop_
_atom_site_type_symbol
_atom_site_label
_atom_site_fract_x
_atom_site_fract_y
_atom_site_fract_z
Si Si1 0.646193 0.804448 0.434303
Si Si2 0.217975 0.836246 0.505983
Si Si3 0.663938 0.715540 0.065266
Si Si4 0.912160 0.854091 0.704953
Si Si5 0.117060 0.351263 0.122899
Si Si6 0.823100 0.332494 0.164971
Si Si7 0.509392 0.402886 0.402781
Si Si8 0.106669 0.644768 0.183654
O O1 0.573309 0.742748 0.275732
O O2 0.434828 0.768382 0.628444
O O3 0.649094 0.718865 0.447185
O O4 0.939422 0.995132 0.363864
O O5 0.095603 0.860112 0.555638
O O6 0.009508 0.694123 0.660527
O O7 0.252458 0.779090 0.304079
O O8 0.500000 0.000000 0.500000
O O9 0.403581 0.540774 0.049661
O O10 0.844597 0.848593 0.915691
O O11 0.846371 0.733596 0.008871
O O12 0.626161 0.697053 0.721933
O O13 0.922721 0.290612 0.105189
O O14 0.063455 0.524707 0.165332
O O15 0.729990 0.274479 0.023761
O O16 0.500000 0.500000 0.500000
O O17 0.814973 0.530412 0.273364
#
# Coordination Sequence:
#
# PCOD8011588 Si02
#       8
#     2   2   2   2   2   2   2   2
#     4  11  24  41  62 100 134 170 215 269 338 387
#     4  11  23  40  63  94 135 176 213 267 334 397
#     4  10  23  38  67  92 133 172 224 272 322 390
#     4  11  23  42  64  97 135 167 220 276 330 386
#     4  10  21  39  62  97 126 173 228 267 321 392
#     4  10  22  40  65  93 133 170 215 273 323 393
#     4  11  22  40  71  94 124 175 217 273 320 384
#     4  10  22  41  65  96 127 171 224 263 327 392
#
# _framework density 22.066824
#
# number of rings (size 3 to 8) (size 9 to 14) (size 15 to 20)
#    0.000    1.500    1.250    3.750    5.250    3.000 
#    0.000   12.500    0.000    0.000    0.000    0.000 
#    0.000    0.000    0.000    0.000    0.000    0.000 
#
# Total GULP energy -198390.371325 kJ/mol
# GULP energy per Si atom -12399.398208 kJ/mol
# Density = 2.201660 g / cm^3
# Si number density = 22.066824 Si / 1000 Ang^3
#
#
#
# Elastic Constant Matrix: (Units=GPa)
#
#
# Indices 1 2 3 4 5 6 
#
# 1 101.1072 35.1528 25.9284 -12.4046 3.9993 -4.6718
# 2 35.1528 98.7046 43.2382 0.5334 8.6573 1.2360
# 3 25.9284 43.2382 145.7157 -0.0914 16.2680 -2.2916
# 4 -12.4046 0.5334 -0.0914 33.2144 3.5438 11.9224
# 5 3.9993 8.6573 16.2680 3.5438 23.6906 -3.6619
# 6 -4.6718 1.2360 -2.2916 11.9224 -3.6619 35.5290
#
#
#
# Elastic Compliance Matrix: (Units=1/GPa)
#
#
# Indices 1 2 3 4 5 6 
#
# 1 0.012064 -0.003859 -0.000923 0.004623 -0.000679 0.000040
# 2 -0.003859 0.013000 -0.002957 -0.001079 -0.002062 -0.001001
# 3 -0.000923 -0.002957 0.008415 0.000223 -0.004579 -0.000022
# 4 0.004623 -0.001079 0.000223 0.037264 -0.008073 -0.012677
# 5 -0.000679 -0.002062 -0.004579 -0.008073 0.048575 0.007403
# 6 0.000040 -0.001001 -0.000022 -0.012677 0.007403 0.033201
#
#
# Mechanical properties :
#
#
# Convention : Reuss Voigt Hill
#
# Bulk Modulus (GPa) = 55.54473 61.57402 58.55938
# Shear Modulus (GPa) = 28.73603 34.56735 31.65169
#
# Velocity S-wave (km/s) = 3.61255 3.96218 3.79140
# Velocity P-wave (km/s) = 6.52890 6.99255 6.76470
#
# Compressibility (1/GPa) = 0.01800351
#
# Stress axis : x y z
#
# Youngs Moduli (GPa) = 82.88793 76.92293 118.83108
#
# Poissons Ratio (x) = 0.29681 0.10962
# Poissons Ratio (y) = 0.31982 0.35140
# Poissons Ratio (z) = 0.07647 0.22747
#
# Static dielectric constant tensor:
#      x y z
#    x 4.079880 -0.302050 0.008050 
#    y -0.302050 3.885700 0.014950 
#    z 0.008050 0.014950 4.091010 
# 
# 
# High freq. dielectric constant tensor:
#      x y z
#    x 1.870450 -0.012230 0.005640 
#    y -0.012230 1.851440 -0.008530 
#    z 0.005640 -0.008530 1.875740 
# 
# From -- ./inp_files/224095.got.cif
#   From: 2010.06.25/outbox.cif.g09.slc.cpg/sg2_113_cif.got.tgz:224095.got - 2010.06.27 13:26:56.
