data_PCOD8011397
_publ_section_title
;
Structure prediction by ZEFSAII (Michael W. Deem and Ramdas Pophale) SiO2 
 PCOD8011397
Probable space group: P -1
;
_chemical_formula_sum "Si O2"
_cell_formula_units_Z 16
_cell_length_a 9.069985
_cell_length_b 26.675282
_cell_length_c 15.064863
_cell_angle_alpha 18.749751
_cell_angle_beta 47.022371
_cell_angle_gamma 56.298057
_cell_volume 790.896770
_symmetry_space_group_name_H-M "P -1"
_symmetry_group_IT_number 2
_symmetry_cell_setting 'triclinic'
loop_
_space_group_symop_operation_xyz
x,y,z
-x,-y,-z
loop_
_atom_site_type_symbol
_atom_site_label
_atom_site_fract_x
_atom_site_fract_y
_atom_site_fract_z
Si Si1 0.576427 0.887313 0.591451
Si Si2 0.671469 0.720240 0.310252
Si Si3 0.031475 0.887465 0.440831
Si Si4 0.534999 0.049057 0.169652
Si Si5 0.921369 0.229158 0.202971
Si Si6 0.617867 0.671646 0.215417
Si Si7 0.346301 0.870668 0.209690
Si Si8 0.820844 0.444289 0.743900
O O1 0.661004 0.986376 0.297187
O O2 0.775892 0.848232 0.614183
O O3 0.500000 0.000000 0.500000
O O4 0.380821 0.710863 0.952202
O O5 0.670003 0.642350 0.344302
O O6 0.426093 0.713272 0.441391
O O7 0.744938 0.597024 0.548065
O O8 0.840076 0.914008 0.922675
O O9 0.089427 0.771288 0.684576
O O10 0.101200 0.829236 0.415549
O O11 0.278870 0.933424 0.476548
O O12 0.551264 0.235351 0.875459
O O13 0.632397 0.046870 0.035372
O O14 0.911565 0.395448 0.880185
O O15 0.149914 0.213611 0.114415
O O16 0.500000 0.500000 0.500000
O O17 0.500000 0.000000 0.000000
O O18 0.000000 0.500000 0.500000
#
# Coordination Sequence:
#
# PCOD8011397 Si02
#       8
#     2   2   2   2   2   2   2   2
#     4  11  25  37  61  96 129 152 206 252 310 361
#     4  10  21  39  61  87 120 164 201 251 307 360
#     4  11  22  40  67  87 117 164 209 256 288 367
#     4  10  21  39  61  88 118 164 205 251 294 369
#     4  11  21  36  61  86 119 156 205 239 309 358
#     4  11  22  32  58  89 123 154 199 251 311 365
#     4   9  18  40  67  85 115 162 221 241 300 355
#     4  11  23  39  57  88 131 159 187 251 315 363
#
# _framework density 20.230201000000001
#
# number of rings (size 3 to 8) (size 9 to 14) (size 15 to 20)
#    0.000    1.500    5.000    1.875    5.250    1.500 
#    0.000    1.250    0.000    0.000    0.000    0.000 
#    0.000    0.000    0.000    0.000    0.000    0.000 
#
# Total GULP energy -198266.082743 kJ/mol
# GULP energy per Si atom -12391.630171 kJ/mol
# Density = 2.018416 g / cm^3
# Si number density = 20.230201 Si / 1000 Ang^3
#
#
#
# Elastic Constant Matrix: (Units=GPa)
#
#
# Indices 1 2 3 4 5 6 
#
# 1 109.0579 43.1390 51.3979 4.2417 24.0970 -0.1686
# 2 43.1390 120.9361 50.5577 10.7842 10.2302 2.6213
# 3 51.3979 50.5577 85.7455 1.8651 22.0261 1.2573
# 4 4.2417 10.7842 1.8651 20.8372 -1.8140 0.2650
# 5 24.0970 10.2302 22.0261 -1.8140 43.1074 3.0171
# 6 -0.1686 2.6213 1.2573 0.2650 3.0171 33.2164
#
#
#
# Elastic Compliance Matrix: (Units=1/GPa)
#
#
# Indices 1 2 3 4 5 6 
#
# 1 0.013769 -0.001910 -0.005997 -0.001663 -0.004309 0.000852
# 2 -0.001910 0.011835 -0.006012 -0.005086 0.001172 -0.000782
# 3 -0.005997 -0.006012 0.020153 0.002052 -0.005443 0.000159
# 4 -0.001663 -0.005086 0.002052 0.051067 0.003264 -0.000389
# 5 -0.004309 0.001172 -0.005443 0.003264 0.028423 -0.002516
# 6 0.000852 -0.000782 0.000159 -0.000389 -0.002516 0.030397
#
#
# Mechanical properties :
#
#
# Convention : Reuss Voigt Hill
#
# Bulk Modulus (GPa) = 55.80535 67.32542 61.56539
# Shear Modulus (GPa) = 26.39122 30.80851 28.59987
#
# Velocity S-wave (km/s) = 3.61577 3.90666 3.76403
# Velocity P-wave (km/s) = 6.71392 7.32812 7.02773
#
# Compressibility (1/GPa) = 0.01791943
#
# Stress axis : x y z
#
# Youngs Moduli (GPa) = 72.62437 84.49523 49.62021
#
# Poissons Ratio (x) = 0.16142 0.29756
# Poissons Ratio (y) = 0.13874 0.29832
# Poissons Ratio (z) = 0.43551 0.50799
#
# Static dielectric constant tensor:
#      x y z
#    x 4.018140 -0.256850 0.263120 
#    y -0.256850 4.219710 0.195140 
#    z 0.263120 0.195140 3.645410 
# 
# 
# High freq. dielectric constant tensor:
#      x y z
#    x 1.794750 -0.002260 0.013460 
#    y -0.002260 1.779150 0.006490 
#    z 0.013460 0.006490 1.776640 
# 
# From -- ./inp_files/296239.got.cif
#   From: 2010.06.25/outbox.cif.g09.slc.cpg/sg2_149_cif.got.tgz:296239.got - 2010.06.27 13:26:56.
