data_PCOD8011461
_publ_section_title
;
Structure prediction by ZEFSAII (Michael W. Deem and Ramdas Pophale) SiO2 
 PCOD8011461
Probable space group: P -1
;
_chemical_formula_sum "Si O2"
_cell_formula_units_Z 16
_cell_length_a 8.081308
_cell_length_b 15.898797
_cell_length_c 9.842055
_cell_angle_alpha 40.986310
_cell_angle_beta 104.508124
_cell_angle_gamma 104.454179
_cell_volume 799.283068
_symmetry_space_group_name_H-M "P -1"
_symmetry_group_IT_number 2
_symmetry_cell_setting 'triclinic'
loop_
_space_group_symop_operation_xyz
x,y,z
-x,-y,-z
loop_
_atom_site_type_symbol
_atom_site_label
_atom_site_fract_x
_atom_site_fract_y
_atom_site_fract_z
Si Si1 0.735689 0.787045 0.704678
Si Si2 0.129587 0.488956 0.925970
Si Si3 0.614322 0.881331 0.012683
Si Si4 0.040786 0.594372 0.271818
Si Si5 0.709294 0.966059 0.228562
Si Si6 0.430989 0.608238 0.260303
Si Si7 0.075241 0.130555 0.099670
Si Si8 0.560636 0.384729 0.064380
O O1 0.731043 0.854900 0.476797
O O2 0.856118 0.875989 0.723428
O O3 0.544634 0.755587 0.768689
O O4 0.794382 0.646289 0.870409
O O5 0.254121 0.619638 0.822647
O O6 0.044170 0.494033 0.757058
O O7 0.000000 0.500000 0.000000
O O8 0.783205 0.924785 0.902987
O O9 0.449161 0.956713 0.848360
O O10 0.664251 0.900892 0.155324
O O11 0.562406 0.732334 0.158724
O O12 0.240988 0.634085 0.237933
O O13 0.000000 0.500000 0.500000
O O14 0.945258 0.721583 0.122368
O O15 0.889695 0.052224 0.146220
O O16 0.500000 0.500000 0.500000
O O17 0.431612 0.572547 0.144465
O O18 0.500000 0.500000 0.000000
#
# Coordination Sequence:
#
# PCOD8011461 Si02
#       8
#     2   2   2   2   2   2   2   2
#     4  10  23  40  67  90 128 170 215 272 320 389
#     4  10  21  39  61  93 130 166 210 264 326 383
#     4  11  25  44  67  94 134 172 221 271 325 395
#     4  11  24  39  64  98 131 168 216 273 331 397
#     4  11  25  45  65  96 131 175 223 270 325 391
#     4  12  24  41  70  96 133 177 214 273 340 389
#     4  11  22  46  65  94 130 170 222 274 325 388
#     4  10  22  41  63  94 131 168 213 271 322 398
#
# _framework density 20.017938999999998
#
# number of rings (size 3 to 8) (size 9 to 14) (size 15 to 20)
#    0.000    1.250    3.750    1.500    7.000    1.500 
#    2.250    0.000    0.000    0.000    0.000    0.000 
#    0.000    0.000    0.000    0.000    0.000    0.000 
#
# Total GULP energy -198250.560400 kJ/mol
# GULP energy per Si atom -12390.660025 kJ/mol
# Density = 1.997238 g / cm^3
# Si number density = 20.017939 Si / 1000 Ang^3
#
#
#
# Elastic Constant Matrix: (Units=GPa)
#
#
# Indices 1 2 3 4 5 6 
#
# 1 138.8439 43.9225 27.1200 13.0549 -10.4601 7.4943
# 2 43.9225 103.2517 35.7769 20.3438 -3.0349 8.4686
# 3 27.1200 35.7769 96.1608 24.6913 -12.2642 2.9186
# 4 13.0549 20.3438 24.6913 24.8455 0.5083 0.0796
# 5 -10.4601 -3.0349 -12.2642 0.5083 27.8276 3.0637
# 6 7.4943 8.4686 2.9186 0.0796 3.0637 39.7675
#
#
#
# Elastic Compliance Matrix: (Units=1/GPa)
#
#
# Indices 1 2 3 4 5 6 
#
# 1 0.008690 -0.003016 -0.000502 -0.001653 0.002876 -0.001177
# 2 -0.003016 0.013300 -0.002271 -0.007036 -0.000329 -0.002058
# 3 -0.000502 -0.002271 0.015830 -0.013747 0.006911 -0.001089
# 4 -0.001653 -0.007036 -0.013747 0.060711 -0.008929 0.003385
# 5 0.002876 -0.000329 0.006911 -0.008929 0.040640 -0.004092
# 6 -0.001177 -0.002058 -0.001089 0.003385 -0.004092 0.026195
#
#
# Mechanical properties :
#
#
# Convention : Reuss Voigt Hill
#
# Bulk Modulus (GPa) = 38.10521 61.32170 49.71345
# Shear Modulus (GPa) = 26.92645 33.91726 30.42185
#
# Velocity S-wave (km/s) = 3.67156 4.12071 3.90260
# Velocity P-wave (km/s) = 6.08693 7.30343 6.72275
#
# Compressibility (1/GPa) = 0.02624313
#
# Stress axis : x y z
#
# Youngs Moduli (GPa) = 115.07359 75.18638 63.17221
#
# Poissons Ratio (x) = 0.22677 0.03169
# Poissons Ratio (y) = 0.34707 0.14344
# Poissons Ratio (z) = 0.05773 0.17073
#
# Static dielectric constant tensor:
#      x y z
#    x 4.404650 0.359580 -0.075540 
#    y 0.359580 3.875900 0.103330 
#    z -0.075540 0.103330 3.428990 
# 
# 
# High freq. dielectric constant tensor:
#      x y z
#    x 1.805820 0.011360 -0.005770 
#    y 0.011360 1.795130 0.015090 
#    z -0.005770 0.015090 1.763770 
# 
# From -- ./inp_files/205437.got.cif
#   From: 2010.06.25/outbox.cif.g09.slc.cpg/sg2_103_cif.got.tgz:205437.got - 2010.06.27 13:26:56.
