data_PCOD8011010
_publ_section_title
;
Structure prediction by ZEFSAII (Michael W. Deem and Ramdas Pophale) SiO2 
 PCOD8011010
Probable space group: P -1
;
_chemical_formula_sum "Si O2"
_cell_formula_units_Z 16
_cell_length_a 9.071740
_cell_length_b 15.189752
_cell_length_c 5.875475
_cell_angle_alpha 79.385659
_cell_angle_beta 81.312627
_cell_angle_gamma 110.836710
_cell_volume 722.764030
_symmetry_space_group_name_H-M "P -1"
_symmetry_group_IT_number 2
_symmetry_cell_setting 'triclinic'
loop_
_space_group_symop_operation_xyz
x,y,z
-x,-y,-z
loop_
_atom_site_type_symbol
_atom_site_label
_atom_site_fract_x
_atom_site_fract_y
_atom_site_fract_z
Si Si1 0.218759 0.608425 0.024770
Si Si2 0.590037 0.214541 0.381386
Si Si3 0.869854 0.036197 0.407098
Si Si4 0.906992 0.605141 0.845527
Si Si5 0.958749 0.782995 0.016964
Si Si6 0.870961 0.287350 0.627526
Si Si7 0.421839 0.050361 0.171616
Si Si8 0.291926 0.137804 0.791493
O O1 0.235125 0.503692 0.079885
O O2 0.196020 0.638461 0.272622
O O3 0.374517 0.692089 0.833734
O O4 0.068029 0.598125 0.908623
O O5 0.737667 0.222441 0.508676
O O6 0.555414 0.115324 0.292776
O O7 0.431666 0.206812 0.560742
O O8 0.733172 0.029876 0.627720
O O9 0.791144 0.970342 0.238586
O O10 0.957469 0.146673 0.247857
O O11 0.000000 0.000000 0.500000
O O12 0.955539 0.650725 0.560320
O O13 0.856247 0.676097 0.984462
O O14 0.100015 0.781430 0.153840
O O15 0.838480 0.815348 0.173374
O O16 0.364955 0.127350 0.022012
O O17 0.500000 0.000000 0.000000
#
# Coordination Sequence:
#
# PCOD8011010 Si02
#       8
#     2   2   2   2   2   2   2   2
#     4   9  18  38  62  95 129 166 209 262 321 375
#     4  10  23  42  66  90 130 172 207 264 323 384
#     4  11  25  45  67  91 126 175 217 262 320 390
#     4   9  20  35  63  97 129 162 213 264 314 384
#     4  11  24  40  66  97 128 169 216 270 318 383
#     4  10  21  38  65  97 128 166 212 261 326 377
#     4  11  26  45  66  96 130 167 222 271 320 379
#     4  11  25  43  63  92 129 169 215 265 322 380
#
# _framework density 22.137236999999999
#
# number of rings (size 3 to 8) (size 9 to 14) (size 15 to 20)
#    0.000    1.750    1.250    1.500    1.750   11.000 
#    0.000    2.500    0.000    3.750    0.000    0.000 
#    0.000    0.000    0.000    0.000    0.000    0.000 
#
# Total GULP energy -198416.224324 kJ/mol
# GULP energy per Si atom -12401.014020 kJ/mol
# Density = 2.208685 g / cm^3
# Si number density = 22.137237 Si / 1000 Ang^3
#
#
#
# Elastic Constant Matrix: (Units=GPa)
#
#
# Indices 1 2 3 4 5 6 
#
# 1 68.2560 52.1891 42.4328 2.3170 -9.2723 -1.8687
# 2 52.1891 133.3742 64.0982 -4.6648 -16.0201 -11.3839
# 3 42.4328 64.0982 131.3766 1.0485 -16.7738 -1.8790
# 4 2.3170 -4.6648 1.0485 36.5282 1.7896 -5.3622
# 5 -9.2723 -16.0201 -16.7738 1.7896 44.6760 6.3057
# 6 -1.8687 -11.3839 -1.8790 -5.3622 6.3057 24.5495
#
#
#
# Elastic Compliance Matrix: (Units=1/GPa)
#
#
# Indices 1 2 3 4 5 6 
#
# 1 0.022686 -0.007335 -0.003610 -0.002754 0.001238 -0.002870
# 2 -0.007335 0.012837 -0.003740 0.002991 0.000772 0.005563
# 3 -0.003610 -0.003740 0.010877 -0.000965 0.002312 -0.001981
# 4 -0.002754 0.002991 -0.000965 0.029248 -0.002169 0.008049
# 5 0.001238 0.000772 0.002312 -0.002169 0.024747 -0.006201
# 6 -0.002870 0.005563 -0.001981 0.008049 -0.006201 0.046295
#
#
# Mechanical properties :
#
#
# Convention : Reuss Voigt Hill
#
# Bulk Modulus (GPa) = 58.71518 72.27187 65.49353
# Shear Modulus (GPa) = 27.51233 32.76985 30.14109
#
# Velocity S-wave (km/s) = 3.52917 3.85165 3.69393
# Velocity P-wave (km/s) = 6.57173 7.24557 6.91686
#
# Compressibility (1/GPa) = 0.01703137
#
# Stress axis : x y z
#
# Youngs Moduli (GPa) = 44.07971 77.89737 91.93857
#
# Poissons Ratio (x) = 0.57137 0.33186
# Poissons Ratio (y) = 0.32332 0.34385
# Poissons Ratio (z) = 0.15911 0.29134
#
# Static dielectric constant tensor:
#      x y z
#    x 3.740200 0.148130 0.011890 
#    y 0.148130 4.254550 -0.116110 
#    z 0.011890 -0.116110 4.349470 
# 
# 
# High freq. dielectric constant tensor:
#      x y z
#    x 1.835150 0.001790 0.000160 
#    y 0.001790 1.872390 0.003980 
#    z 0.000160 0.003980 1.892540 
# 
# From -- ./inp_files/37944.got.cif
#   From: 2010.06.25/outbox.cif.g09.slc.cpg/sg2_19_cif.got.tgz:37944.got - 2010.06.27 13:26:56.
