data_PCOD8011242
_publ_section_title
;
Structure prediction by ZEFSAII (Michael W. Deem and Ramdas Pophale) SiO2 
 PCOD8011242
Probable space group: P -1
;
_chemical_formula_sum "Si O2"
_cell_formula_units_Z 14
_cell_length_a 18.329232
_cell_length_b 8.348708
_cell_length_c 9.130658
_cell_angle_alpha 147.524154
_cell_angle_beta 63.390042
_cell_angle_gamma 122.694824
_cell_volume 631.269997
_symmetry_space_group_name_H-M "P -1"
_symmetry_group_IT_number 2
_symmetry_cell_setting 'triclinic'
loop_
_space_group_symop_operation_xyz
x,y,z
-x,-y,-z
loop_
_atom_site_type_symbol
_atom_site_label
_atom_site_fract_x
_atom_site_fract_y
_atom_site_fract_z
Si Si1 0.092409 0.596487 0.412706
Si Si2 0.125272 0.162482 0.268262
Si Si3 0.733166 0.928865 0.297171
Si Si4 0.977843 0.522181 0.204121
Si Si5 0.610289 0.447660 0.253553
Si Si6 0.302394 0.450608 0.256308
Si Si7 0.419507 0.238526 0.188658
O O1 0.130477 0.341774 0.246566
O O2 0.000000 0.500000 0.500000
O O3 0.068698 0.563057 0.235986
O O4 0.164954 0.937093 0.642520
O O5 0.061348 0.210623 0.492535
O O6 0.225786 0.308191 0.339523
O O7 0.097939 0.808728 0.957942
O O8 0.688133 0.650439 0.236962
O O9 0.687494 0.199297 0.541954
O O10 0.723516 0.794136 0.041007
O O11 0.000000 0.500000 0.000000
O O12 0.522645 0.327451 0.142157
O O13 0.601340 0.674334 0.564071
O O14 0.627779 0.142655 0.073540
O O15 0.389088 0.433235 0.241293
#
# Coordination Sequence:
#
# PCOD8011242 Si02
#       7
#     2   2   2   2   2   2   2
#     4   9  20  39  59  80 116 159 194 242 303 356
#     4  10  21  39  57  81 117 156 198 242 304 365
#     4  11  23  38  62  92 120 155 212 257 297 360
#     4  11  22  37  59  86 115 152 202 252 297 355
#     4  10  22  41  62  92 123 162 203 247 307 373
#     4  11  22  39  61  90 120 160 203 253 302 358
#     4  10  22  41  64  87 127 165 196 245 316 372
#
# _framework density 22.177515
#
# number of rings (size 3 to 8) (size 9 to 14) (size 15 to 20)
#    0.000    1.714    0.000    5.143    0.000    5.714 
#    0.000    5.714    0.000    0.000    0.000    0.000 
#    0.000    0.000    0.000    0.000    0.000    0.000 
#
# Total GULP energy -173440.766863 kJ/mol
# GULP energy per Si atom -12388.626204 kJ/mol
# Density = 2.212704 g / cm^3
# Si number density = 22.177515 Si / 1000 Ang^3
#
#
#
# Elastic Constant Matrix: (Units=GPa)
#
#
# Indices 1 2 3 4 5 6 
#
# 1 75.3442 33.4715 29.6928 -0.9741 6.3052 -2.4655
# 2 33.4715 95.6212 19.8830 5.9364 17.0259 13.0427
# 3 29.6928 19.8830 94.9033 5.5495 2.5331 -0.9473
# 4 -0.9741 5.9364 5.5495 41.0841 -7.2629 7.0600
# 5 6.3052 17.0259 2.5331 -7.2629 30.2291 0.5301
# 6 -2.4655 13.0427 -0.9473 7.0600 0.5301 27.4913
#
#
#
# Elastic Compliance Matrix: (Units=1/GPa)
#
#
# Indices 1 2 3 4 5 6 
#
# 1 0.017764 -0.005976 -0.004345 0.001236 0.000252 0.003956
# 2 -0.005976 0.015246 -0.001052 -0.002351 -0.007694 -0.007054
# 3 -0.004345 -0.001052 0.012229 -0.001766 0.000033 0.000984
# 4 0.001236 -0.002351 -0.001766 0.027378 0.007897 -0.006018
# 5 0.000252 -0.007694 0.000033 0.007897 0.039240 0.000889
# 6 0.003956 -0.007054 0.000984 -0.006018 0.000889 0.041639
#
#
# Mechanical properties :
#
#
# Convention : Reuss Voigt Hill
#
# Bulk Modulus (GPa) = 44.45875 47.99590 46.22733
# Shear Modulus (GPa) = 27.21212 31.94900 29.58056
#
# Velocity S-wave (km/s) = 3.50668 3.79965 3.65610
# Velocity P-wave (km/s) = 6.04036 6.39831 6.22191
#
# Compressibility (1/GPa) = 0.02249276
#
# Stress axis : x y z
#
# Youngs Moduli (GPa) = 56.29345 65.58895 81.77096
#
# Poissons Ratio (x) = 0.39195 0.35533
# Poissons Ratio (y) = 0.33641 0.08604
# Poissons Ratio (z) = 0.24462 0.06901
#
# Static dielectric constant tensor:
#      x y z
#    x 76.600910 12.028460 16.152520 
#    y 12.028460 6.116340 2.971780 
#    z 16.152520 2.971780 7.756120 
# 
# 
# High freq. dielectric constant tensor:
#      x y z
#    x 1.868610 0.004980 0.003190 
#    y 0.004980 1.862410 0.009310 
#    z 0.003190 0.009310 1.884010 
# 
# From -- ./inp_files/313367.got.cif
#   From: 2010.06.25/outbox.cif.g09.slc.cpg/sg2_157_cif.got.tgz:313367.got - 2010.06.27 13:26:56.
