data_PCOD8011383
_publ_section_title
;
Structure prediction by ZEFSAII (Michael W. Deem and Ramdas Pophale) SiO2 
 PCOD8011383
Probable space group: P -1
;
_chemical_formula_sum "Si O2"
_cell_formula_units_Z 12
_cell_length_a 15.820906
_cell_length_b 4.952817
_cell_length_c 14.236850
_cell_angle_alpha 73.411731
_cell_angle_beta 152.038480
_cell_angle_gamma 92.071162
_cell_volume 439.571992
_symmetry_space_group_name_H-M "P -1"
_symmetry_group_IT_number 2
_symmetry_cell_setting 'triclinic'
loop_
_space_group_symop_operation_xyz
x,y,z
-x,-y,-z
loop_
_atom_site_type_symbol
_atom_site_label
_atom_site_fract_x
_atom_site_fract_y
_atom_site_fract_z
Si Si1 0.076446 0.706598 0.963729
Si Si2 0.733701 0.876192 0.932828
Si Si3 0.769702 0.322328 0.139440
Si Si4 0.787882 0.212578 0.388645
Si Si5 0.441497 0.137322 0.826255
Si Si6 0.655439 0.788749 0.592701
O O1 0.832220 0.884005 0.728243
O O2 0.150103 0.380415 0.009732
O O3 0.214382 0.585703 0.207800
O O4 0.130130 0.946990 0.934739
O O5 0.496356 0.149669 0.650756
O O6 0.721019 0.684197 0.031054
O O7 0.751133 0.317631 0.233359
O O8 0.621047 0.203535 0.952925
O O9 0.993566 0.080904 0.346821
O O10 0.759660 0.510555 0.394707
O O11 0.621192 0.098622 0.268467
O O12 0.500000 0.000000 0.000000
O O13 0.500000 0.000000 0.500000
#
# Coordination Sequence:
#
# PCOD8011383 Si02
#       6
#     2   2   2   2   2   2
#     4  10  23  41  62  90 121 152 193 242 295 355
#     4  11  24  38  60  92 121 154 196 243 294 351
#     4  10  23  39  60  86 121 159 199 244 297 347
#     4  10  23  39  59  85 118 160 203 247 291 343
#     4  10  21  39  61  85 113 156 207 247 290 346
#     4   9  21  42  66  88 118 156 194 238 295 355
#
# _framework density 27.299282999999999
#
# number of rings (size 3 to 8) (size 9 to 14) (size 15 to 20)
#    0.000    2.000    0.000    2.500    0.000   24.000 
#    0.000    0.000    0.000    0.000    0.000    0.000 
#    0.000    0.000    0.000    0.000    0.000    0.000 
#
# Total GULP energy -148719.650650 kJ/mol
# GULP energy per Si atom -12393.304221 kJ/mol
# Density = 2.723715 g / cm^3
# Si number density = 27.299283 Si / 1000 Ang^3
#
#
#
# Elastic Constant Matrix: (Units=GPa)
#
#
# Indices 1 2 3 4 5 6 
#
# 1 61.3070 28.4527 41.6497 12.4058 22.9390 34.2337
# 2 28.4527 153.5555 33.2766 6.6077 8.7512 35.5187
# 3 41.6497 33.2766 128.7435 10.2758 22.0296 28.6515
# 4 12.4058 6.6077 10.2758 31.0198 9.3491 8.5371
# 5 22.9390 8.7512 22.0296 9.3491 45.2172 5.1372
# 6 34.2337 35.5187 28.6515 8.5371 5.1372 47.8130
#
#
#
# Elastic Compliance Matrix: (Units=1/GPa)
#
#
# Indices 1 2 3 4 5 6 
#
# 1 0.037524 0.000082 -0.004656 -0.003308 -0.013591 -0.022087
# 2 0.000082 0.007959 -0.000775 0.000226 -0.000629 -0.005479
# 3 -0.004656 -0.000775 0.010318 -0.000160 -0.002254 -0.002003
# 4 -0.003308 0.000226 -0.000160 0.036167 -0.005358 -0.003586
# 5 -0.013591 -0.000629 -0.002254 -0.005358 0.030287 0.009251
# 6 -0.022087 -0.005479 -0.002003 -0.003586 0.009251 0.041646
#
#
# Mechanical properties :
#
#
# Convention : Reuss Voigt Hill
#
# Bulk Modulus (GPa) = 22.17102 61.15156 41.66129
# Shear Modulus (GPa) = 26.36683 40.82513 33.59598
#
# Velocity S-wave (km/s) = 3.11117 3.87132 3.51187
# Velocity P-wave (km/s) = 4.58748 6.51398 5.63369
#
# Compressibility (1/GPa) = 0.04510393
#
# Stress axis : x y z
#
# Youngs Moduli (GPa) = 26.64959 125.65139 96.91673
#
# Poissons Ratio (x) = -0.01028 0.45120
# Poissons Ratio (y) = -0.00218 0.07507
# Poissons Ratio (z) = 0.12407 0.09733
#
# Static dielectric constant tensor:
#      x y z
#    x 4.892040 0.297490 0.005780 
#    y 0.297490 5.162420 -0.004080 
#    z 0.005780 -0.004080 5.583190 
# 
# 
# High freq. dielectric constant tensor:
#      x y z
#    x 2.103550 0.015020 0.019900 
#    y 0.015020 2.095960 -0.007040 
#    z 0.019900 -0.007040 2.112330 
# 
# From -- ./inp_files/600737.got.cif
#   From: 2010.06.25/outbox.cif.g09.slc.cpg/sg2_301_cif.got.tgz:600737.got - 2010.06.27 13:26:56.
