data_PCOD8011331
_publ_section_title
;
Structure prediction by ZEFSAII (Michael W. Deem and Ramdas Pophale) SiO2 
 PCOD8011331
Probable space group: P -1
;
_chemical_formula_sum "Si O2"
_cell_formula_units_Z 16
_cell_length_a 6.222162
_cell_length_b 12.015820
_cell_length_c 24.929580
_cell_angle_alpha 24.927763
_cell_angle_beta 72.689503
_cell_angle_gamma 67.275222
_cell_volume 717.876271
_symmetry_space_group_name_H-M "P -1"
_symmetry_group_IT_number 2
_symmetry_cell_setting 'triclinic'
loop_
_space_group_symop_operation_xyz
x,y,z
-x,-y,-z
loop_
_atom_site_type_symbol
_atom_site_label
_atom_site_fract_x
_atom_site_fract_y
_atom_site_fract_z
Si Si1 0.427903 0.657743 0.127712
Si Si2 0.206830 0.042853 0.063558
Si Si3 0.451888 0.910642 0.821476
Si Si4 0.132283 0.708933 0.556037
Si Si5 0.437714 0.543871 0.423855
Si Si6 0.312621 0.831104 0.601054
Si Si7 0.701691 0.451120 0.927274
Si Si8 0.958647 0.266707 0.702635
O O1 0.582913 0.423898 0.256831
O O2 0.345391 0.503363 0.152391
O O3 0.210456 0.853093 0.092926
O O4 0.568550 0.847344 0.006293
O O5 0.223260 0.853709 0.197847
O O6 0.977571 0.299867 0.975811
O O7 0.626363 0.745173 0.834363
O O8 0.550676 0.155873 0.725853
O O9 0.184034 0.030059 0.766129
O O10 0.450299 0.726641 0.954691
O O11 0.367802 0.710298 0.506350
O O12 0.205485 0.708633 0.612418
O O13 0.060807 0.437123 0.663997
O O14 0.914627 0.965060 0.442780
O O15 0.500000 0.500000 0.500000
O O16 0.179739 0.548386 0.418165
O O17 0.500000 0.000000 0.500000
#
# Coordination Sequence:
#
# PCOD8011331 Si02
#       8
#     2   2   2   2   2   2   2   2
#     4  11  23  37  61  91 119 155 201 244 298 359
#     4  10  22  38  60  89 119 156 197 245 301 356
#     4   9  22  39  59  87 118 159 203 239 297 360
#     4  10  23  41  62  88 119 160 204 240 298 365
#     4  11  23  38  61  89 120 157 201 249 296 350
#     4  11  24  41  62  89 123 160 198 247 300 354
#     4  10  21  39  60  86 121 156 196 250 294 349
#     4  10  21  42  65  84 120 162 197 246 302 356
#
# _framework density 22.287965
#
# number of rings (size 3 to 8) (size 9 to 14) (size 15 to 20)
#    0.000    1.750    0.000    3.375    0.000   15.000 
#    0.000    3.750    0.000    0.000    0.000    0.000 
#    0.000    0.000    0.000    0.000    0.000    0.000 
#
# Total GULP energy -198241.813331 kJ/mol
# GULP energy per Si atom -12390.113333 kJ/mol
# Density = 2.223724 g / cm^3
# Si number density = 22.287965 Si / 1000 Ang^3
#
#
#
# Elastic Constant Matrix: (Units=GPa)
#
#
# Indices 1 2 3 4 5 6 
#
# 1 82.1361 34.4353 27.2208 -1.9832 23.0096 5.8654
# 2 34.4353 150.8520 25.3995 -23.6483 27.6286 -15.8386
# 3 27.2208 25.3995 61.1566 -6.2720 15.6906 2.6357
# 4 -1.9832 -23.6483 -6.2720 32.7149 0.0224 9.4741
# 5 23.0096 27.6286 15.6906 0.0224 34.5391 -2.1702
# 6 5.8654 -15.8386 2.6357 9.4741 -2.1702 35.2299
#
#
#
# Elastic Compliance Matrix: (Units=1/GPa)
#
#
# Indices 1 2 3 4 5 6 
#
# 1 0.017039 -0.002139 -0.004550 -0.000260 -0.007816 -0.003870
# 2 -0.002139 0.009506 -0.001123 0.005707 -0.005494 0.002840
# 3 -0.004550 -0.001123 0.020791 0.003666 -0.005683 -0.002639
# 4 -0.000260 0.005707 0.003666 0.037767 -0.006599 -0.008228
# 5 -0.007816 -0.005494 -0.005683 -0.006599 0.041365 0.003580
# 6 -0.003870 0.002840 -0.002639 -0.008228 0.003580 0.032937
#
#
# Mechanical properties :
#
#
# Convention : Reuss Voigt Hill
#
# Bulk Modulus (GPa) = 31.53497 52.02843 41.78170
# Shear Modulus (GPa) = 26.93948 34.30274 30.62111
#
# Velocity S-wave (km/s) = 3.48041 3.92735 3.71062
# Velocity P-wave (km/s) = 5.50732 6.63023 6.09469
#
# Compressibility (1/GPa) = 0.03171083
#
# Stress axis : x y z
#
# Youngs Moduli (GPa) = 58.68746 105.20219 48.09714
#
# Poissons Ratio (x) = 0.22501 0.21886
# Poissons Ratio (y) = 0.12553 0.05403
# Poissons Ratio (z) = 0.26705 0.11819
#
# Static dielectric constant tensor:
#      x y z
#    x 3.937850 -0.156890 0.021850 
#    y -0.156890 4.475670 -0.204710 
#    z 0.021850 -0.204710 4.000300 
# 
# 
# High freq. dielectric constant tensor:
#      x y z
#    x 1.870120 -0.005620 0.011390 
#    y -0.005620 1.893170 -0.009770 
#    z 0.011390 -0.009770 1.867260 
# 
# From -- ./inp_files/108923.got.cif
#   From: 2010.06.25/outbox.cif.g09.slc.cpg/sg2_55_cif.got.tgz:108923.got - 2010.06.27 13:26:56.
