data_PCOD8011895
_publ_section_title
;
Structure prediction by ZEFSAII (Michael W. Deem and Ramdas Pophale) SiO2 
 PCOD8011895
Probable space group: P -1
;
_chemical_formula_sum "Si O2"
_cell_formula_units_Z 14
_cell_length_a 10.214105
_cell_length_b 16.407623
_cell_length_c 13.259501
_cell_angle_alpha 155.005208
_cell_angle_beta 134.559414
_cell_angle_gamma 44.132104
_cell_volume 643.847912
_symmetry_space_group_name_H-M "P -1"
_symmetry_group_IT_number 2
_symmetry_cell_setting 'triclinic'
loop_
_space_group_symop_operation_xyz
x,y,z
-x,-y,-z
loop_
_atom_site_type_symbol
_atom_site_label
_atom_site_fract_x
_atom_site_fract_y
_atom_site_fract_z
Si Si1 0.841334 0.268515 0.824343
Si Si2 0.317409 0.731041 0.482050
Si Si3 0.708105 0.000380 0.581353
Si Si4 0.788644 0.891071 0.046441
Si Si5 0.657301 0.505342 0.509437
Si Si6 0.048885 0.920604 0.826166
Si Si7 0.958389 0.624218 0.218702
O O1 0.771816 0.228639 0.631199
O O2 0.038909 0.108344 0.781547
O O3 0.694598 0.221516 0.775475
O O4 0.876853 0.488738 0.102114
O O5 0.523615 0.566658 0.404975
O O6 0.162871 0.668360 0.405652
O O7 0.370015 0.922930 0.779558
O O8 0.791777 0.831907 0.350945
O O9 0.849320 0.933325 0.677230
O O10 0.500000 0.000000 0.500000
O O11 0.838711 0.941191 0.015774
O O12 0.750245 0.677658 0.788863
O O13 0.500000 0.500000 0.500000
O O14 0.821929 0.307014 0.352795
O O15 0.000000 0.000000 0.000000
O O16 0.000000 0.500000 0.000000
#
# Coordination Sequence:
#
# PCOD8011895 Si02
#       7
#     2   2   2   2   2   2   2
#     4  10  22  39  66  97 132 164 209 274 326 376
#     4  11  21  39  68 104 128 165 215 268 331 380
#     4  11  24  45  64  94 130 170 219 266 320 383
#     4  11  22  41  67  95 132 170 213 270 325 379
#     4  12  24  43  66  97 134 169 217 268 320 388
#     4  11  26  46  64  92 133 179 216 262 324 387
#     4  10  21  39  65 100 130 163 210 264 329 380
#
# _framework density 21.744266
#
# number of rings (size 3 to 8) (size 9 to 14) (size 15 to 20)
#    0.000    1.143    4.286    2.571    2.000    4.571 
#    0.000    1.429    0.000    0.000    0.000    0.000 
#    0.000    0.000    0.000    0.000    0.000    0.000 
#
# Total GULP energy -173443.956701 kJ/mol
# GULP energy per Si atom -12388.854050 kJ/mol
# Density = 2.169477 g / cm^3
# Si number density = 21.744266 Si / 1000 Ang^3
#
#
#
# Elastic Constant Matrix: (Units=GPa)
#
#
# Indices 1 2 3 4 5 6 
#
# 1 114.1744 73.3499 69.2142 2.0872 12.8864 -4.1296
# 2 73.3499 126.1399 55.7728 5.7145 -2.1080 3.1616
# 3 69.2142 55.7728 141.3469 16.7153 9.5889 2.1807
# 4 2.0872 5.7145 16.7153 25.0618 8.6045 0.2843
# 5 12.8864 -2.1080 9.5889 8.6045 42.8218 0.0023
# 6 -4.1296 3.1616 2.1807 0.2843 0.0023 34.9012
#
#
#
# Elastic Compliance Matrix: (Units=1/GPa)
#
#
# Indices 1 2 3 4 5 6 
#
# 1 0.018738 -0.008642 -0.006185 0.006556 -0.005997 0.003333
# 2 -0.008642 0.013679 -0.001047 -0.003095 0.004130 -0.002171
# 3 -0.006185 -0.001047 0.011320 -0.007017 0.000685 -0.001287
# 4 0.006556 -0.003095 -0.007017 0.048247 -0.010249 0.001102
# 5 -0.005997 0.004130 0.000685 -0.010249 0.027267 -0.001045
# 6 0.003333 -0.002171 -0.001287 0.001102 -0.001045 0.029315
#
#
# Mechanical properties :
#
#
# Convention : Reuss Voigt Hill
#
# Bulk Modulus (GPa) = 83.40983 86.48167 84.94575
# Shear Modulus (GPa) = 27.12837 32.77858 29.95348
#
# Velocity S-wave (km/s) = 3.53598 3.88681 3.71554
# Velocity P-wave (km/s) = 7.42386 7.74607 7.58667
#
# Compressibility (1/GPa) = 0.01198899
#
# Stress axis : x y z
#
# Youngs Moduli (GPa) = 53.36891 73.10339 88.34087
#
# Poissons Ratio (x) = 0.63174 0.54643
# Poissons Ratio (y) = 0.46120 0.09246
# Poissons Ratio (z) = 0.33011 0.07651
#
# Static dielectric constant tensor:
#      x y z
#    x 3.840220 0.015730 0.401310 
#    y 0.015730 4.462000 0.117440 
#    z 0.401310 0.117440 4.236590 
# 
# 
# High freq. dielectric constant tensor:
#      x y z
#    x 1.826710 0.002150 0.023240 
#    y 0.002150 1.872150 0.004220 
#    z 0.023240 0.004220 1.861290 
# 
# From -- ./inp_files/523382.got.cif
#   From: 2010.06.25/outbox.cif.g09.slc.cpg/sg2_262_cif.got.tgz:523382.got - 2010.06.27 13:26:56.
