data_PCOD8011069
_publ_section_title
;
Structure prediction by ZEFSAII (Michael W. Deem and Ramdas Pophale) SiO2 
 PCOD8011069
Probable space group: P -1
;
_chemical_formula_sum "Si O2"
_cell_formula_units_Z 12
_cell_length_a 16.055765
_cell_length_b 5.212308
_cell_length_c 10.832760
_cell_angle_alpha 123.841911
_cell_angle_beta 40.328811
_cell_angle_gamma 123.809659
_cell_volume 472.409769
_symmetry_space_group_name_H-M "P -1"
_symmetry_group_IT_number 2
_symmetry_cell_setting 'triclinic'
loop_
_space_group_symop_operation_xyz
x,y,z
-x,-y,-z
loop_
_atom_site_type_symbol
_atom_site_label
_atom_site_fract_x
_atom_site_fract_y
_atom_site_fract_z
Si Si1 0.149134 0.771179 0.570013
Si Si2 0.422909 0.146488 0.023939
Si Si3 0.659093 0.885098 0.370629
Si Si4 0.139232 0.140156 0.313229
Si Si5 0.991646 0.686009 0.184259
Si Si6 0.632561 0.216832 0.261701
O O1 0.154457 0.524341 0.384887
O O2 0.049507 0.581139 0.735813
O O3 0.292139 0.884395 0.505720
O O4 0.108659 0.082878 0.649475
O O5 0.270918 0.114579 0.233165
O O6 0.500000 0.500000 0.000000
O O7 0.500000 0.000000 0.000000
O O8 0.414950 0.964733 0.857232
O O9 0.719755 0.573942 0.230602
O O10 0.500850 0.762290 0.508735
O O11 0.714057 0.055192 0.224234
O O12 0.000000 0.000000 0.500000
O O13 0.131096 0.937717 0.138954
O O14 0.000000 0.500000 0.000000
#
# Coordination Sequence:
#
# PCOD8011069 Si02
#       6
#     2   2   2   2   2   2
#     4  11  23  42  69  97 139 184 238 288 370 423
#     4  12  27  46  73 107 149 193 252 303 369 440
#     4  10  21  38  66  95 138 182 233 291 366 424
#     4  10  26  48  74 107 151 198 244 304 373 445
#     4  11  25  44  68 104 136 185 244 302 354 428
#     4  10  22  40  62 100 136 184 237 295 348 433
#
# _framework density 25.401672999999999
#
# number of rings (size 3 to 8) (size 9 to 14) (size 15 to 20)
#    0.000    1.333    0.000    4.000    4.667   10.667 
#    0.000    0.000    0.000    0.000    0.000    0.000 
#    0.000    0.000    0.000    0.000    0.000    0.000 
#
# Total GULP energy -148667.960085 kJ/mol
# GULP energy per Si atom -12388.996674 kJ/mol
# Density = 2.534386 g / cm^3
# Si number density = 25.401673 Si / 1000 Ang^3
#
#
#
# Elastic Constant Matrix: (Units=GPa)
#
#
# Indices 1 2 3 4 5 6 
#
# 1 154.4679 70.8552 26.2941 5.4835 -13.2337 4.4879
# 2 70.8552 160.8704 40.9056 30.8370 0.3124 3.8711
# 3 26.2941 40.9056 69.5341 13.5563 -6.4646 7.9780
# 4 5.4835 30.8370 13.5563 48.9954 18.5618 6.2946
# 5 -13.2337 0.3124 -6.4646 18.5618 42.5940 6.4309
# 6 4.4879 3.8711 7.9780 6.2946 6.4309 62.2590
#
#
#
# Elastic Compliance Matrix: (Units=1/GPa)
#
#
# Indices 1 2 3 4 5 6 
#
# 1 0.008488 -0.003647 -0.000952 0.000833 0.002244 -0.000579
# 2 -0.003647 0.009600 -0.003342 -0.004911 0.000346 0.000555
# 3 -0.000952 -0.003342 0.018235 -0.004349 0.004710 -0.002107
# 4 0.000833 -0.004911 -0.004349 0.029715 -0.013188 -0.000840
# 5 0.002244 0.000346 0.004710 -0.013188 0.031036 -0.002659
# 6 -0.000579 0.000555 -0.002107 -0.000840 -0.002659 0.016699
#
#
# Mechanical properties :
#
#
# Convention : Reuss Voigt Hill
#
# Bulk Modulus (GPa) = 48.92082 73.44247 61.18165
# Shear Modulus (GPa) = 36.63877 47.22419 41.93148
#
# Velocity S-wave (km/s) = 3.80198 4.31640 4.06733
# Velocity P-wave (km/s) = 6.21081 7.33601 6.79673
#
# Compressibility (1/GPa) = 0.02044120
#
# Stress axis : x y z
#
# Youngs Moduli (GPa) = 117.81224 104.17082 54.83948
#
# Poissons Ratio (x) = 0.37987 0.05220
# Poissons Ratio (y) = 0.42961 0.18329
# Poissons Ratio (z) = 0.11213 0.34818
#
# Static dielectric constant tensor:
#      x y z
#    x 5.229400 0.181410 0.095910 
#    y 0.181410 5.394680 0.196940 
#    z 0.095910 0.196940 4.619330 
# 
# 
# High freq. dielectric constant tensor:
#      x y z
#    x 2.022860 0.013130 -0.002510 
#    y 0.013130 2.036550 0.014470 
#    z -0.002510 0.014470 1.998200 
# 
# From -- ./inp_files/273772.got.cif
#   From: 2010.06.25/outbox.cif.g09.slc.cpg/sg2_137_cif.got.tgz:273772.got - 2010.06.27 13:26:56.
