data_PCOD8011241
_publ_section_title
;
Structure prediction by ZEFSAII (Michael W. Deem and Ramdas Pophale) SiO2 
 PCOD8011241
Probable space group: P -1
;
_chemical_formula_sum "Si O2"
_cell_formula_units_Z 16
_cell_length_a 13.883884
_cell_length_b 17.063941
_cell_length_c 10.871781
_cell_angle_alpha 113.564384
_cell_angle_beta 102.567162
_cell_angle_gamma 22.878247
_cell_volume 831.685377
_symmetry_space_group_name_H-M "P -1"
_symmetry_group_IT_number 2
_symmetry_cell_setting 'triclinic'
loop_
_space_group_symop_operation_xyz
x,y,z
-x,-y,-z
loop_
_atom_site_type_symbol
_atom_site_label
_atom_site_fract_x
_atom_site_fract_y
_atom_site_fract_z
Si Si1 0.092195 0.757985 0.047112
Si Si2 0.104153 0.106279 0.180021
Si Si3 0.100635 0.999551 0.453482
Si Si4 0.837552 0.366309 0.502741
Si Si5 0.383987 0.859838 0.654862
Si Si6 0.685019 0.759603 0.542129
Si Si7 0.294148 0.781566 0.111675
Si Si8 0.389775 0.988147 0.364716
O O1 0.126681 0.830324 0.073421
O O2 0.385711 0.485149 0.997117
O O3 0.886542 0.906767 0.194822
O O4 0.971923 0.805306 0.924236
O O5 0.170675 0.952097 0.094205
O O6 0.369091 0.941804 0.210269
O O7 0.841676 0.337793 0.340030
O O8 0.849070 0.267883 0.520797
O O9 0.318995 0.874519 0.513563
O O10 0.258708 0.841555 0.278479
O O11 0.000000 0.000000 0.500000
O O12 0.576500 0.634077 0.635173
O O13 0.108574 0.204925 0.501855
O O14 0.534225 0.827550 0.649495
O O15 0.574626 0.945383 0.636047
O O16 0.000000 0.500000 0.500000
O O17 0.631288 0.770147 0.392657
#
# Coordination Sequence:
#
# PCOD8011241 Si02
#       8
#     2   2   2   2   2   2   2   2
#     4  11  23  36  56  83 121 156 196 232 289 351
#     4   9  19  40  57  79 114 158 194 232 286 351
#     4  11  21  39  59  87 121 150 194 246 287 337
#     4   9  20  37  60  83 114 153 192 236 289 339
#     4  12  22  36  58  94 117 149 195 245 293 338
#     4  11  19  36  63  90 115 143 191 252 294 339
#     4  10  21  39  57  81 114 165 196 231 287 345
#     4   9  20  35  61  87 109 150 194 237 297 344
#
# _framework density 19.238043999999999
#
# number of rings (size 3 to 8) (size 9 to 14) (size 15 to 20)
#    0.750    1.000    3.750    1.125    0.000    2.500 
#    2.250    0.625    0.000    1.500    0.000    0.000 
#    0.000    0.000    0.000    0.000    0.000    0.000 
#
# Total GULP energy -198252.367533 kJ/mol
# GULP energy per Si atom -12390.772971 kJ/mol
# Density = 1.919426 g / cm^3
# Si number density = 19.238044 Si / 1000 Ang^3
#
#
#
# Elastic Constant Matrix: (Units=GPa)
#
#
# Indices 1 2 3 4 5 6 
#
# 1 108.4964 32.4647 39.9588 13.1730 -5.1865 9.3221
# 2 32.4647 86.7207 36.3662 -6.5306 -13.0305 -5.7260
# 3 39.9588 36.3662 57.2506 4.3127 -8.8889 -6.4184
# 4 13.1730 -6.5306 4.3127 32.0372 -8.3195 8.2437
# 5 -5.1865 -13.0305 -8.8889 -8.3195 19.0588 1.4380
# 6 9.3221 -5.7260 -6.4184 8.2437 1.4380 32.5180
#
#
#
# Elastic Compliance Matrix: (Units=1/GPa)
#
#
# Indices 1 2 3 4 5 6 
#
# 1 0.014183 -0.002916 -0.008849 -0.005047 -0.004097 -0.004865
# 2 -0.002916 0.018828 -0.008814 0.009522 0.012166 -0.000540
# 3 -0.008849 -0.008814 0.030979 -0.003287 0.003995 0.007756
# 4 -0.005047 0.009522 -0.003287 0.044355 0.023706 -0.009818
# 5 -0.004097 0.012166 0.003995 0.023706 0.072268 -0.005100
# 6 -0.004865 -0.000540 0.007756 -0.009818 -0.005100 0.036297
#
#
# Mechanical properties :
#
#
# Convention : Reuss Voigt Hill
#
# Bulk Modulus (GPa) = 43.79384 52.22744 48.01064
# Shear Modulus (GPa) = 18.81980 26.30134 22.56057
#
# Velocity S-wave (km/s) = 3.13111 3.70151 3.42819
# Velocity P-wave (km/s) = 5.99044 6.74353 6.37811
#
# Compressibility (1/GPa) = 0.02283426
#
# Stress axis : x y z
#
# Youngs Moduli (GPa) = 70.50567 53.11170 32.28011
#
# Poissons Ratio (x) = 0.15487 0.28563
# Poissons Ratio (y) = 0.20559 0.28450
# Poissons Ratio (z) = 0.62387 0.46811
#
# Static dielectric constant tensor:
#      x y z
#    x 3.843390 0.215330 0.199630 
#    y 0.215330 3.607730 -0.090500 
#    z 0.199630 -0.090500 3.194820 
# 
# 
# High freq. dielectric constant tensor:
#      x y z
#    x 1.747720 0.005710 0.015950 
#    y 0.005710 1.755570 -0.009220 
#    z 0.015950 -0.009220 1.714950 
# 
# From -- ./inp_files/456753.got.cif
#   From: 2010.06.25/outbox.cif.g09.slc.cpg/sg2_229_cif.got.tgz:456753.got - 2010.06.27 13:26:56.
