data_PCOD8011449
_publ_section_title
;
Structure prediction by ZEFSAII (Michael W. Deem and Ramdas Pophale) SiO2 
 PCOD8011449
Probable space group: P -1
;
_chemical_formula_sum "Si O2"
_cell_formula_units_Z 16
_cell_length_a 11.804129
_cell_length_b 15.869605
_cell_length_c 10.320198
_cell_angle_alpha 37.819576
_cell_angle_beta 129.925526
_cell_angle_gamma 140.564258
_cell_volume 750.500535
_symmetry_space_group_name_H-M "P -1"
_symmetry_group_IT_number 2
_symmetry_cell_setting 'triclinic'
loop_
_space_group_symop_operation_xyz
x,y,z
-x,-y,-z
loop_
_atom_site_type_symbol
_atom_site_label
_atom_site_fract_x
_atom_site_fract_y
_atom_site_fract_z
Si Si1 0.645119 0.916420 0.266113
Si Si2 0.380994 0.627932 0.064311
Si Si3 0.096623 0.564121 0.727182
Si Si4 0.742231 0.551718 0.182937
Si Si5 0.275082 0.736747 0.095759
Si Si6 0.355886 0.341140 0.258010
Si Si7 0.012974 0.208744 0.716569
Si Si8 0.767773 0.916625 0.066728
O O1 0.428157 0.791866 0.250079
O O2 0.715626 0.838134 0.513503
O O3 0.731265 0.941446 0.157030
O O4 0.699866 0.094691 0.145325
O O5 0.296423 0.628947 0.136123
O O6 0.374176 0.459477 0.245959
O O7 0.587193 0.781227 0.023530
O O8 0.265319 0.638256 0.855477
O O9 0.158684 0.540910 0.660370
O O10 0.924925 0.381746 0.856738
O O11 0.047382 0.697523 0.530474
O O12 0.537708 0.408978 0.232091
O O13 0.817426 0.662251 0.230114
O O14 0.774330 0.666790 0.939704
O O15 0.081649 0.124075 0.775390
O O16 0.847846 0.084184 0.839663
#
# Coordination Sequence:
#
# PCOD8011449 Si02
#       8
#     2   2   2   2   2   2   2   2
#     4  10  22  41  64  92 123 170 204 254 313 363
#     4  10  22  41  62  91 127 160 207 255 305 373
#     4  11  23  38  64  92 124 167 202 258 313 364
#     4  10  21  39  61  92 124 158 211 252 299 375
#     4  10  22  39  62  95 129 156 212 257 303 372
#     4  10  21  39  66  91 122 167 205 251 308 366
#     4  11  22  40  62  92 125 165 205 259 309 363
#     4  10  23  40  62  89 129 159 211 257 300 376
#
# _framework density 21.319103999999999
#
# number of rings (size 3 to 8) (size 9 to 14) (size 15 to 20)
#    0.000    1.750    1.250    2.250    1.750    4.500 
#    4.500    3.125    0.000    0.000    0.000    0.000 
#    0.000    0.000    0.000    0.000    0.000    0.000 
#
# Total GULP energy -198365.834225 kJ/mol
# GULP energy per Si atom -12397.864639 kJ/mol
# Density = 2.127058 g / cm^3
# Si number density = 21.319104 Si / 1000 Ang^3
#
#
#
# Elastic Constant Matrix: (Units=GPa)
#
#
# Indices 1 2 3 4 5 6 
#
# 1 101.1232 13.3120 19.6990 -1.4769 9.4046 8.5921
# 2 13.3120 25.4806 17.3852 3.0820 3.9909 12.7531
# 3 19.6990 17.3852 113.5899 -0.9445 12.1375 6.1162
# 4 -1.4769 3.0820 -0.9445 20.7614 -0.6557 0.3711
# 5 9.4046 3.9909 12.1375 -0.6557 25.9193 -3.8673
# 6 8.5921 12.7531 6.1162 0.3711 -3.8673 28.7616
#
#
#
# Elastic Compliance Matrix: (Units=1/GPa)
#
#
# Indices 1 2 3 4 5 6 
#
# 1 0.011048 -0.003908 -0.000862 0.001257 -0.003246 -0.001837
# 2 -0.003908 0.061043 -0.006396 -0.009458 -0.009050 -0.025634
# 3 -0.000862 -0.006396 0.010285 0.001240 -0.003423 0.000430
# 4 0.001257 -0.009458 0.001240 0.049727 0.002155 0.003203
# 5 -0.003246 -0.009050 -0.003423 0.002155 0.044551 0.011673
# 6 -0.001837 -0.025634 0.000430 0.003203 0.011673 0.048120
#
#
# Mechanical properties :
#
#
# Convention : Reuss Voigt Hill
#
# Bulk Modulus (GPa) = 16.65473 37.88734 27.27104
# Shear Modulus (GPa) = 18.71811 27.74161 23.22986
#
# Velocity S-wave (km/s) = 2.96632 3.61121 3.30453
# Velocity P-wave (km/s) = 4.42279 5.93278 5.23254
#
# Compressibility (1/GPa) = 0.06004299
#
# Stress axis : x y z
#
# Youngs Moduli (GPa) = 90.51808 16.38191 97.22973
#
# Poissons Ratio (x) = 0.06402 0.08377
# Poissons Ratio (y) = 0.35377 0.62192
# Poissons Ratio (z) = 0.07799 0.10479
#
# Static dielectric constant tensor:
#      x y z
#    x 4.038960 -0.002620 0.234730 
#    y -0.002620 3.822640 -0.043290 
#    z 0.234730 -0.043290 3.735660 
# 
# 
# High freq. dielectric constant tensor:
#      x y z
#    x 1.854500 0.006490 0.016120 
#    y 0.006490 1.827120 -0.002720 
#    z 0.016120 -0.002720 1.822280 
# 
# From -- ./inp_files/436434.got.cif
#   From: 2010.06.25/outbox.cif.g09.slc.cpg/sg2_219_cif.got.tgz:436434.got - 2010.06.27 13:26:56.
