data_PCOD8011657
_publ_section_title
;
Structure prediction by ZEFSAII (Michael W. Deem and Ramdas Pophale) SiO2 
 PCOD8011657
Probable space group: P -1
;
_chemical_formula_sum "Si O2"
_cell_formula_units_Z 14
_cell_length_a 11.418282
_cell_length_b 12.486473
_cell_length_c 8.672219
_cell_angle_alpha 79.475243
_cell_angle_beta 75.285548
_cell_angle_gamma 31.358210
_cell_volume 620.880314
_symmetry_space_group_name_H-M "P -1"
_symmetry_group_IT_number 2
_symmetry_cell_setting 'triclinic'
loop_
_space_group_symop_operation_xyz
x,y,z
-x,-y,-z
loop_
_atom_site_type_symbol
_atom_site_label
_atom_site_fract_x
_atom_site_fract_y
_atom_site_fract_z
Si Si1 0.972532 0.697416 0.237683
Si Si2 0.879773 0.790800 0.584822
Si Si3 0.145740 0.976413 0.867194
Si Si4 0.658372 0.587289 0.301707
Si Si5 0.591623 0.708003 0.968836
Si Si6 0.438220 0.104539 0.815302
Si Si7 0.219197 0.888086 0.528963
O O1 0.931603 0.692718 0.430257
O O2 0.752892 0.840175 0.166458
O O3 0.192548 0.459958 0.173559
O O4 0.010747 0.798493 0.181351
O O5 0.101654 0.637645 0.656200
O O6 0.684847 0.875902 0.726469
O O7 0.785680 0.980646 0.530397
O O8 0.364158 0.844299 0.926212
O O9 0.230873 0.852733 0.715365
O O10 0.000000 0.000000 0.000000
O O11 0.639121 0.731308 0.303423
O O12 0.456838 0.669104 0.426630
O O13 0.642980 0.583286 0.122637
O O14 0.554288 0.860725 0.013464
O O15 0.000000 0.000000 0.500000
#
# Coordination Sequence:
#
# PCOD8011657 Si02
#       7
#     2   2   2   2   2   2   2
#     4  11  23  40  64  94 124 162 209 253 309 363
#     4  10  21  39  63  91 123 163 204 252 308 364
#     4  11  25  41  63  90 125 163 206 261 306 359
#     4   9  21  37  60  90 122 160 201 245 306 367
#     4  10  23  39  62  92 129 160 202 250 310 367
#     4   9  22  39  63  94 126 164 201 250 309 372
#     4  10  21  40  63  87 122 161 210 254 305 363
#
# _framework density 22.548631
#
# number of rings (size 3 to 8) (size 9 to 14) (size 15 to 20)
#    0.857    1.143    0.000    2.571    2.000    3.429 
#    0.000    0.000    0.000    0.000    0.000    0.000 
#    0.000    0.000    0.000    0.000    0.000    0.000 
#
# Total GULP energy -173564.111531 kJ/mol
# GULP energy per Si atom -12397.436538 kJ/mol
# Density = 2.249731 g / cm^3
# Si number density = 22.548631 Si / 1000 Ang^3
#
#
#
# Elastic Constant Matrix: (Units=GPa)
#
#
# Indices 1 2 3 4 5 6 
#
# 1 85.9963 20.0474 39.4499 12.7032 6.0655 -25.5038
# 2 20.0474 91.8792 48.0937 20.1290 6.6241 -30.2627
# 3 39.4499 48.0937 149.4099 22.8977 21.1856 -10.1968
# 4 12.7032 20.1290 22.8977 47.1772 -12.7798 1.6286
# 5 6.0655 6.6241 21.1856 -12.7798 30.6949 -2.9850
# 6 -25.5038 -30.2627 -10.1968 1.6286 -2.9850 34.8554
#
#
#
# Elastic Compliance Matrix: (Units=1/GPa)
#
#
# Indices 1 2 3 4 5 6 
#
# 1 0.018493 0.005399 -0.003936 -0.006856 -0.003294 0.017106
# 2 0.005399 0.022025 -0.004705 -0.010642 -0.004886 0.021775
# 3 -0.003936 -0.004705 0.010656 -0.004031 -0.007659 -0.004315
# 4 -0.006856 -0.010642 -0.004031 0.035401 0.019674 -0.015405
# 5 -0.003294 -0.004886 -0.007659 0.019674 0.047201 -0.005770
# 6 0.017106 0.021775 -0.004315 -0.015405 -0.005770 0.059076
#
#
# Mechanical properties :
#
#
# Convention : Reuss Voigt Hill
#
# Bulk Modulus (GPa) = 22.37639 60.27416 41.32527
# Shear Modulus (GPa) = 23.33909 37.19179 30.26544
#
# Velocity S-wave (km/s) = 3.22072 4.06569 3.66762
# Velocity P-wave (km/s) = 4.87605 6.98774 6.02513
#
# Compressibility (1/GPa) = 0.04468997
#
# Stress axis : x y z
#
# Youngs Moduli (GPa) = 54.07339 45.40317 93.84421
#
# Poissons Ratio (x) = -0.24511 0.36933
# Poissons Ratio (y) = -0.29192 0.44155
# Poissons Ratio (z) = 0.21281 0.21363
#
# Static dielectric constant tensor:
#      x y z
#    x 4.035920 -0.021830 -0.078740 
#    y -0.021830 3.908850 0.147100 
#    z -0.078740 0.147100 4.474830 
# 
# 
# High freq. dielectric constant tensor:
#      x y z
#    x 1.874050 -0.009000 -0.003470 
#    y -0.009000 1.888350 -0.001760 
#    z -0.003470 -0.001760 1.906200 
# 
# From -- ./inp_files/273095.got.cif
#   From: 2010.06.25/outbox.cif.g09.slc.cpg/sg2_137_cif.got.tgz:273095.got - 2010.06.27 13:26:56.
