data_PCOD8011702
_publ_section_title
;
Structure prediction by ZEFSAII (Michael W. Deem and Ramdas Pophale) SiO2 
 PCOD8011702
Probable space group: P -1
;
_chemical_formula_sum "Si O2"
_cell_formula_units_Z 14
_cell_length_a 11.390700
_cell_length_b 7.312128
_cell_length_c 11.284806
_cell_angle_alpha 142.002856
_cell_angle_beta 97.484226
_cell_angle_gamma 88.097538
_cell_volume 569.977216
_symmetry_space_group_name_H-M "P -1"
_symmetry_group_IT_number 2
_symmetry_cell_setting 'triclinic'
loop_
_space_group_symop_operation_xyz
x,y,z
-x,-y,-z
loop_
_atom_site_type_symbol
_atom_site_label
_atom_site_fract_x
_atom_site_fract_y
_atom_site_fract_z
Si Si1 0.901366 0.614250 0.392655
Si Si2 0.023052 0.769769 0.986620
Si Si3 0.530957 0.781060 0.790841
Si Si4 0.879047 0.069037 0.281060
Si Si5 0.492950 0.117808 0.418238
Si Si6 0.705817 0.780086 0.299356
Si Si7 0.716213 0.136508 0.869468
O O1 0.851082 0.321345 0.312012
O O2 0.787201 0.780533 0.428111
O O3 0.999051 0.822879 0.580996
O O4 0.961198 0.539276 0.234980
O O5 0.143333 0.874599 0.131268
O O6 0.911839 0.766776 0.062191
O O7 0.000000 0.000000 0.000000
O O8 0.500815 0.436652 0.650048
O O9 0.458053 0.831174 0.684905
O O10 0.671019 0.877207 0.827842
O O11 0.500000 0.000000 0.000000
O O12 0.769884 0.997434 0.318023
O O13 0.417247 0.088773 0.610052
O O14 0.357576 0.945560 0.304494
O O15 0.679297 0.450433 0.073526
#
# Coordination Sequence:
#
# PCOD8011702 Si02
#       7
#     2   2   2   2   2   2   2
#     4   9  21  39  58  93 130 170 218 266 310 384
#     4   9  19  37  60  88 127 165 214 262 307 377
#     4   9  20  41  65  91 121 170 221 259 320 396
#     4  10  21  39  63  93 126 181 213 257 329 376
#     4   9  21  40  62  91 127 170 207 267 332 372
#     4  11  21  39  69  94 136 168 212 272 323 386
#     4   9  20  39  60  90 131 168 205 272 320 371
#
# _framework density 24.562384999999999
#
# number of rings (size 3 to 8) (size 9 to 14) (size 15 to 20)
#    0.857    1.714    0.000    0.857    0.000    9.143 
#    5.143    3.571    0.000    0.000    0.000    0.000 
#    0.000    0.000    0.000    0.000    0.000    0.000 
#
# Total GULP energy -173436.929315 kJ/mol
# GULP energy per Si atom -12388.352094 kJ/mol
# Density = 2.450648 g / cm^3
# Si number density = 24.562385 Si / 1000 Ang^3
#
#
#
# Elastic Constant Matrix: (Units=GPa)
#
#
# Indices 1 2 3 4 5 6 
#
# 1 100.5069 23.5756 22.7988 -1.4160 -8.9633 -38.0185
# 2 23.5756 72.2837 23.1038 -1.7279 15.2224 -14.6908
# 3 22.7988 23.1038 98.4337 7.1915 -3.8841 -21.5669
# 4 -1.4160 -1.7279 7.1915 33.3271 -1.3336 2.5399
# 5 -8.9633 15.2224 -3.8841 -1.3336 19.1956 -2.6845
# 6 -38.0185 -14.6908 -21.5669 2.5399 -2.6845 29.5185
#
#
#
# Elastic Compliance Matrix: (Units=1/GPa)
#
#
# Indices 1 2 3 4 5 6 
#
# 1 0.026650 -0.008137 0.004804 -0.002095 0.024788 0.036219
# 2 -0.008137 0.021976 -0.005575 0.001519 -0.023067 -0.005844
# 3 0.004804 -0.005575 0.014458 -0.003916 0.011465 0.015356
# 4 -0.002095 0.001519 -0.003916 0.031350 -0.001870 -0.007671
# 5 0.024788 -0.023067 0.011465 -0.001870 0.089342 0.037109
# 6 0.036219 -0.005844 0.015356 -0.007671 0.037109 0.092871
#
#
# Mechanical properties :
#
#
# Convention : Reuss Voigt Hill
#
# Bulk Modulus (GPa) = 22.09046 45.57562 33.83304
# Shear Modulus (GPa) = 16.15233 29.85801 23.00517
#
# Velocity S-wave (km/s) = 2.56716 3.49033 3.06371
# Velocity P-wave (km/s) = 4.21903 5.90241 5.13024
#
# Compressibility (1/GPa) = 0.04526842
#
# Stress axis : x y z
#
# Youngs Moduli (GPa) = 37.52344 45.50333 69.16593
#
# Poissons Ratio (x) = 0.37025 -0.33227
# Poissons Ratio (y) = 0.30532 0.38562
# Poissons Ratio (z) = -0.18026 0.25369
#
# Static dielectric constant tensor:
#      x y z
#    x 4.388570 -0.017270 -0.089150 
#    y -0.017270 4.429590 -0.171930 
#    z -0.089150 -0.171930 4.565540 
# 
# 
# High freq. dielectric constant tensor:
#      x y z
#    x 1.964550 -0.005320 -0.002830 
#    y -0.005320 1.973070 -0.012760 
#    z -0.002830 -0.012760 1.982690 
# 
# From -- ./inp_files/285383.got.cif
#   From: 2010.06.25/outbox.cif.g09.slc.cpg/sg2_143_cif.got.tgz:285383.got - 2010.06.27 13:26:56.
