data_PCOD8011869
_publ_section_title
;
Structure prediction by ZEFSAII (Michael W. Deem and Ramdas Pophale) SiO2 
 PCOD8011869
Probable space group: P -1
;
_chemical_formula_sum "Si O2"
_cell_formula_units_Z 16
_cell_length_a 15.060121
_cell_length_b 15.248109
_cell_length_c 12.098785
_cell_angle_alpha 61.140088
_cell_angle_beta 41.522028
_cell_angle_gamma 28.792878
_cell_volume 744.746467
_symmetry_space_group_name_H-M "P -1"
_symmetry_group_IT_number 2
_symmetry_cell_setting 'triclinic'
loop_
_space_group_symop_operation_xyz
x,y,z
-x,-y,-z
loop_
_atom_site_type_symbol
_atom_site_label
_atom_site_fract_x
_atom_site_fract_y
_atom_site_fract_z
Si Si1 0.409353 0.530736 0.289578
Si Si2 0.495103 0.879720 0.640864
Si Si3 0.015661 0.383912 0.999581
Si Si4 0.523978 0.319843 0.102733
Si Si5 0.950085 0.947939 0.354966
Si Si6 0.857687 0.391247 0.930385
Si Si7 0.422744 0.442893 0.561120
Si Si8 0.420772 0.983560 0.419386
O O1 0.428093 0.465258 0.192873
O O2 0.364056 0.482903 0.459950
O O3 0.149654 0.785080 0.372415
O O4 0.701215 0.397785 0.123447
O O5 0.694996 0.828376 0.551052
O O6 0.182131 0.139921 0.759798
O O7 0.484091 0.782628 0.771057
O O8 0.596341 0.807446 0.462225
O O9 0.852688 0.482405 0.972604
O O10 0.359145 0.139067 0.811658
O O11 0.876528 0.394531 0.204499
O O12 0.000000 0.500000 0.000000
O O13 0.303060 0.465747 0.117552
O O14 0.853466 0.125258 0.875217
O O15 0.685177 0.192146 0.494090
O O16 0.843672 0.911243 0.431403
O O17 0.500000 0.500000 0.500000
#
# Coordination Sequence:
#
# PCOD8011869 Si02
#       8
#     2   2   2   2   2   2   2   2
#     4  11  23  41  68 100 129 162 214 273 320 378
#     4  10  21  39  64  95 127 169 211 260 324 378
#     4  11  23  44  65  89 131 174 214 260 316 379
#     4  11  23  39  70 103 124 162 218 268 325 377
#     4  11  23  42  65  95 130 166 210 270 323 374
#     4  10  21  42  66  95 133 161 209 274 319 372
#     4  12  25  44  68  94 125 175 223 259 311 381
#     4  10  21  40  62  89 133 171 206 263 320 378
#
# _framework density 21.483820999999999
#
# number of rings (size 3 to 8) (size 9 to 14) (size 15 to 20)
#    0.000    1.250    2.500    4.500    1.750    2.000 
#    2.250    6.875    0.000    0.000    0.000    0.000 
#    0.000    0.000    0.000    0.000    0.000    0.000 
#
# Total GULP energy -198276.067729 kJ/mol
# GULP energy per Si atom -12392.254233 kJ/mol
# Density = 2.143492 g / cm^3
# Si number density = 21.483821 Si / 1000 Ang^3
#
#
#
# Elastic Constant Matrix: (Units=GPa)
#
#
# Indices 1 2 3 4 5 6 
#
# 1 120.2532 15.8533 31.2982 -3.4728 -7.6176 8.2413
# 2 15.8533 79.6481 44.2391 -5.9510 -5.4391 4.4494
# 3 31.2982 44.2391 124.8166 -24.0474 -3.6128 0.2609
# 4 -3.4728 -5.9510 -24.0474 26.9259 9.5327 0.7595
# 5 -7.6176 -5.4391 -3.6128 9.5327 36.7325 -11.7348
# 6 8.2413 4.4494 0.2609 0.7595 -11.7348 25.1680
#
#
#
# Elastic Compliance Matrix: (Units=1/GPa)
#
#
# Indices 1 2 3 4 5 6 
#
# 1 0.009186 -0.000389 -0.002398 -0.001421 0.001249 -0.002289
# 2 -0.000389 0.015994 -0.005987 -0.002443 0.001778 -0.001735
# 3 -0.002398 -0.005987 0.012724 0.010763 -0.002917 0.000027
# 4 -0.001421 -0.002443 0.010763 0.051782 -0.015609 -0.008055
# 5 0.001249 0.001778 -0.002917 -0.015609 0.036942 0.017002
# 6 -0.002289 -0.001735 0.000027 -0.008055 0.017002 0.048960
#
#
# Mechanical properties :
#
#
# Convention : Reuss Voigt Hill
#
# Bulk Modulus (GPa) = 49.12604 56.38879 52.75741
# Shear Modulus (GPa) = 25.00981 33.32043 29.16512
#
# Velocity S-wave (km/s) = 3.41563 3.94249 3.68848
# Velocity P-wave (km/s) = 6.20254 6.85772 6.53834
#
# Compressibility (1/GPa) = 0.02035580
#
# Stress axis : x y z
#
# Youngs Moduli (GPa) = 108.85789 62.52451 78.59049
#
# Poissons Ratio (x) = 0.02434 0.18848
# Poissons Ratio (y) = 0.04238 0.47049
# Poissons Ratio (z) = 0.26107 0.37431
#
# Static dielectric constant tensor:
#      x y z
#    x 4.101580 0.053530 -0.111440 
#    y 0.053530 3.593080 -0.149840 
#    z -0.111440 -0.149840 3.831000 
# 
# 
# High freq. dielectric constant tensor:
#      x y z
#    x 1.852750 0.008570 -0.009720 
#    y 0.008570 1.810940 -0.008980 
#    z -0.009720 -0.008980 1.867410 
# 
# From -- ./inp_files/455627.got.cif
#   From: 2010.06.25/outbox.cif.g09.slc.cpg/sg2_228_cif.got.tgz:455627.got - 2010.06.27 13:26:56.
