data_PCOD8011714
_publ_section_title
;
Structure prediction by ZEFSAII (Michael W. Deem and Ramdas Pophale) SiO2 
 PCOD8011714
Probable space group: P -1
;
_chemical_formula_sum "Si O2"
_cell_formula_units_Z 12
_cell_length_a 9.349199
_cell_length_b 8.507283
_cell_length_c 11.867800
_cell_angle_alpha 138.601292
_cell_angle_beta 115.960634
_cell_angle_gamma 60.449037
_cell_volume 539.227361
_symmetry_space_group_name_H-M "P -1"
_symmetry_group_IT_number 2
_symmetry_cell_setting 'triclinic'
loop_
_space_group_symop_operation_xyz
x,y,z
-x,-y,-z
loop_
_atom_site_type_symbol
_atom_site_label
_atom_site_fract_x
_atom_site_fract_y
_atom_site_fract_z
Si Si1 0.928804 0.696864 0.395352
Si Si2 0.315898 0.988291 0.943112
Si Si3 0.031918 0.160011 0.764353
Si Si4 0.877724 0.847189 0.829185
Si Si5 0.727569 0.281688 0.870382
Si Si6 0.634627 0.526228 0.209519
O O1 0.032699 0.426825 0.328098
O O2 0.950902 0.707024 0.273896
O O3 0.737699 0.723072 0.378054
O O4 0.988544 0.903543 0.590625
O O5 0.312097 0.707997 0.815021
O O6 0.207344 0.095156 0.853762
O O7 0.500000 0.000000 0.000000
O O8 0.248048 0.164388 0.120523
O O9 0.880178 0.335619 0.880559
O O10 0.780085 0.991819 0.765779
O O11 0.000000 0.000000 0.000000
O O12 0.560351 0.343546 0.772152
O O13 0.689508 0.446444 0.057608
#
# Coordination Sequence:
#
# PCOD8011714 Si02
#       6
#     2   2   2   2   2   2
#     4  11  24  42  62  89 132 163 208 247 309 376
#     4  11  24  39  64  96 120 159 212 256 308 360
#     4  11  25  41  61  93 127 171 198 253 312 366
#     4  11  20  41  63  94 116 162 212 254 308 360
#     4  10  21  39  63  94 120 158 210 251 311 355
#     4  10  22  40  63  95 121 161 206 260 303 364
#
# _framework density 22.254062999999999
#
# number of rings (size 3 to 8) (size 9 to 14) (size 15 to 20)
#    0.000    1.333    5.000    0.000    9.333    4.667 
#    0.000    0.833    0.000    0.000    0.000    0.000 
#    0.000    0.000    0.000    0.000    0.000    0.000 
#
# Total GULP energy -148786.397157 kJ/mol
# GULP energy per Si atom -12398.866430 kJ/mol
# Density = 2.220341 g / cm^3
# Si number density = 22.254063 Si / 1000 Ang^3
#
#
#
# Elastic Constant Matrix: (Units=GPa)
#
#
# Indices 1 2 3 4 5 6 
#
# 1 139.4056 7.9239 15.1408 -11.1891 13.7928 -23.8225
# 2 7.9239 87.9274 4.6742 -1.3546 1.3381 -26.0193
# 3 15.1408 4.6742 26.8328 -1.3091 8.4839 -8.0847
# 4 -11.1891 -1.3546 -1.3091 28.6006 5.0202 3.8032
# 5 13.7928 1.3381 8.4839 5.0202 30.2710 -4.0990
# 6 -23.8225 -26.0193 -8.0847 3.8032 -4.0990 40.8736
#
#
#
# Elastic Compliance Matrix: (Units=1/GPa)
#
#
# Indices 1 2 3 4 5 6 
#
# 1 0.008756 0.000764 -0.002540 0.003326 -0.003260 0.004451
# 2 0.000764 0.014102 -0.000189 -0.000375 0.000425 0.009462
# 3 -0.002540 -0.000189 0.043983 0.002118 -0.010724 0.005827
# 4 0.003326 -0.000375 0.002118 0.038186 -0.008738 -0.002311
# 5 -0.003260 0.000425 -0.010724 -0.008738 0.039089 0.000982
# 6 0.004451 0.009462 0.005827 -0.002311 0.000982 0.034549
#
#
# Mechanical properties :
#
#
# Convention : Reuss Voigt Hill
#
# Bulk Modulus (GPa) = 15.89538 34.40483 25.15010
# Shear Modulus (GPa) = 24.56207 35.04415 29.80311
#
# Velocity S-wave (km/s) = 3.32582 3.97259 3.66351
# Velocity P-wave (km/s) = 4.68042 6.04447 5.40564
#
# Compressibility (1/GPa) = 0.06291135
#
# Stress axis : x y z
#
# Youngs Moduli (GPa) = 114.20987 70.91159 22.73588
#
# Poissons Ratio (x) = -0.05416 0.05774
# Poissons Ratio (y) = -0.08724 0.00430
# Poissons Ratio (z) = 0.29004 0.01342
#
# Static dielectric constant tensor:
#      x y z
#    x 4.449930 -0.080130 -0.072360 
#    y -0.080130 4.305740 -0.027870 
#    z -0.072360 -0.027870 3.713520 
# 
# 
# High freq. dielectric constant tensor:
#      x y z
#    x 1.889780 0.001190 0.003260 
#    y 0.001190 1.888940 0.001820 
#    z 0.003260 0.001820 1.845920 
# 
# From -- ./inp_files/144852.got.cif
#   From: 2010.06.25/outbox.cif.g09.slc.cpg/sg2_73_cif.got.tgz:144852.got - 2010.06.27 13:26:56.
