data_PCOD8011394
_publ_section_title
;
Structure prediction by ZEFSAII (Michael W. Deem and Ramdas Pophale) SiO2 
 PCOD8011394
Probable space group: P -1
;
_chemical_formula_sum "Si O2"
_cell_formula_units_Z 16
_cell_length_a 22.907109
_cell_length_b 15.975149
_cell_length_c 6.369712
_cell_angle_alpha 97.758017
_cell_angle_beta 108.401959
_cell_angle_gamma 18.972629
_cell_volume 609.719248
_symmetry_space_group_name_H-M "P -1"
_symmetry_group_IT_number 2
_symmetry_cell_setting 'triclinic'
loop_
_space_group_symop_operation_xyz
x,y,z
-x,-y,-z
loop_
_atom_site_type_symbol
_atom_site_label
_atom_site_fract_x
_atom_site_fract_y
_atom_site_fract_z
Si Si1 0.194325 0.402231 0.851199
Si Si2 0.784199 0.202924 0.385387
Si Si3 0.304530 0.780793 0.106276
Si Si4 0.935200 0.528019 0.632379
Si Si5 0.923103 0.256833 0.122749
Si Si6 0.671540 0.524409 0.542192
Si Si7 0.549962 0.022188 0.670204
Si Si8 0.800235 0.900419 0.881614
O O1 0.163462 0.426181 0.576363
O O2 0.219248 0.469571 0.933359
O O3 0.989763 0.637301 0.836102
O O4 0.396224 0.078222 0.062155
O O5 0.772301 0.194415 0.124153
O O6 0.788189 0.299680 0.452260
O O7 0.568049 0.441462 0.322813
O O8 0.022233 0.856487 0.628054
O O9 0.204189 0.001451 0.981479
O O10 0.178125 0.932438 0.231189
O O11 0.750559 0.802222 0.685924
O O12 0.000000 0.500000 0.500000
O O13 0.159551 0.213732 0.910595
O O14 0.792024 0.369406 0.851434
O O15 0.651189 0.644314 0.446991
O O16 0.425704 0.815558 0.402923
O O17 0.500000 0.000000 0.500000
#
# Coordination Sequence:
#
# PCOD8011394 Si02
#       8
#     2   2   2   2   2   2   2   2
#     4  10  21  40  65  89 119 166 211 253 304 371
#     4  10  21  39  61  87 118 155 205 255 301 370
#     4   9  20  39  63  87 116 161 204 249 308 373
#     4  11  22  38  66  95 119 163 222 261 302 369
#     4  11  21  38  61  89 122 157 200 251 314 367
#     4  11  22  39  59  87 126 162 199 253 314 364
#     4  11  23  43  61  89 132 168 203 257 317 368
#     4   9  20  39  62  88 127 161 202 261 310 363
#
# _framework density 26.241588
#
# number of rings (size 3 to 8) (size 9 to 14) (size 15 to 20)
#    0.000    1.750    1.250    3.000    0.000    3.000 
#    0.000    7.500    0.000    0.000    0.000    0.000 
#    0.000    0.000    0.000    0.000    0.000    0.000 
#
# Total GULP energy -198229.884175 kJ/mol
# GULP energy per Si atom -12389.367761 kJ/mol
# Density = 2.618186 g / cm^3
# Si number density = 26.241588 Si / 1000 Ang^3
#
#
#
# Elastic Constant Matrix: (Units=GPa)
#
#
# Indices 1 2 3 4 5 6 
#
# 1 79.5673 16.6010 39.4643 -2.6158 0.2505 28.0225
# 2 16.6010 86.9883 48.5407 -2.3892 -6.8127 37.0817
# 3 39.4643 48.5407 161.6552 -15.8078 2.2587 31.5617
# 4 -2.6158 -2.3892 -15.8078 37.6637 14.5400 3.8367
# 5 0.2505 -6.8127 2.2587 14.5400 22.5889 2.9364
# 6 28.0225 37.0817 31.5617 3.8367 2.9364 36.0436
#
#
#
# Elastic Compliance Matrix: (Units=1/GPa)
#
#
# Indices 1 2 3 4 5 6 
#
# 1 0.019742 0.006842 -0.002850 0.001115 0.004056 -0.020341
# 2 0.006842 0.025939 -0.004075 -0.001626 0.013013 -0.029325
# 3 -0.002850 -0.004075 0.009063 0.005650 -0.005522 -0.001680
# 4 0.001115 -0.001626 0.005650 0.039430 -0.025635 -0.006250
# 5 0.004056 0.013013 -0.005522 -0.025635 0.067080 -0.014442
# 6 -0.020341 -0.029325 -0.001680 -0.006250 -0.014442 0.077040
#
#
# Mechanical properties :
#
#
# Convention : Reuss Voigt Hill
#
# Bulk Modulus (GPa) = 18.32223 59.71363 39.01793
# Shear Modulus (GPa) = 19.48170 34.16625 26.82397
#
# Velocity S-wave (km/s) = 2.72765 3.61222 3.20064
# Velocity P-wave (km/s) = 4.11308 6.34053 5.34414
#
# Compressibility (1/GPa) = 0.05457851
#
# Stress axis : x y z
#
# Youngs Moduli (GPa) = 50.65380 38.55236 110.33959
#
# Poissons Ratio (x) = -0.26379 0.31450
# Poissons Ratio (y) = -0.34659 0.44959
# Poissons Ratio (z) = 0.14438 0.15708
#
# Static dielectric constant tensor:
#      x y z
#    x 4.967850 0.187920 0.392930 
#    y 0.187920 4.908480 -0.079660 
#    z 0.392930 -0.079660 4.894250 
# 
# 
# High freq. dielectric constant tensor:
#      x y z
#    x 2.055690 0.010010 0.018560 
#    y 0.010010 2.056390 -0.000550 
#    z 0.018560 -0.000550 2.051110 
# 
# From -- ./inp_files/127443.got.cif
#   From: 2010.06.25/outbox.cif.g09.slc.cpg/sg2_64_cif.got.tgz:127443.got - 2010.06.27 13:26:56.
