data_PCOD8011062
_publ_section_title
;
Structure prediction by ZEFSAII (Michael W. Deem and Ramdas Pophale) SiO2 
 PCOD8011062
Probable space group: P -1
;
_chemical_formula_sum "Si O2"
_cell_formula_units_Z 16
_cell_length_a 13.203399
_cell_length_b 8.853680
_cell_length_c 9.314711
_cell_angle_alpha 88.685031
_cell_angle_beta 50.049680
_cell_angle_gamma 74.715378
_cell_volume 789.288053
_symmetry_space_group_name_H-M "P -1"
_symmetry_group_IT_number 2
_symmetry_cell_setting 'triclinic'
loop_
_space_group_symop_operation_xyz
x,y,z
-x,-y,-z
loop_
_atom_site_type_symbol
_atom_site_label
_atom_site_fract_x
_atom_site_fract_y
_atom_site_fract_z
Si Si1 0.565270 0.206978 0.192991
Si Si2 0.489505 0.176142 0.962935
Si Si3 0.260840 0.149226 0.993222
Si Si4 0.013538 0.040341 0.324710
Si Si5 0.181222 0.701570 0.124274
Si Si6 0.732593 0.278507 0.628137
Si Si7 0.619364 0.531389 0.482165
Si Si8 0.146769 0.460824 0.939763
O O1 0.448014 0.281164 0.418134
O O2 0.629265 0.016123 0.160652
O O3 0.487043 0.266652 0.111751
O O4 0.686578 0.287617 0.086312
O O5 0.344411 0.245572 0.007692
O O6 0.624006 0.181017 0.749942
O O7 0.500000 0.000000 0.000000
O O8 0.196366 0.270087 0.921228
O O9 0.137747 0.116377 0.195908
O O10 0.863714 0.167090 0.415877
O O11 0.000000 0.000000 0.500000
O O12 0.056192 0.870541 0.206329
O O13 0.216140 0.674066 0.264372
O O14 0.136764 0.558927 0.096549
O O15 0.655369 0.431876 0.599542
O O16 0.500000 0.500000 0.500000
O O17 0.755950 0.494114 0.264277
O O18 0.000000 0.500000 0.000000
#
# Coordination Sequence:
#
# PCOD8011062 Si02
#       8
#     2   2   2   2   2   2   2   2
#     4   9  20  39  63  91 116 161 206 245 301 367
#     4   9  18  35  63  97 122 146 199 261 307 346
#     4  10  21  40  63  87 128 160 192 256 313 355
#     4   9  18  40  65  91 118 155 210 249 295 368
#     4   9  20  41  67  86 120 160 205 250 300 366
#     4  10  21  38  66  94 115 166 207 247 298 363
#     4  12  24  41  61  90 128 158 210 251 288 374
#     4  12  26  44  57  91 128 163 199 256 311 353
#
# _framework density 20.271433999999999
#
# number of rings (size 3 to 8) (size 9 to 14) (size 15 to 20)
#    0.000    2.000    1.250    3.750    1.750    1.500 
#   11.250    5.000    0.000    0.000    0.000    0.000 
#    0.000    0.000    0.000    0.000    0.000    0.000 
#
# Total GULP energy -198237.267119 kJ/mol
# GULP energy per Si atom -12389.829195 kJ/mol
# Density = 2.022529 g / cm^3
# Si number density = 20.271434 Si / 1000 Ang^3
#
#
#
# Elastic Constant Matrix: (Units=GPa)
#
#
# Indices 1 2 3 4 5 6 
#
# 1 128.4323 64.8811 55.3060 5.0161 -12.8614 -6.7213
# 2 64.8811 106.1136 48.0837 7.0387 -0.1597 -9.1064
# 3 55.3060 48.0837 111.2089 9.5285 -14.8606 5.1813
# 4 5.0161 7.0387 9.5285 33.3600 -0.3037 -1.8507
# 5 -12.8614 -0.1597 -14.8606 -0.3037 28.3772 -3.6154
# 6 -6.7213 -9.1064 5.1813 -1.8507 -3.6154 30.6253
#
#
#
# Elastic Compliance Matrix: (Units=1/GPa)
#
#
# Indices 1 2 3 4 5 6 
#
# 1 0.012866 -0.006239 -0.003254 0.000465 0.004360 0.002062
# 2 -0.006239 0.015534 -0.004299 -0.000966 -0.004572 0.003379
# 3 -0.003254 -0.004299 0.013554 -0.002642 0.005081 -0.003845
# 4 0.000465 -0.000966 -0.002642 0.030974 -0.000584 0.002065
# 5 0.004360 -0.004572 0.005081 -0.000584 0.040285 0.003458
# 6 0.002062 0.003379 -0.003845 0.002065 0.003458 0.035294
#
#
# Mechanical properties :
#
#
# Convention : Reuss Voigt Hill
#
# Bulk Modulus (GPa) = 69.59726 75.81072 72.70399
# Shear Modulus (GPa) = 27.64266 30.30476 28.97371
#
# Velocity S-wave (km/s) = 3.69674 3.87065 3.78469
# Velocity P-wave (km/s) = 7.25454 7.57990 7.41901
#
# Compressibility (1/GPa) = 0.01436838
#
# Stress axis : x y z
#
# Youngs Moduli (GPa) = 77.72583 64.37473 73.78107
#
# Poissons Ratio (x) = 0.40166 0.24008
# Poissons Ratio (y) = 0.48496 0.31720
# Poissons Ratio (z) = 0.25292 0.27676
#
# Static dielectric constant tensor:
#      x y z
#    x 13.470810 -1.131620 -4.961380 
#    y -1.131620 3.837220 0.834010 
#    z -4.961380 0.834010 6.375860 
# 
# 
# High freq. dielectric constant tensor:
#      x y z
#    x 1.789120 -0.008150 -0.012350 
#    y -0.008150 1.791880 0.005460 
#    z -0.012350 0.005460 1.785510 
# 
# From -- ./inp_files/243840.got.cif
#   From: 2010.06.25/outbox.cif.g09.slc.cpg/sg2_122_cif.got.tgz:243840.got - 2010.06.27 13:26:56.
