data_PCOD8011157
_publ_section_title
;
Structure prediction by ZEFSAII (Michael W. Deem and Ramdas Pophale) SiO2 
 PCOD8011157
Probable space group: P -1
;
_chemical_formula_sum "Si O2"
_cell_formula_units_Z 16
_cell_length_a 20.860530
_cell_length_b 21.239813
_cell_length_c 9.007672
_cell_angle_alpha 144.076709
_cell_angle_beta 33.648361
_cell_angle_gamma 160.579945
_cell_volume 728.635675
_symmetry_space_group_name_H-M "P -1"
_symmetry_group_IT_number 2
_symmetry_cell_setting 'triclinic'
loop_
_space_group_symop_operation_xyz
x,y,z
-x,-y,-z
loop_
_atom_site_type_symbol
_atom_site_label
_atom_site_fract_x
_atom_site_fract_y
_atom_site_fract_z
Si Si1 0.485792 0.253089 0.240715
Si Si2 0.845925 0.788611 0.849514
Si Si3 0.540961 0.532464 0.193028
Si Si4 0.429847 0.915009 0.136928
Si Si5 0.038050 0.829940 0.295685
Si Si6 0.049296 0.659133 0.549421
Si Si7 0.801574 0.267316 0.281585
Si Si8 0.743624 0.570833 0.127447
O O1 0.500743 0.370995 0.539903
O O2 0.248534 0.050858 0.266406
O O3 0.573069 0.216991 0.092274
O O4 0.617832 0.374482 0.067684
O O5 0.654897 0.679952 0.905315
O O6 0.981122 0.806761 0.532375
O O7 0.744204 0.661080 0.949578
O O8 0.000000 0.000000 0.000000
O O9 0.584007 0.524584 0.260874
O O10 0.205437 0.795436 0.370786
O O11 0.574389 0.078036 0.294786
O O12 0.500000 0.000000 0.000000
O O13 0.050991 0.712229 0.027975
O O14 0.853693 0.725992 0.341539
O O15 0.193080 0.730296 0.545155
O O16 0.887662 0.446038 0.400646
O O17 0.920556 0.665457 0.854353
#
# Coordination Sequence:
#
# PCOD8011157 Si02
#       8
#     2   2   2   2   2   2   2   2
#     4  11  22  41  66  94 129 169 216 272 321 377
#     4  11  23  43  63  94 131 178 211 265 324 386
#     4  11  25  42  66  95 134 171 216 267 321 392
#     4  11  24  41  65  98 129 169 218 269 323 387
#     4  10  21  38  68  92 129 170 215 267 327 383
#     4  10  21  41  66  92 127 168 213 268 326 379
#     4   9  20  40  66  93 124 167 215 271 322 379
#     4  11  24  42  65 100 126 171 221 267 321 385
#
# _framework density 21.958848
#
# number of rings (size 3 to 8) (size 9 to 14) (size 15 to 20)
#    0.000    1.500    2.500    3.000    0.000    6.000 
#    4.500    0.000    0.000    0.000    0.000    0.000 
#    0.000    0.000    0.000    0.000    0.000    0.000 
#
# Total GULP energy -198349.918305 kJ/mol
# GULP energy per Si atom -12396.869894 kJ/mol
# Density = 2.190887 g / cm^3
# Si number density = 21.958848 Si / 1000 Ang^3
#
#
#
# Elastic Constant Matrix: (Units=GPa)
#
#
# Indices 1 2 3 4 5 6 
#
# 1 78.9396 31.9207 22.2816 3.8299 3.4412 -7.4769
# 2 31.9207 123.5766 42.3582 -1.8885 9.8625 2.5178
# 3 22.2816 42.3582 113.3831 -3.4624 15.2467 -14.0793
# 4 3.8299 -1.8885 -3.4624 45.6402 -3.3563 14.1868
# 5 3.4412 9.8625 15.2467 -3.3563 19.2343 -1.4509
# 6 -7.4769 2.5178 -14.0793 14.1868 -1.4509 31.3995
#
#
#
# Elastic Compliance Matrix: (Units=1/GPa)
#
#
# Indices 1 2 3 4 5 6 
#
# 1 0.015046 -0.003648 -0.001081 -0.002975 -0.000127 0.004729
# 2 -0.003648 0.010459 -0.003363 0.001583 -0.002072 -0.004026
# 3 -0.001081 -0.003363 0.011941 -0.001451 -0.007372 0.005682
# 4 -0.002975 0.001583 -0.001451 0.026577 0.004506 -0.013285
# 5 -0.000127 -0.002072 -0.007372 0.004506 0.059520 -0.002455
# 6 0.004729 -0.004026 0.005682 -0.013285 -0.002455 0.041733
#
#
# Mechanical properties :
#
#
# Convention : Reuss Voigt Hill
#
# Bulk Modulus (GPa) = 47.03183 56.55781 51.79482
# Shear Modulus (GPa) = 26.51866 33.87738 30.19802
#
# Velocity S-wave (km/s) = 3.47890 3.93207 3.71241
# Velocity P-wave (km/s) = 6.13202 6.81374 6.48185
#
# Compressibility (1/GPa) = 0.02126220
#
# Stress axis : x y z
#
# Youngs Moduli (GPa) = 66.46426 95.61301 83.74455
#
# Poissons Ratio (x) = 0.34877 0.09049
# Poissons Ratio (y) = 0.24244 0.28167
# Poissons Ratio (z) = 0.07182 0.32159
#
# Static dielectric constant tensor:
#      x y z
#    x 3.659750 0.182280 0.225770 
#    y 0.182280 4.187020 -0.118030 
#    z 0.225770 -0.118030 4.079790 
# 
# 
# High freq. dielectric constant tensor:
#      x y z
#    x 1.826070 0.015280 0.015150 
#    y 0.015280 1.879560 -0.012930 
#    z 0.015150 -0.012930 1.873430 
# 
# From -- ./inp_files/349569.got.cif
#   From: 2010.06.25/outbox.cif.g09.slc.cpg/sg2_175_cif.got.tgz:349569.got - 2010.06.27 13:26:56.
