data_PCOD8011825
_publ_section_title
;
Structure prediction by ZEFSAII (Michael W. Deem and Ramdas Pophale) SiO2 
 PCOD8011825
Probable space group: P -1
;
_chemical_formula_sum "Si O2"
_cell_formula_units_Z 16
_cell_length_a 6.297267
_cell_length_b 6.612644
_cell_length_c 21.344534
_cell_angle_alpha 90.242264
_cell_angle_beta 122.162127
_cell_angle_gamma 75.502483
_cell_volume 719.383825
_symmetry_space_group_name_H-M "P -1"
_symmetry_group_IT_number 2
_symmetry_cell_setting 'triclinic'
loop_
_space_group_symop_operation_xyz
x,y,z
-x,-y,-z
loop_
_atom_site_type_symbol
_atom_site_label
_atom_site_fract_x
_atom_site_fract_y
_atom_site_fract_z
Si Si1 0.234164 0.943777 0.450267
Si Si2 0.701669 0.324439 0.665340
Si Si3 0.880634 0.459244 0.083554
Si Si4 0.520763 0.749462 0.823406
Si Si5 0.899256 0.453148 0.223080
Si Si6 0.526669 0.189818 0.044586
Si Si7 0.725494 0.239789 0.413084
Si Si8 0.627771 0.948253 0.720393
O O1 0.236176 0.814243 0.387425
O O2 0.199514 0.795899 0.502127
O O3 0.500000 0.000000 0.500000
O O4 0.993563 0.163237 0.413817
O O5 0.430183 0.514045 0.620602
O O6 0.953775 0.408765 0.714424
O O7 0.666787 0.179002 0.717970
O O8 0.797269 0.561631 0.140082
O O9 0.782170 0.250975 0.061148
O O10 0.189295 0.406629 0.124749
O O11 0.739872 0.620439 0.007656
O O12 0.340115 0.596380 0.777009
O O13 0.439372 0.868637 0.876645
O O14 0.488513 0.928000 0.764838
O O15 0.093503 0.224555 0.236093
O O16 0.500000 0.000000 0.000000
O O17 0.544857 0.093208 0.364597
#
# Coordination Sequence:
#
# PCOD8011825 Si02
#       8
#     2   2   2   2   2   2   2   2
#     4  11  23  45  70  97 138 173 221 286 328 395
#     4  11  23  45  72  97 135 184 221 273 343 396
#     4   9  20  41  61  92 129 164 219 273 318 383
#     4  10  21  41  68  92 135 172 211 279 325 383
#     4   9  22  42  64  94 133 171 222 275 326 395
#     4  10  21  39  64  92 129 170 215 269 327 388
#     4  10  24  45  64 100 134 171 226 274 334 402
#     4  10  22  43  62  98 134 167 222 275 323 401
#
# _framework density 22.241257999999998
#
# number of rings (size 3 to 8) (size 9 to 14) (size 15 to 20)
#    0.000    2.000    1.250    0.750    1.750    4.000 
#    9.000    8.750    0.000    0.000    0.000    0.000 
#    0.000    0.000    0.000    0.000    0.000    0.000 
#
# Total GULP energy -198363.389777 kJ/mol
# GULP energy per Si atom -12397.711861 kJ/mol
# Density = 2.219064 g / cm^3
# Si number density = 22.241258 Si / 1000 Ang^3
#
#
#
# Elastic Constant Matrix: (Units=GPa)
#
#
# Indices 1 2 3 4 5 6 
#
# 1 132.2675 71.2024 54.0372 7.8225 10.4157 12.1056
# 2 71.2024 120.1612 56.1631 17.2372 -11.0237 12.5582
# 3 54.0372 56.1631 116.2150 13.1430 -6.9273 11.7993
# 4 7.8225 17.2372 13.1430 36.0456 4.4711 0.2048
# 5 10.4157 -11.0237 -6.9273 4.4711 41.6001 -2.0652
# 6 12.1056 12.5582 11.7993 0.2048 -2.0652 30.2679
#
#
#
# Elastic Compliance Matrix: (Units=1/GPa)
#
#
# Indices 1 2 3 4 5 6 
#
# 1 0.013108 -0.007022 -0.003180 0.002427 -0.006008 -0.001516
# 2 -0.007022 0.015420 -0.003021 -0.005460 0.005830 -0.001977
# 3 -0.003180 -0.003021 0.012173 -0.002564 0.002196 -0.002053
# 4 0.002427 -0.005460 -0.002564 0.031470 -0.005780 0.001687
# 5 -0.006008 0.005830 0.002196 -0.005780 0.028129 0.001086
# 6 -0.001516 -0.001977 -0.002053 0.001687 0.001086 0.035328
#
#
# Mechanical properties :
#
#
# Convention : Reuss Voigt Hill
#
# Bulk Modulus (GPa) = 70.15407 81.27212 75.71309
# Shear Modulus (GPa) = 29.97170 34.06544 32.01857
#
# Velocity S-wave (km/s) = 3.67491 3.91785 3.79833
# Velocity P-wave (km/s) = 7.04396 7.55557 7.30425
#
# Compressibility (1/GPa) = 0.01425434
#
# Stress axis : x y z
#
# Youngs Moduli (GPa) = 76.28954 64.85188 82.14987
#
# Poissons Ratio (x) = 0.45537 0.26125
# Poissons Ratio (y) = 0.53568 0.24820
# Poissons Ratio (z) = 0.24262 0.19593
#
# Static dielectric constant tensor:
#      x y z
#    x 4.122400 0.120520 -0.020320 
#    y 0.120520 3.775450 -0.086860 
#    z -0.020320 -0.086860 4.439060 
# 
# 
# High freq. dielectric constant tensor:
#      x y z
#    x 1.877590 0.007680 0.005540 
#    y 0.007680 1.847280 -0.002560 
#    z 0.005540 -0.002560 1.898720 
# 
# From -- ./inp_files/603286.got.cif
#   From: 2010.06.25/outbox.cif.g09.slc.cpg/sg2_302_cif.got.tgz:603286.got - 2010.06.27 13:26:56.
