data_PCOD8011399
_publ_section_title
;
Structure prediction by ZEFSAII (Michael W. Deem and Ramdas Pophale) SiO2 
 PCOD8011399
Probable space group: P -1
;
_chemical_formula_sum "Si O2"
_cell_formula_units_Z 16
_cell_length_a 10.112766
_cell_length_b 16.283087
_cell_length_c 9.462952
_cell_angle_alpha 74.764481
_cell_angle_beta 96.842372
_cell_angle_gamma 147.457927
_cell_volume 792.850844
_symmetry_space_group_name_H-M "P -1"
_symmetry_group_IT_number 2
_symmetry_cell_setting 'triclinic'
loop_
_space_group_symop_operation_xyz
x,y,z
-x,-y,-z
loop_
_atom_site_type_symbol
_atom_site_label
_atom_site_fract_x
_atom_site_fract_y
_atom_site_fract_z
Si Si1 0.688366 0.398095 0.958772
Si Si2 0.550676 0.600199 0.280598
Si Si3 0.217358 0.268562 0.453467
Si Si4 0.556030 0.021971 0.705948
Si Si5 0.631981 0.943462 0.507124
Si Si6 0.945364 0.674665 0.234115
Si Si7 0.457379 0.671671 0.700432
Si Si8 0.197049 0.729551 0.981347
O O1 0.510283 0.354974 0.851635
O O2 0.965631 0.590175 0.906395
O O3 0.572996 0.334825 0.131455
O O4 0.707388 0.312322 0.939233
O O5 0.298177 0.410095 0.370396
O O6 0.660918 0.696204 0.398300
O O7 0.754550 0.650557 0.204911
O O8 0.305443 0.259283 0.336235
O O9 0.924132 0.096121 0.505637
O O10 0.494765 0.927984 0.610424
O O11 0.856418 0.196525 0.676695
O O12 0.425489 0.043840 0.657398
O O13 0.434066 0.909036 0.873429
O O14 0.496445 0.780257 0.574729
O O15 0.786556 0.503493 0.323471
O O16 0.104847 0.742536 0.085081
#
# Coordination Sequence:
#
# PCOD8011399 Si02
#       8
#     2   2   2   2   2   2   2   2
#     4  10  21  39  63  90 120 157 199 245 299 352
#     4  10  21  39  63  90 120 157 199 245 299 352
#     4  10  21  39  61  87 122 156 196 248 295 352
#     4  11  22  38  60  85 119 160 197 239 298 357
#     4  11  22  38  60  85 119 160 197 239 298 357
#     4  10  22  40  61  88 121 153 197 251 295 351
#     4  10  22  40  61  88 121 153 197 251 295 351
#     4  10  21  39  61  87 122 156 196 248 295 352
#
# _framework density 20.180342
#
# number of rings (size 3 to 8) (size 9 to 14) (size 15 to 20)
#    0.000    1.750    2.500    1.500    0.000    7.000 
#    0.000    2.500    0.000    0.000    0.000    0.000 
#    0.000    0.000    0.000    0.000    0.000    0.000 
#
# Total GULP energy -198323.111777 kJ/mol
# GULP energy per Si atom -12395.194486 kJ/mol
# Density = 2.013441 g / cm^3
# Si number density = 20.180342 Si / 1000 Ang^3
#
#
#
# Elastic Constant Matrix: (Units=GPa)
#
#
# Indices 1 2 3 4 5 6 
#
# 1 95.0842 38.6534 46.3555 -3.0756 8.9488 8.7001
# 2 38.6534 93.9766 34.9115 -18.0329 20.4758 8.0981
# 3 46.3555 34.9115 63.3599 -11.0341 12.7413 0.6245
# 4 -3.0756 -18.0329 -11.0341 27.4236 0.3793 -2.2733
# 5 8.9488 20.4758 12.7413 0.3793 43.0311 2.1907
# 6 8.7001 8.0981 0.6245 -2.2733 2.1907 18.1618
#
#
#
# Elastic Compliance Matrix: (Units=1/GPa)
#
#
# Indices 1 2 3 4 5 6 
#
# 1 0.018788 -0.003917 -0.013089 -0.006420 0.002290 -0.007884
# 2 -0.003917 0.016991 -0.003664 0.009035 -0.006076 -0.003710
# 3 -0.013089 -0.003664 0.029825 0.008902 -0.004881 0.008581
# 4 -0.006420 0.009035 0.008902 0.045788 -0.006270 0.005228
# 5 0.002290 -0.006076 -0.004881 -0.006270 0.027271 -0.002294
# 6 -0.007884 -0.003710 0.008581 0.005228 -0.002294 0.061127
#
#
# Mechanical properties :
#
#
# Convention : Reuss Voigt Hill
#
# Bulk Modulus (GPa) = 41.21280 54.69572 47.95426
# Shear Modulus (GPa) = 20.06274 26.55665 23.30970
#
# Velocity S-wave (km/s) = 3.15647 3.63156 3.40232
# Velocity P-wave (km/s) = 5.80956 6.68929 6.26489
#
# Compressibility (1/GPa) = 0.02426431
#
# Stress axis : x y z
#
# Youngs Moduli (GPa) = 53.22412 58.85623 33.52906
#
# Poissons Ratio (x) = 0.23055 0.43885
# Poissons Ratio (y) = 0.20848 0.12285
# Poissons Ratio (z) = 0.69663 0.21566
#
# Static dielectric constant tensor:
#      x y z
#    x 3.793900 -0.077310 -0.172350 
#    y -0.077310 3.718510 -0.085030 
#    z -0.172350 -0.085030 3.599220 
# 
# 
# High freq. dielectric constant tensor:
#      x y z
#    x 1.794520 -0.002920 -0.014860 
#    y -0.002920 1.789350 -0.012570 
#    z -0.014860 -0.012570 1.772430 
# 
# From -- ./inp_files/206442.got.cif
#   From: 2010.06.25/outbox.cif.g09.slc.cpg/sg2_104_cif.got.tgz:206442.got - 2010.06.27 13:26:56.
