data_PCOD8011106
_publ_section_title
;
Structure prediction by ZEFSAII (Michael W. Deem and Ramdas Pophale) SiO2 
 PCOD8011106
Probable space group: P -1
;
_chemical_formula_sum "Si O2"
_cell_formula_units_Z 16
_cell_length_a 12.113895
_cell_length_b 24.835402
_cell_length_c 18.033505
_cell_angle_alpha 20.029104
_cell_angle_beta 156.337437
_cell_angle_gamma 152.114130
_cell_volume 734.946922
_symmetry_space_group_name_H-M "P -1"
_symmetry_group_IT_number 2
_symmetry_cell_setting 'triclinic'
loop_
_space_group_symop_operation_xyz
x,y,z
-x,-y,-z
loop_
_atom_site_type_symbol
_atom_site_label
_atom_site_fract_x
_atom_site_fract_y
_atom_site_fract_z
Si Si1 0.891041 0.539228 0.705637
Si Si2 0.387352 0.089246 0.184444
Si Si3 0.989823 0.105312 0.470731
Si Si4 0.404054 0.595633 0.748150
Si Si5 0.986279 0.782701 0.825335
Si Si6 0.268021 0.424315 0.284957
Si Si7 0.989759 0.779554 0.331351
Si Si8 0.510507 0.601643 0.072466
O O1 0.840152 0.672370 0.444011
O O2 0.199833 0.579278 0.877425
O O3 0.667103 0.539500 0.634581
O O4 0.857827 0.366646 0.867634
O O5 0.706309 0.081446 0.373738
O O6 0.369181 0.212353 0.081412
O O7 0.225052 0.917524 0.332359
O O8 0.248032 0.143767 0.953887
O O9 0.942992 0.171930 0.274597
O O10 0.217200 0.233376 0.487629
O O11 0.094419 0.934336 0.748784
O O12 0.653026 0.733320 0.695701
O O13 0.138073 0.674727 0.501485
O O14 0.500000 0.500000 0.000000
O O15 0.305693 0.472765 0.778989
O O16 0.517281 0.511201 0.273415
O O17 0.000000 0.500000 0.000000
#
# Coordination Sequence:
#
# PCOD8011106 Si02
#       8
#     2   2   2   2   2   2   2   2
#     4  10  18  36  56  82 112 141 188 232 270 319
#     4  11  23  38  54  84 115 151 183 221 289 339
#     4  11  18  32  56  87 108 140 186 235 267 321
#     4  11  19  36  59  81 113 144 188 234 270 322
#     4  10  19  30  56  86 105 141 189 232 270 313
#     4  10  16  32  57  83 112 133 187 235 271 316
#     4  11  24  38  54  82 120 151 178 226 283 342
#     4  10  19  35  60  82 107 146 190 229 269 328
#
# _framework density 21.770281000000001
#
# number of rings (size 3 to 8) (size 9 to 14) (size 15 to 20)
#    0.000    1.500   10.000    0.000    0.000    1.000 
#    2.250    2.500    0.000    0.000    0.000    4.375 
#    0.000    0.000    0.000    0.000    0.000    0.000 
#
# Total GULP energy -198354.022061 kJ/mol
# GULP energy per Si atom -12397.126379 kJ/mol
# Density = 2.172073 g / cm^3
# Si number density = 21.770281 Si / 1000 Ang^3
#
#
#
# Elastic Constant Matrix: (Units=GPa)
#
#
# Indices 1 2 3 4 5 6 
#
# 1 123.8392 18.8608 35.4267 -23.8107 6.5771 -18.4071
# 2 18.8608 56.1523 28.7077 -37.7860 18.9971 -6.1105
# 3 35.4267 28.7077 83.5616 -37.0184 -0.0100 -9.5714
# 4 -23.8107 -37.7860 -37.0184 40.4518 -7.0023 13.9731
# 5 6.5771 18.9971 -0.0100 -7.0023 29.0575 -13.0245
# 6 -18.4071 -6.1105 -9.5714 13.9731 -13.0245 17.9343
#
#
#
# Elastic Compliance Matrix: (Units=1/GPa)
#
#
# Indices 1 2 3 4 5 6 
#
# 1 0.001249 0.101448 0.008028 0.131666 -0.093211 -0.130146
# 2 0.101448 -1.116149 -0.124193 -1.450494 1.052996 1.552394
# 3 0.008028 -0.124193 0.007969 -0.141010 0.120503 0.167556
# 4 0.131666 -1.450494 -0.141010 -1.830677 1.366886 1.984686
# 5 -0.093211 1.052996 0.120503 1.366886 -0.940094 -1.420292
# 6 -0.130146 1.552394 0.167556 1.984686 -1.420292 -2.037258
#
#
# Mechanical properties :
#
#
# Convention : Reuss Voigt Hill
#
# Bulk Modulus (GPa) = -0.88000 47.72706 23.42353
# Shear Modulus (GPa) = -0.79817 29.52592 14.36387
#
# Velocity S-wave (km/s) = -0.60616 3.68672 2.57143
# Velocity P-wave (km/s) = 0.94605 6.33192 4.42709
#
# Compressibility (1/GPa) = -1.13636444
#
# Stress axis : x y z
#
# Youngs Moduli (GPa) = 800.48541 -0.89594 125.48932
#
# Poissons Ratio (x) = 0.09089 -1.00743
# Poissons Ratio (y) = -81.20801 15.58490
# Poissons Ratio (z) = -6.42633 -0.11127
#
# Static dielectric constant tensor:
#      x y z
#    x 4.447340 -0.143020 0.126660 
#    y -0.143020 3.896020 -0.577520 
#    z 0.126660 -0.577520 3.862240 
# 
# 
# High freq. dielectric constant tensor:
#      x y z
#    x 1.862890 -0.003180 0.006350 
#    y -0.003180 1.835830 -0.039480 
#    z 0.006350 -0.039480 1.834960 
# 
# From -- ./inp_files/318596.got.cif
#   From: 2010.06.25/outbox.cif.g09.slc.cpg/sg2_160_cif.got.tgz:318596.got - 2010.06.27 13:26:56.
