data_PCOD8011393
_publ_section_title
;
Structure prediction by ZEFSAII (Michael W. Deem and Ramdas Pophale) SiO2 
 PCOD8011393
Probable space group: P -1
;
_chemical_formula_sum "Si O2"
_cell_formula_units_Z 16
_cell_length_a 8.104760
_cell_length_b 21.203777
_cell_length_c 23.374130
_cell_angle_alpha 18.203244
_cell_angle_beta 143.588347
_cell_angle_gamma 135.541017
_cell_volume 716.409165
_symmetry_space_group_name_H-M "P -1"
_symmetry_group_IT_number 2
_symmetry_cell_setting 'triclinic'
loop_
_space_group_symop_operation_xyz
x,y,z
-x,-y,-z
loop_
_atom_site_type_symbol
_atom_site_label
_atom_site_fract_x
_atom_site_fract_y
_atom_site_fract_z
Si Si1 0.680842 0.171768 0.346087
Si Si2 0.903659 0.258830 0.131005
Si Si3 0.790559 0.152834 0.852102
Si Si4 0.218392 0.430639 0.569179
Si Si5 0.361814 0.518044 0.034077
Si Si6 0.086590 0.113676 0.193596
Si Si7 0.150459 0.249343 0.593780
Si Si8 0.859772 0.324813 0.837270
O O1 0.644501 0.339859 0.244169
O O2 0.393070 0.090748 0.329626
O O3 0.951589 0.973247 0.602888
O O4 0.734298 0.289533 0.202744
O O5 0.104637 0.411987 0.057448
O O6 0.836662 0.226211 0.073293
O O7 0.618283 0.374142 0.990404
O O8 0.728179 0.386361 0.611836
O O9 0.481716 0.102596 0.809496
O O10 0.928878 0.150202 0.956173
O O11 0.000000 0.000000 0.000000
O O12 0.089387 0.295178 0.605060
O O13 0.542164 0.323331 0.774109
O O14 0.000000 0.500000 0.500000
O O15 0.065380 0.881613 0.373698
O O16 0.073453 0.250426 0.014499
O O17 0.100374 0.454129 0.363289
#
# Coordination Sequence:
#
# PCOD8011393 Si02
#       8
#     2   2   2   2   2   2   2   2
#     4  10  21  39  62  86 114 158 199 231 295 355
#     4  10  21  39  61  87 115 155 202 233 289 358
#     4   9  19  36  61  77 106 153 192 228 280 348
#     4   9  19  36  58  81 106 152 194 225 285 350
#     4   9  19  38  63  83 110 152 199 238 283 345
#     4  11  22  35  58  85 117 148 186 241 293 330
#     4   9  21  39  54  79 117 149 181 242 289 329
#     4   9  21  39  53  81 117 146 191 234 283 342
#
# _framework density 22.333606
#
# number of rings (size 3 to 8) (size 9 to 14) (size 15 to 20)
#    0.000    2.500    0.000    3.375    3.500    5.000 
#    2.250    5.000    0.000    0.000    0.000    0.000 
#    0.000    0.000    0.000    0.000    0.000    0.000 
#
# Total GULP energy -198216.119906 kJ/mol
# GULP energy per Si atom -12388.507494 kJ/mol
# Density = 2.228277 g / cm^3
# Si number density = 22.333606 Si / 1000 Ang^3
#
#
#
# Elastic Constant Matrix: (Units=GPa)
#
#
# Indices 1 2 3 4 5 6 
#
# 1 218.8370 194.4214 -56.2091 -35.9697 17.9969 23.3415
# 2 194.4214 341.0354 -99.4068 -40.9553 12.1612 64.0901
# 3 -56.2091 -99.4068 142.3395 -2.7789 -6.2911 -58.6019
# 4 -35.9697 -40.9553 -2.7789 34.6240 -4.8091 -11.1623
# 5 17.9969 12.1612 -6.2911 -4.8091 41.3674 -10.3207
# 6 23.3415 64.0901 -58.6019 -11.1623 -10.3207 71.2356
#
#
#
# Elastic Compliance Matrix: (Units=1/GPa)
#
#
# Indices 1 2 3 4 5 6 
#
# 1 0.010504 -0.005381 0.002033 0.005798 -0.001049 0.003829
# 2 -0.005381 0.007378 0.001832 0.002309 -0.000032 -0.003011
# 3 0.002033 0.001832 0.014347 0.009886 0.004837 0.011738
# 4 0.005798 0.002309 0.009886 0.043110 0.006262 0.011818
# 5 -0.001049 -0.000032 0.004837 0.006262 0.028462 0.009457
# 6 0.003829 -0.003011 0.011738 0.011818 0.009457 0.028370
#
#
# Mechanical properties :
#
#
# Convention : Reuss Voigt Hill
#
# Bulk Modulus (GPa) = 34.25170 86.64698 60.44934
# Shear Modulus (GPa) = 34.49788 73.67248 54.08518
#
# Velocity S-wave (km/s) = 3.93448 5.74969 4.92641
# Velocity P-wave (km/s) = 6.00082 9.10821 7.71263
#
# Compressibility (1/GPa) = 0.02919563
#
# Stress axis : x y z
#
# Youngs Moduli (GPa) = 95.20596 135.53338 69.70091
#
# Poissons Ratio (x) = 0.72934 -0.14168
# Poissons Ratio (y) = 0.51233 -0.12769
# Poissons Ratio (z) = -0.19353 -0.24829
#
# Static dielectric constant tensor:
#      x y z
#    x 4.251330 -0.393940 -0.096000 
#    y -0.393940 4.027610 -0.290510 
#    z -0.096000 -0.290510 3.808210 
# 
# 
# High freq. dielectric constant tensor:
#      x y z
#    x 1.889400 -0.020280 -0.016590 
#    y -0.020280 1.868100 -0.025120 
#    z -0.016590 -0.025120 1.866400 
# 
# From -- ./inp_files/608557.got.cif
#   From: 2010.06.25/outbox.cif.g09.slc.cpg/sg2_305_cif.got.tgz:608557.got - 2010.06.27 13:26:56.
