data_PCOD8011309
_publ_section_title
;
Structure prediction by ZEFSAII (Michael W. Deem and Ramdas Pophale) SiO2 
 PCOD8011309
Probable space group: P -1
;
_chemical_formula_sum "Si O2"
_cell_formula_units_Z 14
_cell_length_a 7.614630
_cell_length_b 9.692558
_cell_length_c 10.826852
_cell_angle_alpha 63.058067
_cell_angle_beta 116.034289
_cell_angle_gamma 131.413837
_cell_volume 522.521686
_symmetry_space_group_name_H-M "P -1"
_symmetry_group_IT_number 2
_symmetry_cell_setting 'triclinic'
loop_
_space_group_symop_operation_xyz
x,y,z
-x,-y,-z
loop_
_atom_site_type_symbol
_atom_site_label
_atom_site_fract_x
_atom_site_fract_y
_atom_site_fract_z
Si Si1 0.633197 0.251101 0.520383
Si Si2 0.599882 0.706744 0.777419
Si Si3 0.229350 0.274062 0.801138
Si Si4 0.912336 0.654589 0.515368
Si Si5 0.642499 0.229986 0.943477
Si Si6 0.298091 0.967001 0.175634
Si Si7 0.961646 0.654499 0.803335
O O1 0.404944 0.184017 0.390077
O O2 0.696924 0.431124 0.547890
O O3 0.579938 0.084045 0.661132
O O4 0.847914 0.318609 0.464812
O O5 0.364607 0.492190 0.795851
O O6 0.835316 0.708530 0.841859
O O7 0.614107 0.816280 0.861509
O O8 0.164064 0.247035 0.645340
O O9 0.384775 0.191642 0.905298
O O10 0.989605 0.163879 0.853052
O O11 0.957104 0.735408 0.635382
O O12 0.613545 0.058656 0.920470
O O13 0.817764 0.425887 0.843727
O O14 0.767015 0.248168 0.106724
#
# Coordination Sequence:
#
# PCOD8011309 Si02
#       7
#     2   2   2   2   2   2   2
#     4   9  18  34  60  94 119 161 206 255 316 364
#     4  10  22  37  62  95 124 161 209 256 318 364
#     4   9  22  42  64  96 120 165 212 255 315 369
#     4   9  17  35  65  88 123 159 210 255 307 373
#     4  10  22  40  63  89 129 168 208 254 317 366
#     4  11  21  41  64  92 130 161 207 266 301 379
#     4  10  21  39  59  94 125 163 211 258 303 382
#
# _framework density 26.793144000000002
#
# number of rings (size 3 to 8) (size 9 to 14) (size 15 to 20)
#    0.000    2.286    1.429    1.286    2.000    2.286 
#    5.143    4.286    0.000    0.000    0.000    0.000 
#    0.000    0.000    0.000    0.000    0.000    0.000 
#
# Total GULP energy -173636.367338 kJ/mol
# GULP energy per Si atom -12402.597667 kJ/mol
# Density = 2.673216 g / cm^3
# Si number density = 26.793144 Si / 1000 Ang^3
#
#
#
# Elastic Constant Matrix: (Units=GPa)
#
#
# Indices 1 2 3 4 5 6 
#
# 1 126.6442 59.3928 86.4136 11.1271 1.5896 -16.6905
# 2 59.3928 124.7465 57.2381 9.2361 -1.8776 -26.4985
# 3 86.4136 57.2381 136.6562 16.7642 8.8241 -15.9953
# 4 11.1271 9.2361 16.7642 30.2289 -4.9516 0.1697
# 5 1.5896 -1.8776 8.8241 -4.9516 52.2704 1.5815
# 6 -16.6905 -26.4985 -15.9953 0.1697 1.5815 37.1754
#
#
#
# Elastic Compliance Matrix: (Units=1/GPa)
#
#
# Indices 1 2 3 4 5 6 
#
# 1 0.015061 -0.003244 -0.008115 0.000069 0.000774 0.000924
# 2 -0.003244 0.011931 -0.002119 -0.001215 0.000585 0.006117
# 3 -0.008115 -0.002119 0.014217 -0.004699 -0.002708 0.001100
# 4 0.000069 -0.001215 -0.004699 0.036760 0.004327 -0.003209
# 5 0.000774 0.000585 -0.002708 0.004327 0.020034 -0.001273
# 6 0.000924 0.006117 0.001100 -0.003209 -0.001273 0.032217
#
#
# Mechanical properties :
#
#
# Convention : Reuss Voigt Hill
#
# Bulk Modulus (GPa) = 70.16191 88.23732 79.19962
# Shear Modulus (GPa) = 30.87838 36.26842 33.57340
#
# Velocity S-wave (km/s) = 3.39849 3.68318 3.54370
# Velocity P-wave (km/s) = 6.45314 7.14787 6.80937
#
# Compressibility (1/GPa) = 0.01425275
#
# Stress axis : x y z
#
# Youngs Moduli (GPa) = 66.39774 83.81495 70.34041
#
# Poissons Ratio (x) = 0.27191 0.57081
# Poissons Ratio (y) = 0.21541 0.14902
# Poissons Ratio (z) = 0.53882 0.17757
#
# Static dielectric constant tensor:
#      x y z
#    x 4.495500 -0.029590 0.217430 
#    y -0.029590 4.788490 -0.061190 
#    z 0.217430 -0.061190 4.964930 
# 
# 
# High freq. dielectric constant tensor:
#      x y z
#    x 2.068020 0.001950 0.005650 
#    y 0.001950 2.075750 -0.004580 
#    z 0.005650 -0.004580 2.094100 
# 
# From -- ./inp_files/200719.got.cif
#   From: 2010.06.25/outbox.cif.g09.slc.cpg/sg2_101_cif.got.tgz:200719.got - 2010.06.27 13:26:56.
