data_PCOD8011301
_publ_section_title
;
Structure prediction by ZEFSAII (Michael W. Deem and Ramdas Pophale) SiO2 
 PCOD8011301
Probable space group: P -1
;
_chemical_formula_sum "Si O2"
_cell_formula_units_Z 16
_cell_length_a 16.927739
_cell_length_b 6.820619
_cell_length_c 20.018625
_cell_angle_alpha 50.305238
_cell_angle_beta 26.349612
_cell_angle_gamma 59.207580
_cell_volume 776.913983
_symmetry_space_group_name_H-M "P -1"
_symmetry_group_IT_number 2
_symmetry_cell_setting 'triclinic'
loop_
_space_group_symop_operation_xyz
x,y,z
-x,-y,-z
loop_
_atom_site_type_symbol
_atom_site_label
_atom_site_fract_x
_atom_site_fract_y
_atom_site_fract_z
Si Si1 0.728039 0.786490 0.020040
Si Si2 0.181399 0.546223 0.535094
Si Si3 0.625783 0.174004 0.794028
Si Si4 0.938911 0.356897 0.260133
Si Si5 0.474020 0.709627 0.654275
Si Si6 0.397875 0.716195 0.558196
Si Si7 0.839720 0.272060 0.904217
Si Si8 0.439960 0.385591 0.999185
O O1 0.912125 0.819538 0.830789
O O2 0.763608 0.967333 0.020262
O O3 0.575093 0.892204 0.071149
O O4 0.664226 0.487640 0.153492
O O5 0.226825 0.705666 0.398153
O O6 0.168638 0.734308 0.568887
O O7 0.331270 0.374364 0.476965
O O8 0.985172 0.363345 0.713921
O O9 0.675116 0.904025 0.840743
O O10 0.613295 0.368051 0.823708
O O11 0.805947 0.346766 0.300836
O O12 0.048594 0.652904 0.127417
O O13 0.386686 0.708105 0.647960
O O14 0.500404 0.997426 0.603655
O O15 0.500000 0.500000 0.500000
O O16 0.679468 0.437542 0.987018
O O17 0.500000 0.500000 0.000000
#
# Coordination Sequence:
#
# PCOD8011301 Si02
#       8
#     2   2   2   2   2   2   2   2
#     4  11  21  41  61  88 125 163 198 255 294 367
#     4   9  20  42  58  90 120 160 201 246 294 367
#     4  10  21  39  62  87 123 156 208 247 302 356
#     4  10  22  39  62  88 123 162 201 246 308 354
#     4  10  23  39  64  91 119 159 211 242 304 359
#     4  11  21  42  64  88 123 159 197 259 300 356
#     4  10  21  39  59  89 128 156 203 248 304 356
#     4  11  21  39  63  90 119 164 199 255 303 356
#
# _framework density 20.5943
#
# number of rings (size 3 to 8) (size 9 to 14) (size 15 to 20)
#    0.750    1.000    3.750    0.750    0.000    2.000 
#    6.750    1.875    0.000    0.000    0.000    0.000 
#    0.000    0.000    0.000    0.000    0.000    0.000 
#
# Total GULP energy -198232.722534 kJ/mol
# GULP energy per Si atom -12389.545158 kJ/mol
# Density = 2.054743 g / cm^3
# Si number density = 20.594300 Si / 1000 Ang^3
#
#
#
# Elastic Constant Matrix: (Units=GPa)
#
#
# Indices 1 2 3 4 5 6 
#
# 1 67.5354 25.2335 10.3924 -13.0403 -5.0894 19.0882
# 2 25.2335 126.9086 48.7691 -9.5765 -1.3462 15.1071
# 3 10.3924 48.7691 60.0422 2.7217 4.3275 -5.2902
# 4 -13.0403 -9.5765 2.7217 32.4656 3.2823 -0.0584
# 5 -5.0894 -1.3462 4.3275 3.2823 30.6601 -4.8242
# 6 19.0882 15.1071 -5.2902 -0.0584 -4.8242 30.1462
#
#
#
# Elastic Compliance Matrix: (Units=1/GPa)
#
#
# Indices 1 2 3 4 5 6 
#
# 1 0.021551 0.000413 -0.005855 0.009128 0.001135 -0.014681
# 2 0.000413 0.014252 -0.012764 0.005381 0.000415 -0.009567
# 3 -0.005855 -0.012764 0.029911 -0.008344 -0.002511 0.014935
# 4 0.009128 0.005381 -0.008344 0.037005 -0.002652 -0.010293
# 5 0.001135 0.000415 -0.002511 -0.002652 0.034103 0.004085
# 6 -0.014681 -0.009567 0.014935 -0.010293 0.004085 0.050517
#
#
# Mechanical properties :
#
#
# Convention : Reuss Voigt Hill
#
# Bulk Modulus (GPa) = 34.12703 47.03071 40.57887
# Shear Modulus (GPa) = 21.41158 29.99381 25.70269
#
# Velocity S-wave (km/s) = 3.22791 3.82044 3.53661
# Velocity P-wave (km/s) = 5.52265 6.50748 6.03519
#
# Compressibility (1/GPa) = 0.02930229
#
# Stress axis : x y z
#
# Youngs Moduli (GPa) = 46.40127 70.16582 33.43214
#
# Poissons Ratio (x) = -0.02901 0.19575
# Poissons Ratio (y) = -0.01919 0.42674
# Poissons Ratio (z) = 0.27169 0.89563
#
# Static dielectric constant tensor:
#      x y z
#    x 3.808050 0.126160 -0.148840 
#    y 0.126160 3.870420 0.088070 
#    z -0.148840 0.088070 3.569770 
# 
# 
# High freq. dielectric constant tensor:
#      x y z
#    x 1.799150 0.012680 -0.007870 
#    y 0.012680 1.814170 0.011900 
#    z -0.007870 0.011900 1.781650 
# 
# From -- ./inp_files/598975.got.cif
#   From: 2010.06.25/outbox.cif.g09.slc.cpg/sg2_300_cif.got.tgz:598975.got - 2010.06.27 13:26:56.
