data_PCOD8011604
_publ_section_title
;
Structure prediction by ZEFSAII (Michael W. Deem and Ramdas Pophale) SiO2 
 PCOD8011604
Probable space group: P -1
;
_chemical_formula_sum "Si O2"
_cell_formula_units_Z 16
_cell_length_a 20.773488
_cell_length_b 11.723526
_cell_length_c 8.858516
_cell_angle_alpha 39.485617
_cell_angle_beta 109.023220
_cell_angle_gamma 137.677468
_cell_volume 757.972653
_symmetry_space_group_name_H-M "P -1"
_symmetry_group_IT_number 2
_symmetry_cell_setting 'triclinic'
loop_
_space_group_symop_operation_xyz
x,y,z
-x,-y,-z
loop_
_atom_site_type_symbol
_atom_site_label
_atom_site_fract_x
_atom_site_fract_y
_atom_site_fract_z
Si Si1 0.602649 0.906416 0.020260
Si Si2 0.011535 0.352985 0.457962
Si Si3 0.835457 0.219022 0.325990
Si Si4 0.785658 0.238522 0.581245
Si Si5 0.276322 0.474788 0.454546
Si Si6 0.651630 0.705161 0.484833
Si Si7 0.112681 0.343902 0.283461
Si Si8 0.128988 0.200310 0.909991
O O1 0.642789 0.885359 0.222879
O O2 0.465496 0.588344 0.211850
O O3 0.671281 0.964224 0.874177
O O4 0.628384 0.173565 0.782135
O O5 0.966001 0.420047 0.251492
O O6 0.096506 0.585651 0.425072
O O7 0.093663 0.403362 0.367499
O O8 0.889142 0.998018 0.780233
O O9 0.768452 0.093948 0.561453
O O10 0.760665 0.932868 0.449955
O O11 0.851067 0.447804 0.034931
O O12 0.794138 0.468703 0.312412
O O13 0.335330 0.413082 0.518081
O O14 0.213081 0.413749 0.318740
O O15 0.183543 0.237939 0.759248
O O16 0.000000 0.000000 0.500000
O O17 0.000000 0.000000 0.000000
#
# Coordination Sequence:
#
# PCOD8011604 Si02
#       8
#     2   2   2   2   2   2   2   2
#     4  10  22  46  66  92 124 167 222 263 312 379
#     4  11  21  39  59  91 131 168 209 249 317 389
#     4  12  25  38  59  99 132 165 209 265 316 376
#     4  10  21  39  63  85 130 170 206 260 312 381
#     4  11  21  41  68  92 127 166 217 256 317 378
#     4  11  24  41  69  93 124 168 216 270 317 365
#     4  12  23  38  60  91 135 167 201 263 317 376
#     4   9  18  37  61  89 119 170 210 246 308 379
#
# _framework density 21.108941999999999
#
# number of rings (size 3 to 8) (size 9 to 14) (size 15 to 20)
#    0.000    1.250    5.000    2.625    3.500    1.500 
#    0.000    0.000    0.000    2.250    0.000    0.000 
#    0.000    0.000    0.000    0.000    0.000    0.000 
#
# Total GULP energy -198380.886077 kJ/mol
# GULP energy per Si atom -12398.805380 kJ/mol
# Density = 2.106090 g / cm^3
# Si number density = 21.108942 Si / 1000 Ang^3
#
#
#
# Elastic Constant Matrix: (Units=GPa)
#
#
# Indices 1 2 3 4 5 6 
#
# 1 80.9319 18.8595 24.7082 -1.9202 -12.4336 -6.6519
# 2 18.8595 68.1081 22.5035 3.3987 -1.5922 -7.7101
# 3 24.7082 22.5035 90.3784 -2.7967 -22.2764 -2.0253
# 4 -1.9202 3.3987 -2.7967 24.1794 1.5594 0.3355
# 5 -12.4336 -1.5922 -22.2764 1.5594 31.4546 3.1000
# 6 -6.6519 -7.7101 -2.0253 0.3355 3.1000 31.0467
#
#
#
# Elastic Compliance Matrix: (Units=1/GPa)
#
#
# Indices 1 2 3 4 5 6 
#
# 1 0.014493 -0.003046 -0.002197 0.001056 0.003787 0.001816
# 2 -0.003046 0.017488 -0.004439 -0.003028 -0.003687 0.003802
# 3 -0.002197 -0.004439 0.015184 0.001600 0.009736 -0.001572
# 4 0.001056 -0.003028 0.001600 0.042103 -0.000610 -0.000816
# 5 0.003787 -0.003687 0.009736 -0.000610 0.040372 -0.003494
# 6 0.001816 0.003802 -0.001572 -0.000816 -0.003494 0.033798
#
#
# Mechanical properties :
#
#
# Convention : Reuss Voigt Hill
#
# Bulk Modulus (GPa) = 35.96876 41.28454 38.62665
# Shear Modulus (GPa) = 26.03243 28.89263 27.46253
#
# Velocity S-wave (km/s) = 3.51556 3.70366 3.61084
# Velocity P-wave (km/s) = 5.79271 6.15547 5.97684
#
# Compressibility (1/GPa) = 0.02780190
#
# Stress axis : x y z
#
# Youngs Moduli (GPa) = 69.00038 57.18241 65.85671
#
# Poissons Ratio (x) = 0.17417 0.14468
# Poissons Ratio (y) = 0.21016 0.29233
# Poissons Ratio (z) = 0.15158 0.25383
#
# Static dielectric constant tensor:
#      x y z
#    x 3.816720 -0.052270 0.057130 
#    y -0.052270 3.686200 0.391940 
#    z 0.057130 0.391940 4.784950 
# 
# 
# High freq. dielectric constant tensor:
#      x y z
#    x 1.824560 -0.007330 0.002390 
#    y -0.007330 1.798960 0.007920 
#    z 0.002390 0.007920 1.838280 
# 
# From -- ./inp_files/234788.got.cif
#   From: 2010.06.25/outbox.cif.g09.slc.cpg/sg2_118_cif.got.tgz:234788.got - 2010.06.27 13:26:56.
