data_PCOD8011761
_publ_section_title
;
Structure prediction by ZEFSAII (Michael W. Deem and Ramdas Pophale) SiO2 
 PCOD8011761
Probable space group: P -1
;
_chemical_formula_sum "Si O2"
_cell_formula_units_Z 16
_cell_length_a 20.805452
_cell_length_b 5.565099
_cell_length_c 12.311244
_cell_angle_alpha 96.655730
_cell_angle_beta 143.978624
_cell_angle_gamma 99.511516
_cell_volume 746.322850
_symmetry_space_group_name_H-M "P -1"
_symmetry_group_IT_number 2
_symmetry_cell_setting 'triclinic'
loop_
_space_group_symop_operation_xyz
x,y,z
-x,-y,-z
loop_
_atom_site_type_symbol
_atom_site_label
_atom_site_fract_x
_atom_site_fract_y
_atom_site_fract_z
Si Si1 0.401206 0.607329 0.893142
Si Si2 0.340091 0.902918 0.391764
Si Si3 0.928226 0.778669 0.243034
Si Si4 0.180015 0.160367 0.683401
Si Si5 0.349083 0.130209 0.072521
Si Si6 0.175714 0.834308 0.988304
Si Si7 0.576285 0.385671 0.665387
Si Si8 0.565434 0.115520 0.267508
O O1 0.268251 0.393588 0.735933
O O2 0.375978 0.732202 0.755111
O O3 0.500000 0.500000 0.000000
O O4 0.461034 0.817949 0.082996
O O5 0.331470 0.649543 0.295225
O O6 0.325227 0.863596 0.500718
O O7 0.479905 0.123584 0.581928
O O8 0.228598 0.947802 0.188584
O O9 0.877142 0.728609 0.293791
O O10 0.902573 0.491101 0.137668
O O11 0.890130 0.987339 0.136122
O O12 0.075132 0.934298 0.457016
O O13 0.263074 0.030116 0.843669
O O14 0.337258 0.392836 0.118034
O O15 0.490964 0.241404 0.241979
O O16 0.296737 0.898161 0.081556
O O17 0.500000 0.500000 0.500000
#
# Coordination Sequence:
#
# PCOD8011761 Si02
#       8
#     2   2   2   2   2   2   2   2
#     4  11  23  42  57  88 121 161 205 255 300 372
#     4  11  21  33  55  85 128 162 198 255 305 383
#     4  10  24  40  62  95 116 166 206 260 314 365
#     4  10  21  39  64  84 124 158 206 259 309 359
#     4  11  19  35  61  89 129 159 195 253 311 388
#     4  11  22  38  59  91 126 156 206 250 314 365
#     4  11  19  32  52  90 124 166 193 238 323 381
#     4  11  23  35  59  89 119 164 207 238 314 376
#
# _framework density 21.438445000000002
#
# number of rings (size 3 to 8) (size 9 to 14) (size 15 to 20)
#    0.000    1.250    3.750    3.750    0.000    5.500 
#    0.000    0.000    0.000    1.500    0.000    0.000 
#    0.000    0.000    0.000    0.000    0.000    0.000 
#
# Total GULP energy -198227.476567 kJ/mol
# GULP energy per Si atom -12389.217285 kJ/mol
# Density = 2.138965 g / cm^3
# Si number density = 21.438445 Si / 1000 Ang^3
#
#
#
# Elastic Constant Matrix: (Units=GPa)
#
#
# Indices 1 2 3 4 5 6 
#
# 1 61.9128 30.9786 43.4679 2.0307 -7.4693 21.3147
# 2 30.9786 94.4114 56.6525 7.0790 -8.5524 11.2667
# 3 43.4679 56.6525 159.3033 -3.8114 -13.8284 28.0586
# 4 2.0307 7.0790 -3.8114 37.2403 8.3312 -2.8485
# 5 -7.4693 -8.5524 -13.8284 8.3312 34.4927 -1.0780
# 6 21.3147 11.2667 28.0586 -2.8485 -1.0780 28.4315
#
#
#
# Elastic Compliance Matrix: (Units=1/GPa)
#
#
# Indices 1 2 3 4 5 6 
#
# 1 0.026069 -0.004685 -0.002487 -0.002784 0.003679 -0.015372
# 2 -0.004685 0.014883 -0.004197 -0.003300 0.001837 0.001496
# 3 -0.002487 -0.004197 0.009662 0.001061 0.001856 -0.005831
# 4 -0.002784 -0.003300 0.001061 0.029931 -0.008067 0.005040
# 5 0.003679 0.001837 0.001856 -0.008067 0.032784 -0.004882
# 6 -0.015372 0.001496 -0.005831 0.005040 -0.004882 0.052178
#
#
# Mechanical properties :
#
#
# Convention : Reuss Voigt Hill
#
# Bulk Modulus (GPa) = 35.87360 64.20281 50.03821
# Shear Modulus (GPa) = 25.31156 32.33482 28.82319
#
# Velocity S-wave (km/s) = 3.43980 3.88785 3.67067
# Velocity P-wave (km/s) = 5.70491 7.08282 6.43088
#
# Compressibility (1/GPa) = 0.02787565
#
# Stress axis : x y z
#
# Youngs Moduli (GPa) = 38.35919 67.18958 103.49654
#
# Poissons Ratio (x) = 0.31480 0.25738
# Poissons Ratio (y) = 0.17972 0.43442
# Poissons Ratio (z) = 0.09539 0.28203
#
# Static dielectric constant tensor:
#      x y z
#    x 3.789890 -0.082810 -0.209810 
#    y -0.082810 4.263090 0.223720 
#    z -0.209810 0.223720 4.419140 
# 
# 
# High freq. dielectric constant tensor:
#      x y z
#    x 1.787800 0.004610 -0.016920 
#    y 0.004610 1.845470 -0.008300 
#    z -0.016920 -0.008300 1.855410 
# 
# From -- ./inp_files/83311.got.cif
#   From: 2010.06.25/outbox.cif.g09.slc.cpg/sg2_42_cif.got.tgz:83311.got - 2010.06.27 13:26:56.
