data_PCOD8011481
_publ_section_title
;
Structure prediction by ZEFSAII (Michael W. Deem and Ramdas Pophale) SiO2 
 PCOD8011481
Probable space group: P -1
;
_chemical_formula_sum "Si O2"
_cell_formula_units_Z 16
_cell_length_a 17.394333
_cell_length_b 9.705256
_cell_length_c 8.742212
_cell_angle_alpha 89.929131
_cell_angle_beta 113.777520
_cell_angle_gamma 139.379233
_cell_volume 755.505863
_symmetry_space_group_name_H-M "P -1"
_symmetry_group_IT_number 2
_symmetry_cell_setting 'triclinic'
loop_
_space_group_symop_operation_xyz
x,y,z
-x,-y,-z
loop_
_atom_site_type_symbol
_atom_site_label
_atom_site_fract_x
_atom_site_fract_y
_atom_site_fract_z
Si Si1 0.890327 0.368976 0.623480
Si Si2 0.239556 0.492349 0.813865
Si Si3 0.635641 0.834357 0.480003
Si Si4 0.664205 0.579503 0.609324
Si Si5 0.527541 0.698266 0.055086
Si Si6 0.122936 0.339623 0.390939
Si Si7 0.211514 0.765604 0.800979
Si Si8 0.881327 0.859996 0.037620
O O1 0.848554 0.466221 0.638451
O O2 0.851950 0.288661 0.417102
O O3 0.066954 0.579469 0.797746
O O4 0.784587 0.124509 0.638918
O O5 0.132427 0.335093 0.580634
O O6 0.286338 0.715466 0.875097
O O7 0.147495 0.318580 0.889455
O O8 0.380184 0.584751 0.896771
O O9 0.681168 0.736052 0.516506
O O10 0.510985 0.696807 0.510358
O O11 0.567168 0.780469 0.262032
O O12 0.751002 0.574844 0.597018
O O13 0.728572 0.700644 0.831919
O O14 0.662880 0.947069 0.060407
O O15 0.500000 0.500000 0.000000
O O16 0.951562 0.067055 0.209906
O O17 0.000000 0.000000 0.000000
#
# Coordination Sequence:
#
# PCOD8011481 Si02
#       8
#     2   2   2   2   2   2   2   2
#     4   9  20  38  59  87 120 157 200 254 300 352
#     4  11  21  39  64  90 120 163 197 249 301 354
#     4  10  21  39  62  84 123 167 198 245 307 358
#     4  10  21  40  62  86 122 163 206 240 301 365
#     4  11  22  37  62  95 122 154 204 255 295 355
#     4  10  22  38  62  91 121 152 209 250 295 356
#     4   9  21  37  58  90 123 156 198 247 309 359
#     4  10  22  38  62  90 122 158 200 244 301 365
#
# _framework density 21.177864
#
# number of rings (size 3 to 8) (size 9 to 14) (size 15 to 20)
#    0.000    2.000    1.250    1.500    5.250    0.500 
#    0.000    0.625   11.000    0.000    0.000    0.000 
#    0.000    0.000    0.000    0.000    0.000    0.000 
#
# Total GULP energy -198344.537856 kJ/mol
# GULP energy per Si atom -12396.533616 kJ/mol
# Density = 2.112966 g / cm^3
# Si number density = 21.177864 Si / 1000 Ang^3
#
#
#
# Elastic Constant Matrix: (Units=GPa)
#
#
# Indices 1 2 3 4 5 6 
#
# 1 102.5090 49.8248 16.8625 11.9449 26.2199 -5.2282
# 2 49.8248 175.9059 35.5837 21.3228 13.1004 3.6945
# 3 16.8625 35.5837 64.2677 1.7998 4.6008 -2.5079
# 4 11.9449 21.3228 1.7998 29.0459 1.2246 -0.1447
# 5 26.2199 13.1004 4.6008 1.2246 25.2138 0.5016
# 6 -5.2282 3.6945 -2.5079 -0.1447 0.5016 28.3082
#
#
#
# Elastic Compliance Matrix: (Units=1/GPa)
#
#
# Indices 1 2 3 4 5 6 
#
# 1 0.015581 -0.002686 -0.001331 -0.003727 -0.014450 0.003347
# 2 -0.002686 0.007749 -0.003510 -0.004361 -0.000344 -0.001835
# 3 -0.001331 -0.003510 0.017880 0.002033 -0.000189 0.001810
# 4 -0.003727 -0.004361 0.002033 0.038874 0.003879 0.000191
# 5 -0.014450 -0.000344 -0.000189 0.003879 0.054783 -0.003591
# 6 0.003347 -0.001835 0.001810 0.000191 -0.003591 0.036408
#
#
# Mechanical properties :
#
#
# Convention : Reuss Voigt Hill
#
# Bulk Modulus (GPa) = 38.23563 60.80274 49.51918
# Shear Modulus (GPa) = 25.63473 32.54101 29.08787
#
# Velocity S-wave (km/s) = 3.48293 3.92415 3.71010
# Velocity P-wave (km/s) = 5.85389 7.02173 6.46424
#
# Compressibility (1/GPa) = 0.02615362
#
# Stress axis : x y z
#
# Youngs Moduli (GPa) = 64.18119 129.05667 55.92844
#
# Poissons Ratio (x) = 0.34669 0.07446
# Poissons Ratio (y) = 0.17241 0.19632
# Poissons Ratio (z) = 0.08545 0.45302
#
# Static dielectric constant tensor:
#      x y z
#    x 3.563800 0.046750 0.200330 
#    y 0.046750 4.158060 0.253840 
#    z 0.200330 0.253840 4.106280 
# 
# 
# High freq. dielectric constant tensor:
#      x y z
#    x 1.815860 0.001240 0.017820 
#    y 0.001240 1.843560 0.005180 
#    z 0.017820 0.005180 1.819140 
# 
# From -- ./inp_files/260293.got.cif
#   From: 2010.06.25/outbox.cif.g09.slc.cpg/sg2_131_cif.got.tgz:260293.got - 2010.06.27 13:26:56.
