data_PCOD8011934
_publ_section_title
;
Structure prediction by ZEFSAII (Michael W. Deem and Ramdas Pophale) SiO2 
 PCOD8011934
Probable space group: P -1
;
_chemical_formula_sum "Si O2"
_cell_formula_units_Z 16
_cell_length_a 14.101359
_cell_length_b 21.334687
_cell_length_c 8.942936
_cell_angle_alpha 151.282175
_cell_angle_beta 135.994690
_cell_angle_gamma 36.877987
_cell_volume 774.329600
_symmetry_space_group_name_H-M "P -1"
_symmetry_group_IT_number 2
_symmetry_cell_setting 'triclinic'
loop_
_space_group_symop_operation_xyz
x,y,z
-x,-y,-z
loop_
_atom_site_type_symbol
_atom_site_label
_atom_site_fract_x
_atom_site_fract_y
_atom_site_fract_z
Si Si1 0.876646 0.965656 0.869949
Si Si2 0.007162 0.333940 0.788243
Si Si3 0.540233 0.110246 0.185469
Si Si4 0.522766 0.130066 0.861286
Si Si5 0.045569 0.626286 0.849215
Si Si6 0.247212 0.442335 0.237260
Si Si7 0.626716 0.547031 0.280003
Si Si8 0.898326 0.936651 0.180779
O O1 0.880879 0.826148 0.497909
O O2 0.694310 0.104919 0.954277
O O3 0.926813 0.924750 0.011786
O O4 0.000000 0.000000 0.000000
O O5 0.837314 0.421015 0.691904
O O6 0.975358 0.313573 0.880330
O O7 0.103652 0.421437 0.086659
O O8 0.438584 0.280946 0.488361
O O9 0.724184 0.053572 0.286030
O O10 0.496373 0.116486 0.976982
O O11 0.500000 0.000000 0.000000
O O12 0.500000 0.000000 0.500000
O O13 0.386611 0.296906 0.003604
O O14 0.227352 0.560576 0.882286
O O15 0.000000 0.500000 0.500000
O O16 0.939269 0.770537 0.928258
O O17 0.322982 0.480563 0.545164
O O18 0.500000 0.500000 0.000000
O O19 0.000000 0.000000 0.500000
#
# Coordination Sequence:
#
# PCOD8011934 Si02
#       8
#     2   2   2   2   2   2   2   2
#     4  11  24  42  65  97 132 174 217 269 335 392
#     4  11  23  40  66  94 131 169 223 270 321 398
#     4  10  23  39  62  95 127 161 211 267 321 386
#     4  10  21  39  65  90 125 165 214 265 320 388
#     4  12  24  40  67  98 127 173 228 267 327 398
#     4  10  22  41  65  93 128 172 216 267 331 387
#     4  11  23  43  65  93 132 171 215 274 331 388
#     4  11  24  42  65  95 133 171 216 268 327 394
#
# _framework density 20.663034
#
# number of rings (size 3 to 8) (size 9 to 14) (size 15 to 20)
#    0.000    1.250    2.500    3.000    3.500    4.000 
#    0.000    3.750    0.000    0.000    0.000    0.000 
#    0.000    0.000    0.000    0.000    0.000    0.000 
#
# Total GULP energy -198386.965943 kJ/mol
# GULP energy per Si atom -12399.185371 kJ/mol
# Density = 2.061600 g / cm^3
# Si number density = 20.663034 Si / 1000 Ang^3
#
#
#
# Elastic Constant Matrix: (Units=GPa)
#
#
# Indices 1 2 3 4 5 6 
#
# 1 88.3574 36.2352 8.6252 -7.9056 -18.7308 5.7664
# 2 36.2352 121.7608 29.1208 3.5649 -10.3753 -0.5765
# 3 8.6252 29.1208 83.5533 -14.3507 -13.5160 5.1834
# 4 -7.9056 3.5649 -14.3507 40.0080 -8.0249 3.5831
# 5 -18.7308 -10.3753 -13.5160 -8.0249 36.2727 8.0005
# 6 5.7664 -0.5765 5.1834 3.5831 8.0005 25.8231
#
#
#
# Elastic Compliance Matrix: (Units=1/GPa)
#
#
# Indices 1 2 3 4 5 6 
#
# 1 0.017456 -0.005440 0.004485 0.009166 0.013442 -0.010356
# 2 -0.005440 0.010865 -0.004898 -0.004887 -0.003537 0.004214
# 3 0.004485 -0.004898 0.017677 0.010986 0.012125 -0.009940
# 4 0.009166 -0.004887 0.010986 0.036323 0.018825 -0.015234
# 5 0.013442 -0.003537 0.012125 0.018825 0.047199 -0.022750
# 6 -0.010356 0.004214 -0.009940 -0.015234 -0.022750 0.052289
#
#
# Mechanical properties :
#
#
# Convention : Reuss Voigt Hill
#
# Bulk Modulus (GPa) = 29.16030 49.07044 39.11537
# Shear Modulus (GPa) = 24.39679 35.06677 29.73178
#
# Velocity S-wave (km/s) = 3.43986 4.12403 3.79738
# Velocity P-wave (km/s) = 5.46989 6.81735 6.18046
#
# Compressibility (1/GPa) = 0.03429321
#
# Stress axis : x y z
#
# Youngs Moduli (GPa) = 57.28653 92.04145 56.56922
#
# Poissons Ratio (x) = 0.50066 -0.25372
# Poissons Ratio (y) = 0.31161 0.27708
# Poissons Ratio (z) = -0.25694 0.45083
#
# Static dielectric constant tensor:
#      x y z
#    x 3.663730 0.217210 -0.478510 
#    y 0.217210 4.035250 0.339400 
#    z -0.478510 0.339400 3.593570 
# 
# 
# High freq. dielectric constant tensor:
#      x y z
#    x 1.803400 -0.012790 -0.012190 
#    y -0.012790 1.823560 0.001440 
#    z -0.012190 0.001440 1.815040 
# 
# From -- ./inp_files/283523.got.cif
#   From: 2010.06.25/outbox.cif.g09.slc.cpg/sg2_142_cif.got.tgz:283523.got - 2010.06.27 13:26:56.
