data_PCOD8011658
_publ_section_title
;
Structure prediction by ZEFSAII (Michael W. Deem and Ramdas Pophale) SiO2 
 PCOD8011658
Probable space group: P -1
;
_chemical_formula_sum "Si O2"
_cell_formula_units_Z 16
_cell_length_a 18.947442
_cell_length_b 12.102517
_cell_length_c 9.493387
_cell_angle_alpha 140.077873
_cell_angle_beta 143.165921
_cell_angle_gamma 35.702465
_cell_volume 717.786595
_symmetry_space_group_name_H-M "P -1"
_symmetry_group_IT_number 2
_symmetry_cell_setting 'triclinic'
loop_
_space_group_symop_operation_xyz
x,y,z
-x,-y,-z
loop_
_atom_site_type_symbol
_atom_site_label
_atom_site_fract_x
_atom_site_fract_y
_atom_site_fract_z
Si Si1 0.379025 0.855168 0.219305
Si Si2 0.000065 0.522770 0.248706
Si Si3 0.082721 0.086725 0.045502
Si Si4 0.525650 0.034162 0.771215
Si Si5 0.780154 0.599419 0.742757
Si Si6 0.882339 0.939626 0.601251
Si Si7 0.450331 0.442450 0.577021
Si Si8 0.428435 0.806710 0.734780
O O1 0.454414 0.810212 0.142989
O O2 0.448257 0.646421 0.213124
O O3 0.216324 0.951917 0.030271
O O4 0.396200 0.020640 0.498509
O O5 0.959345 0.700025 0.468406
O O6 0.023222 0.323304 0.166508
O O7 0.136279 0.486898 0.352377
O O8 0.876961 0.597207 0.016212
O O9 0.133455 0.015654 0.215274
O O10 0.968322 0.033886 0.764744
O O11 0.661103 0.824822 0.746151
O O12 0.510792 0.086823 0.965435
O O13 0.707505 0.473880 0.547645
O O14 0.734212 0.050699 0.400801
O O15 0.466584 0.609837 0.692203
O O16 0.494638 0.257681 0.355235
#
# Coordination Sequence:
#
# PCOD8011658 Si02
#       8
#     2   2   2   2   2   2   2   2
#     4  10  21  41  61  90 128 166 199 266 318 371
#     4  11  22  41  64  94 127 168 212 259 318 377
#     4  11  23  42  62  94 132 168 211 260 318 383
#     4  10  21  39  66  89 125 163 210 259 319 376
#     4  10  21  39  63  91 123 163 210 267 311 376
#     4  11  24  41  66  94 128 171 212 261 317 378
#     4  10  23  40  64  90 130 162 209 271 317 369
#     4  11  22  42  64  96 120 167 217 261 318 373
#
# _framework density 22.290748000000001
#
# number of rings (size 3 to 8) (size 9 to 14) (size 15 to 20)
#    0.000    1.500    3.750    1.125    0.000    4.500 
#    2.250    2.500    0.000    0.000    0.000    0.000 
#    0.000    0.000    0.000    0.000    0.000    0.000 
#
# Total GULP energy -198391.454895 kJ/mol
# GULP energy per Si atom -12399.465931 kJ/mol
# Density = 2.224001 g / cm^3
# Si number density = 22.290748 Si / 1000 Ang^3
#
#
#
# Elastic Constant Matrix: (Units=GPa)
#
#
# Indices 1 2 3 4 5 6 
#
# 1 48.8073 4.7724 -7.2036 -11.2241 11.1628 -6.1430
# 2 4.7724 70.7293 1.7000 2.1161 8.4926 1.4618
# 3 -7.2036 1.7000 48.2239 -8.5301 2.5251 -10.8831
# 4 -11.2241 2.1161 -8.5301 22.6518 2.7644 0.6720
# 5 11.1628 8.4926 2.5251 2.7644 40.3101 -3.8642
# 6 -6.1430 1.4618 -10.8831 0.6720 -3.8642 33.3778
#
#
#
# Elastic Compliance Matrix: (Units=1/GPa)
#
#
# Indices 1 2 3 4 5 6 
#
# 1 0.029676 -0.001893 0.010107 0.019577 -0.009086 0.007394
# 2 -0.001893 0.014710 -0.001507 -0.002527 -0.002472 -0.001719
# 3 0.010107 -0.001507 0.027596 0.015769 -0.004323 0.010106
# 4 0.019577 -0.002527 0.015769 0.060978 -0.009432 0.006536
# 5 -0.009086 -0.002472 -0.004323 -0.009432 0.028815 0.000552
# 6 0.007394 -0.001719 0.010106 0.006536 0.000552 0.034624
#
#
# Mechanical properties :
#
#
# Convention : Reuss Voigt Hill
#
# Bulk Modulus (GPa) = 11.70996 18.47758 15.09377
# Shear Modulus (GPa) = 23.64614 30.50071 27.07342
#
# Velocity S-wave (km/s) = 3.26053 3.70308 3.48883
# Velocity P-wave (km/s) = 4.40902 5.15666 4.79743
#
# Compressibility (1/GPa) = 0.08539738
#
# Stress axis : x y z
#
# Youngs Moduli (GPa) = 33.69672 67.97944 36.23744
#
# Poissons Ratio (x) = 0.12868 -0.36626
# Poissons Ratio (y) = 0.06378 0.05460
# Poissons Ratio (z) = -0.34058 0.10244
#
# Static dielectric constant tensor:
#      x y z
#    x 4.268800 0.035550 0.049320 
#    y 0.035550 3.925030 -0.096640 
#    z 0.049320 -0.096640 3.929570 
# 
# 
# High freq. dielectric constant tensor:
#      x y z
#    x 1.889620 0.011610 0.004670 
#    y 0.011610 1.877550 -0.008350 
#    z 0.004670 -0.008350 1.864030 
# 
# From -- ./inp_files/256701.got.cif
#   From: 2010.06.25/outbox.cif.g09.slc.cpg/sg2_129_cif.got.tgz:256701.got - 2010.06.27 13:26:56.
