data_PCOD8011119
_publ_section_title
;
Structure prediction by ZEFSAII (Michael W. Deem and Ramdas Pophale) SiO2 
 PCOD8011119
Probable space group: P -1
;
_chemical_formula_sum "Si O2"
_cell_formula_units_Z 16
_cell_length_a 8.462262
_cell_length_b 9.273931
_cell_length_c 15.620552
_cell_angle_alpha 68.138123
_cell_angle_beta 50.479629
_cell_angle_gamma 100.916837
_cell_volume 705.041062
_symmetry_space_group_name_H-M "P -1"
_symmetry_group_IT_number 2
_symmetry_cell_setting 'triclinic'
loop_
_space_group_symop_operation_xyz
x,y,z
-x,-y,-z
loop_
_atom_site_type_symbol
_atom_site_label
_atom_site_fract_x
_atom_site_fract_y
_atom_site_fract_z
Si Si1 0.749825 0.513333 0.926523
Si Si2 0.640080 0.321355 0.836423
Si Si3 0.725735 0.244160 0.125232
Si Si4 0.259873 0.920494 0.251313
Si Si5 0.056468 0.117830 0.040586
Si Si6 0.063195 0.273774 0.441602
Si Si7 0.348027 0.101008 0.427139
Si Si8 0.074648 0.953888 0.718238
O O1 0.743438 0.378712 0.884897
O O2 0.989127 0.736124 0.787738
O O3 0.500000 0.500000 0.000000
O O4 0.767408 0.435365 0.029898
O O5 0.686535 0.163756 0.829934
O O6 0.345286 0.235178 0.946750
O O7 0.802074 0.508713 0.680525
O O8 0.630797 0.202146 0.267621
O O9 0.516946 0.056787 0.184868
O O10 0.989349 0.269066 0.017487
O O11 0.050259 0.742835 0.422147
O O12 0.159259 0.044422 0.232945
O O13 0.874748 0.979382 0.213809
O O14 0.000000 0.000000 0.000000
O O15 0.266270 0.226364 0.385447
O O16 0.842847 0.123263 0.484970
O O17 0.327786 0.095243 0.540062
#
# Coordination Sequence:
#
# PCOD8011119 Si02
#       8
#     2   2   2   2   2   2   2   2
#     4  12  22  39  66 100 121 155 220 275 313 357
#     4  12  22  38  67  95 132 163 215 264 313 378
#     4  11  23  40  63  93 132 170 209 253 323 384
#     4  10  21  38  67  94 125 168 213 262 317 374
#     4  12  27  41  59  90 139 176 206 247 322 390
#     4   9  18  35  64  99 124 155 212 272 320 358
#     4   9  19  39  67  91 125 162 210 268 318 367
#     4  11  23  43  67  96 124 164 214 274 311 371
#
# _framework density 22.693712000000001
#
# number of rings (size 3 to 8) (size 9 to 14) (size 15 to 20)
#    0.000    1.250    5.000    1.875    1.750    2.000 
#    0.000    0.000    0.000    3.000    0.000    0.000 
#    0.000    0.000    0.000    0.000    0.000    0.000 
#
# Total GULP energy -198305.790539 kJ/mol
# GULP energy per Si atom -12394.111909 kJ/mol
# Density = 2.264206 g / cm^3
# Si number density = 22.693712 Si / 1000 Ang^3
#
#
#
# Elastic Constant Matrix: (Units=GPa)
#
#
# Indices 1 2 3 4 5 6 
#
# 1 57.6234 29.7175 42.1348 14.7115 12.6646 -3.2467
# 2 29.7175 109.2683 54.9227 21.9789 5.4150 1.4481
# 3 42.1348 54.9227 128.7479 13.3876 26.7602 -7.1073
# 4 14.7115 21.9789 13.3876 39.9643 1.1629 6.0169
# 5 12.6646 5.4150 26.7602 1.1629 38.0089 12.0205
# 6 -3.2467 1.4481 -7.1073 6.0169 12.0205 33.6583
#
#
#
# Elastic Compliance Matrix: (Units=1/GPa)
#
#
# Indices 1 2 3 4 5 6 
#
# 1 0.025845 -0.002927 -0.004971 -0.006808 -0.006051 0.004947
# 2 -0.002927 0.013230 -0.005137 -0.004210 0.003619 -0.002476
# 3 -0.004971 -0.005137 0.013936 -0.000666 -0.009345 0.006141
# 4 -0.006808 -0.004210 -0.000666 0.031118 0.004892 -0.007926
# 5 -0.006051 0.003619 -0.009345 0.004892 0.039879 -0.017829
# 6 0.004947 -0.002476 0.006141 -0.007926 -0.017829 0.039375
#
#
# Mechanical properties :
#
#
# Convention : Reuss Voigt Hill
#
# Bulk Modulus (GPa) = 37.11727 61.02106 49.06917
# Shear Modulus (GPa) = 25.19740 33.58395 29.39067
#
# Velocity S-wave (km/s) = 3.33577 3.85109 3.60266
# Velocity P-wave (km/s) = 5.58818 6.83534 6.24298
#
# Compressibility (1/GPa) = 0.02694164
#
# Stress axis : x y z
#
# Youngs Moduli (GPa) = 38.69217 75.58402 71.75651
#
# Poissons Ratio (x) = 0.22121 0.35669
# Poissons Ratio (y) = 0.11324 0.36863
# Poissons Ratio (z) = 0.19234 0.38829
#
# Static dielectric constant tensor:
#      x y z
#    x 4.040890 0.020930 0.218690 
#    y 0.020930 4.096790 0.317650 
#    z 0.218690 0.317650 4.386330 
# 
# 
# High freq. dielectric constant tensor:
#      x y z
#    x 1.887780 -0.009840 0.014600 
#    y -0.009840 1.884530 0.016220 
#    z 0.014600 0.016220 1.905030 
# 
# From -- ./inp_files/446789.got.cif
#   From: 2010.06.25/outbox.cif.g09.slc.cpg/sg2_224_cif.got.tgz:446789.got - 2010.06.27 13:26:56.
