data_PCOD8011849
_publ_section_title
;
Structure prediction by ZEFSAII (Michael W. Deem and Ramdas Pophale) SiO2 
 PCOD8011849
Probable space group: P -1
;
_chemical_formula_sum "Si O2"
_cell_formula_units_Z 16
_cell_length_a 9.350215
_cell_length_b 21.206975
_cell_length_c 11.201427
_cell_angle_alpha 147.949844
_cell_angle_beta 47.323071
_cell_angle_gamma 143.726078
_cell_volume 697.248770
_symmetry_space_group_name_H-M "P -1"
_symmetry_group_IT_number 2
_symmetry_cell_setting 'triclinic'
loop_
_space_group_symop_operation_xyz
x,y,z
-x,-y,-z
loop_
_atom_site_type_symbol
_atom_site_label
_atom_site_fract_x
_atom_site_fract_y
_atom_site_fract_z
Si Si1 0.780128 0.338132 0.906083
Si Si2 0.709581 0.156724 0.188177
Si Si3 0.962189 0.875971 0.903703
Si Si4 0.863763 0.675495 0.969328
Si Si5 0.529238 0.344033 0.544561
Si Si6 0.017037 0.809004 0.337036
Si Si7 0.293338 0.144858 0.743519
Si Si8 0.489343 0.629890 0.678182
O O1 0.577276 0.253624 0.783707
O O2 0.865868 0.233392 0.698888
O O3 0.669655 0.348175 0.107763
O O4 0.000000 0.500000 0.000000
O O5 0.609173 0.252598 0.420741
O O6 0.804878 0.125477 0.204994
O O7 0.939485 0.261734 0.143672
O O8 0.500000 0.000000 0.000000
O O9 0.772918 0.744908 0.716743
O O10 0.862920 0.884024 0.098488
O O11 0.000000 0.000000 0.000000
O O12 0.656610 0.501307 0.789797
O O13 0.993251 0.712011 0.081644
O O14 0.746459 0.764741 0.184384
O O15 0.241870 0.242206 0.552775
O O16 0.600549 0.373555 0.411019
O O17 0.198733 0.984778 0.488187
O O18 0.500000 0.500000 0.500000
#
# Coordination Sequence:
#
# PCOD8011849 Si02
#       8
#     2   2   2   2   2   2   2   2
#     4  11  24  42  65  97 132 168 215 266 323 393
#     4  11  23  41  65  95 130 169 216 270 326 395
#     4  10  21  39  64  94 126 162 209 265 322 385
#     4  11  24  44  64  91 129 170 219 273 325 387
#     4  12  24  43  66  96 131 171 218 272 329 390
#     4  12  24  42  66  93 128 174 217 270 329 387
#     4  10  22  42  64  92 128 167 216 270 322 386
#     4  11  22  41  67  94 127 169 212 266 324 383
#
# _framework density 22.947331999999999
#
# number of rings (size 3 to 8) (size 9 to 14) (size 15 to 20)
#    0.000    1.000    0.000    9.000    0.000    2.000 
#    0.000    6.250    0.000    0.000    0.000    0.000 
#    0.000    0.000    0.000    0.000    0.000    0.000 
#
# Total GULP energy -198277.831506 kJ/mol
# GULP energy per Si atom -12392.364469 kJ/mol
# Density = 2.289510 g / cm^3
# Si number density = 22.947332 Si / 1000 Ang^3
#
#
#
# Elastic Constant Matrix: (Units=GPa)
#
#
# Indices 1 2 3 4 5 6 
#
# 1 126.2427 33.2382 48.2665 17.2892 -26.0897 12.7406
# 2 33.2382 79.4562 38.2408 33.0672 -8.4637 22.0139
# 3 48.2665 38.2408 124.7845 38.6620 -10.7921 12.5790
# 4 17.2892 33.0672 38.6620 50.8835 1.7373 3.4341
# 5 -26.0897 -8.4637 -10.7921 1.7373 58.8120 3.6542
# 6 12.7406 22.0139 12.5790 3.4341 3.6542 39.6900
#
#
#
# Elastic Compliance Matrix: (Units=1/GPa)
#
#
# Indices 1 2 3 4 5 6 
#
# 1 0.010589 -0.002140 -0.002931 -0.000004 0.003954 -0.001647
# 2 -0.002140 0.022414 -0.000773 -0.012638 0.003173 -0.010699
# 3 -0.002931 -0.000773 0.012008 -0.007537 0.001132 -0.001888
# 4 -0.000004 -0.012638 -0.007537 0.033283 -0.004618 0.006945
# 5 0.003954 0.003173 0.001132 -0.004618 0.019858 -0.004816
# 6 -0.001647 -0.010699 -0.001888 0.006945 -0.004816 0.032099
#
#
# Mechanical properties :
#
#
# Convention : Reuss Voigt Hill
#
# Bulk Modulus (GPa) = 30.00764 63.33050 46.66907
# Shear Modulus (GPa) = 32.67007 43.92630 38.29818
#
# Velocity S-wave (km/s) = 3.77729 4.37993 4.08972
# Velocity P-wave (km/s) = 5.66824 7.29633 6.53320
#
# Compressibility (1/GPa) = 0.03332485
#
# Stress axis : x y z
#
# Youngs Moduli (GPa) = 94.43611 44.61418 83.28047
#
# Poissons Ratio (x) = 0.09546 0.24407
# Poissons Ratio (y) = 0.20207 0.06435
# Poissons Ratio (z) = 0.27677 0.03447
#
# Static dielectric constant tensor:
#      x y z
#    x 4.557930 0.129710 -0.130960 
#    y 0.129710 3.947280 0.191570 
#    z -0.130960 0.191570 4.080170 
# 
# 
# High freq. dielectric constant tensor:
#      x y z
#    x 1.926300 0.005610 -0.006620 
#    y 0.005610 1.907850 0.018760 
#    z -0.006620 0.018760 1.910410 
# 
# From -- ./inp_files/187708.got.cif
#   From: 2010.06.25/outbox.cif.g09.slc.cpg/sg2_94_cif.got.tgz:187708.got - 2010.06.27 13:26:56.
