data_PCOD8011361
_publ_section_title
;
Structure prediction by ZEFSAII (Michael W. Deem and Ramdas Pophale) SiO2 
 PCOD8011361
Probable space group: P -1
;
_chemical_formula_sum "Si O2"
_cell_formula_units_Z 14
_cell_length_a 18.963936
_cell_length_b 7.455625
_cell_length_c 6.478512
_cell_angle_alpha 78.129015
_cell_angle_beta 92.136021
_cell_angle_gamma 133.886027
_cell_volume 638.804330
_symmetry_space_group_name_H-M "P -1"
_symmetry_group_IT_number 2
_symmetry_cell_setting 'triclinic'
loop_
_space_group_symop_operation_xyz
x,y,z
-x,-y,-z
loop_
_atom_site_type_symbol
_atom_site_label
_atom_site_fract_x
_atom_site_fract_y
_atom_site_fract_z
Si Si1 0.954997 0.699753 0.501275
Si Si2 0.561230 0.533899 0.810018
Si Si3 0.074072 0.728913 0.172874
Si Si4 0.947533 0.753692 0.915752
Si Si5 0.281271 0.244169 0.912636
Si Si6 0.380592 0.134758 0.643663
Si Si7 0.223225 0.533946 0.763871
O O1 0.925054 0.480049 0.710185
O O2 0.975337 0.877523 0.655524
O O3 0.857946 0.566077 0.393176
O O4 0.049478 0.809554 0.353842
O O5 0.487211 0.274554 0.723806
O O6 0.604147 0.771732 0.611449
O O7 0.500000 0.500000 0.000000
O O8 0.652422 0.594478 0.913549
O O9 0.991604 0.633751 0.013130
O O10 0.180574 0.970356 0.040586
O O11 0.830014 0.545768 0.999015
O O12 0.000000 0.000000 0.000000
O O13 0.331317 0.204311 0.758819
O O14 0.262118 0.400910 0.759386
O O15 0.315146 0.835824 0.695507
#
# Coordination Sequence:
#
# PCOD8011361 Si02
#       7
#     2   2   2   2   2   2   2
#     4  10  23  39  61  86 127 172 210 260 308 361
#     4   9  21  43  68  91 124 162 202 260 318 377
#     4  10  21  39  60  90 121 170 214 252 309 367
#     4  11  22  41  58  89 130 165 211 256 302 363
#     4  11  22  40  64  95 126 163 211 256 312 373
#     4  10  22  43  67  91 126 163 204 259 319 374
#     4  11  24  40  61  98 125 164 214 255 308 371
#
# _framework density 21.915946000000002
#
# number of rings (size 3 to 8) (size 9 to 14) (size 15 to 20)
#    0.000    1.714    1.429    2.143    0.000    8.571 
#    2.571    6.429    0.000    0.000    0.000    0.000 
#    0.000    0.000    0.000    0.000    0.000    0.000 
#
# Total GULP energy -173527.366297 kJ/mol
# GULP energy per Si atom -12394.811878 kJ/mol
# Density = 2.186606 g / cm^3
# Si number density = 21.915946 Si / 1000 Ang^3
#
#
#
# Elastic Constant Matrix: (Units=GPa)
#
#
# Indices 1 2 3 4 5 6 
#
# 1 60.1139 -10.9858 11.2370 -4.1303 10.7060 6.0197
# 2 -10.9858 46.3982 16.5339 -19.3487 -4.7451 19.8321
# 3 11.2370 16.5339 147.6065 -9.1681 -2.9467 0.9665
# 4 -4.1303 -19.3487 -9.1681 38.8421 4.8822 -4.1541
# 5 10.7060 -4.7451 -2.9467 4.8822 34.0260 1.7466
# 6 6.0197 19.8321 0.9665 -4.1541 1.7466 23.5524
#
#
#
# Elastic Compliance Matrix: (Units=1/GPa)
#
#
# Indices 1 2 3 4 5 6 
#
# 1 0.024454 0.019084 -0.003368 0.009890 -0.005716 -0.020014
# 2 0.019084 0.061064 -0.006364 0.025299 0.000981 -0.051646
# 3 -0.003368 -0.006364 0.007646 -0.001211 0.000719 0.005639
# 4 0.009890 0.025299 -0.001211 0.037853 -0.004258 -0.016789
# 5 -0.005716 0.000981 0.000719 -0.004258 0.032128 -0.002528
# 6 -0.020014 -0.051646 0.005639 -0.016789 -0.002528 0.088057
#
#
# Mechanical properties :
#
#
# Convention : Reuss Voigt Hill
#
# Bulk Modulus (GPa) = 8.93897 31.96542 20.45219
# Shear Modulus (GPa) = 18.53310 35.10633 26.81972
#
# Velocity S-wave (km/s) = 2.91115 4.00667 3.50201
# Velocity P-wave (km/s) = 3.92267 6.00180 5.06996
#
# Compressibility (1/GPa) = 0.11186976
#
# Stress axis : x y z
#
# Youngs Moduli (GPa) = 40.89301 16.37613 130.78325
#
# Poissons Ratio (x) = -0.31253 0.44049
# Poissons Ratio (y) = -0.78042 0.83228
# Poissons Ratio (z) = 0.13773 0.10421
#
# Static dielectric constant tensor:
#      x y z
#    x 4.370500 0.058520 0.190820 
#    y 0.058520 4.179270 -0.136330 
#    z 0.190820 -0.136330 5.163210 
# 
# 
# High freq. dielectric constant tensor:
#      x y z
#    x 1.857330 -0.003350 0.005680 
#    y -0.003350 1.866860 -0.004820 
#    z 0.005680 -0.004820 1.896520 
# 
# From -- ./inp_files/91166.got.cif
#   From: 2010.06.25/outbox.cif.g09.slc.cpg/sg2_46_cif.got.tgz:91166.got - 2010.06.27 13:26:56.
