data_PCOD8011670
_publ_section_title
;
Structure prediction by ZEFSAII (Michael W. Deem and Ramdas Pophale) SiO2 
 PCOD8011670
Probable space group: P -1
;
_chemical_formula_sum "Si O2"
_cell_formula_units_Z 14
_cell_length_a 6.513842
_cell_length_b 23.903291
_cell_length_c 6.304743
_cell_angle_alpha 113.588221
_cell_angle_beta 71.963417
_cell_angle_gamma 137.883617
_cell_volume 603.202711
_symmetry_space_group_name_H-M "P -1"
_symmetry_group_IT_number 2
_symmetry_cell_setting 'triclinic'
loop_
_space_group_symop_operation_xyz
x,y,z
-x,-y,-z
loop_
_atom_site_type_symbol
_atom_site_label
_atom_site_fract_x
_atom_site_fract_y
_atom_site_fract_z
Si Si1 0.638499 0.292356 0.710956
Si Si2 0.472970 0.817364 0.059293
Si Si3 0.740154 0.124387 0.049152
Si Si4 0.101734 0.978194 0.237869
Si Si5 0.849271 0.555913 0.487664
Si Si6 0.771951 0.406346 0.214384
Si Si7 0.699150 0.751153 0.642347
O O1 0.608566 0.220986 0.732212
O O2 0.330625 0.243309 0.593106
O O3 0.944634 0.352798 0.562465
O O4 0.664115 0.354174 0.953913
O O5 0.802158 0.917216 0.094216
O O6 0.218591 0.813254 0.042594
O O7 0.482308 0.759690 0.825805
O O8 0.958956 0.176296 0.263359
O O9 0.395908 0.063925 0.154829
O O10 0.808328 0.075159 0.825263
O O11 0.000000 0.000000 0.500000
O O12 0.500000 0.500000 0.500000
O O13 0.890655 0.498283 0.275101
O O14 0.950418 0.574265 0.729556
O O15 0.475076 0.346109 0.379231
#
# Coordination Sequence:
#
# PCOD8011670 Si02
#       7
#     2   2   2   2   2   2   2
#     4  10  21  41  67  93 133 171 209 272 322 388
#     4  10  22  42  64  97 133 166 219 275 327 390
#     4  10  22  45  70  94 134 178 216 279 332 388
#     4  10  23  44  67 100 130 173 225 275 330 397
#     4  10  21  39  63  91 129 169 212 266 323 377
#     4   9  20  40  61  92 127 165 216 268 312 377
#     4   9  21  41  64  93 133 170 218 271 323 385
#
# _framework density 23.209444000000001
#
# number of rings (size 3 to 8) (size 9 to 14) (size 15 to 20)
#    0.000    2.286    0.000    0.857    2.000    4.571 
#    7.714   10.000    0.000    0.000    0.000    0.000 
#    0.000    0.000    0.000    0.000    0.000    0.000 
#
# Total GULP energy -173437.519668 kJ/mol
# GULP energy per Si atom -12388.394262 kJ/mol
# Density = 2.315662 g / cm^3
# Si number density = 23.209444 Si / 1000 Ang^3
#
#
#
# Elastic Constant Matrix: (Units=GPa)
#
#
# Indices 1 2 3 4 5 6 
#
# 1 131.8878 63.2603 63.6166 -11.8031 28.4063 4.5532
# 2 63.2603 113.1780 35.9705 0.5461 26.0047 10.5377
# 3 63.6166 35.9705 115.9999 5.8612 22.6921 2.4996
# 4 -11.8031 0.5461 5.8612 30.4813 1.6028 6.0904
# 5 28.4063 26.0047 22.6921 1.6028 43.9560 -1.7261
# 6 4.5532 10.5377 2.4996 6.0904 -1.7261 33.0882
#
#
#
# Elastic Compliance Matrix: (Units=1/GPa)
#
#
# Indices 1 2 3 4 5 6 
#
# 1 0.014423 -0.005292 -0.005933 0.007275 -0.003446 -0.001370
# 2 -0.005292 0.013184 -0.000190 -0.001332 -0.004368 -0.003439
# 3 -0.005933 -0.000190 0.012622 -0.004730 -0.002370 0.000671
# 4 0.007275 -0.001332 -0.004730 0.038205 -0.003156 -0.007417
# 5 -0.003446 -0.004368 -0.002370 -0.003156 0.029063 0.004142
# 6 -0.001370 -0.003439 0.000671 -0.007417 0.004142 0.033037
#
#
# Mechanical properties :
#
#
# Convention : Reuss Voigt Hill
#
# Bulk Modulus (GPa) = 57.47381 76.30671 66.89026
# Shear Modulus (GPa) = 29.55736 34.71966 32.13851
#
# Velocity S-wave (km/s) = 3.57249 3.87192 3.72522
# Velocity P-wave (km/s) = 6.46791 7.27584 6.88374
#
# Compressibility (1/GPa) = 0.01739923
#
# Stress axis : x y z
#
# Youngs Moduli (GPa) = 69.33522 75.84832 79.22933
#
# Poissons Ratio (x) = 0.40136 0.47004
# Poissons Ratio (y) = 0.36690 0.01508
# Poissons Ratio (z) = 0.41134 0.01443
#
# Static dielectric constant tensor:
#      x y z
#    x 4.112500 -0.180280 0.215140 
#    y -0.180280 4.615300 0.129010 
#    z 0.215140 0.129010 4.067190 
# 
# 
# High freq. dielectric constant tensor:
#      x y z
#    x 1.902880 -0.002370 0.020890 
#    y -0.002370 1.932710 0.016600 
#    z 0.020890 0.016600 1.903410 
# 
# From -- ./inp_files/13583.got.cif
#   From: 2010.06.25/outbox.cif.g09.slc.cpg/sg2_7_cif.got.tgz:13583.got - 2010.06.27 13:26:56.
