data_PCOD8011220
_publ_section_title
;
Structure prediction by ZEFSAII (Michael W. Deem and Ramdas Pophale) SiO2 
 PCOD8011220
Probable space group: P -1
;
_chemical_formula_sum "Si O2"
_cell_formula_units_Z 12
_cell_length_a 7.812595
_cell_length_b 11.706690
_cell_length_c 10.131051
_cell_angle_alpha 104.954053
_cell_angle_beta 79.554538
_cell_angle_gamma 45.653112
_cell_volume 545.455874
_symmetry_space_group_name_H-M "P -1"
_symmetry_group_IT_number 2
_symmetry_cell_setting 'triclinic'
loop_
_space_group_symop_operation_xyz
x,y,z
-x,-y,-z
loop_
_atom_site_type_symbol
_atom_site_label
_atom_site_fract_x
_atom_site_fract_y
_atom_site_fract_z
Si Si1 0.775071 0.201149 0.522450
Si Si2 0.280510 0.087607 0.944284
Si Si3 0.459822 0.245160 0.341618
Si Si4 0.924364 0.664968 0.184831
Si Si5 0.248181 0.501382 0.849491
Si Si6 0.012457 0.668693 0.457354
O O1 0.622223 0.209463 0.433313
O O2 0.556960 0.363952 0.713131
O O3 0.923179 0.239712 0.454772
O O4 0.000000 0.000000 0.500000
O O5 0.311317 0.155989 0.829378
O O6 0.319672 0.930658 0.844929
O O7 0.967579 0.280137 0.104811
O O8 0.500000 0.000000 0.000000
O O9 0.248134 0.252368 0.410773
O O10 0.289558 0.440044 0.354021
O O11 0.848354 0.574086 0.218287
O O12 0.943419 0.734133 0.333345
O O13 0.223465 0.504986 0.014649
#
# Coordination Sequence:
#
# PCOD8011220 Si02
#       6
#     2   2   2   2   2   2
#     4  12  26  43  68  99 133 174 225 272 329 392
#     4  10  21  38  71  97 125 177 219 266 335 388
#     4  11  25  44  66  99 134 173 228 268 326 398
#     4   9  19  39  68  94 130 172 216 269 326 386
#     4   9  21  40  65  95 133 163 224 269 320 394
#     4  11  24  42  72  94 136 179 215 277 330 384
#
# _framework density 21.999945
#
# number of rings (size 3 to 8) (size 9 to 14) (size 15 to 20)
#    1.000    0.667    1.667    2.500    4.667    2.000 
#    0.000    0.833    0.000    0.000    0.000    0.000 
#    0.000    0.000    0.000    0.000    0.000    0.000 
#
# Total GULP energy -148702.983641 kJ/mol
# GULP energy per Si atom -12391.915303 kJ/mol
# Density = 2.194987 g / cm^3
# Si number density = 21.999945 Si / 1000 Ang^3
#
#
#
# Elastic Constant Matrix: (Units=GPa)
#
#
# Indices 1 2 3 4 5 6 
#
# 1 103.5155 46.8012 26.5120 10.3703 1.4807 14.4056
# 2 46.8012 145.8403 46.0537 19.3932 7.1333 -9.6982
# 3 26.5120 46.0537 66.8195 16.2872 8.2141 -6.3001
# 4 10.3703 19.3932 16.2872 42.5073 1.7842 7.0052
# 5 1.4807 7.1333 8.2141 1.7842 22.1492 6.1677
# 6 14.4056 -9.6982 -6.3001 7.0052 6.1677 30.5209
#
#
#
# Elastic Compliance Matrix: (Units=1/GPa)
#
#
# Indices 1 2 3 4 5 6 
#
# 1 0.013900 -0.004143 -0.004646 0.001760 0.004831 -0.010216
# 2 -0.004143 0.010328 -0.003818 -0.003061 -0.002990 0.005756
# 3 -0.004646 -0.003818 0.023163 -0.007141 -0.009044 0.009227
# 4 0.001760 -0.003061 -0.007141 0.028823 0.004185 -0.010739
# 5 0.004831 -0.002990 -0.009044 0.004185 0.053503 -0.016870
# 6 -0.010216 0.005756 0.009227 -0.010739 -0.016870 0.047194
#
#
# Mechanical properties :
#
#
# Convention : Reuss Voigt Hill
#
# Bulk Modulus (GPa) = 45.09175 61.65658 53.37417
# Shear Modulus (GPa) = 23.86447 32.15602 28.01025
#
# Velocity S-wave (km/s) = 3.29713 3.82729 3.57206
# Velocity P-wave (km/s) = 5.91908 6.90054 6.42857
#
# Compressibility (1/GPa) = 0.02217700
#
# Stress axis : x y z
#
# Youngs Moduli (GPa) = 71.94386 96.82232 43.17266
#
# Poissons Ratio (x) = 0.40116 0.20056
# Poissons Ratio (y) = 0.29808 0.16484
# Poissons Ratio (z) = 0.33422 0.36968
#
# Static dielectric constant tensor:
#      x y z
#    x 3.825300 -0.016580 0.101010 
#    y -0.016580 3.975750 0.229450 
#    z 0.101010 0.229450 4.001850 
# 
# 
# High freq. dielectric constant tensor:
#      x y z
#    x 1.841780 0.002310 0.019140 
#    y 0.002310 1.868340 0.011980 
#    z 0.019140 0.011980 1.864060 
# 
# From -- ./inp_files/390393.got.cif
#   From: 2010.06.25/outbox.cif.g09.slc.cpg/sg2_196_cif.got.tgz:390393.got - 2010.06.27 13:26:56.
