data_PCOD8011857
_publ_section_title
;
Structure prediction by ZEFSAII (Michael W. Deem and Ramdas Pophale) SiO2 
 PCOD8011857
Probable space group: P -1
;
_chemical_formula_sum "Si O2"
_cell_formula_units_Z 16
_cell_length_a 22.317855
_cell_length_b 6.026323
_cell_length_c 5.210343
_cell_angle_alpha 80.115053
_cell_angle_beta 93.389637
_cell_angle_gamma 96.185057
_cell_volume 685.750473
_symmetry_space_group_name_H-M "P -1"
_symmetry_group_IT_number 2
_symmetry_cell_setting 'triclinic'
loop_
_space_group_symop_operation_xyz
x,y,z
-x,-y,-z
loop_
_atom_site_type_symbol
_atom_site_label
_atom_site_fract_x
_atom_site_fract_y
_atom_site_fract_z
Si Si1 0.033285 0.164119 0.180595
Si Si2 0.573798 0.422563 0.245437
Si Si3 0.075264 0.764453 0.589393
Si Si4 0.861378 0.546673 0.692056
Si Si5 0.540121 0.841774 0.890224
Si Si6 0.190807 0.039908 0.650349
Si Si7 0.627402 0.241801 0.777828
Si Si8 0.763177 0.150615 0.818999
O O1 0.096118 0.323005 0.097339
O O2 0.982356 0.324704 0.233387
O O3 0.057577 0.000957 0.428142
O O4 0.000000 0.000000 0.000000
O O5 0.504644 0.306020 0.287758
O O6 0.609700 0.417862 0.522364
O O7 0.571244 0.684452 0.129550
O O8 0.607521 0.308441 0.043387
O O9 0.088575 0.572708 0.431377
O O10 0.135815 0.849514 0.742863
O O11 0.811233 0.368416 0.837494
O O12 0.828822 0.712017 0.461012
O O13 0.593872 0.997198 0.732298
O O14 0.500000 0.000000 0.000000
O O15 0.226952 0.963108 0.428150
O O16 0.231791 0.036847 0.917558
O O17 0.698381 0.239143 0.793616
#
# Coordination Sequence:
#
# PCOD8011857 Si02
#       8
#     2   2   2   2   2   2   2   2
#     4  10  21  39  64  95 123 156 211 265 321 398
#     4  10  22  39  64  97 129 168 221 257 316 387
#     4   9  21  40  60  92 124 158 208 260 326 393
#     4  10  23  43  66  91 127 173 204 267 333 383
#     4   9  21  39  63  96 133 172 207 267 322 368
#     4  10  24  43  66  90 129 162 219 265 318 387
#     4  11  23  40  65  91 131 169 217 267 314 373
#     4  11  25  45  63  96 126 171 220 267 317 387
#
# _framework density 23.332101000000002
#
# number of rings (size 3 to 8) (size 9 to 14) (size 15 to 20)
#    0.000    2.000    0.000    1.500    5.250   11.000 
#    9.000    0.000    0.000    0.000    0.000    0.000 
#    0.000    0.000    0.000    0.000    0.000    0.000 
#
# Total GULP energy -198257.810823 kJ/mol
# GULP energy per Si atom -12391.113176 kJ/mol
# Density = 2.327900 g / cm^3
# Si number density = 23.332101 Si / 1000 Ang^3
#
#
#
# Elastic Constant Matrix: (Units=GPa)
#
#
# Indices 1 2 3 4 5 6 
#
# 1 140.4236 47.2340 44.5341 -0.3597 -2.3923 -6.4303
# 2 47.2340 84.8139 9.9438 -7.6212 -2.7903 -7.0207
# 3 44.5341 9.9438 99.9455 -9.0729 13.9214 0.2877
# 4 -0.3597 -7.6212 -9.0729 21.3287 -3.1818 8.0072
# 5 -2.3923 -2.7903 13.9214 -3.1818 29.4269 -6.9049
# 6 -6.4303 -7.0207 0.2877 8.0072 -6.9049 18.8438
#
#
#
# Elastic Compliance Matrix: (Units=1/GPa)
#
#
# Indices 1 2 3 4 5 6 
#
# 1 0.010928 -0.005384 -0.005353 -0.005535 0.003596 0.005475
# 2 -0.005384 0.015366 0.001124 0.005287 0.001576 0.002202
# 3 -0.005353 0.001124 0.014160 0.008152 -0.008030 -0.008030
# 4 -0.005535 0.005287 0.008152 0.062016 -0.003603 -0.027716
# 5 0.003596 0.001576 -0.008030 -0.003603 0.042283 0.018962
# 6 0.005475 0.002202 -0.008030 -0.027716 0.018962 0.074604
#
#
# Mechanical properties :
#
#
# Convention : Reuss Voigt Hill
#
# Bulk Modulus (GPa) = 47.10434 58.73408 52.91921
# Shear Modulus (GPa) = 20.35341 28.81796 24.58569
#
# Velocity S-wave (km/s) = 2.95674 3.51824 3.24964
# Velocity P-wave (km/s) = 5.64702 6.46001 6.06715
#
# Compressibility (1/GPa) = 0.02122947
#
# Stress axis : x y z
#
# Youngs Moduli (GPa) = 91.51072 65.07740 70.61978
#
# Poissons Ratio (x) = 0.35038 0.37800
# Poissons Ratio (y) = 0.49270 -0.07940
# Poissons Ratio (z) = 0.48983 -0.07317
#
# Static dielectric constant tensor:
#      x y z
#    x 5.607220 0.204020 0.657450 
#    y 0.204020 4.389600 -0.112030 
#    z 0.657450 -0.112030 4.222570 
# 
# 
# High freq. dielectric constant tensor:
#      x y z
#    x 1.926460 -0.008310 0.011420 
#    y -0.008310 1.925170 -0.012730 
#    z 0.011420 -0.012730 1.908360 
# 
# From -- ./inp_files/121570.got.cif
#   From: 2010.06.25/outbox.cif.g09.slc.cpg/sg2_61_cif.got.tgz:121570.got - 2010.06.27 13:26:56.
