data_PCOD8011628
_publ_section_title
;
Structure prediction by ZEFSAII (Michael W. Deem and Ramdas Pophale) SiO2 
 PCOD8011628
Probable space group: P -1
;
_chemical_formula_sum "Si O2"
_cell_formula_units_Z 16
_cell_length_a 14.872042
_cell_length_b 9.088962
_cell_length_c 14.567695
_cell_angle_alpha 141.749384
_cell_angle_beta 40.246351
_cell_angle_gamma 134.112916
_cell_volume 764.280377
_symmetry_space_group_name_H-M "P -1"
_symmetry_group_IT_number 2
_symmetry_cell_setting 'triclinic'
loop_
_space_group_symop_operation_xyz
x,y,z
-x,-y,-z
loop_
_atom_site_type_symbol
_atom_site_label
_atom_site_fract_x
_atom_site_fract_y
_atom_site_fract_z
Si Si1 0.581713 0.654104 0.181601
Si Si2 0.012157 0.923254 0.109737
Si Si3 0.454579 0.116496 0.001534
Si Si4 0.810848 0.293664 0.004347
Si Si5 0.400103 0.870440 0.295393
Si Si6 0.111306 0.473658 0.322293
Si Si7 0.114120 0.449954 0.112228
Si Si8 0.703117 0.766573 0.330808
O O1 0.534105 0.833793 0.233703
O O2 0.596026 0.763720 0.326899
O O3 0.459866 0.399892 0.153379
O O4 0.733025 0.605831 0.009334
O O5 0.856011 0.947093 0.275810
O O6 0.996720 0.799206 0.959337
O O7 0.118638 0.190015 0.163566
O O8 0.056698 0.720214 0.040584
O O9 0.561112 0.097729 0.825621
O O10 0.293616 0.974142 0.034469
O O11 0.500000 0.000000 0.000000
O O12 0.726479 0.496579 0.201657
O O13 0.863567 0.342586 0.882111
O O14 0.267179 0.639454 0.305223
O O15 0.362041 0.124307 0.478132
O O16 0.058347 0.545891 0.297727
O O17 0.000000 0.500000 0.500000
#
# Coordination Sequence:
#
# PCOD8011628 Si02
#       8
#     2   2   2   2   2   2   2   2
#     4  10  21  39  63  89 118 158 201 239 296 350
#     4  10  21  40  68  85 117 158 205 241 291 358
#     4  12  21  41  64  88 120 159 201 244 290 355
#     4  10  21  40  68  86 115 159 207 237 292 359
#     4  12  24  38  63  87 127 154 195 249 299 349
#     4  12  23  40  60  92 122 155 194 250 304 343
#     4  10  21  40  64  88 121 155 199 247 290 350
#     4  10  21  41  61  88 125 154 193 253 296 344
#
# _framework density 20.934728
#
# number of rings (size 3 to 8) (size 9 to 14) (size 15 to 20)
#    0.000    1.500    5.000    3.375    1.750    0.500 
#    0.000    0.625    5.500    0.000    0.000    0.000 
#    0.000    0.000    0.000    0.000    0.000    0.000 
#
# Total GULP energy -198301.566307 kJ/mol
# GULP energy per Si atom -12393.847894 kJ/mol
# Density = 2.088708 g / cm^3
# Si number density = 20.934728 Si / 1000 Ang^3
#
#
#
# Elastic Constant Matrix: (Units=GPa)
#
#
# Indices 1 2 3 4 5 6 
#
# 1 118.6497 35.4646 56.6456 -1.7633 10.8206 -11.1740
# 2 35.4646 102.8212 33.2379 1.8540 12.1737 -1.3036
# 3 56.6456 33.2379 70.3233 -7.6848 24.4016 -6.8987
# 4 -1.7633 1.8540 -7.6848 30.9433 -6.9397 5.4267
# 5 10.8206 12.1737 24.4016 -6.9397 24.2845 4.4839
# 6 -11.1740 -1.3036 -6.8987 5.4267 4.4839 27.1929
#
#
#
# Elastic Compliance Matrix: (Units=1/GPa)
#
#
# Indices 1 2 3 4 5 6 
#
# 1 0.014962 -0.001512 -0.013890 -0.001107 0.007448 0.001544
# 2 -0.001512 0.011785 -0.004017 -0.002114 -0.001733 -0.000368
# 3 -0.013890 -0.004017 0.039996 0.000091 -0.033768 0.009796
# 4 -0.001107 -0.002114 0.000091 0.037359 0.014040 -0.010304
# 5 0.007448 -0.001733 -0.033768 0.014040 0.080678 -0.021695
# 6 0.001544 -0.000368 0.009796 -0.010304 -0.021695 0.045510
#
#
# Mechanical properties :
#
#
# Convention : Reuss Voigt Hill
#
# Bulk Modulus (GPa) = 35.84039 60.27672 48.05855
# Shear Modulus (GPa) = 17.95777 27.58053 22.76915
#
# Velocity S-wave (km/s) = 2.93200 3.63361 3.30150
# Velocity P-wave (km/s) = 5.34971 6.81611 6.12694
#
# Compressibility (1/GPa) = 0.02790148
#
# Stress axis : x y z
#
# Youngs Moduli (GPa) = 66.83773 84.85647 25.00251
#
# Poissons Ratio (x) = 0.12834 0.34730
# Poissons Ratio (y) = 0.10109 0.10045
# Poissons Ratio (z) = 0.92841 0.34090
#
# Static dielectric constant tensor:
#      x y z
#    x 4.011640 0.190200 0.261420 
#    y 0.190200 3.891400 0.029020 
#    z 0.261420 0.029020 3.481680 
# 
# 
# High freq. dielectric constant tensor:
#      x y z
#    x 1.836420 0.009860 0.017540 
#    y 0.009860 1.827110 0.004940 
#    z 0.017540 0.004940 1.784700 
# 
# From -- ./inp_files/529112.got.cif
#   From: 2010.06.25/outbox.cif.g09.slc.cpg/sg2_265_cif.got.tgz:529112.got - 2010.06.27 13:26:56.
