data_PCOD8011056
_publ_section_title
;
Structure prediction by ZEFSAII (Michael W. Deem and Ramdas Pophale) SiO2 
 PCOD8011056
Probable space group: P -1
;
_chemical_formula_sum "Si O2"
_cell_formula_units_Z 16
_cell_length_a 12.416376
_cell_length_b 8.834977
_cell_length_c 8.532138
_cell_angle_alpha 66.820280
_cell_angle_beta 109.999097
_cell_angle_gamma 74.109085
_cell_volume 712.444112
_symmetry_space_group_name_H-M "P -1"
_symmetry_group_IT_number 2
_symmetry_cell_setting 'triclinic'
loop_
_space_group_symop_operation_xyz
x,y,z
-x,-y,-z
loop_
_atom_site_type_symbol
_atom_site_label
_atom_site_fract_x
_atom_site_fract_y
_atom_site_fract_z
Si Si1 0.639374 0.249754 0.524657
Si Si2 0.512374 0.302874 0.119384
Si Si3 0.746042 0.473468 0.967568
Si Si4 0.075462 0.423223 0.812385
Si Si5 0.627484 0.604483 0.516818
Si Si6 0.737241 0.104062 0.124545
Si Si7 0.126831 0.025972 0.071807
Si Si8 0.817939 0.709175 0.415559
O O1 0.609608 0.212422 0.350159
O O2 0.640633 0.446392 0.464241
O O3 0.523771 0.257572 0.575610
O O4 0.784705 0.079093 0.692373
O O5 0.366420 0.344485 0.070483
O O6 0.583538 0.170261 0.058769
O O7 0.500000 0.500000 0.000000
O O8 0.709929 0.497260 0.756449
O O9 0.876776 0.481337 0.070596
O O10 0.766436 0.272478 0.123492
O O11 0.161626 0.370955 0.718479
O O12 0.928708 0.569110 0.642058
O O13 0.075504 0.245397 0.965823
O O14 0.683410 0.729196 0.409862
O O15 0.820522 0.907247 0.336358
O O16 0.767035 0.071774 0.970862
O O17 0.000000 0.000000 0.000000
#
# Coordination Sequence:
#
# PCOD8011056 Si02
#       8
#     2   2   2   2   2   2   2   2
#     4  10  21  39  66  94 127 171 212 257 321 380
#     4   9  21  39  63  96 131 159 209 262 318 375
#     4  10  21  41  65  93 129 164 209 268 315 377
#     4  10  24  41  63  90 130 168 215 265 320 371
#     4  10  21  38  66  93 125 166 214 261 318 378
#     4  10  22  42  62  93 128 163 213 259 315 383
#     4  11  23  44  65  93 129 170 214 260 315 386
#     4  10  23  42  61  92 129 170 213 263 320 380
#
# _framework density 22.457901
#
# number of rings (size 3 to 8) (size 9 to 14) (size 15 to 20)
#    0.000    2.000    1.250    0.750    5.250    3.000 
#    2.250    5.000    0.000    0.000    0.000    0.000 
#    0.000    0.000    0.000    0.000    0.000    0.000 
#
# Total GULP energy -198271.289290 kJ/mol
# GULP energy per Si atom -12391.955581 kJ/mol
# Density = 2.240679 g / cm^3
# Si number density = 22.457901 Si / 1000 Ang^3
#
#
#
# Elastic Constant Matrix: (Units=GPa)
#
#
# Indices 1 2 3 4 5 6 
#
# 1 94.1027 19.9877 26.2978 -4.2666 -1.8833 14.5016
# 2 19.9877 69.1849 10.6581 -14.3291 2.2724 8.4145
# 3 26.2978 10.6581 83.9422 -23.7805 16.0435 13.7598
# 4 -4.2666 -14.3291 -23.7805 34.2139 3.3804 -2.0154
# 5 -1.8833 2.2724 16.0435 3.3804 30.2751 1.8424
# 6 14.5016 8.4145 13.7598 -2.0154 1.8424 38.8922
#
#
#
# Elastic Compliance Matrix: (Units=1/GPa)
#
#
# Indices 1 2 3 4 5 6 
#
# 1 0.013198 -0.003685 -0.005270 -0.004165 0.004519 -0.002689
# 2 -0.003685 0.017399 0.002607 0.008851 -0.003742 -0.002677
# 3 -0.005270 0.002607 0.021078 0.016120 -0.013214 -0.004595
# 4 -0.004165 0.008851 0.016120 0.044851 -0.014287 -0.003064
# 5 0.004519 -0.003742 -0.013214 -0.014287 0.042125 0.001064
# 6 -0.002689 -0.002677 -0.004595 -0.003064 0.001064 0.028711
#
#
# Mechanical properties :
#
#
# Convention : Reuss Voigt Hill
#
# Bulk Modulus (GPa) = 25.65470 40.12410 32.88940
# Shear Modulus (GPa) = 25.89991 33.36199 29.63095
#
# Velocity S-wave (km/s) = 3.39966 3.85844 3.63629
# Velocity P-wave (km/s) = 5.18252 6.14453 5.68392
#
# Compressibility (1/GPa) = 0.03897921
#
# Stress axis : x y z
#
# Youngs Moduli (GPa) = 75.76839 57.47554 47.44203
#
# Poissons Ratio (x) = 0.21181 0.25000
# Poissons Ratio (y) = 0.27922 -0.12367
# Poissons Ratio (z) = 0.39927 -0.14983
#
# Static dielectric constant tensor:
#      x y z
#    x 4.125620 -0.280410 0.070950 
#    y -0.280410 4.015110 -0.268590 
#    z 0.070950 -0.268590 3.999600 
# 
# 
# High freq. dielectric constant tensor:
#      x y z
#    x 1.885280 -0.014040 -0.005740 
#    y -0.014040 1.869970 -0.010540 
#    z -0.005740 -0.010540 1.882130 
# 
# From -- ./inp_files/226459.got.cif
#   From: 2010.06.25/outbox.cif.g09.slc.cpg/sg2_114_cif.got.tgz:226459.got - 2010.06.27 13:26:56.
