data_PCOD8011444
_publ_section_title
;
Structure prediction by ZEFSAII (Michael W. Deem and Ramdas Pophale) SiO2 
 PCOD8011444
Probable space group: P -1
;
_chemical_formula_sum "Si O2"
_cell_formula_units_Z 14
_cell_length_a 13.023116
_cell_length_b 9.940817
_cell_length_c 11.829740
_cell_angle_alpha 36.222111
_cell_angle_beta 135.002594
_cell_angle_gamma 122.358135
_cell_volume 637.605244
_symmetry_space_group_name_H-M "P -1"
_symmetry_group_IT_number 2
_symmetry_cell_setting 'triclinic'
loop_
_space_group_symop_operation_xyz
x,y,z
-x,-y,-z
loop_
_atom_site_type_symbol
_atom_site_label
_atom_site_fract_x
_atom_site_fract_y
_atom_site_fract_z
Si Si1 0.009374 0.542200 0.786344
Si Si2 0.845645 0.305811 0.992249
Si Si3 0.607306 0.683856 0.498122
Si Si4 0.423926 0.942096 0.364051
Si Si5 0.388462 0.518763 0.735401
Si Si6 0.746817 0.825107 0.287419
Si Si7 0.306044 0.424795 0.968937
O O1 0.934914 0.325819 0.930071
O O2 0.904138 0.686463 0.519506
O O3 0.047314 0.706764 0.808014
O O4 0.152369 0.457422 0.886973
O O5 0.739380 0.538225 0.762502
O O6 0.759791 0.079977 0.078377
O O7 0.500000 0.500000 0.500000
O O8 0.537673 0.877878 0.396017
O O9 0.660714 0.827163 0.336922
O O10 0.333720 0.721823 0.467830
O O11 0.500000 0.000000 0.500000
O O12 0.322638 0.168749 0.102103
O O13 0.345727 0.284698 0.807541
O O14 0.565193 0.513779 0.887479
O O15 0.314337 0.579757 0.757892
#
# Coordination Sequence:
#
# PCOD8011444 Si02
#       7
#     2   2   2   2   2   2   2
#     4  10  23  44  63  93 129 172 220 260 313 406
#     4  10  23  42  66  90 130 173 213 265 329 377
#     4  11  23  39  65 101 130 159 218 274 316 384
#     4  10  21  39  61  91 132 167 204 260 327 381
#     4  10  22  40  61  97 125 161 220 269 311 389
#     4  11  24  40  68  96 130 165 221 269 325 375
#     4  10  23  41  65  89 130 172 211 261 330 384
#
# _framework density 21.957162
#
# number of rings (size 3 to 8) (size 9 to 14) (size 15 to 20)
#    0.000    1.714    1.429    2.143    2.000    6.857 
#    0.000    1.429    0.000    0.000    0.000    0.000 
#    0.000    0.000    0.000    0.000    0.000    0.000 
#
# Total GULP energy -173560.035337 kJ/mol
# GULP energy per Si atom -12397.145381 kJ/mol
# Density = 2.190719 g / cm^3
# Si number density = 21.957162 Si / 1000 Ang^3
#
#
#
# Elastic Constant Matrix: (Units=GPa)
#
#
# Indices 1 2 3 4 5 6 
#
# 1 179.6455 37.6950 53.8788 -12.2063 13.4187 -1.4306
# 2 37.6950 92.4443 19.6072 -15.2290 0.3950 -2.3004
# 3 53.8788 19.6072 67.0791 -6.3543 3.5738 0.0050
# 4 -12.2063 -15.2290 -6.3543 28.2525 3.1963 -9.4347
# 5 13.4187 0.3950 3.5738 3.1963 34.6516 -8.8290
# 6 -1.4306 -2.3004 0.0050 -9.4347 -8.8290 32.4904
#
#
#
# Elastic Compliance Matrix: (Units=1/GPa)
#
#
# Indices 1 2 3 4 5 6 
#
# 1 0.007900 -0.001793 -0.005542 0.001476 -0.002619 -0.000061
# 2 -0.001793 0.013126 -0.001798 0.006822 0.000884 0.003072
# 3 -0.005542 -0.001798 0.019991 0.001116 -0.000012 -0.000053
# 4 0.001476 0.006822 0.001116 0.044494 -0.001544 0.013049
# 5 -0.002619 0.000884 -0.000012 -0.001544 0.032101 0.008222
# 6 -0.000061 0.003072 -0.000053 0.013049 0.008222 0.037017
#
#
# Mechanical properties :
#
#
# Convention : Reuss Voigt Hill
#
# Bulk Modulus (GPa) = 43.95212 62.39233 53.17222
# Shear Modulus (GPa) = 27.70397 34.27807 30.99102
#
# Velocity S-wave (km/s) = 3.55594 3.95541 3.76098
# Velocity P-wave (km/s) = 6.07620 7.02406 6.56726
#
# Compressibility (1/GPa) = 0.02275203
#
# Stress axis : x y z
#
# Youngs Moduli (GPa) = 126.57541 76.18274 50.02213
#
# Poissons Ratio (x) = 0.13661 0.27723
# Poissons Ratio (y) = 0.22697 0.08992
# Poissons Ratio (z) = 0.70151 0.13694
#
# Static dielectric constant tensor:
#      x y z
#    x 4.078680 0.197550 -0.293910 
#    y 0.197550 4.016980 -0.224610 
#    z -0.293910 -0.224610 4.281350 
# 
# 
# High freq. dielectric constant tensor:
#      x y z
#    x 1.869710 0.002740 -0.024010 
#    y 0.002740 1.857780 0.001520 
#    z -0.024010 0.001520 1.858110 
# 
# From -- ./inp_files/418790.got.cif
#   From: 2010.06.25/outbox.cif.g09.slc.cpg/sg2_210_cif.got.tgz:418790.got - 2010.06.27 13:26:56.
