data_PCOD8011626
_publ_section_title
;
Structure prediction by ZEFSAII (Michael W. Deem and Ramdas Pophale) SiO2 
 PCOD8011626
Probable space group: P -1
;
_chemical_formula_sum "Si O2"
_cell_formula_units_Z 16
_cell_length_a 13.241383
_cell_length_b 8.584178
_cell_length_c 11.070741
_cell_angle_alpha 39.649857
_cell_angle_beta 89.973495
_cell_angle_gamma 89.532689
_cell_volume 802.899287
_symmetry_space_group_name_H-M "P -1"
_symmetry_group_IT_number 2
_symmetry_cell_setting 'triclinic'
loop_
_space_group_symop_operation_xyz
x,y,z
-x,-y,-z
loop_
_atom_site_type_symbol
_atom_site_label
_atom_site_fract_x
_atom_site_fract_y
_atom_site_fract_z
Si Si1 0.218380 0.203514 0.940918
Si Si2 0.410858 0.493475 0.833016
Si Si3 0.068205 0.155407 0.750616
Si Si4 0.025011 0.356778 0.966355
Si Si5 0.920730 0.505936 0.662578
Si Si6 0.285072 0.703984 0.162435
Si Si7 0.456525 0.364127 0.467303
Si Si8 0.415120 0.818921 0.870047
O O1 0.307600 0.397711 0.832430
O O2 0.158624 0.219438 0.804037
O O3 0.140728 0.260133 0.017342
O O4 0.268474 0.935149 0.113640
O O5 0.464541 0.648983 0.635523
O O6 0.387037 0.664714 0.844356
O O7 0.481672 0.269882 0.012025
O O8 0.097070 0.250447 0.560933
O O9 0.962085 0.282670 0.712732
O O10 0.051603 0.867330 0.917658
O O11 0.000000 0.500000 0.000000
O O12 0.003431 0.547543 0.743064
O O13 0.818378 0.437014 0.770914
O O14 0.359250 0.513522 0.337718
O O15 0.323131 0.796212 0.977265
O O16 0.500000 0.500000 0.500000
O O17 0.426074 0.095756 0.665793
#
# Coordination Sequence:
#
# PCOD8011626 Si02
#       8
#     2   2   2   2   2   2   2   2
#     4  11  21  40  65  90 120 164 208 252 305 366
#     4  10  23  41  63  92 126 163 205 249 311 368
#     4  10  21  41  64  86 124 160 201 262 298 359
#     4  11  23  41  64  91 128 160 197 256 313 366
#     4  10  21  39  63  89 117 160 207 246 306 363
#     4  11  22  37  65  90 118 163 211 248 303 367
#     4  11  23  39  63  94 123 161 207 255 301 362
#     4  10  23  43  62  88 132 163 197 263 308 356
#
# _framework density 19.927779999999998
#
# number of rings (size 3 to 8) (size 9 to 14) (size 15 to 20)
#    0.000    1.500    2.500    2.625    5.250    2.500 
#    0.000    0.000    0.000    0.000    0.000    0.000 
#    0.000    0.000    0.000    0.000    0.000    0.000 
#
# Total GULP energy -198390.765597 kJ/mol
# GULP energy per Si atom -12399.422850 kJ/mol
# Density = 1.988242 g / cm^3
# Si number density = 19.927780 Si / 1000 Ang^3
#
#
#
# Elastic Constant Matrix: (Units=GPa)
#
#
# Indices 1 2 3 4 5 6 
#
# 1 124.1334 48.6395 54.2504 0.9922 -16.3713 -5.4842
# 2 48.6395 101.2048 44.5186 12.8464 -2.7805 -15.0945
# 3 54.2504 44.5186 138.1816 5.4912 -8.2642 -6.8392
# 4 0.9922 12.8464 5.4912 24.3459 -4.6485 -1.6767
# 5 -16.3713 -2.7805 -8.2642 -4.6485 22.4708 4.7663
# 6 -5.4842 -15.0945 -6.8392 -1.6767 4.7663 33.9859
#
#
#
# Elastic Compliance Matrix: (Units=1/GPa)
#
#
# Indices 1 2 3 4 5 6 
#
# 1 0.012436 -0.005307 -0.002928 0.004475 0.008663 -0.001934
# 2 -0.005307 0.015292 -0.002585 -0.007978 -0.005814 0.005837
# 3 -0.002928 -0.002585 0.009293 -0.000443 0.000850 0.000109
# 4 0.004475 -0.007978 -0.000443 0.047412 0.012408 -0.002311
# 5 0.008663 -0.005814 0.000850 0.012408 0.054686 -0.008070
# 6 -0.001934 0.005837 0.000109 -0.002311 -0.008070 0.032744
#
#
# Mechanical properties :
#
#
# Convention : Reuss Voigt Hill
#
# Bulk Modulus (GPa) = 65.01520 73.14853 69.08187
# Shear Modulus (GPa) = 25.17232 30.56795 27.87014
#
# Velocity S-wave (km/s) = 3.55798 3.92080 3.74379
# Velocity P-wave (km/s) = 7.04096 7.56858 7.30953
#
# Compressibility (1/GPa) = 0.01538102
#
# Stress axis : x y z
#
# Youngs Moduli (GPa) = 80.40861 65.39240 107.60784
#
# Poissons Ratio (x) = 0.34707 0.31509
# Poissons Ratio (y) = 0.42676 0.27815
# Poissons Ratio (z) = 0.23544 0.16903
#
# Static dielectric constant tensor:
#      x y z
#    x 3.660450 -0.064630 -0.092730 
#    y -0.064630 3.459920 0.242470 
#    z -0.092730 0.242470 3.568000 
# 
# 
# High freq. dielectric constant tensor:
#      x y z
#    x 1.787320 -0.009610 0.002190 
#    y -0.009610 1.766880 0.005720 
#    z 0.002190 0.005720 1.781560 
# 
# From -- ./inp_files/416113.got.cif
#   From: 2010.06.25/outbox.cif.g09.slc.cpg/sg2_209_cif.got.tgz:416113.got - 2010.06.27 13:26:56.
