data_PCOD8011448
_publ_section_title
;
Structure prediction by ZEFSAII (Michael W. Deem and Ramdas Pophale) SiO2 
 PCOD8011448
Probable space group: P -1
;
_chemical_formula_sum "Si O2"
_cell_formula_units_Z 16
_cell_length_a 9.284026
_cell_length_b 8.763514
_cell_length_c 11.230732
_cell_angle_alpha 109.097945
_cell_angle_beta 113.957422
_cell_angle_gamma 71.130832
_cell_volume 769.610107
_symmetry_space_group_name_H-M "P -1"
_symmetry_group_IT_number 2
_symmetry_cell_setting 'triclinic'
loop_
_space_group_symop_operation_xyz
x,y,z
-x,-y,-z
loop_
_atom_site_type_symbol
_atom_site_label
_atom_site_fract_x
_atom_site_fract_y
_atom_site_fract_z
Si Si1 0.675289 0.947892 0.412291
Si Si2 0.360061 0.829035 0.313339
Si Si3 0.140000 0.419177 0.870141
Si Si4 0.456624 0.494502 0.622012
Si Si5 0.728872 0.880178 0.014534
Si Si6 0.847057 0.600555 0.405512
Si Si7 0.922025 0.273993 0.913625
Si Si8 0.584845 0.145295 0.208569
O O1 0.512245 0.880597 0.316026
O O2 0.832800 0.798737 0.443277
O O3 0.673831 0.065840 0.552462
O O4 0.690893 0.053717 0.329008
O O5 0.394786 0.633157 0.301657
O O6 0.198862 0.849108 0.184074
O O7 0.279954 0.262884 0.924176
O O8 0.154735 0.458734 0.746280
O O9 0.968238 0.372203 0.836328
O O10 0.156561 0.589703 0.981231
O O11 0.500000 0.500000 0.500000
O O12 0.299821 0.419942 0.565641
O O13 0.422200 0.662377 0.728090
O O14 0.909989 0.844403 0.011812
O O15 0.680080 0.064684 0.102118
O O16 0.601350 0.872854 0.864523
O O17 0.000000 0.500000 0.500000
#
# Coordination Sequence:
#
# PCOD8011448 Si02
#       8
#     2   2   2   2   2   2   2   2
#     4  10  21  41  60  87 129 164 206 260 319 361
#     4  10  21  39  61  92 122 166 210 259 309 379
#     4   9  19  40  62  92 125 159 213 257 313 371
#     4  11  24  38  62  93 123 164 218 248 313 378
#     4   9  20  36  63  88 120 164 205 249 315 373
#     4  11  25  42  62  94 130 166 210 268 314 367
#     4   9  19  38  65  90 121 165 213 249 321 367
#     4  11  20  39  62  89 125 164 207 259 307 380
#
# _framework density 20.789747999999999
#
# number of rings (size 3 to 8) (size 9 to 14) (size 15 to 20)
#    0.750    1.250    2.500    0.750    1.750    1.000 
#    4.500    4.375    0.000    0.000    0.000    0.000 
#    0.000    0.000    0.000    0.000    0.000    0.000 
#
# Total GULP energy -198221.270394 kJ/mol
# GULP energy per Si atom -12388.829400 kJ/mol
# Density = 2.074243 g / cm^3
# Si number density = 20.789748 Si / 1000 Ang^3
#
#
#
# Elastic Constant Matrix: (Units=GPa)
#
#
# Indices 1 2 3 4 5 6 
#
# 1 50.0793 14.0355 16.3581 1.8659 0.9929 -13.5156
# 2 14.0355 116.1265 39.6385 16.5411 2.6787 -29.4996
# 3 16.3581 39.6385 66.4978 5.3378 -2.1557 -7.0896
# 4 1.8659 16.5411 5.3378 39.5136 0.1413 2.1143
# 5 0.9929 2.6787 -2.1557 0.1413 35.7655 -4.4651
# 6 -13.5156 -29.4996 -7.0896 2.1143 -4.4651 29.0563
#
#
#
# Elastic Compliance Matrix: (Units=1/GPa)
#
#
# Indices 1 2 3 4 5 6 
#
# 1 0.024796 0.002698 -0.006137 -0.002168 0.000370 0.012990
# 2 0.002698 0.016035 -0.007962 -0.006628 0.000283 0.016117
# 3 -0.006137 -0.007962 0.020626 0.001142 0.001282 -0.005792
# 4 -0.002168 -0.006628 0.001142 0.028549 -0.000691 -0.009642
# 5 0.000370 0.000283 0.001282 -0.000691 0.028661 0.005227
# 6 0.012990 0.016117 -0.005792 -0.009642 0.005227 0.056913
#
#
# Mechanical properties :
#
#
# Convention : Reuss Voigt Hill
#
# Bulk Modulus (GPa) = 25.87006 41.41864 33.64435
# Shear Modulus (GPa) = 23.66656 31.71183 27.68920
#
# Velocity S-wave (km/s) = 3.37764 3.90982 3.65344
# Velocity P-wave (km/s) = 5.26137 6.35202 5.83224
#
# Compressibility (1/GPa) = 0.03865472
#
# Stress axis : x y z
#
# Youngs Moduli (GPa) = 40.32888 62.36382 48.48135
#
# Poissons Ratio (x) = -0.16826 0.29753
# Poissons Ratio (y) = -0.10881 0.38603
# Poissons Ratio (z) = 0.24750 0.49657
#
# Static dielectric constant tensor:
#      x y z
#    x 3.567910 -0.236950 -0.004820 
#    y -0.236950 3.990310 0.049320 
#    z -0.004820 0.049320 3.531350 
# 
# 
# High freq. dielectric constant tensor:
#      x y z
#    x 1.788980 -0.021030 -0.004420 
#    y -0.021030 1.822100 0.010360 
#    z -0.004420 0.010360 1.805230 
# 
# From -- ./inp_files/380073.got.cif
#   From: 2010.06.25/outbox.cif.g09.slc.cpg/sg2_191_cif.got.tgz:380073.got - 2010.06.27 13:26:56.
