data_PCOD8011030
_publ_section_title
;
Structure prediction by ZEFSAII (Michael W. Deem and Ramdas Pophale) SiO2 
 PCOD8011030
Probable space group: P -1
;
_chemical_formula_sum "Si O2"
_cell_formula_units_Z 16
_cell_length_a 17.433732
_cell_length_b 24.101237
_cell_length_c 15.020164
_cell_angle_alpha 20.375763
_cell_angle_beta 28.961855
_cell_angle_gamma 19.691939
_cell_volume 738.849349
_symmetry_space_group_name_H-M "P -1"
_symmetry_group_IT_number 2
_symmetry_cell_setting 'triclinic'
loop_
_space_group_symop_operation_xyz
x,y,z
-x,-y,-z
loop_
_atom_site_type_symbol
_atom_site_label
_atom_site_fract_x
_atom_site_fract_y
_atom_site_fract_z
Si Si1 0.746680 0.024563 0.669008
Si Si2 0.730568 0.770469 0.212063
Si Si3 0.077504 0.643483 0.461015
Si Si4 0.397410 0.919398 0.768517
Si Si5 0.346065 0.958696 0.970713
Si Si6 0.458019 0.523667 0.722707
Si Si7 0.842813 0.220279 0.514295
Si Si8 0.835352 0.512023 0.205039
O O1 0.949553 0.880709 0.608704
O O2 0.524565 0.109011 0.724086
O O3 0.715540 0.233662 0.414071
O O4 0.800456 0.875070 0.924668
O O5 0.896363 0.501603 0.428192
O O6 0.754531 0.805711 0.238213
O O7 0.287796 0.607363 0.317468
O O8 0.062347 0.549041 0.707833
O O9 0.861397 0.910118 0.259257
O O10 0.500000 0.000000 0.500000
O O11 0.405356 0.932490 0.846950
O O12 0.547036 0.660788 0.970500
O O13 0.155569 0.960718 0.178325
O O14 0.575568 0.759860 0.093818
O O15 0.395729 0.578069 0.599337
O O16 0.849984 0.321360 0.442690
O O17 0.000000 0.500000 0.000000
#
# Coordination Sequence:
#
# PCOD8011030 Si02
#       8
#     2   2   2   2   2   2   2   2
#     4  10  21  38  66 104 131 167 209 276 332 372
#     4  10  21  40  65  97 137 167 213 265 327 390
#     4  11  24  43  64  92 134 178 209 261 331 388
#     4  12  28  44  64  92 134 179 217 264 327 394
#     4  12  23  41  65  99 130 163 221 276 322 377
#     4  11  22  43  65  93 131 169 218 265 321 390
#     4  12  22  37  68 103 130 160 216 284 324 373
#     4  12  22  38  65  93 128 167 218 274 317 378
#
# _framework density 21.655294999999999
#
# number of rings (size 3 to 8) (size 9 to 14) (size 15 to 20)
#    0.000    0.750    3.750    5.625    1.750    0.500 
#    0.000    0.000    0.000    3.750    0.000    0.000 
#    0.000    0.000    0.000    0.000    0.000    0.000 
#
# Total GULP energy -198341.770396 kJ/mol
# GULP energy per Si atom -12396.360650 kJ/mol
# Density = 2.160601 g / cm^3
# Si number density = 21.655295 Si / 1000 Ang^3
#
#
#
# Elastic Constant Matrix: (Units=GPa)
#
#
# Indices 1 2 3 4 5 6 
#
# 1 87.2338 14.5885 35.1883 -13.8998 -15.8201 19.5421
# 2 14.5885 68.5485 29.7312 0.8953 -9.7661 14.6566
# 3 35.1883 29.7312 115.0138 2.1851 -20.2227 14.6650
# 4 -13.8998 0.8953 2.1851 34.0203 -3.1640 5.8395
# 5 -15.8201 -9.7661 -20.2227 -3.1640 34.9836 -4.6234
# 6 19.5421 14.6566 14.6650 5.8395 -4.6234 25.9129
#
#
#
# Elastic Compliance Matrix: (Units=1/GPa)
#
#
# Indices 1 2 3 4 5 6 
#
# 1 0.018570 0.001236 -0.003361 0.010752 0.005899 -0.014172
# 2 0.001236 0.018149 -0.003477 0.002076 0.002582 -0.009237
# 3 -0.003361 -0.003477 0.011452 -0.001494 0.003868 -0.000953
# 4 0.010752 0.002076 -0.001494 0.037076 0.005850 -0.015749
# 5 0.005899 0.002582 0.003868 0.005850 0.034303 -0.003297
# 6 -0.014172 -0.009237 -0.000953 -0.015749 -0.003297 0.058003
#
#
# Mechanical properties :
#
#
# Convention : Reuss Voigt Hill
#
# Bulk Modulus (GPa) = 27.05167 47.75691 37.40429
# Shear Modulus (GPa) = 24.86570 31.73589 28.30080
#
# Velocity S-wave (km/s) = 3.39226 3.83234 3.61900
# Velocity P-wave (km/s) = 5.27848 6.45628 5.89686
#
# Compressibility (1/GPa) = 0.03696630
#
# Stress axis : x y z
#
# Youngs Moduli (GPa) = 53.84887 55.09919 87.32257
#
# Poissons Ratio (x) = -0.06809 0.29350
# Poissons Ratio (y) = -0.06655 0.30365
# Poissons Ratio (z) = 0.18099 0.19160
#
# Static dielectric constant tensor:
#      x y z
#    x 5.347700 -0.221700 -0.627040 
#    y -0.221700 3.959710 0.000970 
#    z -0.627040 0.000970 4.072040 
# 
# 
# High freq. dielectric constant tensor:
#      x y z
#    x 1.853340 0.005290 -0.030750 
#    y 0.005290 1.851710 0.004610 
#    z -0.030750 0.004610 1.841390 
# 
# From -- ./inp_files/336838.got.cif
#   From: 2010.06.25/outbox.cif.g09.slc.cpg/sg2_169_cif.got.tgz:336838.got - 2010.06.27 13:26:56.
