data_PCOD8011722
_publ_section_title
;
Structure prediction by ZEFSAII (Michael W. Deem and Ramdas Pophale) SiO2 
 PCOD8011722
Probable space group: P -1
;
_chemical_formula_sum "Si O2"
_cell_formula_units_Z 14
_cell_length_a 8.982820
_cell_length_b 11.790215
_cell_length_c 8.701287
_cell_angle_alpha 46.090501
_cell_angle_beta 68.139730
_cell_angle_gamma 78.280132
_cell_volume 614.081380
_symmetry_space_group_name_H-M "P -1"
_symmetry_group_IT_number 2
_symmetry_cell_setting 'triclinic'
loop_
_space_group_symop_operation_xyz
x,y,z
-x,-y,-z
loop_
_atom_site_type_symbol
_atom_site_label
_atom_site_fract_x
_atom_site_fract_y
_atom_site_fract_z
Si Si1 0.599307 0.651202 0.381872
Si Si2 0.164932 0.905809 0.926751
Si Si3 0.696962 0.617644 0.709665
Si Si4 0.709441 0.210501 0.561547
Si Si5 0.963545 0.350070 0.544057
Si Si6 0.371739 0.722813 0.806974
Si Si7 0.175021 0.086170 0.040840
O O1 0.500000 0.500000 0.500000
O O2 0.668487 0.581664 0.575675
O O3 0.475999 0.785333 0.325585
O O4 0.739761 0.734964 0.137683
O O5 0.319848 0.842764 0.844950
O O6 0.218210 0.058833 0.866608
O O7 0.085696 0.793529 0.193265
O O8 0.018294 0.923951 0.847034
O O9 0.567820 0.738301 0.705354
O O10 0.881730 0.689085 0.582048
O O11 0.682748 0.456898 0.962355
O O12 0.818284 0.353547 0.472334
O O13 0.721652 0.236612 0.349604
O O14 0.758638 0.036947 0.750067
O O15 0.000000 0.500000 0.500000
#
# Coordination Sequence:
#
# PCOD8011722 Si02
#       7
#     2   2   2   2   2   2   2
#     4  11  22  39  69  99 124 165 221 274 316 378
#     4  10  21  39  69  92 125 176 222 260 324 387
#     4  10  21  39  63  94 135 166 216 269 326 385
#     4  10  24  39  62  95 135 165 214 272 323 388
#     4  11  19  37  68  94 124 176 222 267 313 379
#     4  10  22  41  62  93 137 171 208 270 337 383
#     4  10  22  41  67  95 128 167 225 269 311 389
#
# _framework density 22.798283000000001
#
# number of rings (size 3 to 8) (size 9 to 14) (size 15 to 20)
#    0.000    1.714    2.857    1.286    2.000    1.143 
#    0.000    4.286    6.286    0.000    0.000    0.000 
#    0.000    0.000    0.000    0.000    0.000    0.000 
#
# Total GULP energy -173449.879102 kJ/mol
# GULP energy per Si atom -12389.277079 kJ/mol
# Density = 2.274639 g / cm^3
# Si number density = 22.798283 Si / 1000 Ang^3
#
#
#
# Elastic Constant Matrix: (Units=GPa)
#
#
# Indices 1 2 3 4 5 6 
#
# 1 110.0869 14.4825 42.6020 1.5842 2.7496 -8.3999
# 2 14.4825 66.5270 15.2338 3.4312 -8.9165 -9.0645
# 3 42.6020 15.2338 100.1310 -1.3361 12.9618 3.0657
# 4 1.5842 3.4312 -1.3361 28.2538 -3.5152 -12.1261
# 5 2.7496 -8.9165 12.9618 -3.5152 43.2682 -3.6948
# 6 -8.3999 -9.0645 3.0657 -12.1261 -3.6948 32.8549
#
#
#
# Elastic Compliance Matrix: (Units=1/GPa)
#
#
# Indices 1 2 3 4 5 6 
#
# 1 0.011327 -0.000764 -0.004927 0.000883 0.000976 0.003580
# 2 -0.000764 0.017349 -0.003144 0.000915 0.005135 0.005800
# 3 -0.004927 -0.003144 0.013298 -0.001170 -0.004784 -0.004338
# 4 0.000883 0.000915 -0.001170 0.043218 0.005459 0.017152
# 5 0.000976 0.005135 -0.004784 0.005459 0.026592 0.007118
# 6 0.003580 0.005800 -0.004338 0.017152 0.007118 0.040488
#
#
# Mechanical properties :
#
#
# Convention : Reuss Voigt Hill
#
# Bulk Modulus (GPa) = 41.14802 46.82018 43.98410
# Shear Modulus (GPa) = 28.08262 34.50382 31.29322
#
# Velocity S-wave (km/s) = 3.51349 3.89452 3.70890
# Velocity P-wave (km/s) = 5.87770 6.38782 6.13807
#
# Compressibility (1/GPa) = 0.02430250
#
# Stress axis : x y z
#
# Youngs Moduli (GPa) = 88.28347 57.63933 75.19865
#
# Poissons Ratio (x) = 0.04406 0.37052
# Poissons Ratio (y) = 0.06749 0.23645
# Poissons Ratio (z) = 0.43499 0.18124
#
# Static dielectric constant tensor:
#      x y z
#    x 6.199280 1.370610 -0.903750 
#    y 1.370610 5.641480 -0.914320 
#    z -0.903750 -0.914320 4.522580 
# 
# 
# High freq. dielectric constant tensor:
#      x y z
#    x 1.920230 -0.016300 0.000730 
#    y -0.016300 1.867870 -0.013550 
#    z 0.000730 -0.013550 1.898560 
# 
# From -- ./inp_files/149383.got.cif
#   From: 2010.06.25/outbox.cif.g09.slc.cpg/sg2_75_cif.got.tgz:149383.got - 2010.06.27 13:26:56.
