data_PCOD8011997
_publ_section_title
;
Structure prediction by ZEFSAII (Michael W. Deem and Ramdas Pophale) SiO2 
 PCOD8011997
Probable space group: P -1
;
_chemical_formula_sum "Si O2"
_cell_formula_units_Z 16
_cell_length_a 8.574685
_cell_length_b 16.276597
_cell_length_c 20.428983
_cell_angle_alpha 27.626556
_cell_angle_beta 37.646156
_cell_angle_gamma 32.359290
_cell_volume 696.734645
_symmetry_space_group_name_H-M "P -1"
_symmetry_group_IT_number 2
_symmetry_cell_setting 'triclinic'
loop_
_space_group_symop_operation_xyz
x,y,z
-x,-y,-z
loop_
_atom_site_type_symbol
_atom_site_label
_atom_site_fract_x
_atom_site_fract_y
_atom_site_fract_z
Si Si1 0.403087 0.213016 0.605628
Si Si2 0.748104 0.602004 0.740147
Si Si3 0.358369 0.772821 0.219847
Si Si4 0.778865 0.776690 0.827213
Si Si5 0.141017 0.651259 0.922499
Si Si6 0.954840 0.637572 0.508314
Si Si7 0.891302 0.809297 0.036445
Si Si8 0.160341 0.659853 0.662437
O O1 0.136147 0.392367 0.609109
O O2 0.709131 0.216319 0.506209
O O3 0.306632 0.242590 0.541145
O O4 0.474397 0.992291 0.765110
O O5 0.397709 0.710341 0.792481
O O6 0.805902 0.681345 0.597310
O O7 0.905492 0.659550 0.703849
O O8 0.879226 0.354211 0.872465
O O9 0.174990 0.728687 0.366320
O O10 0.558728 0.568205 0.255484
O O11 0.136013 0.966295 0.110491
O O12 0.569384 0.838870 0.140227
O O13 0.892868 0.775684 0.862882
O O14 0.027588 0.759129 0.706239
O O15 0.715073 0.592277 0.965808
O O16 0.987913 0.711469 0.001003
#
# Coordination Sequence:
#
# PCOD8011997 Si02
#       8
#     2   2   2   2   2   2   2   2
#     4  10  23  42  65  88 129 167 208 253 318 368
#     4  11  23  40  65  93 128 162 207 266 308 363
#     4   9  20  38  64  91 125 162 208 258 313 365
#     4  11  23  41  62  90 125 175 203 255 311 373
#     4  11  24  41  63  92 130 164 214 253 307 379
#     4  10  23  43  64  96 124 163 213 261 303 378
#     4  10  21  39  65  95 125 167 203 264 318 360
#     4  10  21  40  63  91 128 162 205 264 311 367
#
# _framework density 22.964265999999999
#
# number of rings (size 3 to 8) (size 9 to 14) (size 15 to 20)
#    0.000    1.750    2.500    1.500    1.750    8.500 
#    0.000    2.500    0.000    0.000    0.000    0.000 
#    0.000    0.000    0.000    0.000    0.000    0.000 
#
# Total GULP energy -198346.706876 kJ/mol
# GULP energy per Si atom -12396.669180 kJ/mol
# Density = 2.291200 g / cm^3
# Si number density = 22.964266 Si / 1000 Ang^3
#
#
#
# Elastic Constant Matrix: (Units=GPa)
#
#
# Indices 1 2 3 4 5 6 
#
# 1 80.7217 33.1538 39.6530 7.8299 3.2509 -10.9037
# 2 33.1538 64.2316 48.4760 -5.7012 -6.0837 -14.8835
# 3 39.6530 48.4760 106.8926 -6.4344 9.4182 -7.3309
# 4 7.8299 -5.7012 -6.4344 51.7104 -5.1879 -2.2194
# 5 3.2509 -6.0837 9.4182 -5.1879 24.5266 2.5850
# 6 -10.9037 -14.8835 -7.3309 -2.2194 2.5850 22.9391
#
#
#
# Elastic Compliance Matrix: (Units=1/GPa)
#
#
# Indices 1 2 3 4 5 6 
#
# 1 0.017702 -0.006767 -0.003183 -0.004092 -0.003991 0.003060
# 2 -0.006767 0.033464 -0.012649 0.005092 0.013720 0.013400
# 3 -0.003183 -0.012649 0.016828 0.000156 -0.008793 -0.003336
# 4 -0.004092 0.005092 0.000156 0.021255 0.005947 0.002795
# 5 -0.003991 0.013720 -0.008793 0.005947 0.049423 -0.000799
# 6 0.003060 0.013400 -0.003336 0.002795 -0.000799 0.053037
#
#
# Mechanical properties :
#
#
# Convention : Reuss Voigt Hill
#
# Bulk Modulus (GPa) = 43.86706 54.93460 49.40083
# Shear Modulus (GPa) = 20.44940 28.53941 24.49440
#
# Velocity S-wave (km/s) = 2.98734 3.52913 3.26948
# Velocity P-wave (km/s) = 5.57160 6.37024 5.98426
#
# Compressibility (1/GPa) = 0.02279615
#
# Stress axis : x y z
#
# Youngs Moduli (GPa) = 56.49074 29.88243 59.42641
#
# Poissons Ratio (x) = 0.20222 0.18913
# Poissons Ratio (y) = 0.38228 0.75169
# Poissons Ratio (z) = 0.17979 0.37799
#
# Static dielectric constant tensor:
#      x y z
#    x 3.818420 -0.175830 -0.117650 
#    y -0.175830 4.093940 -0.180490 
#    z -0.117650 -0.180490 4.394730 
# 
# 
# High freq. dielectric constant tensor:
#      x y z
#    x 1.874930 -0.015710 -0.008130 
#    y -0.015710 1.904130 -0.004140 
#    z -0.008130 -0.004140 1.919400 
# 
# From -- ./inp_files/505507.got.cif
#   From: 2010.06.25/outbox.cif.g09.slc.cpg/sg2_253_cif.got.tgz:505507.got - 2010.06.27 13:26:56.
