data_PCOD8011639
_publ_section_title
;
Structure prediction by ZEFSAII (Michael W. Deem and Ramdas Pophale) SiO2 
 PCOD8011639
Probable space group: P -1
;
_chemical_formula_sum "Si O2"
_cell_formula_units_Z 16
_cell_length_a 17.840625
_cell_length_b 10.123164
_cell_length_c 6.863167
_cell_angle_alpha 47.544415
_cell_angle_beta 72.563947
_cell_angle_gamma 60.016940
_cell_volume 790.747733
_symmetry_space_group_name_H-M "P -1"
_symmetry_group_IT_number 2
_symmetry_cell_setting 'triclinic'
loop_
_space_group_symop_operation_xyz
x,y,z
-x,-y,-z
loop_
_atom_site_type_symbol
_atom_site_label
_atom_site_fract_x
_atom_site_fract_y
_atom_site_fract_z
Si Si1 0.008244 0.693875 0.835413
Si Si2 0.358409 0.605542 0.481377
Si Si3 0.550828 0.825766 0.985992
Si Si4 0.332361 0.964726 0.425689
Si Si5 0.149168 0.046968 0.559538
Si Si6 0.932153 0.944769 0.994853
Si Si7 0.436406 0.700237 0.951404
Si Si8 0.830151 0.259397 0.438109
O O1 0.106562 0.637031 0.751928
O O2 0.940516 0.856005 0.586146
O O3 0.000000 0.500000 0.000000
O O4 0.989810 0.748850 0.022744
O O5 0.422452 0.391644 0.725777
O O6 0.357687 0.794417 0.411131
O O7 0.386857 0.631817 0.218669
O O8 0.265126 0.596337 0.557820
O O9 0.487900 0.826177 0.860412
O O10 0.500000 0.000000 0.000000
O O11 0.629388 0.873741 0.800993
O O12 0.228231 0.102944 0.384008
O O13 0.364279 0.849561 0.716758
O O14 0.130200 0.086026 0.764897
O O15 0.182524 0.821694 0.683652
O O16 0.870830 0.100204 0.734798
O O17 0.000000 0.000000 0.000000
O O18 0.500000 0.500000 0.000000
#
# Coordination Sequence:
#
# PCOD8011639 Si02
#       8
#     2   2   2   2   2   2   2   2
#     4  11  23  37  60  92 128 165 201 255 311 368
#     4  11  24  43  65  98 134 166 211 271 319 381
#     4  12  24  44  71  92 130 170 211 262 329 387
#     4  11  24  42  66 100 129 167 215 270 318 377
#     4  10  21  40  64  88 125 165 210 253 307 373
#     4  11  18  39  64  85 115 168 215 242 300 371
#     4  12  23  44  69  94 128 168 215 262 328 386
#     4  10  21  39  63  90 123 167 208 250 314 371
#
# _framework density 20.234013999999998
#
# number of rings (size 3 to 8) (size 9 to 14) (size 15 to 20)
#    0.000    1.000    5.000    3.000    1.750    0.500 
#    0.000    1.250    0.000    0.000    0.000    0.000 
#    0.000    0.000    0.000    0.000    0.000    0.000 
#
# Total GULP energy -198259.714661 kJ/mol
# GULP energy per Si atom -12391.232166 kJ/mol
# Density = 2.018796 g / cm^3
# Si number density = 20.234014 Si / 1000 Ang^3
#
#
#
# Elastic Constant Matrix: (Units=GPa)
#
#
# Indices 1 2 3 4 5 6 
#
# 1 115.3219 32.9272 22.9170 19.8752 -22.7521 0.5013
# 2 32.9272 97.7443 33.1179 23.2334 -12.1374 11.2888
# 3 22.9170 33.1179 98.5827 27.0272 -16.3552 4.8407
# 4 19.8752 23.2334 27.0272 33.8068 -1.5947 -3.2936
# 5 -22.7521 -12.1374 -16.3552 -1.5947 43.2456 3.4299
# 6 0.5013 11.2888 4.8407 -3.2936 3.4299 31.0020
#
#
#
# Elastic Compliance Matrix: (Units=1/GPa)
#
#
# Indices 1 2 3 4 5 6 
#
# 1 0.011107 -0.001851 0.000458 -0.005444 0.005356 -0.000748
# 2 -0.001851 0.014291 -0.001411 -0.008073 0.002690 -0.006109
# 3 0.000458 -0.001411 0.014583 -0.011054 0.005232 -0.003524
# 4 -0.005444 -0.008073 -0.011054 0.047818 -0.008401 0.010763
# 5 0.005356 0.002690 0.005232 -0.008401 0.028838 -0.005966
# 6 -0.000748 -0.006109 -0.003524 0.010763 -0.005966 0.036846
#
#
# Mechanical properties :
#
#
# Convention : Reuss Voigt Hill
#
# Bulk Modulus (GPa) = 29.09368 54.39700 41.74534
# Shear Modulus (GPa) = 29.31674 36.45668 32.88671
#
# Velocity S-wave (km/s) = 3.81055 4.24931 4.03590
# Velocity P-wave (km/s) = 5.81121 7.14268 6.51107
#
# Compressibility (1/GPa) = 0.03437173
#
# Stress axis : x y z
#
# Youngs Moduli (GPa) = 90.03236 69.97380 68.57266
#
# Poissons Ratio (x) = 0.12955 -0.03138
# Poissons Ratio (y) = 0.16668 0.09675
# Poissons Ratio (z) = -0.04120 0.09873
#
# Static dielectric constant tensor:
#      x y z
#    x 3.756370 0.143430 -0.024720 
#    y 0.143430 3.578180 0.281710 
#    z -0.024720 0.281710 3.648690 
# 
# 
# High freq. dielectric constant tensor:
#      x y z
#    x 1.811660 -0.004820 -0.005660 
#    y -0.004820 1.783460 0.020080 
#    z -0.005660 0.020080 1.784450 
# 
# From -- ./inp_files/47189.got.cif
#   From: 2010.06.25/outbox.cif.g09.slc.cpg/sg2_24_cif.got.tgz:47189.got - 2010.06.27 13:26:56.
