data_PCOD8011510
_publ_section_title
;
Structure prediction by ZEFSAII (Michael W. Deem and Ramdas Pophale) SiO2 
 PCOD8011510
Probable space group: P -1
;
_chemical_formula_sum "Si O2"
_cell_formula_units_Z 16
_cell_length_a 12.135200
_cell_length_b 16.057138
_cell_length_c 9.136499
_cell_angle_alpha 100.048449
_cell_angle_beta 36.846925
_cell_angle_gamma 74.953383
_cell_volume 774.548863
_symmetry_space_group_name_H-M "P -1"
_symmetry_group_IT_number 2
_symmetry_cell_setting 'triclinic'
loop_
_space_group_symop_operation_xyz
x,y,z
-x,-y,-z
loop_
_atom_site_type_symbol
_atom_site_label
_atom_site_fract_x
_atom_site_fract_y
_atom_site_fract_z
Si Si1 0.348820 0.938046 0.229327
Si Si2 0.398671 0.326122 0.829397
Si Si3 0.080282 0.519673 0.773853
Si Si4 0.912658 0.075046 0.258525
Si Si5 0.224701 0.086053 0.140034
Si Si6 0.389273 0.315604 0.156724
Si Si7 0.783982 0.331861 0.714289
Si Si8 0.435841 0.546071 0.316566
O O1 0.125629 0.976492 0.581879
O O2 0.212250 0.019252 0.258461
O O3 0.493670 0.965522 0.178859
O O4 0.537847 0.805010 0.933522
O O5 0.641508 0.193175 0.538094
O O6 0.492528 0.385301 0.674922
O O7 0.271956 0.371190 0.138579
O O8 0.175952 0.359654 0.977698
O O9 0.199989 0.410403 0.508338
O O10 0.274949 0.536980 0.595248
O O11 0.000000 0.500000 0.000000
O O12 0.114895 0.082522 0.101740
O O13 0.000000 0.000000 0.000000
O O14 0.072893 0.218704 0.383748
O O15 0.650003 0.283879 0.863950
O O16 0.725333 0.395173 0.642081
O O17 0.701170 0.419502 0.959680
#
# Coordination Sequence:
#
# PCOD8011510 Si02
#       8
#     2   2   2   2   2   2   2   2
#     4  10  23  38  64  91 122 157 205 259 296 353
#     4  10  21  39  62  89 106 163 210 232 299 353
#     4  11  24  37  56  91 127 153 190 246 308 360
#     4  11  24  42  62  89 124 164 201 252 302 362
#     4  11  21  39  62  94 119 155 212 250 303 351
#     4   9  19  38  61  88 115 158 202 242 293 354
#     4   9  17  33  63  89 110 154 199 246 294 337
#     4   9  19  36  58  86 118 149 193 250 286 354
#
# _framework density 20.657184999999998
#
# number of rings (size 3 to 8) (size 9 to 14) (size 15 to 20)
#    0.000    2.000    3.750    1.500    5.250    2.000 
#    2.250    2.500    0.000    0.000    0.000    0.000 
#    0.000    0.000    0.000    0.000    0.000    0.000 
#
# Total GULP energy -198235.062608 kJ/mol
# GULP energy per Si atom -12389.691413 kJ/mol
# Density = 2.061017 g / cm^3
# Si number density = 20.657185 Si / 1000 Ang^3
#
#
#
# Elastic Constant Matrix: (Units=GPa)
#
#
# Indices 1 2 3 4 5 6 
#
# 1 49.5722 0.6145 30.8170 7.6373 7.2407 -7.5411
# 2 0.6145 80.4416 23.7309 -0.2536 18.2336 -2.3498
# 3 30.8170 23.7309 76.1263 -1.1740 16.5721 -6.6418
# 4 7.6373 -0.2536 -1.1740 29.4592 -5.0267 -3.8588
# 5 7.2407 18.2336 16.5721 -5.0267 21.2331 4.2535
# 6 -7.5411 -2.3498 -6.6418 -3.8588 4.2535 19.3091
#
#
#
# Elastic Compliance Matrix: (Units=1/GPa)
#
#
# Indices 1 2 3 4 5 6 
#
# 1 0.031859 0.005947 -0.011643 -0.009279 -0.011031 0.009737
# 2 0.005947 0.017284 -0.003888 -0.003480 -0.015838 0.005882
# 3 -0.011643 -0.003888 0.021749 0.002824 -0.010046 0.005238
# 4 -0.009279 -0.003480 0.002824 0.038858 0.012772 0.001876
# 5 -0.011031 -0.015838 -0.010046 0.012772 0.080297 -0.024827
# 6 0.009737 0.005882 0.005238 0.001876 -0.024827 0.063953
#
#
# Mechanical properties :
#
#
# Convention : Reuss Voigt Hill
#
# Bulk Modulus (GPa) = 19.33360 35.16275 27.24818
# Shear Modulus (GPa) = 17.21709 24.06546 20.64127
#
# Velocity S-wave (km/s) = 2.89012 3.41690 3.16449
# Velocity P-wave (km/s) = 4.52953 5.71191 5.15473
#
# Compressibility (1/GPa) = 0.05172341
#
# Stress axis : x y z
#
# Youngs Moduli (GPa) = 31.38843 57.85801 45.97924
#
# Poissons Ratio (x) = -0.34408 0.53534
# Poissons Ratio (y) = -0.18667 0.17877
# Poissons Ratio (z) = 0.36546 0.22495
#
# Static dielectric constant tensor:
#      x y z
#    x 3.567020 0.096900 -0.063890 
#    y 0.096900 3.825350 -0.029320 
#    z -0.063890 -0.029320 3.736720 
# 
# 
# High freq. dielectric constant tensor:
#      x y z
#    x 1.785230 0.009540 -0.024260 
#    y 0.009540 1.816870 0.001820 
#    z -0.024260 0.001820 1.793880 
# 
# From -- ./inp_files/277945.got.cif
#   From: 2010.06.25/outbox.cif.g09.slc.cpg/sg2_139_cif.got.tgz:277945.got - 2010.06.27 13:26:56.
