data_PCOD8011213
_publ_section_title
;
Structure prediction by ZEFSAII (Michael W. Deem and Ramdas Pophale) SiO2 
 PCOD8011213
Probable space group: P -1
;
_chemical_formula_sum "Si O2"
_cell_formula_units_Z 16
_cell_length_a 9.416312
_cell_length_b 17.969546
_cell_length_c 21.632906
_cell_angle_alpha 26.620023
_cell_angle_beta 29.264535
_cell_angle_gamma 31.030176
_cell_volume 750.597993
_symmetry_space_group_name_H-M "P -1"
_symmetry_group_IT_number 2
_symmetry_cell_setting 'triclinic'
loop_
_space_group_symop_operation_xyz
x,y,z
-x,-y,-z
loop_
_atom_site_type_symbol
_atom_site_label
_atom_site_fract_x
_atom_site_fract_y
_atom_site_fract_z
Si Si1 0.730858 0.047752 0.017984
Si Si2 0.140875 0.561105 0.078017
Si Si3 0.833402 0.384060 0.406777
Si Si4 0.782790 0.543360 0.611281
Si Si5 0.728024 0.683587 0.317006
Si Si6 0.787569 0.874422 0.443251
Si Si7 0.228342 0.415301 0.921839
Si Si8 0.139386 0.044094 0.092264
O O1 0.609370 0.885091 0.190324
O O2 0.438228 0.223247 0.010078
O O3 0.879299 0.062330 0.883887
O O4 0.000000 0.000000 0.000000
O O5 0.057854 0.394649 0.258820
O O6 0.004708 0.597050 0.034156
O O7 0.500000 0.500000 0.000000
O O8 0.005499 0.749305 0.023709
O O9 0.732642 0.577959 0.330935
O O10 0.539855 0.347231 0.515716
O O11 0.978246 0.237200 0.511976
O O12 0.717738 0.738914 0.521082
O O13 0.449678 0.525661 0.736384
O O14 0.000000 0.500000 0.500000
O O15 0.949872 0.389908 0.712620
O O16 0.500000 0.000000 0.500000
O O17 0.949435 0.993123 0.256972
O O18 0.000000 0.500000 0.000000
O O19 0.500000 0.000000 0.000000
#
# Coordination Sequence:
#
# PCOD8011213 Si02
#       8
#     2   2   2   2   2   2   2   2
#     4  12  24  44  72 107 145 188 243 298 364 434
#     4  12  27  45  73 101 145 186 242 293 366 433
#     4  10  22  41  67 100 135 179 240 294 353 416
#     4  11  24  45  70  99 145 191 246 292 366 440
#     4  10  21  38  70  99 132 178 236 301 345 416
#     4  11  26  44  70 104 148 195 239 302 371 434
#     4  12  29  45  70 107 150 190 233 305 379 430
#     4  12  25  44  76 107 137 188 254 302 347 430
#
# _framework density 21.316336
#
# number of rings (size 3 to 8) (size 9 to 14) (size 15 to 20)
#    0.000    0.750    3.750    3.000   10.500    0.000 
#    0.000    0.000    0.000    3.750    0.000    0.000 
#    0.000    0.000    0.000    0.000    0.000    0.000 
#
# Total GULP energy -198238.203882 kJ/mol
# GULP energy per Si atom -12389.887743 kJ/mol
# Density = 2.126782 g / cm^3
# Si number density = 21.316336 Si / 1000 Ang^3
#
#
#
# Elastic Constant Matrix: (Units=GPa)
#
#
# Indices 1 2 3 4 5 6 
#
# 1 107.3188 57.6384 31.3475 9.5757 -6.1343 -12.7720
# 2 57.6384 148.4874 59.5716 11.7693 -1.9087 0.7337
# 3 31.3475 59.5716 135.0357 14.4869 7.0923 -7.0212
# 4 9.5757 11.7693 14.4869 40.3844 -2.8031 1.3596
# 5 -6.1343 -1.9087 7.0923 -2.8031 33.7860 6.5347
# 6 -12.7720 0.7337 -7.0212 1.3596 6.5347 40.0424
#
#
#
# Elastic Compliance Matrix: (Units=1/GPa)
#
#
# Indices 1 2 3 4 5 6 
#
# 1 0.012592 -0.004515 -0.000642 -0.001478 0.001304 0.003824
# 2 -0.004515 0.009931 -0.003455 -0.000444 0.000886 -0.002357
# 3 -0.000642 -0.003455 0.009619 -0.002568 -0.002953 0.002114
# 4 -0.001478 -0.000444 -0.002568 0.026440 0.002880 -0.002281
# 5 0.001304 0.000886 -0.002953 0.002880 0.031789 -0.005404
# 6 0.003824 -0.002357 0.002114 -0.002281 -0.005404 0.027566
#
#
# Mechanical properties :
#
#
# Convention : Reuss Voigt Hill
#
# Bulk Modulus (GPa) = 67.03208 76.43965 71.73586
# Shear Modulus (GPa) = 35.67999 38.99483 37.33741
#
# Velocity S-wave (km/s) = 4.09569 4.28172 4.18974
# Velocity P-wave (km/s) = 7.34036 7.77056 7.55852
#
# Compressibility (1/GPa) = 0.01491823
#
# Stress axis : x y z
#
# Youngs Moduli (GPa) = 79.41463 100.69088 103.96004
#
# Poissons Ratio (x) = 0.45464 0.06678
# Poissons Ratio (y) = 0.35857 0.35914
# Poissons Ratio (z) = 0.05102 0.34785
#
# Static dielectric constant tensor:
#      x y z
#    x 3.948800 0.203990 -0.221670 
#    y 0.203990 4.499310 -0.516820 
#    z -0.221670 -0.516820 4.823320 
# 
# 
# High freq. dielectric constant tensor:
#      x y z
#    x 1.840250 -0.006220 -0.003180 
#    y -0.006220 1.835000 -0.006130 
#    z -0.003180 -0.006130 1.850910 
# 
# From -- ./inp_files/591207.got.cif
#   From: 2010.06.25/outbox.cif.g09.slc.cpg/sg2_296_cif.got.tgz:591207.got - 2010.06.27 13:26:56.
