data_PCOD8011593
_publ_section_title
;
Structure prediction by ZEFSAII (Michael W. Deem and Ramdas Pophale) SiO2 
 PCOD8011593
Probable space group: P -1
;
_chemical_formula_sum "Si O2"
_cell_formula_units_Z 12
_cell_length_a 8.705062
_cell_length_b 15.388602
_cell_length_c 14.380003
_cell_angle_alpha 27.498774
_cell_angle_beta 64.437122
_cell_angle_gamma 46.810427
_cell_volume 553.288080
_symmetry_space_group_name_H-M "P -1"
_symmetry_group_IT_number 2
_symmetry_cell_setting 'triclinic'
loop_
_space_group_symop_operation_xyz
x,y,z
-x,-y,-z
loop_
_atom_site_type_symbol
_atom_site_label
_atom_site_fract_x
_atom_site_fract_y
_atom_site_fract_z
Si Si1 0.874930 0.630328 0.506798
Si Si2 0.733652 0.409486 0.884345
Si Si3 0.670397 0.855357 0.819179
Si Si4 0.031122 0.161551 0.571218
Si Si5 0.816780 0.661888 0.760334
Si Si6 0.225980 0.810543 0.550031
O O1 0.850216 0.446704 0.737374
O O2 0.048890 0.631525 0.521361
O O3 0.000000 0.500000 0.500000
O O4 0.610747 0.948879 0.258747
O O5 0.721409 0.543202 0.854229
O O6 0.463453 0.552156 0.790706
O O7 0.886002 0.100250 0.157081
O O8 0.676803 0.800764 0.760808
O O9 0.735905 0.017513 0.666976
O O10 0.882340 0.569428 0.088272
O O11 0.243634 0.110303 0.507086
O O12 0.814236 0.294353 0.427760
O O13 0.000000 0.000000 0.500000
#
# Coordination Sequence:
#
# PCOD8011593 Si02
#       6
#     2   2   2   2   2   2
#     4  10  25  46  64  88 126 176 221 257 306 369
#     4  10  24  41  65  93 132 162 209 266 318 377
#     4  10  21  40  65  92 137 164 208 262 315 379
#     4  11  23  40  66  94 127 165 209 257 324 377
#     4  10  21  39  63 100 129 165 201 260 330 383
#     4  11  22  37  61 100 132 162 204 256 326 390
#
# _framework density 21.688523
#
# number of rings (size 3 to 8) (size 9 to 14) (size 15 to 20)
#    0.000    1.667    3.333    0.000    4.667    3.333 
#    0.000    6.667    0.000    0.000    0.000    0.000 
#    0.000    0.000    0.000    0.000    0.000    0.000 
#
# Total GULP energy -148703.081951 kJ/mol
# GULP energy per Si atom -12391.923496 kJ/mol
# Density = 2.163916 g / cm^3
# Si number density = 21.688523 Si / 1000 Ang^3
#
#
#
# Elastic Constant Matrix: (Units=GPa)
#
#
# Indices 1 2 3 4 5 6 
#
# 1 148.8659 76.5352 33.7072 1.1585 1.4189 38.0002
# 2 76.5352 130.3056 38.7433 -18.1316 16.4537 28.3247
# 3 33.7072 38.7433 105.3095 6.9941 -4.2765 2.0052
# 4 1.1585 -18.1316 6.9941 18.7421 -0.1345 0.5803
# 5 1.4189 16.4537 -4.2765 -0.1345 30.0320 0.9147
# 6 38.0002 28.3247 2.0052 0.5803 0.9147 32.9444
#
#
#
# Elastic Compliance Matrix: (Units=1/GPa)
#
#
# Indices 1 2 3 4 5 6 
#
# 1 0.012494 -0.006408 -0.000930 -0.006330 0.003028 -0.008818
# 2 -0.006408 0.020377 -0.007256 0.023037 -0.011493 -0.009773
# 3 -0.000930 -0.007256 0.013373 -0.012115 0.005670 0.006553
# 4 -0.006330 0.023037 -0.012115 0.080856 -0.013295 -0.012823
# 5 0.003028 -0.011493 0.005670 -0.013295 0.040042 0.005166
# 6 -0.008818 -0.009773 0.006553 -0.012823 0.005166 0.048611
#
#
# Mechanical properties :
#
#
# Convention : Reuss Voigt Hill
#
# Bulk Modulus (GPa) = 58.63474 75.82807 67.23141
# Shear Modulus (GPa) = 19.95004 32.04340 25.99672
#
# Velocity S-wave (km/s) = 3.03618 3.84791 3.46589
# Velocity P-wave (km/s) = 6.27573 7.40136 6.86167
#
# Compressibility (1/GPa) = 0.01705474
#
# Stress axis : x y z
#
# Youngs Moduli (GPa) = 80.03899 49.07590 74.77697
#
# Poissons Ratio (x) = 0.31449 0.06956
# Poissons Ratio (y) = 0.51291 0.54258
# Poissons Ratio (z) = 0.07445 0.35610
#
# Static dielectric constant tensor:
#      x y z
#    x 2.158160 -0.167960 -2.190110 
#    y -0.167960 3.381710 -0.215050 
#    z -2.190110 -0.215050 1.855620 
# 
# 
# High freq. dielectric constant tensor:
#      x y z
#    x 1.882060 0.019120 -0.003970 
#    y 0.019120 1.799070 0.018150 
#    z -0.003970 0.018150 1.859700 
# 
# From -- ./inp_files/376716.got.cif
#   From: 2010.06.25/outbox.cif.g09.slc.cpg/sg2_189_cif.got.tgz:376716.got - 2010.06.27 13:26:56.
