data_PCOD8011349
_publ_section_title
;
Structure prediction by ZEFSAII (Michael W. Deem and Ramdas Pophale) SiO2 
 PCOD8011349
Probable space group: P -1
;
_chemical_formula_sum "Si O2"
_cell_formula_units_Z 16
_cell_length_a 16.199252
_cell_length_b 15.486962
_cell_length_c 8.696700
_cell_angle_alpha 123.188060
_cell_angle_beta 87.487251
_cell_angle_gamma 141.053297
_cell_volume 789.398487
_symmetry_space_group_name_H-M "P -1"
_symmetry_group_IT_number 2
_symmetry_cell_setting 'triclinic'
loop_
_space_group_symop_operation_xyz
x,y,z
-x,-y,-z
loop_
_atom_site_type_symbol
_atom_site_label
_atom_site_fract_x
_atom_site_fract_y
_atom_site_fract_z
Si Si1 0.229723 0.687426 0.015333
Si Si2 0.995389 0.952140 0.125334
Si Si3 0.195913 0.966040 0.190337
Si Si4 0.419051 0.488477 0.304418
Si Si5 0.361656 0.457698 0.634989
Si Si6 0.801710 0.228569 0.198717
Si Si7 0.171775 0.816448 0.344862
Si Si8 0.472202 0.145638 0.882975
O O1 0.286372 0.800474 0.957441
O O2 0.014255 0.402019 0.746046
O O3 0.239820 0.782065 0.242898
O O4 0.374733 0.758913 0.111368
O O5 0.070212 0.919670 0.098294
O O6 0.776194 0.708497 0.967689
O O7 0.141573 0.188131 0.444051
O O8 0.000000 0.000000 0.000000
O O9 0.119049 0.834371 0.228670
O O10 0.417682 0.242486 0.473796
O O11 0.170853 0.856260 0.948432
O O12 0.366275 0.431946 0.431792
O O13 0.492786 0.458623 0.213882
O O14 0.416422 0.636746 0.831113
O O15 0.000000 0.500000 0.500000
O O16 0.655195 0.062127 0.189470
O O17 0.342641 0.049306 0.665580
#
# Coordination Sequence:
#
# PCOD8011349 Si02
#       8
#     2   2   2   2   2   2   2   2
#     4  10  23  42  60  84 122 164 206 245 291 359
#     4   9  19  34  59  89 117 153 194 239 298 358
#     4  10  21  39  60  88 122 159 198 241 298 361
#     4   9  17  36  58  87 120 151 190 244 303 352
#     4   9  19  33  58  90 120 144 195 252 294 351
#     4  11  22  39  60  92 126 151 197 263 298 336
#     4  10  23  42  59  82 125 166 200 243 296 357
#     4  12  22  38  64  90 117 162 201 246 305 349
#
# _framework density 20.268595000000001
#
# number of rings (size 3 to 8) (size 9 to 14) (size 15 to 20)
#    0.000    2.000    2.500    1.500    0.000    4.000 
#    4.500    2.500    0.000    4.500    0.000    0.000 
#    0.000    0.000    0.000    0.000    0.000    0.000 
#
# Total GULP energy -198338.944781 kJ/mol
# GULP energy per Si atom -12396.184049 kJ/mol
# Density = 2.022246 g / cm^3
# Si number density = 20.268595 Si / 1000 Ang^3
#
#
#
# Elastic Constant Matrix: (Units=GPa)
#
#
# Indices 1 2 3 4 5 6 
#
# 1 120.9317 45.3609 56.0740 17.5718 9.8943 -2.0345
# 2 45.3609 64.7740 33.6627 9.8662 0.2115 7.2970
# 3 56.0740 33.6627 104.4021 33.0582 8.3501 12.3767
# 4 17.5718 9.8662 33.0582 33.2573 -3.9523 6.3575
# 5 9.8943 0.2115 8.3501 -3.9523 29.2889 7.4985
# 6 -2.0345 7.2970 12.3767 6.3575 7.4985 21.2036
#
#
#
# Elastic Compliance Matrix: (Units=1/GPa)
#
#
# Indices 1 2 3 4 5 6 
#
# 1 0.015017 -0.008613 -0.004975 -0.003282 -0.006772 0.010688
# 2 -0.008613 0.023934 -0.003640 0.003929 0.007018 -0.010598
# 3 -0.004975 -0.003640 0.019032 -0.014961 -0.004663 -0.004199
# 4 -0.003282 0.003929 -0.014961 0.049910 0.015507 -0.013383
# 5 -0.006772 0.007018 -0.004663 0.015507 0.045170 -0.020967
# 6 0.010688 -0.010598 -0.004199 -0.013383 -0.020967 0.065713
#
#
# Mechanical properties :
#
#
# Convention : Reuss Voigt Hill
#
# Bulk Modulus (GPa) = 42.50262 62.25589 52.37926
# Shear Modulus (GPa) = 19.15159 27.08396 23.11777
#
# Velocity S-wave (km/s) = 3.07724 3.65944 3.38090
# Velocity P-wave (km/s) = 5.80009 6.97406 6.41399
#
# Compressibility (1/GPa) = 0.02352796
#
# Stress axis : x y z
#
# Youngs Moduli (GPa) = 66.58940 41.78078 52.54318
#
# Poissons Ratio (x) = 0.35987 0.26138
# Poissons Ratio (y) = 0.57355 0.19126
# Poissons Ratio (z) = 0.33126 0.15208
#
# Static dielectric constant tensor:
#      x y z
#    x 3.680880 0.073770 0.175040 
#    y 0.073770 3.676660 0.401470 
#    z 0.175040 0.401470 3.882160 
# 
# 
# High freq. dielectric constant tensor:
#      x y z
#    x 1.788170 -0.003510 0.005370 
#    y -0.003510 1.777970 0.022600 
#    z 0.005370 0.022600 1.793770 
# 
# From -- ./inp_files/306333.got.cif
#   From: 2010.06.25/outbox.cif.g09.slc.cpg/sg2_154_cif.got.tgz:306333.got - 2010.06.27 13:26:56.
