data_PCOD8011311
_publ_section_title
;
Structure prediction by ZEFSAII (Michael W. Deem and Ramdas Pophale) SiO2 
 PCOD8011311
Probable space group: P -1
;
_chemical_formula_sum "Si O2"
_cell_formula_units_Z 16
_cell_length_a 10.653069
_cell_length_b 5.502156
_cell_length_c 19.310945
_cell_angle_alpha 99.356828
_cell_angle_beta 40.135224
_cell_angle_gamma 93.565685
_cell_volume 716.472815
_symmetry_space_group_name_H-M "P -1"
_symmetry_group_IT_number 2
_symmetry_cell_setting 'triclinic'
loop_
_space_group_symop_operation_xyz
x,y,z
-x,-y,-z
loop_
_atom_site_type_symbol
_atom_site_label
_atom_site_fract_x
_atom_site_fract_y
_atom_site_fract_z
Si Si1 0.976233 0.034305 0.125702
Si Si2 0.732989 0.643139 0.547072
Si Si3 0.091163 0.704292 0.311990
Si Si4 0.168044 0.671178 0.923100
Si Si5 0.408814 0.577063 0.278833
Si Si6 0.425587 0.060591 0.668734
Si Si7 0.614653 0.277508 0.480066
Si Si8 0.019559 0.161468 0.260755
O O1 0.855922 0.254811 0.143824
O O2 0.090967 0.121785 0.148950
O O3 0.803090 0.869524 0.214828
O O4 0.136303 0.899475 0.000655
O O5 0.732072 0.603661 0.629369
O O6 0.742389 0.377782 0.493515
O O7 0.914917 0.776978 0.445234
O O8 0.518374 0.779196 0.625669
O O9 0.295620 0.693481 0.265698
O O10 0.076758 0.432995 0.271360
O O11 0.102062 0.928758 0.263009
O O12 0.387194 0.557688 0.840443
O O13 0.000000 0.500000 0.000000
O O14 0.450824 0.787001 0.324663
O O15 0.465037 0.105438 0.571818
O O16 0.500000 0.500000 0.500000
O O17 0.783815 0.147020 0.353071
#
# Coordination Sequence:
#
# PCOD8011311 Si02
#       8
#     2   2   2   2   2   2   2   2
#     4  11  25  41  69  97 129 169 226 286 348 398
#     4  10  21  39  59  98 134 178 219 266 328 395
#     4  11  26  45  66 100 141 186 221 264 328 412
#     4  11  24  45  68  98 124 167 225 295 349 386
#     4  11  24  41  68  95 133 176 230 277 327 398
#     4  11  21  37  66  97 131 174 222 278 338 390
#     4  10  22  35  59  98 140 178 218 266 334 411
#     4  11  26  44  67  98 141 182 217 273 336 405
#
# _framework density 22.331621999999999
#
# number of rings (size 3 to 8) (size 9 to 14) (size 15 to 20)
#    0.000    1.250    3.750    1.125    8.750    1.500 
#    0.000    1.250    0.000    0.000    0.000    0.000 
#    0.000    0.000    0.000    0.000    0.000    0.000 
#
# Total GULP energy -198262.370761 kJ/mol
# GULP energy per Si atom -12391.398173 kJ/mol
# Density = 2.228079 g / cm^3
# Si number density = 22.331622 Si / 1000 Ang^3
#
#
#
# Elastic Constant Matrix: (Units=GPa)
#
#
# Indices 1 2 3 4 5 6 
#
# 1 105.4288 26.7865 52.0236 6.4715 10.6708 -22.5936
# 2 26.7865 83.1060 22.1633 2.3371 12.6815 -19.0586
# 3 52.0236 22.1633 108.4674 3.8914 9.9721 -10.8994
# 4 6.4715 2.3371 3.8914 25.9600 -5.7527 0.6358
# 5 10.6708 12.6815 9.9721 -5.7527 33.7436 -1.3352
# 6 -22.5936 -19.0586 -10.8994 0.6358 -1.3352 41.6244
#
#
#
# Elastic Compliance Matrix: (Units=1/GPa)
#
#
# Indices 1 2 3 4 5 6 
#
# 1 0.014294 -0.001297 -0.005655 -0.003337 -0.002707 0.005648
# 2 -0.001297 0.014910 -0.001331 -0.002049 -0.004926 0.005648
# 3 -0.005655 -0.001331 0.012312 -0.000632 -0.001478 -0.000492
# 4 -0.003337 -0.002049 -0.000632 0.041705 0.008993 -0.003264
# 5 -0.002707 -0.004926 -0.001478 0.008993 0.034188 -0.003153
# 6 0.005648 0.005648 -0.000492 -0.003264 -0.003153 0.029496
#
#
# Mechanical properties :
#
#
# Convention : Reuss Voigt Hill
#
# Bulk Modulus (GPa) = 40.07633 55.43879 47.75756
# Shear Modulus (GPa) = 29.10579 33.33420 31.21999
#
# Velocity S-wave (km/s) = 3.61410 3.86773 3.74306
# Velocity P-wave (km/s) = 5.94984 6.69514 6.33346
#
# Compressibility (1/GPa) = 0.02495238
#
# Stress axis : x y z
#
# Youngs Moduli (GPa) = 69.95854 67.06787 81.21906
#
# Poissons Ratio (x) = 0.08698 0.45926
# Poissons Ratio (y) = 0.09073 0.10807
# Poissons Ratio (z) = 0.39559 0.08924
#
# Static dielectric constant tensor:
#      x y z
#    x 3.787840 -0.043740 0.097270 
#    y -0.043740 4.106110 -0.021610 
#    z 0.097270 -0.021610 3.912040 
# 
# 
# High freq. dielectric constant tensor:
#      x y z
#    x 1.871520 -0.002790 0.019290 
#    y -0.002790 1.881400 0.004040 
#    z 0.019290 0.004040 1.880130 
# 
# From -- ./inp_files/66732.got.cif
#   From: 2010.06.25/outbox.cif.g09.slc.cpg/sg2_34_cif.got.tgz:66732.got - 2010.06.27 13:26:56.
