data_PCOD8011340
_publ_section_title
;
Structure prediction by ZEFSAII (Michael W. Deem and Ramdas Pophale) SiO2 
 PCOD8011340
Probable space group: P -1
;
_chemical_formula_sum "Si O2"
_cell_formula_units_Z 14
_cell_length_a 9.542738
_cell_length_b 9.104259
_cell_length_c 8.494663
_cell_angle_alpha 130.127679
_cell_angle_beta 91.341823
_cell_angle_gamma 83.704883
_cell_volume 559.804290
_symmetry_space_group_name_H-M "P -1"
_symmetry_group_IT_number 2
_symmetry_cell_setting 'triclinic'
loop_
_space_group_symop_operation_xyz
x,y,z
-x,-y,-z
loop_
_atom_site_type_symbol
_atom_site_label
_atom_site_fract_x
_atom_site_fract_y
_atom_site_fract_z
Si Si1 0.100027 0.613857 0.442930
Si Si2 0.182344 0.821214 0.874852
Si Si3 0.498014 0.733995 0.894635
Si Si4 0.593589 0.030406 0.672387
Si Si5 0.321931 0.568994 0.137956
Si Si6 0.237712 0.220081 0.277478
Si Si7 0.892807 0.502446 0.140351
O O1 0.114205 0.794467 0.682480
O O2 0.219378 0.594600 0.301684
O O3 0.121946 0.411338 0.406838
O O4 0.945131 0.644349 0.374272
O O5 0.347201 0.727481 0.803496
O O6 0.102333 0.710971 0.929145
O O7 0.167262 0.049052 0.070256
O O8 0.528685 0.545927 0.881841
O O9 0.622867 0.729137 0.771552
O O10 0.496467 0.926783 0.137902
O O11 0.672031 0.217591 0.779801
O O12 0.500000 0.000000 0.500000
O O13 0.709944 0.846181 0.589220
O O14 0.260192 0.442023 0.907650
O O15 0.000000 0.500000 0.000000
#
# Coordination Sequence:
#
# PCOD8011340 Si02
#       7
#     2   2   2   2   2   2   2
#     4  10  24  38  66  85 117 164 204 236 290 361
#     4  11  21  39  65  87 120 157 199 244 299 349
#     4  10  22  38  61  88 123 155 191 242 307 362
#     4  11  22  33  57  90 125 151 194 244 297 356
#     4  10  21  39  60  87 120 161 187 249 304 343
#     4  10  23  41  58  94 122 154 194 248 296 360
#     4  10  21  41  60  86 120 157 207 246 289 343
#
# _framework density 25.008738999999998
#
# number of rings (size 3 to 8) (size 9 to 14) (size 15 to 20)
#    0.000    1.714    2.857    2.571    6.000    1.714 
#    0.000    0.000    0.000    4.286    0.000    0.000 
#    0.000    0.000    0.000    0.000    0.000    0.000 
#
# Total GULP energy -173477.714447 kJ/mol
# GULP energy per Si atom -12391.265318 kJ/mol
# Density = 2.495182 g / cm^3
# Si number density = 25.008739 Si / 1000 Ang^3
#
#
#
# Elastic Constant Matrix: (Units=GPa)
#
#
# Indices 1 2 3 4 5 6 
#
# 1 81.9857 37.4685 51.2481 -2.7117 23.1837 -15.6807
# 2 37.4685 93.1308 26.5026 -1.6849 6.7898 -16.8507
# 3 51.2481 26.5026 139.2037 -29.5090 47.9615 -16.2733
# 4 -2.7117 -1.6849 -29.5090 36.3748 -8.0904 2.8150
# 5 23.1837 6.7898 47.9615 -8.0904 40.3014 0.3112
# 6 -15.6807 -16.8507 -16.2733 2.8150 0.3112 37.7387
#
#
#
# Elastic Compliance Matrix: (Units=1/GPa)
#
#
# Indices 1 2 3 4 5 6 
#
# 1 0.019999 -0.005613 -0.004675 -0.004188 -0.005868 0.004148
# 2 -0.005613 0.013719 -0.000842 -0.000326 0.001828 0.003439
# 3 -0.004675 -0.000842 0.016918 0.009569 -0.015415 0.004390
# 4 -0.004188 -0.000326 0.009569 0.034508 -0.001994 -0.000317
# 5 -0.005868 0.001828 -0.015415 -0.001994 0.045892 -0.008499
# 6 0.004148 0.003439 0.004390 -0.000317 -0.008499 0.031744
#
#
# Mechanical properties :
#
#
# Convention : Reuss Voigt Hill
#
# Bulk Modulus (GPa) = 35.24221 60.52873 47.88547
# Shear Modulus (GPa) = 25.70713 36.15637 30.93175
#
# Velocity S-wave (km/s) = 3.20961 3.80643 3.52069
# Velocity P-wave (km/s) = 5.27807 6.60107 5.97629
#
# Compressibility (1/GPa) = 0.02837507
#
# Stress axis : x y z
#
# Youngs Moduli (GPa) = 50.00241 72.89359 59.10821
#
# Poissons Ratio (x) = 0.40915 0.27634
# Poissons Ratio (y) = 0.28066 0.04979
# Poissons Ratio (z) = 0.23376 0.06140
#
# Static dielectric constant tensor:
#      x y z
#    x 4.787080 -0.196720 0.338600 
#    y -0.196720 5.285170 -0.528500 
#    z 0.338600 -0.528500 4.728070 
# 
# 
# High freq. dielectric constant tensor:
#      x y z
#    x 2.010020 0.009680 0.010670 
#    y 0.009680 2.008860 -0.028120 
#    z 0.010670 -0.028120 1.983620 
# 
# From -- ./inp_files/169257.got.cif
#   From: 2010.06.25/outbox.cif.g09.slc.cpg/sg2_85_cif.got.tgz:169257.got - 2010.06.27 13:26:56.
