data_PCOD8011144
_publ_section_title
;
Structure prediction by ZEFSAII (Michael W. Deem and Ramdas Pophale) SiO2 
 PCOD8011144
Probable space group: P -1
;
_chemical_formula_sum "Si O2"
_cell_formula_units_Z 16
_cell_length_a 15.089332
_cell_length_b 9.673602
_cell_length_c 8.897976
_cell_angle_alpha 113.007772
_cell_angle_beta 39.561716
_cell_angle_gamma 98.188458
_cell_volume 732.924375
_symmetry_space_group_name_H-M "P -1"
_symmetry_group_IT_number 2
_symmetry_cell_setting 'triclinic'
loop_
_space_group_symop_operation_xyz
x,y,z
-x,-y,-z
loop_
_atom_site_type_symbol
_atom_site_label
_atom_site_fract_x
_atom_site_fract_y
_atom_site_fract_z
Si Si1 0.209551 0.428273 0.799827
Si Si2 0.080488 0.065218 0.555404
Si Si3 0.356330 0.138157 0.098086
Si Si4 0.688555 0.420043 0.010584
Si Si5 0.512297 0.646868 0.141891
Si Si6 0.498369 0.799216 0.766711
Si Si7 0.942836 0.300038 0.076110
Si Si8 0.212771 0.780327 0.476982
O O1 0.365696 0.306082 0.543496
O O2 0.095583 0.330185 0.923595
O O3 0.197985 0.539860 0.006768
O O4 0.177456 0.538172 0.739297
O O5 0.194178 0.150677 0.372188
O O6 0.959516 0.185949 0.862231
O O7 0.167944 0.934976 0.501052
O O8 0.000000 0.000000 0.500000
O O9 0.459117 0.172810 0.108190
O O10 0.357951 0.274838 0.036113
O O11 0.429739 0.969088 0.854771
O O12 0.768247 0.365350 0.724031
O O13 0.554136 0.575678 0.223673
O O14 0.629596 0.284176 0.100673
O O15 0.358435 0.775982 0.380118
O O16 0.500000 0.500000 0.000000
O O17 0.905539 0.223153 0.244230
#
# Coordination Sequence:
#
# PCOD8011144 Si02
#       8
#     2   2   2   2   2   2   2   2
#     4  11  25  42  64 100 135 179 231 273 329 408
#     4  12  25  45  69  97 135 178 230 271 332 407
#     4  11  21  40  71  95 125 177 222 274 338 392
#     4  11  22  40  68 100 135 173 225 283 334 390
#     4  10  21  38  68 101 131 168 218 280 340 391
#     4  11  20  40  68  94 129 173 223 281 331 389
#     4  11  26  41  66  95 138 185 219 271 339 401
#     4  11  22  42  66  95 136 176 221 275 335 398
#
# _framework density 21.830355999999998
#
# number of rings (size 3 to 8) (size 9 to 14) (size 15 to 20)
#    0.000    1.000    5.000    3.000    1.750    1.500 
#    0.000    0.625    0.000    0.000    0.000    0.000 
#    0.000    0.000    0.000    0.000    0.000    0.000 
#
# Total GULP energy -198332.184272 kJ/mol
# GULP energy per Si atom -12395.761517 kJ/mol
# Density = 2.178067 g / cm^3
# Si number density = 21.830356 Si / 1000 Ang^3
#
#
#
# Elastic Constant Matrix: (Units=GPa)
#
#
# Indices 1 2 3 4 5 6 
#
# 1 77.4092 31.0897 19.0560 -3.7553 8.3199 14.7487
# 2 31.0897 130.8065 37.0174 -12.6162 3.3287 2.9472
# 3 19.0560 37.0174 109.6198 -0.1088 7.1046 11.6774
# 4 -3.7553 -12.6162 -0.1088 28.5706 -1.6908 -4.4164
# 5 8.3199 3.3287 7.1046 -1.6908 19.8247 9.0816
# 6 14.7487 2.9472 11.6774 -4.4164 9.0816 32.0075
#
#
#
# Elastic Compliance Matrix: (Units=1/GPa)
#
#
# Indices 1 2 3 4 5 6 
#
# 1 0.015917 -0.003396 -0.000786 -0.000511 -0.003165 -0.005907
# 2 -0.003396 0.009619 -0.002906 0.004150 0.000168 0.002264
# 3 -0.000786 -0.002906 0.010676 -0.001919 -0.001787 -0.003023
# 4 -0.000511 0.004150 -0.001919 0.037662 0.000900 0.005495
# 5 -0.003165 0.000168 -0.001787 0.000900 0.059128 -0.014557
# 6 -0.005907 0.002264 -0.003023 0.005495 -0.014557 0.039748
#
#
# Mechanical properties :
#
#
# Convention : Reuss Voigt Hill
#
# Bulk Modulus (GPa) = 45.38052 54.68465 50.03259
# Shear Modulus (GPa) = 25.73710 31.45872 28.59791
#
# Velocity S-wave (km/s) = 3.43732 3.80024 3.62333
# Velocity P-wave (km/s) = 6.04868 6.66033 6.36186
#
# Compressibility (1/GPa) = 0.02203588
#
# Stress axis : x y z
#
# Youngs Moduli (GPa) = 62.82661 103.95591 93.66479
#
# Poissons Ratio (x) = 0.35306 0.07363
# Poissons Ratio (y) = 0.21337 0.27219
# Poissons Ratio (z) = 0.04939 0.30210
#
# Static dielectric constant tensor:
#      x y z
#    x 4.042270 -0.127270 -0.161680 
#    y -0.127270 4.242680 0.249800 
#    z -0.161680 0.249800 3.982610 
# 
# 
# High freq. dielectric constant tensor:
#      x y z
#    x 1.846380 0.001580 -0.010440 
#    y 0.001580 1.869940 0.007210 
#    z -0.010440 0.007210 1.843650 
# 
# From -- ./inp_files/299061.got.cif
#   From: 2010.06.25/outbox.cif.g09.slc.cpg/sg2_150_cif.got.tgz:299061.got - 2010.06.27 13:26:56.
