data_PCOD8011292
_publ_section_title
;
Structure prediction by ZEFSAII (Michael W. Deem and Ramdas Pophale) SiO2 
 PCOD8011292
Probable space group: P -1
;
_chemical_formula_sum "Si O2"
_cell_formula_units_Z 14
_cell_length_a 24.809782
_cell_length_b 6.006332
_cell_length_c 9.362991
_cell_angle_alpha 131.391479
_cell_angle_beta 140.273467
_cell_angle_gamma 58.232388
_cell_volume 668.513564
_symmetry_space_group_name_H-M "P -1"
_symmetry_group_IT_number 2
_symmetry_cell_setting 'triclinic'
loop_
_space_group_symop_operation_xyz
x,y,z
-x,-y,-z
loop_
_atom_site_type_symbol
_atom_site_label
_atom_site_fract_x
_atom_site_fract_y
_atom_site_fract_z
Si Si1 0.269262 0.478875 0.040385
Si Si2 0.173373 0.072743 0.046874
Si Si3 0.548862 0.795246 0.206326
Si Si4 0.317216 0.463924 0.448642
Si Si5 0.385795 0.090076 0.917460
Si Si6 0.969553 0.113370 0.138685
Si Si7 0.901238 0.767735 0.320047
O O1 0.329541 0.341445 0.984979
O O2 0.186613 0.287918 0.804485
O O3 0.243901 0.810047 0.081342
O O4 0.321894 0.484159 0.296468
O O5 0.115463 0.034726 0.771697
O O6 0.113449 0.063472 0.059860
O O7 0.222601 0.380941 0.270408
O O8 0.615766 0.797709 0.473995
O O9 0.602617 0.798162 0.172046
O O10 0.500000 0.500000 0.000000
O O11 0.477719 0.062742 0.171726
O O12 0.338486 0.778927 0.694231
O O13 0.947947 0.462577 0.235632
O O14 0.042557 0.050975 0.378393
O O15 0.000000 0.000000 0.000000
#
# Coordination Sequence:
#
# PCOD8011292 Si02
#       7
#     2   2   2   2   2   2   2
#     4  10  22  38  60  87 117 156 197 239 289 345
#     4  10  21  39  60  87 121 154 192 241 292 347
#     4   9  20  38  60  86 118 154 196 243 290 345
#     4  10  21  39  59  86 120 153 196 247 291 343
#     4  10  21  40  61  85 119 156 195 243 293 344
#     4  10  21  39  61  86 116 152 193 239 289 343
#     4   9  21  39  57  85 120 149 191 241 286 345
#
# _framework density 20.941986
#
# number of rings (size 3 to 8) (size 9 to 14) (size 15 to 20)
#    0.000    2.286    0.000    1.286    0.000   10.286 
#    0.000   17.143    0.000    0.000    0.000    0.000 
#    0.000    0.000    0.000    0.000    0.000    0.000 
#
# Total GULP energy -173572.902942 kJ/mol
# GULP energy per Si atom -12398.064496 kJ/mol
# Density = 2.089432 g / cm^3
# Si number density = 20.941986 Si / 1000 Ang^3
#
#
#
# Elastic Constant Matrix: (Units=GPa)
#
#
# Indices 1 2 3 4 5 6 
#
# 1 148.7108 61.2221 50.1834 -0.2882 -7.7226 -10.6803
# 2 61.2221 97.3698 45.2085 -32.7621 -13.6059 8.9333
# 3 50.1834 45.2085 109.1130 -24.0418 -6.8970 -0.4536
# 4 -0.2882 -32.7621 -24.0418 38.2686 6.8619 3.5244
# 5 -7.7226 -13.6059 -6.8970 6.8619 21.2016 0.9423
# 6 -10.6803 8.9333 -0.4536 3.5244 0.9423 33.0380
#
#
#
# Elastic Compliance Matrix: (Units=1/GPa)
#
#
# Indices 1 2 3 4 5 6 
#
# 1 0.013865 -0.012259 -0.004340 -0.013944 -0.000126 0.009228
# 2 -0.012259 0.028620 -0.000526 0.024242 0.006528 -0.014481
# 3 -0.004340 -0.000526 0.013115 0.007959 -0.000142 -0.001926
# 4 -0.013944 0.024242 0.007959 0.053966 -0.003661 -0.016606
# 5 -0.000126 0.006528 -0.000142 -0.003661 0.052578 -0.002917
# 6 0.009228 -0.014481 -0.001926 -0.016606 -0.002917 0.038995
#
#
# Mechanical properties :
#
#
# Convention : Reuss Voigt Hill
#
# Bulk Modulus (GPa) = 46.83596 74.26905 60.55251
# Shear Modulus (GPa) = 20.61817 31.74026 26.17922
#
# Velocity S-wave (km/s) = 3.14114 3.89733 3.53949
# Velocity P-wave (km/s) = 5.96396 7.46950 6.75878
#
# Compressibility (1/GPa) = 0.02135112
#
# Stress axis : x y z
#
# Youngs Moduli (GPa) = 72.12471 34.94119 76.24626
#
# Poissons Ratio (x) = 0.42834 0.33088
# Poissons Ratio (y) = 0.88416 0.04010
# Poissons Ratio (z) = 0.31299 0.01838
#
# Static dielectric constant tensor:
#      x y z
#    x 3.652900 0.155390 0.292460 
#    y 0.155390 3.996050 -0.514720 
#    z 0.292460 -0.514720 4.009950 
# 
# 
# High freq. dielectric constant tensor:
#      x y z
#    x 1.816130 0.019390 0.023080 
#    y 0.019390 1.821100 -0.027190 
#    z 0.023080 -0.027190 1.817660 
# 
# From -- ./inp_files/8046.got.cif
#   From: 2010.06.25/outbox.cif.g09.slc.cpg/sg2_5_cif.got.tgz:8046.got - 2010.06.27 13:26:56.
