data_PCOD8011887
_publ_section_title
;
Structure prediction by ZEFSAII (Michael W. Deem and Ramdas Pophale) SiO2 
 PCOD8011887
Probable space group: P -1
;
_chemical_formula_sum "Si O2"
_cell_formula_units_Z 14
_cell_length_a 17.319845
_cell_length_b 6.121016
_cell_length_c 9.379889
_cell_angle_alpha 73.658967
_cell_angle_beta 41.392429
_cell_angle_gamma 79.931461
_cell_volume 629.924874
_symmetry_space_group_name_H-M "P -1"
_symmetry_group_IT_number 2
_symmetry_cell_setting 'triclinic'
loop_
_space_group_symop_operation_xyz
x,y,z
-x,-y,-z
loop_
_atom_site_type_symbol
_atom_site_label
_atom_site_fract_x
_atom_site_fract_y
_atom_site_fract_z
Si Si1 0.201155 0.796070 0.969660
Si Si2 0.490876 0.261487 0.133254
Si Si3 0.087636 0.171916 0.926137
Si Si4 0.656421 0.892195 0.878563
Si Si5 0.979813 0.472312 0.245993
Si Si6 0.122571 0.893115 0.364486
Si Si7 0.570368 0.456409 0.267255
O O1 0.319304 0.672609 0.803141
O O2 0.201071 0.029046 0.831558
O O3 0.087494 0.631961 0.123891
O O4 0.195561 0.878628 0.122975
O O5 0.376943 0.136738 0.238245
O O6 0.488083 0.298693 0.302245
O O7 0.500000 0.500000 0.000000
O O8 0.602675 0.120092 0.969956
O O9 0.109835 0.393626 0.754461
O O10 0.029382 0.255602 0.136874
O O11 0.000000 0.000000 0.000000
O O12 0.796626 0.939937 0.676145
O O13 0.614281 0.682585 0.078607
O O14 0.898370 0.366327 0.503254
O O15 0.000000 0.000000 0.500000
O O16 0.500000 0.500000 0.500000
#
# Coordination Sequence:
#
# PCOD8011887 Si02
#       7
#     2   2   2   2   2   2   2
#     4  11  22  41  67  97 137 173 220 284 329 399
#     4   9  20  45  69  93 131 173 222 285 337 391
#     4   9  20  41  61  89 138 177 216 265 321 407
#     4  10  22  43  70  97 138 172 225 288 331 407
#     4  10  21  39  64  97 140 177 214 264 334 416
#     4  12  22  39  70 103 132 178 223 271 339 401
#     4  11  24  43  71  99 129 176 230 287 345 387
#
# _framework density 22.224872999999999
#
# number of rings (size 3 to 8) (size 9 to 14) (size 15 to 20)
#    0.000    1.714    2.857    1.286    0.000    0.571 
#    0.000   15.714    0.000    0.000    0.000    0.000 
#    0.000    0.000    0.000    0.000    0.000    0.000 
#
# Total GULP energy -173476.423639 kJ/mol
# GULP energy per Si atom -12391.173117 kJ/mol
# Density = 2.217429 g / cm^3
# Si number density = 22.224873 Si / 1000 Ang^3
#
#
#
# Elastic Constant Matrix: (Units=GPa)
#
#
# Indices 1 2 3 4 5 6 
#
# 1 172.6933 64.8348 68.3273 1.8854 -4.2775 -2.1401
# 2 64.8348 122.6833 35.1542 4.1429 -1.9330 -22.6155
# 3 68.3273 35.1542 80.1596 1.3586 -3.3016 -10.6957
# 4 1.8854 4.1429 1.3586 30.4289 1.3168 4.7248
# 5 -4.2775 -1.9330 -3.3016 1.3168 32.6946 1.1217
# 6 -2.1401 -22.6155 -10.6957 4.7248 1.1217 58.6779
#
#
#
# Elastic Compliance Matrix: (Units=1/GPa)
#
#
# Indices 1 2 3 4 5 6 
#
# 1 0.010006 -0.003674 -0.007233 0.000561 0.000422 -0.002423
# 2 -0.003674 0.011271 -0.001227 -0.001895 -0.000004 0.004139
# 3 -0.007233 -0.001227 0.019613 -0.000746 0.000893 0.002881
# 4 0.000561 -0.001895 -0.000746 0.033727 -0.001351 -0.003536
# 5 0.000422 -0.000004 0.000893 -0.001351 0.030796 -0.000303
# 6 -0.002423 0.004139 0.002881 -0.003536 -0.000303 0.019365
#
#
# Mechanical properties :
#
#
# Convention : Reuss Voigt Hill
#
# Bulk Modulus (GPa) = 60.16389 79.12984 69.64687
# Shear Modulus (GPa) = 32.34402 38.17493 35.25948
#
# Velocity S-wave (km/s) = 3.81899 4.14897 3.98739
# Velocity P-wave (km/s) = 6.82463 7.65725 7.25289
#
# Compressibility (1/GPa) = 0.01662126
#
# Stress axis : x y z
#
# Youngs Moduli (GPa) = 99.93727 88.72062 50.98752
#
# Poissons Ratio (x) = 0.32599 0.36881
# Poissons Ratio (y) = 0.36720 0.06256
# Poissons Ratio (z) = 0.72288 0.10885
#
# Static dielectric constant tensor:
#      x y z
#    x 4.984120 -0.788380 0.067700 
#    y -0.788380 6.801240 0.822400 
#    z 0.067700 0.822400 3.866020 
# 
# 
# High freq. dielectric constant tensor:
#      x y z
#    x 1.901680 -0.005700 0.015760 
#    y -0.005700 1.896860 0.005600 
#    z 0.015760 0.005600 1.828070 
# 
# From -- ./inp_files/69681.got.cif
#   From: 2010.06.25/outbox.cif.g09.slc.cpg/sg2_35_cif.got.tgz:69681.got - 2010.06.27 13:26:56.
