data_PCOD8011045
_publ_section_title
;
Structure prediction by ZEFSAII (Michael W. Deem and Ramdas Pophale) SiO2 
 PCOD8011045
Probable space group: P -1
;
_chemical_formula_sum "Si O2"
_cell_formula_units_Z 14
_cell_length_a 10.163506
_cell_length_b 9.648382
_cell_length_c 16.717175
_cell_angle_alpha 151.627946
_cell_angle_beta 61.836840
_cell_angle_gamma 116.792778
_cell_volume 684.297973
_symmetry_space_group_name_H-M "P -1"
_symmetry_group_IT_number 2
_symmetry_cell_setting 'triclinic'
loop_
_space_group_symop_operation_xyz
x,y,z
-x,-y,-z
loop_
_atom_site_type_symbol
_atom_site_label
_atom_site_fract_x
_atom_site_fract_y
_atom_site_fract_z
Si Si1 0.830158 0.929347 0.371612
Si Si2 0.607524 0.847623 0.980302
Si Si3 0.434059 0.919093 0.563934
Si Si4 0.289914 0.693783 0.935174
Si Si5 0.172713 0.910880 0.238284
Si Si6 0.297827 0.724000 0.271358
Si Si7 0.441779 0.344183 0.358736
O O1 0.781385 0.590357 0.236027
O O2 0.002966 0.985119 0.329833
O O3 0.739433 0.010236 0.357938
O O4 0.796764 0.124511 0.556869
O O5 0.717892 0.012476 0.966698
O O6 0.547494 0.088844 0.178860
O O7 0.465875 0.664092 0.886523
O O8 0.700596 0.620651 0.885914
O O9 0.443496 0.576815 0.404512
O O10 0.500000 0.000000 0.500000
O O11 0.532186 0.116723 0.701080
O O12 0.196403 0.713183 0.053507
O O13 0.218664 0.739515 0.216835
O O14 0.271873 0.217173 0.357184
O O15 0.500000 0.500000 0.500000
#
# Coordination Sequence:
#
# PCOD8011045 Si02
#       7
#     2   2   2   2   2   2   2
#     4  11  23  41  66  91 129 170 209 250 317 381
#     4  10  22  39  66  95 120 161 217 262 303 369
#     4  10  21  38  66  91 118 166 210 247 307 372
#     4  10  22  40  66  89 128 164 209 258 311 369
#     4  11  25  40  64  93 133 162 207 262 318 363
#     4  11  22  41  67  94 123 167 211 259 309 368
#     4  11  23  41  64  97 126 159 210 267 312 361
#
# _framework density 20.458922999999999
#
# number of rings (size 3 to 8) (size 9 to 14) (size 15 to 20)
#    0.000    1.429    2.857    2.571   10.000    4.000 
#    0.000    0.714    0.000    0.000    0.000    0.000 
#    0.000    0.000    0.000    0.000    0.000    0.000 
#
# Total GULP energy -173589.430143 kJ/mol
# GULP energy per Si atom -12399.245010 kJ/mol
# Density = 2.041236 g / cm^3
# Si number density = 20.458923 Si / 1000 Ang^3
#
#
#
# Elastic Constant Matrix: (Units=GPa)
#
#
# Indices 1 2 3 4 5 6 
#
# 1 111.0344 53.9167 59.3630 -5.5698 -16.6513 4.6428
# 2 53.9167 113.2105 76.9171 2.0799 -17.6981 3.6892
# 3 59.3630 76.9171 131.8741 11.4933 -8.8816 2.3102
# 4 -5.5698 2.0799 11.4933 32.2457 -4.4891 -0.7336
# 5 -16.6513 -17.6981 -8.8816 -4.4891 26.2812 4.0835
# 6 4.6428 3.6892 2.3102 -0.7336 4.0835 26.9150
#
#
#
# Elastic Compliance Matrix: (Units=1/GPa)
#
#
# Indices 1 2 3 4 5 6 
#
# 1 0.014240 -0.002264 -0.005028 0.005329 0.007120 -0.002649
# 2 -0.002264 0.016977 -0.008536 0.002606 0.007921 -0.002335
# 3 -0.005028 -0.008536 0.015007 -0.006354 -0.005158 0.001359
# 4 0.005329 0.002606 -0.006354 0.035282 0.009191 -0.001164
# 5 0.007120 0.007921 -0.005158 0.009191 0.049132 -0.009075
# 6 -0.002649 -0.002335 0.001359 -0.001164 -0.009075 0.039159
#
#
# Mechanical properties :
#
#
# Convention : Reuss Voigt Hill
#
# Bulk Modulus (GPa) = 68.63940 81.83474 75.23707
# Shear Modulus (GPa) = 24.23544 28.14987 26.19265
#
# Velocity S-wave (km/s) = 3.44552 3.71337 3.58195
# Velocity P-wave (km/s) = 7.03218 7.64669 7.34586
#
# Compressibility (1/GPa) = 0.01456889
#
# Stress axis : x y z
#
# Youngs Moduli (GPa) = 70.22706 58.90234 66.63387
#
# Poissons Ratio (x) = 0.13336 0.33502
# Poissons Ratio (y) = 0.15900 0.56877
# Poissons Ratio (z) = 0.35309 0.50277
#
# Static dielectric constant tensor:
#      x y z
#    x 3.987010 -0.076310 -0.048850 
#    y -0.076310 3.826410 0.171080 
#    z -0.048850 0.171080 3.820710 
# 
# 
# High freq. dielectric constant tensor:
#      x y z
#    x 1.779890 -0.005040 0.005860 
#    y -0.005040 1.801010 0.007250 
#    z 0.005860 0.007250 1.805880 
# 
# From -- ./inp_files/509161.got.cif
#   From: 2010.06.25/outbox.cif.g09.slc.cpg/sg2_255_cif.got.tgz:509161.got - 2010.06.27 13:26:56.
