data_PCOD8011334
_publ_section_title
;
Structure prediction by ZEFSAII (Michael W. Deem and Ramdas Pophale) SiO2 
 PCOD8011334
Probable space group: P -1
;
_chemical_formula_sum "Si O2"
_cell_formula_units_Z 16
_cell_length_a 8.065183
_cell_length_b 5.006454
_cell_length_c 20.613313
_cell_angle_alpha 68.840094
_cell_angle_beta 61.376637
_cell_angle_gamma 61.709849
_cell_volume 633.607756
_symmetry_space_group_name_H-M "P -1"
_symmetry_group_IT_number 2
_symmetry_cell_setting 'triclinic'
loop_
_space_group_symop_operation_xyz
x,y,z
-x,-y,-z
loop_
_atom_site_type_symbol
_atom_site_label
_atom_site_fract_x
_atom_site_fract_y
_atom_site_fract_z
Si Si1 0.871861 0.799651 0.886240
Si Si2 0.652335 0.762145 0.042641
Si Si3 0.510972 0.785847 0.738656
Si Si4 0.382584 0.480841 0.587140
Si Si5 0.707665 0.569664 0.596185
Si Si6 0.337035 0.488742 0.141063
Si Si7 0.295206 0.325330 0.816627
Si Si8 0.158047 0.167937 0.578377
O O1 0.077840 0.599679 0.829660
O O2 0.692060 0.727275 0.890590
O O3 0.831314 0.163198 0.858632
O O4 0.868936 0.685695 0.971691
O O5 0.566983 0.485063 0.089233
O O6 0.675322 0.862121 0.103961
O O7 0.500000 0.000000 0.000000
O O8 0.608399 0.828892 0.647945
O O9 0.677422 0.684020 0.774179
O O10 0.456706 0.485061 0.764448
O O11 0.324096 0.092345 0.770630
O O12 0.500000 0.500000 0.500000
O O13 0.550048 0.399743 0.621232
O O14 0.260843 0.253453 0.615909
O O15 0.206071 0.808451 0.605925
O O16 0.744060 0.754760 0.512013
O O17 0.915217 0.326251 0.607128
#
# Coordination Sequence:
#
# PCOD8011334 Si02
#       8
#     2   2   2   2   2   2   2   2
#     4  11  21  39  62  89 119 156 205 266 302 356
#     4   9  19  37  63  88 115 160 203 254 312 359
#     4  11  24  43  60  86 125 173 198 248 321 383
#     4  10  21  40  65  98 133 158 209 274 321 374
#     4  10  23  43  69  92 134 171 214 270 327 378
#     4  10  21  39  60  86 123 157 204 250 309 376
#     4  11  24  40  60  90 125 157 210 250 310 378
#     4  10  23  41  68 102 122 167 224 267 320 388
#
# _framework density 25.252215
#
# number of rings (size 3 to 8) (size 9 to 14) (size 15 to 20)
#    0.000    1.750    0.000    5.250    0.000   12.500 
#    6.750    6.250    0.000    0.000    0.000    0.000 
#    0.000    0.000    0.000    0.000    0.000    0.000 
#
# Total GULP energy -198216.765861 kJ/mol
# GULP energy per Si atom -12388.547866 kJ/mol
# Density = 2.519474 g / cm^3
# Si number density = 25.252215 Si / 1000 Ang^3
#
#
#
# Elastic Constant Matrix: (Units=GPa)
#
#
# Indices 1 2 3 4 5 6 
#
# 1 84.0190 11.8141 23.4910 12.2609 11.6481 -6.4530
# 2 11.8141 93.1885 19.8058 24.7862 -0.9888 1.5645
# 3 23.4910 19.8058 101.1972 39.8075 14.3314 0.4108
# 4 12.2609 24.7862 39.8075 33.2376 2.0224 -0.0575
# 5 11.6481 -0.9888 14.3314 2.0224 18.6925 13.5014
# 6 -6.4530 1.5645 0.4108 -0.0575 13.5014 38.6697
#
#
#
# Elastic Compliance Matrix: (Units=1/GPa)
#
#
# Indices 1 2 3 4 5 6 
#
# 1 0.015286 -0.001148 0.000600 -0.004558 -0.015270 0.007916
# 2 -0.001148 0.013834 0.002261 -0.012740 0.002227 -0.001572
# 3 0.000600 0.002261 0.023366 -0.028671 -0.019875 0.006657
# 4 -0.004558 -0.012740 -0.028671 0.074293 0.021379 -0.007295
# 5 -0.015270 0.002227 -0.019875 0.021379 0.104017 -0.038713
# 6 0.007916 -0.001572 0.006657 -0.007295 -0.038713 0.040679
#
#
# Mechanical properties :
#
#
# Convention : Reuss Voigt Hill
#
# Bulk Modulus (GPa) = 17.88517 43.18070 30.53294
# Shear Modulus (GPa) = 17.44064 33.00622 25.22343
#
# Velocity S-wave (km/s) = 2.63089 3.61925 3.16390
# Velocity P-wave (km/s) = 4.04064 5.88237 5.04623
#
# Compressibility (1/GPa) = 0.05591224
#
# Stress axis : x y z
#
# Youngs Moduli (GPa) = 65.41962 72.28376 42.79781
#
# Poissons Ratio (x) = 0.08297 -0.02567
# Poissons Ratio (y) = 0.07509 -0.09677
# Poissons Ratio (z) = -0.03924 -0.16345
#
# Static dielectric constant tensor:
#      x y z
#    x 4.798390 0.059600 0.243770 
#    y 0.059600 4.377130 0.240150 
#    z 0.243770 0.240150 5.059450 
# 
# 
# High freq. dielectric constant tensor:
#      x y z
#    x 2.000230 -0.001710 0.018320 
#    y -0.001710 2.007510 0.012980 
#    z 0.018320 0.012980 2.003850 
# 
# From -- ./inp_files/585647.got.cif
#   From: 2010.06.25/outbox.cif.g09.slc.cpg/sg2_293_cif.got.tgz:585647.got - 2010.06.27 13:26:56.
