data_PCOD8011750
_publ_section_title
;
Structure prediction by ZEFSAII (Michael W. Deem and Ramdas Pophale) SiO2 
 PCOD8011750
Probable space group: P -1
;
_chemical_formula_sum "Si O2"
_cell_formula_units_Z 14
_cell_length_a 8.814456
_cell_length_b 18.400422
_cell_length_c 12.043542
_cell_angle_alpha 145.211613
_cell_angle_beta 32.218460
_cell_angle_gamma 135.422250
_cell_volume 593.196249
_symmetry_space_group_name_H-M "P -1"
_symmetry_group_IT_number 2
_symmetry_cell_setting 'triclinic'
loop_
_space_group_symop_operation_xyz
x,y,z
-x,-y,-z
loop_
_atom_site_type_symbol
_atom_site_label
_atom_site_fract_x
_atom_site_fract_y
_atom_site_fract_z
Si Si1 0.376581 0.637354 0.280729
Si Si2 0.683581 0.161055 0.063656
Si Si3 0.733070 0.998078 0.023610
Si Si4 0.613461 0.650518 0.383655
Si Si5 0.326601 0.904280 0.571318
Si Si6 0.182900 0.633840 0.917728
Si Si7 0.255854 0.430813 0.443033
O O1 0.531495 0.689908 0.360238
O O2 0.422329 0.756867 0.315061
O O3 0.036351 0.625248 0.499533
O O4 0.500000 0.500000 0.000000
O O5 0.849124 0.107045 0.999736
O O6 0.418063 0.236157 0.368558
O O7 0.899983 0.260162 0.988545
O O8 0.556850 0.058036 0.925292
O O9 0.633557 0.048856 0.267508
O O10 0.987038 0.902394 0.755592
O O11 0.407015 0.529125 0.387252
O O12 0.947776 0.622902 0.146004
O O13 0.500000 0.000000 0.500000
O O14 0.185014 0.494648 0.685223
O O15 0.503274 0.672716 0.815009
#
# Coordination Sequence:
#
# PCOD8011750 Si02
#       7
#     2   2   2   2   2   2   2
#     4  12  24  45  69 104 141 186 236 287 360 423
#     4  10  22  41  72  94 139 183 238 288 348 419
#     4  10  23  46  67 100 134 191 235 287 349 420
#     4  11  22  40  67 101 138 185 234 290 352 419
#     4  11  26  46  72 102 143 180 238 293 351 418
#     4  10  21  39  63  99 139 179 234 288 348 418
#     4  10  22  40  62  95 142 184 228 285 352 419
#
# _framework density 23.600957999999999
#
# number of rings (size 3 to 8) (size 9 to 14) (size 15 to 20)
#    0.000    1.429    2.857    1.714    2.000    1.143 
#   10.286    2.857    0.000    0.000    0.000    0.000 
#    0.000    0.000    0.000    0.000    0.000    0.000 
#
# Total GULP energy -173459.471100 kJ/mol
# GULP energy per Si atom -12389.962221 kJ/mol
# Density = 2.354724 g / cm^3
# Si number density = 23.600958 Si / 1000 Ang^3
#
#
#
# Elastic Constant Matrix: (Units=GPa)
#
#
# Indices 1 2 3 4 5 6 
#
# 1 97.0015 24.4309 31.4513 -3.2004 -3.0655 -7.0298
# 2 24.4309 114.2432 52.0483 10.3893 -6.2108 -20.3333
# 3 31.4513 52.0483 101.5783 -4.9842 -12.4707 -4.3345
# 4 -3.2004 10.3893 -4.9842 36.6535 2.8258 -13.7078
# 5 -3.0655 -6.2108 -12.4707 2.8258 28.9375 0.8834
# 6 -7.0298 -20.3333 -4.3345 -13.7078 0.8834 35.5126
#
#
#
# Elastic Compliance Matrix: (Units=1/GPa)
#
#
# Indices 1 2 3 4 5 6 
#
# 1 0.011721 -0.000931 -0.003041 0.001690 -0.000497 0.002080
# 2 -0.000931 0.013028 -0.006268 -0.002569 0.000079 0.005516
# 3 -0.003041 -0.006268 0.014603 0.002588 0.004419 -0.001520
# 4 0.001690 -0.002569 0.002588 0.033252 -0.002873 0.012086
# 5 -0.000497 0.000079 0.004419 -0.002873 0.036753 -0.001537
# 6 0.002080 0.005516 -0.001520 0.012086 -0.001537 0.036247
#
#
# Mechanical properties :
#
#
# Convention : Reuss Voigt Hill
#
# Bulk Modulus (GPa) = 52.99442 58.74267 55.86855
# Shear Modulus (GPa) = 29.00662 33.88022 31.44342
#
# Velocity S-wave (km/s) = 3.50958 3.79297 3.65402
# Velocity P-wave (km/s) = 6.23906 6.64275 6.44407
#
# Compressibility (1/GPa) = 0.01886991
#
# Stress axis : x y z
#
# Youngs Moduli (GPa) = 85.32010 76.75873 68.48073
#
# Poissons Ratio (x) = 0.07149 0.20826
# Poissons Ratio (y) = 0.07947 0.42924
# Poissons Ratio (z) = 0.25947 0.48113
#
# Static dielectric constant tensor:
#      x y z
#    x 4.312220 -0.399860 -0.231470 
#    y -0.399860 4.350240 0.091490 
#    z -0.231470 0.091490 4.271170 
# 
# 
# High freq. dielectric constant tensor:
#      x y z
#    x 1.933330 -0.022180 -0.015010 
#    y -0.022180 1.936670 0.001650 
#    z -0.015010 0.001650 1.921950 
# 
# From -- ./inp_files/68167.got.cif
#   From: 2010.06.25/outbox.cif.g09.slc.cpg/sg2_35_cif.got.tgz:68167.got - 2010.06.27 13:26:56.
