data_PCOD8011918
_publ_section_title
;
Structure prediction by ZEFSAII (Michael W. Deem and Ramdas Pophale) SiO2 
 PCOD8011918
Probable space group: P -1
;
_chemical_formula_sum "Si O2"
_cell_formula_units_Z 12
_cell_length_a 8.872614
_cell_length_b 11.720974
_cell_length_c 11.232894
_cell_angle_alpha 70.316250
_cell_angle_beta 63.344211
_cell_angle_gamma 120.842922
_cell_volume 604.167707
_symmetry_space_group_name_H-M "P -1"
_symmetry_group_IT_number 2
_symmetry_cell_setting 'triclinic'
loop_
_space_group_symop_operation_xyz
x,y,z
-x,-y,-z
loop_
_atom_site_type_symbol
_atom_site_label
_atom_site_fract_x
_atom_site_fract_y
_atom_site_fract_z
Si Si1 0.160412 0.357657 0.417064
Si Si2 0.918262 0.606338 0.309464
Si Si3 0.601876 0.743045 0.531565
Si Si4 0.953618 0.049453 0.882294
Si Si5 0.589863 0.291429 0.935567
Si Si6 0.259191 0.062566 0.363930
O O1 0.114237 0.415849 0.528589
O O2 0.376966 0.373969 0.365569
O O3 0.278788 0.505063 0.216384
O O4 0.860504 0.136676 0.560490
O O5 0.655411 0.395982 0.415867
O O6 0.936833 0.753557 0.203728
O O7 0.185252 0.685695 0.147639
O O8 0.881071 0.918563 0.295789
O O9 0.576006 0.838438 0.603376
O O10 0.000000 0.000000 0.000000
O O11 0.634350 0.872390 0.025568
O O12 0.457433 0.227890 0.134652
O O13 0.000000 0.000000 0.500000
#
# Coordination Sequence:
#
# PCOD8011918 Si02
#       6
#     2   2   2   2   2   2
#     4  10  21  39  65  88 119 160 205 243 299 358
#     4  11  22  39  61  93 128 148 201 262 294 348
#     4  10  21  41  59  87 127 155 199 256 286 357
#     4  11  21  38  64  92 116 160 208 242 298 359
#     4  12  22  38  66  91 119 163 198 247 311 348
#     4  10  21  41  60  87 126 158 203 245 293 363
#
# _framework density 19.862036
#
# number of rings (size 3 to 8) (size 9 to 14) (size 15 to 20)
#    0.000    1.333    5.000    5.000    0.000    3.333 
#    3.000    0.833    0.000    0.000    0.000    0.000 
#    0.000    0.000    0.000    0.000    0.000    0.000 
#
# Total GULP energy -148799.691480 kJ/mol
# GULP energy per Si atom -12399.974290 kJ/mol
# Density = 1.981683 g / cm^3
# Si number density = 19.862036 Si / 1000 Ang^3
#
#
#
# Elastic Constant Matrix: (Units=GPa)
#
#
# Indices 1 2 3 4 5 6 
#
# 1 64.9277 40.1146 51.9838 5.1554 -2.7261 13.1744
# 2 40.1146 143.5811 59.4689 2.9249 3.5591 30.0894
# 3 51.9838 59.4689 142.3528 4.8525 13.3872 4.9333
# 4 5.1554 2.9249 4.8525 32.0426 -2.8503 -1.7398
# 5 -2.7261 3.5591 13.3872 -2.8503 37.3983 -2.2887
# 6 13.1744 30.0894 4.9333 -1.7398 -2.2887 12.8120
#
#
#
# Elastic Compliance Matrix: (Units=1/GPa)
#
#
# Indices 1 2 3 4 5 6 
#
# 1 0.029937 0.003824 -0.011445 -0.005058 0.003361 -0.035444
# 2 0.003824 0.018625 -0.007273 -0.003875 -0.001986 -0.045755
# 3 -0.011445 -0.007273 0.013727 0.001367 -0.003537 0.023117
# 4 -0.005058 -0.003875 0.001367 0.033481 0.003219 0.018897
# 5 0.003361 -0.001986 -0.003537 0.003219 0.029188 0.008221
# 6 -0.035444 -0.045755 0.023117 0.018897 0.008221 0.217087
#
#
# Mechanical properties :
#
#
# Convention : Reuss Voigt Hill
#
# Bulk Modulus (GPa) = 30.76744 72.66627 51.71685
# Shear Modulus (GPa) = 13.06614 29.73687 21.40151
#
# Velocity S-wave (km/s) = 2.56763 3.87353 3.28610
# Velocity P-wave (km/s) = 4.93098 7.52798 6.36337
#
# Compressibility (1/GPa) = 0.03250189
#
# Stress axis : x y z
#
# Youngs Moduli (GPa) = 33.40325 53.69033 72.84706
#
# Poissons Ratio (x) = -0.20530 0.83374
# Poissons Ratio (y) = -0.12772 0.52979
# Poissons Ratio (z) = 0.38230 0.39047
#
# Static dielectric constant tensor:
#      x y z
#    x 3.437430 0.337220 -0.017160 
#    y 0.337220 4.368120 -0.068880 
#    z -0.017160 -0.068880 3.696200 
# 
# 
# High freq. dielectric constant tensor:
#      x y z
#    x 1.749120 0.015210 0.002420 
#    y 0.015210 1.781240 -0.002430 
#    z 0.002420 -0.002430 1.781140 
# 
# From -- ./inp_files/151852.got.cif
#   From: 2010.06.25/outbox.cif.g09.slc.cpg/sg2_76_cif.got.tgz:151852.got - 2010.06.27 13:26:56.
