data_PCOD8011865
_publ_section_title
;
Structure prediction by ZEFSAII (Michael W. Deem and Ramdas Pophale) SiO2 
 PCOD8011865
Probable space group: P -1
;
_chemical_formula_sum "Si O2"
_cell_formula_units_Z 14
_cell_length_a 9.014637
_cell_length_b 8.225839
_cell_length_c 9.447804
_cell_angle_alpha 82.980082
_cell_angle_beta 62.083133
_cell_angle_gamma 75.865335
_cell_volume 600.286651
_symmetry_space_group_name_H-M "P -1"
_symmetry_group_IT_number 2
_symmetry_cell_setting 'triclinic'
loop_
_space_group_symop_operation_xyz
x,y,z
-x,-y,-z
loop_
_atom_site_type_symbol
_atom_site_label
_atom_site_fract_x
_atom_site_fract_y
_atom_site_fract_z
Si Si1 0.998280 0.672321 0.310401
Si Si2 0.384506 0.979999 0.852972
Si Si3 0.339341 0.713060 0.690742
Si Si4 0.174670 0.516717 0.995942
Si Si5 0.620186 0.826430 0.415631
Si Si6 0.729938 0.825948 0.854036
Si Si7 0.072685 0.692759 0.582284
O O1 0.818656 0.806999 0.371881
O O2 0.947183 0.492519 0.351702
O O3 0.121296 0.669417 0.118366
O O4 0.103659 0.706177 0.398767
O O5 0.290122 0.874286 0.799470
O O6 0.571729 0.865854 0.812295
O O7 0.391662 0.157676 0.752426
O O8 0.282676 0.026555 0.039695
O O9 0.534994 0.682500 0.542949
O O10 0.222730 0.743857 0.599680
O O11 0.307151 0.556597 0.814055
O O12 0.269245 0.350290 0.051614
O O13 0.000000 0.500000 0.000000
O O14 0.500000 0.000000 0.500000
O O15 0.898949 0.823949 0.687865
#
# Coordination Sequence:
#
# PCOD8011865 Si02
#       7
#     2   2   2   2   2   2   2
#     4  10  21  41  66  88 133 172 208 260 333 369
#     4  10  23  42  64  94 131 180 204 265 323 388
#     4  11  23  41  67 101 126 163 226 264 317 378
#     4  11  21  43  69  99 125 167 215 275 315 379
#     4  10  22  42  62  90 132 172 207 260 322 385
#     4  10  21  43  67  90 137 168 213 260 334 376
#     4  10  21  39  64  95 125 169 215 269 311 380
#
# _framework density 23.322191
#
# number of rings (size 3 to 8) (size 9 to 14) (size 15 to 20)
#    0.000    1.714    2.857    2.571    0.000    1.714 
#    7.714    3.571    0.000    0.000    0.000    0.000 
#    0.000    0.000    0.000    0.000    0.000    0.000 
#
# Total GULP energy -173489.094042 kJ/mol
# GULP energy per Si atom -12392.078146 kJ/mol
# Density = 2.326911 g / cm^3
# Si number density = 23.322191 Si / 1000 Ang^3
#
#
#
# Elastic Constant Matrix: (Units=GPa)
#
#
# Indices 1 2 3 4 5 6 
#
# 1 97.2893 22.4658 41.5879 0.2168 35.7060 -3.4621
# 2 22.4658 33.7880 -1.2214 -6.9613 12.8685 -9.1197
# 3 41.5879 -1.2214 104.3400 -7.8067 31.6110 1.6209
# 4 0.2168 -6.9613 -7.8067 46.4270 5.6748 1.3579
# 5 35.7060 12.8685 31.6110 5.6748 38.9188 2.1453
# 6 -3.4621 -9.1197 1.6209 1.3579 2.1453 32.3358
#
#
#
# Elastic Compliance Matrix: (Units=1/GPa)
#
#
# Indices 1 2 3 4 5 6 
#
# 1 0.017617 -0.008049 -0.004134 -0.000770 -0.010060 0.000523
# 2 -0.008049 0.048467 0.010237 0.010999 -0.019282 0.013112
# 3 -0.004134 0.010237 0.015809 0.005783 -0.013403 0.002298
# 4 -0.000770 0.010999 0.005783 0.025497 -0.011479 0.002421
# 5 -0.010060 -0.019282 -0.013403 -0.011479 0.054354 -0.008967
# 6 0.000523 0.013112 0.002298 0.002421 -0.008967 0.035057
#
#
# Mechanical properties :
#
#
# Convention : Reuss Voigt Hill
#
# Bulk Modulus (GPa) = 12.82042 40.12023 26.47033
# Shear Modulus (GPa) = 22.05619 35.04200 28.54910
#
# Velocity S-wave (km/s) = 3.07859 3.88044 3.50253
# Velocity P-wave (km/s) = 4.25981 6.10876 5.26607
#
# Compressibility (1/GPa) = 0.07800054
#
# Stress axis : x y z
#
# Youngs Moduli (GPa) = 56.76396 20.63254 63.25494
#
# Poissons Ratio (x) = 0.16607 0.26149
# Poissons Ratio (y) = 0.45689 -0.64751
# Poissons Ratio (z) = 0.23465 -0.21121
#
# Static dielectric constant tensor:
#      x y z
#    x 3.976280 -0.052910 0.010020 
#    y -0.052910 4.149400 -0.216460 
#    z 0.010020 -0.216460 5.145220 
# 
# 
# High freq. dielectric constant tensor:
#      x y z
#    x 1.900910 -0.017130 0.016960 
#    y -0.017130 1.903570 0.005320 
#    z 0.016960 0.005320 1.949290 
# 
# From -- ./inp_files/158486.got.cif
#   From: 2010.06.25/outbox.cif.g09.slc.cpg/sg2_80_cif.got.tgz:158486.got - 2010.06.27 13:26:56.
