data_PCOD8011921
_publ_section_title
;
Structure prediction by ZEFSAII (Michael W. Deem and Ramdas Pophale) SiO2 
 PCOD8011921
Probable space group: P -1
;
_chemical_formula_sum "Si O2"
_cell_formula_units_Z 16
_cell_length_a 14.428626
_cell_length_b 8.584004
_cell_length_c 9.131930
_cell_angle_alpha 109.430407
_cell_angle_beta 127.799076
_cell_angle_gamma 69.977417
_cell_volume 828.120463
_symmetry_space_group_name_H-M "P -1"
_symmetry_group_IT_number 2
_symmetry_cell_setting 'triclinic'
loop_
_space_group_symop_operation_xyz
x,y,z
-x,-y,-z
loop_
_atom_site_type_symbol
_atom_site_label
_atom_site_fract_x
_atom_site_fract_y
_atom_site_fract_z
Si Si1 0.917982 0.898990 0.482381
Si Si2 0.270647 0.265270 0.228801
Si Si3 0.233435 0.831292 0.373467
Si Si4 0.866121 0.631464 0.153745
Si Si5 0.860729 0.338219 0.278237
Si Si6 0.856363 0.450570 0.631536
Si Si7 0.471281 0.825476 0.468811
Si Si8 0.734971 0.125641 0.896247
O O1 0.838273 0.808960 0.268188
O O2 0.000898 0.751168 0.608777
O O3 0.833272 0.018370 0.545341
O O4 0.000000 0.000000 0.500000
O O5 0.189557 0.353148 0.312384
O O6 0.406077 0.293488 0.400855
O O7 0.261037 0.072234 0.140788
O O8 0.224455 0.362197 0.066072
O O9 0.211269 0.654828 0.357055
O O10 0.375402 0.840571 0.514940
O O11 0.184899 0.854300 0.165235
O O12 0.842637 0.482876 0.187275
O O13 0.002575 0.599560 0.220545
O O14 0.818394 0.414735 0.418617
O O15 0.782799 0.199639 0.111939
O O16 0.400181 0.771808 0.239769
O O17 0.500000 0.000000 0.500000
#
# Coordination Sequence:
#
# PCOD8011921 Si02
#       8
#     2   2   2   2   2   2   2   2
#     4  11  20  38  63  90 128 160 197 252 313 359
#     4  11  22  41  65  84 122 165 205 250 304 361
#     4  10  21  39  65  89 121 155 212 243 307 359
#     4  11  24  37  59  92 129 159 201 247 308 368
#     4  11  23  39  59  91 131 157 196 256 305 362
#     4  11  23  39  60  92 127 157 198 254 309 363
#     4   8  20  41  64  87 117 159 211 258 289 357
#     4   9  22  39  64  88 117 158 214 248 297 362
#
# _framework density 19.320861000000001
#
# number of rings (size 3 to 8) (size 9 to 14) (size 15 to 20)
#    0.750    1.000    2.500    3.375    3.500    1.000 
#    0.000    1.250    0.000    0.000    0.000    0.000 
#    0.000    0.000    0.000    0.000    0.000    0.000 
#
# Total GULP energy -198249.743366 kJ/mol
# GULP energy per Si atom -12390.608960 kJ/mol
# Density = 1.927689 g / cm^3
# Si number density = 19.320861 Si / 1000 Ang^3
#
#
#
# Elastic Constant Matrix: (Units=GPa)
#
#
# Indices 1 2 3 4 5 6 
#
# 1 46.1055 19.1029 25.4850 -17.6034 -0.4732 8.8456
# 2 19.1029 83.7388 39.9663 -3.4177 -6.7648 0.6112
# 3 25.4850 39.9663 124.2209 -4.7254 -6.1657 -23.9156
# 4 -17.6034 -3.4177 -4.7254 32.4039 1.5388 -3.0260
# 5 -0.4732 -6.7648 -6.1657 1.5388 23.2633 -0.6625
# 6 8.8456 0.6112 -23.9156 -3.0260 -0.6625 31.4449
#
#
#
# Elastic Compliance Matrix: (Units=1/GPa)
#
#
# Indices 1 2 3 4 5 6 
#
# 1 0.038181 -0.003812 -0.009251 0.017698 -0.004412 -0.016092
# 2 -0.003812 0.015189 -0.004537 -0.001538 0.003160 -0.002755
# 3 -0.009251 -0.004537 0.013987 -0.002365 0.002731 0.013158
# 4 0.017698 -0.001538 -0.002365 0.039852 -0.003435 -0.002985
# 5 -0.004412 0.003160 0.002731 -0.003435 0.044877 0.003872
# 6 -0.016092 -0.002755 0.013158 -0.002985 0.003872 0.046184
#
#
# Mechanical properties :
#
#
# Convention : Reuss Voigt Hill
#
# Bulk Modulus (GPa) = 31.09610 47.01928 39.05769
# Shear Modulus (GPa) = 20.47599 28.72315 24.59957
#
# Velocity S-wave (km/s) = 3.25897 3.85988 3.57208
# Velocity P-wave (km/s) = 5.50370 6.65235 6.10510
#
# Compressibility (1/GPa) = 0.03215838
#
# Stress axis : x y z
#
# Youngs Moduli (GPa) = 26.19078 65.83501 71.49695
#
# Poissons Ratio (x) = 0.25094 0.66141
# Poissons Ratio (y) = 0.09983 0.32439
# Poissons Ratio (z) = 0.24229 0.29870
#
# Static dielectric constant tensor:
#      x y z
#    x 3.544320 -0.042370 0.143020 
#    y -0.042370 3.649990 -0.079500 
#    z 0.143020 -0.079500 3.841980 
# 
# 
# High freq. dielectric constant tensor:
#      x y z
#    x 1.732460 0.012860 -0.004270 
#    y 0.012860 1.758530 0.001710 
#    z -0.004270 0.001710 1.752860 
# 
# From -- ./inp_files/299328.got.cif
#   From: 2010.06.25/outbox.cif.g09.slc.cpg/sg2_150_cif.got.tgz:299328.got - 2010.06.27 13:26:56.
