data_PCOD8011304
_publ_section_title
;
Structure prediction by ZEFSAII (Michael W. Deem and Ramdas Pophale) SiO2 
 PCOD8011304
Probable space group: P -1
;
_chemical_formula_sum "Si O2"
_cell_formula_units_Z 16
_cell_length_a 11.179257
_cell_length_b 15.000727
_cell_length_c 8.750156
_cell_angle_alpha 49.817945
_cell_angle_beta 120.892233
_cell_angle_gamma 144.379604
_cell_volume 652.723921
_symmetry_space_group_name_H-M "P -1"
_symmetry_group_IT_number 2
_symmetry_cell_setting 'triclinic'
loop_
_space_group_symop_operation_xyz
x,y,z
-x,-y,-z
loop_
_atom_site_type_symbol
_atom_site_label
_atom_site_fract_x
_atom_site_fract_y
_atom_site_fract_z
Si Si1 0.532070 0.530412 0.808889
Si Si2 0.813551 0.834751 0.443774
Si Si3 0.569836 0.350276 0.809031
Si Si4 0.188162 0.464913 0.737119
Si Si5 0.571371 0.982624 0.912350
Si Si6 0.040891 0.824914 0.868719
Si Si7 0.778812 0.255604 0.513174
Si Si8 0.997899 0.277529 0.363983
O O1 0.751433 0.721750 0.684925
O O2 0.498403 0.386488 0.863088
O O3 0.346334 0.506927 0.671027
O O4 0.500000 0.500000 0.000000
O O5 0.592348 0.728745 0.346045
O O6 0.939032 0.817167 0.444141
O O7 0.954865 0.035994 0.341021
O O8 0.800045 0.517398 0.718747
O O9 0.567907 0.213512 0.008267
O O10 0.274081 0.641037 0.663593
O O11 0.975516 0.361292 0.632043
O O12 0.163043 0.359355 0.983137
O O13 0.584974 0.077874 0.670611
O O14 0.798809 0.076465 0.996920
O O15 0.500000 0.000000 0.000000
O O16 0.098865 0.781692 0.806223
O O17 0.819475 0.215847 0.423826
#
# Coordination Sequence:
#
# PCOD8011304 Si02
#       8
#     2   2   2   2   2   2   2   2
#     4  11  22  38  61  93 126 161 203 257 305 358
#     4  10  21  39  64  89 124 169 202 248 304 364
#     4  10  22  39  66  90 120 168 208 246 303 367
#     4  10  21  39  59  90 124 160 206 243 308 370
#     4  10  24  44  63  87 122 165 210 250 304 374
#     4  10  23  39  61  92 122 165 199 258 314 349
#     4  10  23  37  63  90 120 163 200 255 306 364
#     4  11  21  39  61  95 125 155 207 254 307 369
#
# _framework density 24.512661000000001
#
# number of rings (size 3 to 8) (size 9 to 14) (size 15 to 20)
#    0.000    1.750    0.000    4.875    8.750    2.500 
#    2.250    4.375    0.000    0.000    0.000    0.000 
#    0.000    0.000    0.000    0.000    0.000    0.000 
#
# Total GULP energy -198352.091775 kJ/mol
# GULP energy per Si atom -12397.005736 kJ/mol
# Density = 2.445687 g / cm^3
# Si number density = 24.512661 Si / 1000 Ang^3
#
#
#
# Elastic Constant Matrix: (Units=GPa)
#
#
# Indices 1 2 3 4 5 6 
#
# 1 144.9864 30.2262 60.0628 -36.7354 -16.4930 -43.3702
# 2 30.2262 109.1644 60.0692 -34.3149 -2.3350 -29.2779
# 3 60.0628 60.0692 156.6054 -35.7603 0.5952 -25.9371
# 4 -36.7354 -34.3149 -35.7603 42.3871 -9.4987 10.7141
# 5 -16.4930 -2.3350 0.5952 -9.4987 42.4370 1.9422
# 6 -43.3702 -29.2779 -25.9371 10.7141 1.9422 34.3942
#
#
#
# Elastic Compliance Matrix: (Units=1/GPa)
#
#
# Indices 1 2 3 4 5 6 
#
# 1 0.018329 0.007699 -0.002572 0.016716 0.010321 0.021936
# 2 0.007699 0.018976 -0.003670 0.015995 0.006857 0.017724
# 3 -0.002572 -0.003670 0.009351 0.002534 -0.000763 -0.000061
# 4 0.016716 0.015995 0.002534 0.052371 0.018182 0.019264
# 5 0.010321 0.006857 -0.000763 0.018182 0.031537 0.010831
# 6 0.021936 0.017724 -0.000061 0.019264 0.010831 0.065165
#
#
# Mechanical properties :
#
#
# Convention : Reuss Voigt Hill
#
# Bulk Modulus (GPa) = 20.17330 79.05251 49.61290
# Shear Modulus (GPa) = 23.88491 41.20353 32.54422
#
# Velocity S-wave (km/s) = 3.12491 4.10434 3.64765
# Velocity P-wave (km/s) = 4.61169 7.40138 6.16637
#
# Compressibility (1/GPa) = 0.04957046
#
# Stress axis : x y z
#
# Youngs Moduli (GPa) = 54.55896 52.69742 106.94417
#
# Poissons Ratio (x) = -0.40570 0.27503
# Poissons Ratio (y) = -0.42003 0.39243
# Poissons Ratio (z) = 0.14031 0.19337
#
# Static dielectric constant tensor:
#      x y z
#    x 4.733540 0.283820 0.202580 
#    y 0.283820 4.601170 -0.160530 
#    z 0.202580 -0.160530 4.804560 
# 
# 
# High freq. dielectric constant tensor:
#      x y z
#    x 1.971600 0.012770 0.012830 
#    y 0.012770 1.992060 -0.000080 
#    z 0.012830 -0.000080 1.986020 
# 
# From -- ./inp_files/271864.got.cif
#   From: 2010.06.25/outbox.cif.g09.slc.cpg/sg2_136_cif.got.tgz:271864.got - 2010.06.27 13:26:56.
