data_PCOD8011569
_publ_section_title
;
Structure prediction by ZEFSAII (Michael W. Deem and Ramdas Pophale) SiO2 
 PCOD8011569
Probable space group: P -1
;
_chemical_formula_sum "Si O2"
_cell_formula_units_Z 14
_cell_length_a 7.807027
_cell_length_b 11.554125
_cell_length_c 11.995318
_cell_angle_alpha 46.186790
_cell_angle_beta 62.876365
_cell_angle_gamma 53.580979
_cell_volume 626.414158
_symmetry_space_group_name_H-M "P -1"
_symmetry_group_IT_number 2
_symmetry_cell_setting 'triclinic'
loop_
_space_group_symop_operation_xyz
x,y,z
-x,-y,-z
loop_
_atom_site_type_symbol
_atom_site_label
_atom_site_fract_x
_atom_site_fract_y
_atom_site_fract_z
Si Si1 0.060644 0.297439 0.438295
Si Si2 0.502634 0.889756 0.433316
Si Si3 0.478740 0.513674 0.179427
Si Si4 0.902998 0.059587 0.337111
Si Si5 0.347654 0.459718 0.487557
Si Si6 0.563781 0.227150 0.164200
Si Si7 0.038879 0.631784 0.818748
O O1 0.299551 0.189071 0.485236
O O2 0.898073 0.456903 0.455358
O O3 0.065413 0.378396 0.261003
O O4 0.959200 0.152938 0.554066
O O5 0.300028 0.884585 0.556604
O O6 0.567039 0.754692 0.399641
O O7 0.454202 0.090923 0.278795
O O8 0.329217 0.539290 0.314038
O O9 0.442095 0.387532 0.181863
O O10 0.710768 0.428912 0.221995
O O11 0.436941 0.698977 0.008888
O O12 0.810363 0.119496 0.200038
O O13 0.052415 0.159282 0.255610
O O14 0.500000 0.500000 0.500000
O O15 0.000000 0.500000 0.000000
#
# Coordination Sequence:
#
# PCOD8011569 Si02
#       7
#     2   2   2   2   2   2   2
#     4  11  23  39  63  96 124 163 213 255 310 378
#     4  11  22  40  67  93 122 165 218 257 307 370
#     4  10  21  39  62  93 128 167 197 265 318 360
#     4  10  21  40  62  92 124 164 211 263 306 362
#     4  12  23  43  61  90 138 170 202 248 322 385
#     4   9  19  37  66  94 115 159 218 257 306 353
#     4  11  23  37  61  94 127 161 213 260 312 362
#
# _framework density 22.349429000000001
#
# number of rings (size 3 to 8) (size 9 to 14) (size 15 to 20)
#    0.000    1.429    4.286    2.571    4.000    1.143 
#    0.000    5.000    0.000    0.000    0.000    0.000 
#    0.000    0.000    0.000    0.000    0.000    0.000 
#
# Total GULP energy -173482.357701 kJ/mol
# GULP energy per Si atom -12391.596979 kJ/mol
# Density = 2.229856 g / cm^3
# Si number density = 22.349429 Si / 1000 Ang^3
#
#
#
# Elastic Constant Matrix: (Units=GPa)
#
#
# Indices 1 2 3 4 5 6 
#
# 1 66.5271 18.7117 28.2972 -4.6927 -3.5591 21.9597
# 2 18.7117 108.6352 43.9591 -9.2375 -7.6281 23.6634
# 3 28.2972 43.9591 148.5333 -15.5803 4.5568 27.1201
# 4 -4.6927 -9.2375 -15.5803 30.3529 9.9054 -2.0844
# 5 -3.5591 -7.6281 4.5568 9.9054 37.3559 -3.4754
# 6 21.9597 23.6634 27.1201 -2.0844 -3.4754 28.1586
#
#
#
# Elastic Compliance Matrix: (Units=1/GPa)
#
#
# Indices 1 2 3 4 5 6 
#
# 1 0.020504 0.000355 -0.001108 0.001562 0.000345 -0.015063
# 2 0.000355 0.011964 -0.002011 0.001604 0.001545 -0.008084
# 3 -0.001108 -0.002011 0.009329 0.004703 -0.003507 -0.006516
# 4 0.001562 0.001604 0.004703 0.039310 -0.011037 -0.005548
# 5 0.000345 0.001545 -0.003507 -0.011037 0.030920 0.004810
# 6 -0.015063 -0.008084 -0.006516 -0.005548 0.004810 0.060512
#
#
# Mechanical properties :
#
#
# Convention : Reuss Voigt Hill
#
# Bulk Modulus (GPa) = 27.57235 56.18130 41.87682
# Shear Modulus (GPa) = 26.29407 34.68865 30.49136
#
# Velocity S-wave (km/s) = 3.43373 3.94395 3.69765
# Velocity P-wave (km/s) = 5.29947 6.77731 6.08343
#
# Compressibility (1/GPa) = 0.03626822
#
# Stress axis : x y z
#
# Youngs Moduli (GPa) = 48.77192 83.58652 107.18784
#
# Poissons Ratio (x) = -0.02965 0.11872
# Poissons Ratio (y) = -0.01730 0.21560
# Poissons Ratio (z) = 0.05402 0.16813
#
# Static dielectric constant tensor:
#      x y z
#    x 4.353380 0.301860 -0.037020 
#    y 0.301860 4.208380 -0.436960 
#    z -0.037020 -0.436960 4.223430 
# 
# 
# High freq. dielectric constant tensor:
#      x y z
#    x 1.895000 0.012760 0.005090 
#    y 0.012760 1.854940 -0.028820 
#    z 0.005090 -0.028820 1.874360 
# 
# From -- ./inp_files/391985.got.cif
#   From: 2010.06.25/outbox.cif.g09.slc.cpg/sg2_196_cif.got.tgz:391985.got - 2010.06.27 13:26:56.
