data_PCOD8011573
_publ_section_title
;
Structure prediction by ZEFSAII (Michael W. Deem and Ramdas Pophale) SiO2 
 PCOD8011573
Probable space group: P -1
;
_chemical_formula_sum "Si O2"
_cell_formula_units_Z 16
_cell_length_a 11.803788
_cell_length_b 11.237450
_cell_length_c 9.556329
_cell_angle_alpha 70.492014
_cell_angle_beta 54.600580
_cell_angle_gamma 49.064536
_cell_volume 778.429627
_symmetry_space_group_name_H-M "P -1"
_symmetry_group_IT_number 2
_symmetry_cell_setting 'triclinic'
loop_
_space_group_symop_operation_xyz
x,y,z
-x,-y,-z
loop_
_atom_site_type_symbol
_atom_site_label
_atom_site_fract_x
_atom_site_fract_y
_atom_site_fract_z
Si Si1 0.301156 0.151264 0.586802
Si Si2 0.087536 0.344774 0.411326
Si Si3 0.109852 0.344611 0.082983
Si Si4 0.980002 0.155368 0.905718
Si Si5 0.367866 0.289936 0.728075
Si Si6 0.082566 0.812846 0.367077
Si Si7 0.816802 0.349371 0.215231
Si Si8 0.255760 0.840012 0.476853
O O1 0.251099 0.207647 0.439723
O O2 0.168955 0.118419 0.759242
O O3 0.291241 0.284698 0.635758
O O4 0.500000 0.000000 0.500000
O O5 0.139679 0.371368 0.211454
O O6 0.000000 0.500000 0.500000
O O7 0.947755 0.310011 0.502489
O O8 0.004998 0.269735 0.186325
O O9 0.298397 0.231381 0.920654
O O10 0.000000 0.500000 0.000000
O O11 0.866819 0.218914 0.819489
O O12 0.860364 0.300317 0.040916
O O13 0.000000 0.000000 0.000000
O O14 0.309749 0.463129 0.742229
O O15 0.574848 0.165889 0.632543
O O16 0.236536 0.792748 0.353472
O O17 0.905559 0.987091 0.436851
O O18 0.723912 0.280186 0.375538
#
# Coordination Sequence:
#
# PCOD8011573 Si02
#       8
#     2   2   2   2   2   2   2   2
#     4  11  25  44  65  98 135 169 212 272 331 384
#     4  11  22  40  68  95 125 169 219 264 319 392
#     4  10  21  39  62  94 125 162 214 267 317 377
#     4  11  22  41  64  92 123 170 213 261 317 390
#     4  11  23  40  64  95 128 163 215 269 323 378
#     4  10  23  39  65  88 125 166 216 255 324 385
#     4  11  21  39  66  90 122 170 218 256 320 385
#     4  11  22  43  61  90 128 168 212 261 320 391
#
# _framework density 20.554203000000001
#
# number of rings (size 3 to 8) (size 9 to 14) (size 15 to 20)
#    0.000    1.250    3.750    3.375    5.250    0.000 
#    2.250    1.875    0.000    0.000    0.000    0.000 
#    0.000    0.000    0.000    0.000    0.000    0.000 
#
# Total GULP energy -198307.078684 kJ/mol
# GULP energy per Si atom -12394.192418 kJ/mol
# Density = 2.050742 g / cm^3
# Si number density = 20.554203 Si / 1000 Ang^3
#
#
#
# Elastic Constant Matrix: (Units=GPa)
#
#
# Indices 1 2 3 4 5 6 
#
# 1 118.5729 14.6877 55.0379 -4.7847 13.6700 -2.8828
# 2 14.6877 62.1167 21.5165 -5.0548 8.6216 8.2087
# 3 55.0379 21.5165 129.1272 -6.2544 29.7253 -12.0110
# 4 -4.7847 -5.0548 -6.2544 25.5167 1.1812 6.2262
# 5 13.6700 8.6216 29.7253 1.1812 43.8923 6.6430
# 6 -2.8828 8.2087 -12.0110 6.2262 6.6430 29.9507
#
#
#
# Elastic Compliance Matrix: (Units=1/GPa)
#
#
# Indices 1 2 3 4 5 6 
#
# 1 0.010598 -0.000810 -0.004379 0.000925 -0.000098 -0.000685
# 2 -0.000810 0.018785 -0.003184 0.004607 -0.000286 -0.007398
# 3 -0.004379 -0.003184 0.012567 0.000241 -0.007607 0.007128
# 4 0.000925 0.004607 0.000241 0.042759 -0.001034 -0.009736
# 5 -0.000098 -0.000286 -0.007607 -0.001034 0.029457 -0.009300
# 6 -0.000685 -0.007398 0.007128 -0.009736 -0.009300 0.042295
#
#
# Mechanical properties :
#
#
# Convention : Reuss Voigt Hill
#
# Bulk Modulus (GPa) = 39.67480 54.70013 47.18746
# Shear Modulus (GPa) = 27.53166 34.44360 30.98763
#
# Velocity S-wave (km/s) = 3.66384 4.09803 3.88700
# Velocity P-wave (km/s) = 6.10268 7.00444 6.56905
#
# Compressibility (1/GPa) = 0.02520492
#
# Stress axis : x y z
#
# Youngs Moduli (GPa) = 94.35383 53.23275 79.57276
#
# Poissons Ratio (x) = 0.04312 0.34843
# Poissons Ratio (y) = 0.07642 0.25338
# Poissons Ratio (z) = 0.41316 0.16951
#
# Static dielectric constant tensor:
#      x y z
#    x 2.931630 -0.556080 -0.134140 
#    y -0.556080 3.224020 -0.372520 
#    z -0.134140 -0.372520 4.219650 
# 
# 
# High freq. dielectric constant tensor:
#      x y z
#    x 1.810870 0.022760 0.014940 
#    y 0.022760 1.785230 -0.000900 
#    z 0.014940 -0.000900 1.811900 
# 
# From -- ./inp_files/257953.got.cif
#   From: 2010.06.25/outbox.cif.g09.slc.cpg/sg2_129_cif.got.tgz:257953.got - 2010.06.27 13:26:56.
