data_PCOD8011183
_publ_section_title
;
Structure prediction by ZEFSAII (Michael W. Deem and Ramdas Pophale) SiO2 
 PCOD8011183
Probable space group: P -1
;
_chemical_formula_sum "Si O2"
_cell_formula_units_Z 14
_cell_length_a 14.992734
_cell_length_b 8.036059
_cell_length_c 9.456980
_cell_angle_alpha 86.001616
_cell_angle_beta 145.050670
_cell_angle_gamma 99.472681
_cell_volume 639.511089
_symmetry_space_group_name_H-M "P -1"
_symmetry_group_IT_number 2
_symmetry_cell_setting 'triclinic'
loop_
_space_group_symop_operation_xyz
x,y,z
-x,-y,-z
loop_
_atom_site_type_symbol
_atom_site_label
_atom_site_fract_x
_atom_site_fract_y
_atom_site_fract_z
Si Si1 0.096680 0.819211 0.013841
Si Si2 0.767413 0.825766 0.708951
Si Si3 0.477057 0.393410 0.768059
Si Si4 0.371336 0.832507 0.840816
Si Si5 0.156925 0.962784 0.775617
Si Si6 0.316443 0.683588 0.488792
Si Si7 0.345438 0.285414 0.139741
O O1 0.173306 0.666356 0.189682
O O2 0.196257 0.975381 0.223226
O O3 0.123940 0.850542 0.881472
O O4 0.910330 0.781408 0.803830
O O5 0.597797 0.772706 0.412943
O O6 0.754568 0.723968 0.846057
O O7 0.332318 0.498155 0.584104
O O8 0.631103 0.518364 0.893899
O O9 0.537768 0.323858 0.996551
O O10 0.237682 0.848758 0.780765
O O11 0.291167 0.799575 0.584691
O O12 0.500000 0.000000 0.000000
O O13 0.000000 0.000000 0.500000
O O14 0.259819 0.149651 0.923077
O O15 0.479045 0.760254 0.610745
#
# Coordination Sequence:
#
# PCOD8011183 Si02
#       7
#     2   2   2   2   2   2   2
#     4  10  24  41  64 100 127 175 216 271 317 388
#     4  10  21  38  69  92 134 169 219 261 329 376
#     4  10  23  40  67  96 132 167 218 269 324 385
#     4  12  23  41  70  95 126 175 218 266 326 384
#     4  11  26  43  66  96 134 168 223 267 324 382
#     4  10  23  40  64  96 133 162 221 263 325 379
#     4   9  22  41  64  97 131 164 218 274 316 388
#
# _framework density 21.891725000000001
#
# number of rings (size 3 to 8) (size 9 to 14) (size 15 to 20)
#    0.857    0.857    1.429    1.714   10.000    1.714 
#    0.000    0.714    0.000    0.000    0.000    0.000 
#    0.000    0.000    0.000    0.000    0.000    0.000 
#
# Total GULP energy -173461.918733 kJ/mol
# GULP energy per Si atom -12390.137052 kJ/mol
# Density = 2.184190 g / cm^3
# Si number density = 21.891725 Si / 1000 Ang^3
#
#
#
# Elastic Constant Matrix: (Units=GPa)
#
#
# Indices 1 2 3 4 5 6 
#
# 1 130.1822 28.2627 26.0404 -12.3981 -4.8851 9.5079
# 2 28.2627 73.6514 26.4372 -13.6853 0.1127 14.7891
# 3 26.0404 26.4372 90.7615 -24.9322 -10.5125 4.0593
# 4 -12.3981 -13.6853 -24.9322 44.5168 1.2377 1.3471
# 5 -4.8851 0.1127 -10.5125 1.2377 28.1983 -2.3527
# 6 9.5079 14.7891 4.0593 1.3471 -2.3527 24.8066
#
#
#
# Elastic Compliance Matrix: (Units=1/GPa)
#
#
# Indices 1 2 3 4 5 6 
#
# 1 0.008710 -0.002326 -0.001386 0.000963 0.000817 -0.001700
# 2 -0.002326 0.018401 -0.003657 0.003340 -0.002815 -0.009929
# 3 -0.001386 -0.003657 0.014883 0.006672 0.005063 0.000394
# 4 0.000963 0.003340 0.006672 0.027614 0.001024 -0.004854
# 5 0.000817 -0.002815 0.005063 0.001024 0.037798 0.004066
# 6 -0.001700 -0.009929 0.000394 -0.004854 0.004066 0.047467
#
#
# Mechanical properties :
#
#
# Convention : Reuss Voigt Hill
#
# Bulk Modulus (GPa) = 36.69011 50.67509 43.68260
# Shear Modulus (GPa) = 27.98037 33.76131 30.87084
#
# Velocity S-wave (km/s) = 3.57897 3.93134 3.75928
# Velocity P-wave (km/s) = 5.82021 6.61858 6.23219
#
# Compressibility (1/GPa) = 0.02725530
#
# Stress axis : x y z
#
# Youngs Moduli (GPa) = 114.80617 54.34403 67.19292
#
# Poissons Ratio (x) = 0.12639 0.09315
# Poissons Ratio (y) = 0.26702 0.24574
# Poissons Ratio (z) = 0.15916 0.19875
#
# Static dielectric constant tensor:
#      x y z
#    x 4.011920 -0.007490 -0.105900 
#    y -0.007490 3.941720 0.115450 
#    z -0.105900 0.115450 3.886580 
# 
# 
# High freq. dielectric constant tensor:
#      x y z
#    x 1.851380 0.006730 -0.007850 
#    y 0.006730 1.857460 0.003120 
#    z -0.007850 0.003120 1.856180 
# 
# From -- ./inp_files/298431.got.cif
#   From: 2010.06.25/outbox.cif.g09.slc.cpg/sg2_150_cif.got.tgz:298431.got - 2010.06.27 13:26:56.
