data_PCOD8011777
_publ_section_title
;
Structure prediction by ZEFSAII (Michael W. Deem and Ramdas Pophale) SiO2 
 PCOD8011777
Probable space group: P -1
;
_chemical_formula_sum "Si O2"
_cell_formula_units_Z 14
_cell_length_a 10.649510
_cell_length_b 12.985508
_cell_length_c 11.179729
_cell_angle_alpha 123.130842
_cell_angle_beta 46.967143
_cell_angle_gamma 148.489415
_cell_volume 588.133150
_symmetry_space_group_name_H-M "P -1"
_symmetry_group_IT_number 2
_symmetry_cell_setting 'triclinic'
loop_
_space_group_symop_operation_xyz
x,y,z
-x,-y,-z
loop_
_atom_site_type_symbol
_atom_site_label
_atom_site_fract_x
_atom_site_fract_y
_atom_site_fract_z
Si Si1 0.152036 0.052183 0.056527
Si Si2 0.097814 0.357867 0.499407
Si Si3 0.448111 0.555151 0.833837
Si Si4 0.245152 0.082342 0.574109
Si Si5 0.130373 0.772795 0.881518
Si Si6 0.380745 0.659956 0.702895
Si Si7 0.729253 0.226934 0.458937
O O1 0.949281 0.944178 0.234894
O O2 0.390751 0.285972 0.064040
O O3 0.289182 0.993204 0.925845
O O4 0.000000 0.000000 0.000000
O O5 0.394138 0.479597 0.332160
O O6 0.142224 0.447087 0.655447
O O7 0.945842 0.371858 0.518894
O O8 0.893233 0.126984 0.495905
O O9 0.420703 0.634129 0.792472
O O10 0.155202 0.356182 0.950461
O O11 0.323644 0.187820 0.462148
O O12 0.550974 0.244451 0.542168
O O13 0.296348 0.756508 0.827989
O O14 0.086280 0.719114 0.736617
O O15 0.500000 0.000000 0.500000
#
# Coordination Sequence:
#
# PCOD8011777 Si02
#       7
#     2   2   2   2   2   2   2
#     4  11  24  42  65  92 124 159 202 257 311 365
#     4  10  21  39  64  89 121 160 206 257 299 357
#     4  11  25  41  61  92 126 163 207 249 300 367
#     4   9  21  39  63  89 119 161 205 252 304 356
#     4  11  24  40  63  92 126 163 199 251 312 360
#     4  11  24  40  61  91 124 165 210 247 297 365
#     4   9  19  39  62  90 117 151 203 251 301 357
#
# _framework density 23.804133
#
# number of rings (size 3 to 8) (size 9 to 14) (size 15 to 20)
#    0.000    1.714    0.000    4.286    0.000   14.286 
#    0.000    0.000    0.000    0.000    0.000    0.000 
#    0.000    0.000    0.000    0.000    0.000    0.000 
#
# Total GULP energy -173573.072991 kJ/mol
# GULP energy per Si atom -12398.076642 kJ/mol
# Density = 2.374995 g / cm^3
# Si number density = 23.804133 Si / 1000 Ang^3
#
#
#
# Elastic Constant Matrix: (Units=GPa)
#
#
# Indices 1 2 3 4 5 6 
#
# 1 86.6991 9.2659 20.5944 13.8741 -0.5281 -5.4485
# 2 9.2659 21.1856 21.8304 1.0082 -2.5984 -0.8616
# 3 20.5944 21.8304 68.4628 6.4804 -7.3067 -8.9861
# 4 13.8741 1.0082 6.4804 50.0409 -10.2388 -2.2715
# 5 -0.5281 -2.5984 -7.3067 -10.2388 41.8906 1.7716
# 6 -5.4485 -0.8616 -8.9861 -2.2715 1.7716 24.9757
#
#
#
# Elastic Compliance Matrix: (Units=1/GPa)
#
#
# Indices 1 2 3 4 5 6 
#
# 1 0.013117 -0.002998 -0.002600 -0.003450 -0.001385 0.001607
# 2 -0.002998 0.071955 -0.022956 0.002325 0.001256 -0.006309
# 3 -0.002600 -0.022956 0.023967 -0.001164 0.002143 0.007006
# 4 -0.003450 0.002325 -0.001164 0.022151 0.005289 0.000548
# 5 -0.001385 0.001256 0.002143 0.005289 0.025633 -0.000825
# 6 0.001607 -0.006309 0.007006 0.000548 -0.000825 0.042801
#
#
# Mechanical properties :
#
#
# Convention : Reuss Voigt Hill
#
# Bulk Modulus (GPa) = 19.25663 31.08097 25.16880
# Shear Modulus (GPa) = 18.24534 31.69189 24.96862
#
# Velocity S-wave (km/s) = 2.77154 3.65274 3.24222
# Velocity P-wave (km/s) = 4.28358 5.55656 4.96107
#
# Compressibility (1/GPa) = 0.05193016
#
# Stress axis : x y z
#
# Youngs Moduli (GPa) = 76.23792 13.89763 41.72404
#
# Poissons Ratio (x) = 0.04167 0.10849
# Poissons Ratio (y) = 0.22856 0.95782
# Poissons Ratio (z) = 0.19822 0.31904
#
# Static dielectric constant tensor:
#      x y z
#    x 4.455450 -0.049460 -0.056330 
#    y -0.049460 4.389590 -0.081450 
#    z -0.056330 -0.081450 4.276320 
# 
# 
# High freq. dielectric constant tensor:
#      x y z
#    x 1.940350 -0.012340 -0.001680 
#    y -0.012340 1.955870 0.001720 
#    z -0.001680 0.001720 1.940140 
# 
# From -- ./inp_files/433171.got.cif
#   From: 2010.06.25/outbox.cif.g09.slc.cpg/sg2_217_cif.got.tgz:433171.got - 2010.06.27 13:26:56.
