data_PCOD8011348
_publ_section_title
;
Structure prediction by ZEFSAII (Michael W. Deem and Ramdas Pophale) SiO2 
 PCOD8011348
Probable space group: P -1
;
_chemical_formula_sum "Si O2"
_cell_formula_units_Z 14
_cell_length_a 12.986292
_cell_length_b 21.305455
_cell_length_c 8.454311
_cell_angle_alpha 138.112901
_cell_angle_beta 59.498494
_cell_angle_gamma 152.866615
_cell_volume 613.114554
_symmetry_space_group_name_H-M "P -1"
_symmetry_group_IT_number 2
_symmetry_cell_setting 'triclinic'
loop_
_space_group_symop_operation_xyz
x,y,z
-x,-y,-z
loop_
_atom_site_type_symbol
_atom_site_label
_atom_site_fract_x
_atom_site_fract_y
_atom_site_fract_z
Si Si1 0.828345 0.971848 0.598276
Si Si2 0.076269 0.783026 0.171634
Si Si3 0.004089 0.870065 0.670996
Si Si4 0.348553 0.211858 0.283646
Si Si5 0.612887 0.116369 0.463718
Si Si6 0.675290 0.372998 0.861245
Si Si7 0.150317 0.399709 0.539106
O O1 0.695051 0.883389 0.708020
O O2 0.620247 0.821838 0.335807
O O3 0.991028 0.184014 0.846465
O O4 0.000000 0.000000 0.500000
O O5 0.106576 0.857835 0.457344
O O6 0.364123 0.939812 0.206454
O O7 0.864352 0.551016 0.911918
O O8 0.811720 0.803217 0.597040
O O9 0.845375 0.709578 0.637669
O O10 0.250145 0.096474 0.980141
O O11 0.661333 0.448262 0.471860
O O12 0.737409 0.308174 0.729960
O O13 0.848820 0.218389 0.402960
O O14 0.500000 0.000000 0.500000
O O15 0.718917 0.458829 0.148023
#
# Coordination Sequence:
#
# PCOD8011348 Si02
#       7
#     2   2   2   2   2   2   2
#     4  11  23  40  60  86 124 166 200 238 299 362
#     4  10  21  41  61  93 119 157 206 248 291 357
#     4  10  21  39  60  88 122 156 201 252 293 353
#     4  11  23  38  59  86 128 159 195 247 302 353
#     4  11  20  36  66  94 118 151 203 255 298 347
#     4  10  23  38  63  93 121 152 207 250 293 360
#     4  11  23  37  63  94 120 153 200 254 303 345
#
# _framework density 22.834232
#
# number of rings (size 3 to 8) (size 9 to 14) (size 15 to 20)
#    0.000    1.429    4.286    2.571    2.000    1.714 
#    0.000    2.857    0.000    5.143    0.000    0.000 
#    0.000    0.000    0.000    0.000    0.000    0.000 
#
# Total GULP energy -173509.929420 kJ/mol
# GULP energy per Si atom -12393.566387 kJ/mol
# Density = 2.278226 g / cm^3
# Si number density = 22.834232 Si / 1000 Ang^3
#
#
#
# Elastic Constant Matrix: (Units=GPa)
#
#
# Indices 1 2 3 4 5 6 
#
# 1 128.9066 43.8837 16.1025 19.6020 -23.9936 -22.5471
# 2 43.8837 112.9465 8.1940 33.3470 -8.2091 -19.0245
# 3 16.1025 8.1940 33.8028 18.5119 -15.4787 1.8376
# 4 19.6020 33.3470 18.5119 32.0829 -13.8105 -6.6994
# 5 -23.9936 -8.2091 -15.4787 -13.8105 34.2208 17.4117
# 6 -22.5471 -19.0245 1.8376 -6.6994 17.4117 45.5345
#
#
#
# Elastic Compliance Matrix: (Units=1/GPa)
#
#
# Indices 1 2 3 4 5 6 
#
# 1 0.010336 -0.003524 -0.002910 0.001444 0.004526 0.002245
# 2 -0.003524 0.015685 0.005226 -0.018921 -0.006088 0.004142
# 3 -0.002910 0.005226 0.055723 -0.030450 0.018840 -0.013191
# 4 0.001444 -0.018921 -0.030450 0.072706 0.011959 0.000162
# 5 0.004526 -0.006088 0.018840 0.011959 0.054540 -0.020158
# 6 0.002245 0.004142 -0.013191 0.000162 -0.020158 0.033068
#
#
# Mechanical properties :
#
#
# Convention : Reuss Voigt Hill
#
# Bulk Modulus (GPa) = 12.60574 45.77958 29.19266
# Shear Modulus (GPa) = 18.45582 36.19935 27.32759
#
# Velocity S-wave (km/s) = 2.84606 3.98592 3.46321
# Velocity P-wave (km/s) = 4.04136 6.42461 5.36694
#
# Compressibility (1/GPa) = 0.07932893
#
# Stress axis : x y z
#
# Youngs Moduli (GPa) = 96.74633 63.75340 17.94594
#
# Poissons Ratio (x) = 0.22467 0.05222
# Poissons Ratio (y) = 0.34094 -0.09378
# Poissons Ratio (z) = 0.28150 -0.33317
#
# Static dielectric constant tensor:
#      x y z
#    x 4.486790 -0.356180 -0.303800 
#    y -0.356180 4.318740 0.481720 
#    z -0.303800 0.481720 3.846340 
# 
# 
# High freq. dielectric constant tensor:
#      x y z
#    x 1.915540 -0.014030 -0.016360 
#    y -0.014030 1.900260 0.031390 
#    z -0.016360 0.031390 1.869460 
# 
# From -- ./inp_files/279045.got.cif
#   From: 2010.06.25/outbox.cif.g09.slc.cpg/sg2_140_cif.got.tgz:279045.got - 2010.06.27 13:26:56.
