data_PCOD8011828
_publ_section_title
;
Structure prediction by ZEFSAII (Michael W. Deem and Ramdas Pophale) SiO2 
 PCOD8011828
Probable space group: P -1
;
_chemical_formula_sum "Si O2"
_cell_formula_units_Z 16
_cell_length_a 8.802364
_cell_length_b 8.986864
_cell_length_c 14.413388
_cell_angle_alpha 59.893717
_cell_angle_beta 118.482071
_cell_angle_gamma 82.330678
_cell_volume 755.722176
_symmetry_space_group_name_H-M "P -1"
_symmetry_group_IT_number 2
_symmetry_cell_setting 'triclinic'
loop_
_space_group_symop_operation_xyz
x,y,z
-x,-y,-z
loop_
_atom_site_type_symbol
_atom_site_label
_atom_site_fract_x
_atom_site_fract_y
_atom_site_fract_z
Si Si1 0.309770 0.884483 0.811611
Si Si2 0.593244 0.036662 0.843273
Si Si3 0.316401 0.731844 0.056977
Si Si4 0.240975 0.302405 0.326757
Si Si5 0.557879 0.287660 0.292470
Si Si6 0.978237 0.652617 0.025935
Si Si7 0.530287 0.284495 0.568167
Si Si8 0.139146 0.962586 0.399343
O O1 0.428619 0.754533 0.798797
O O2 0.077779 0.008613 0.684656
O O3 0.390319 0.036365 0.808551
O O4 0.356037 0.740535 0.957218
O O5 0.669982 0.095805 0.938475
O O6 0.545365 0.198664 0.700723
O O7 0.753076 0.815917 0.926970
O O8 0.475996 0.519921 0.210662
O O9 0.095060 0.766503 0.993711
O O10 0.407673 0.224864 0.317621
O O11 0.071831 0.526751 0.186494
O O12 0.344574 0.291165 0.458271
O O13 0.135380 0.170249 0.342224
O O14 0.771111 0.167198 0.440999
O O15 0.000000 0.500000 0.000000
O O16 0.500000 0.500000 0.500000
O O17 0.735436 0.151146 0.617723
#
# Coordination Sequence:
#
# PCOD8011828 Si02
#       8
#     2   2   2   2   2   2   2   2
#     4  12  24  39  60  87 124 168 201 243 298 360
#     4  12  24  42  62  89 127 163 198 248 303 359
#     4  11  24  41  60  89 123 161 204 249 300 359
#     4  10  21  39  64  93 118 151 204 258 300 351
#     4  10  21  40  63  89 120 157 204 255 300 353
#     4  11  22  40  66  93 118 155 206 257 301 353
#     4  11  22  41  67  92 119 156 199 251 306 358
#     4  11  22  40  63  92 122 155 202 251 301 359
#
# _framework density 21.171803000000001
#
# number of rings (size 3 to 8) (size 9 to 14) (size 15 to 20)
#    0.000    1.000    0.000   10.500    0.000    2.000 
#    0.000    3.750    0.000    0.000    0.000    0.000 
#    0.000    0.000    0.000    0.000    0.000    0.000 
#
# Total GULP energy -198483.880659 kJ/mol
# GULP energy per Si atom -12405.242541 kJ/mol
# Density = 2.112362 g / cm^3
# Si number density = 21.171803 Si / 1000 Ang^3
#
#
#
# Elastic Constant Matrix: (Units=GPa)
#
#
# Indices 1 2 3 4 5 6 
#
# 1 105.0834 43.7322 53.0989 6.3135 9.9143 24.8870
# 2 43.7322 94.8591 27.6561 8.0045 10.8534 20.3067
# 3 53.0989 27.6561 126.6265 2.5416 -1.4488 3.6534
# 4 6.3135 8.0045 2.5416 33.9876 0.5599 -3.9620
# 5 9.9143 10.8534 -1.4488 0.5599 33.5747 14.7244
# 6 24.8870 20.3067 3.6534 -3.9620 14.7244 27.7401
#
#
#
# Elastic Compliance Matrix: (Units=1/GPa)
#
#
# Indices 1 2 3 4 5 6 
#
# 1 0.017178 -0.003099 -0.006034 -0.003651 0.001791 -0.013820
# 2 -0.003099 0.014474 -0.001561 -0.003643 -0.000267 -0.007988
# 3 -0.006034 -0.001561 0.010602 0.001280 0.000495 0.005080
# 4 -0.003651 -0.003643 0.001280 0.032359 -0.003633 0.012324
# 5 0.001791 -0.000267 0.000495 -0.003633 0.039492 -0.022957
# 6 -0.013820 -0.007988 0.005080 0.012324 -0.022957 0.067572
#
#
# Mechanical properties :
#
#
# Convention : Reuss Voigt Hill
#
# Bulk Modulus (GPa) = 47.92508 63.94926 55.93717
# Shear Modulus (GPa) = 23.80712 32.53260 28.16986
#
# Velocity S-wave (km/s) = 3.35695 3.92420 3.65161
# Velocity P-wave (km/s) = 6.14092 7.12762 6.65259
#
# Compressibility (1/GPa) = 0.02086590
#
# Stress axis : x y z
#
# Youngs Moduli (GPa) = 58.21273 69.09071 94.32200
#
# Poissons Ratio (x) = 0.21409 0.56916
# Poissons Ratio (y) = 0.18038 0.14726
# Poissons Ratio (z) = 0.35127 0.10787
#
# Static dielectric constant tensor:
#      x y z
#    x 3.826220 0.031950 -0.054380 
#    y 0.031950 3.937120 0.193280 
#    z -0.054380 0.193280 4.122580 
# 
# 
# High freq. dielectric constant tensor:
#      x y z
#    x 1.823950 0.009640 -0.004760 
#    y 0.009640 1.824270 0.007490 
#    z -0.004760 0.007490 1.848760 
# 
# From -- ./inp_files/494521.got.cif
#   From: 2010.06.25/outbox.cif.g09.slc.cpg/sg2_248_cif.got.tgz:494521.got - 2010.06.27 13:26:56.
