data_PCOD8011256
_publ_section_title
;
Structure prediction by ZEFSAII (Michael W. Deem and Ramdas Pophale) SiO2 
 PCOD8011256
Probable space group: P -1
;
_chemical_formula_sum "Si O2"
_cell_formula_units_Z 16
_cell_length_a 22.975516
_cell_length_b 6.278607
_cell_length_c 8.795044
_cell_angle_alpha 125.090715
_cell_angle_beta 46.882105
_cell_angle_gamma 124.638851
_cell_volume 724.335340
_symmetry_space_group_name_H-M "P -1"
_symmetry_group_IT_number 2
_symmetry_cell_setting 'triclinic'
loop_
_space_group_symop_operation_xyz
x,y,z
-x,-y,-z
loop_
_atom_site_type_symbol
_atom_site_label
_atom_site_fract_x
_atom_site_fract_y
_atom_site_fract_z
Si Si1 0.014355 0.212239 0.701918
Si Si2 0.583306 0.085669 0.481349
Si Si3 0.352260 0.424425 0.860324
Si Si4 0.940234 0.172216 0.126097
Si Si5 0.829897 0.774633 0.361188
Si Si6 0.464854 0.012343 0.905790
Si Si7 0.689185 0.811352 0.848664
Si Si8 0.265822 0.623485 0.853425
O O1 0.025859 0.517402 0.746626
O O2 0.098543 0.217734 0.642746
O O3 0.000000 0.000000 0.500000
O O4 0.937700 0.148546 0.935366
O O5 0.651859 0.330032 0.379997
O O6 0.500000 0.000000 0.500000
O O7 0.618654 0.832640 0.341728
O O8 0.550922 0.172743 0.732555
O O9 0.423187 0.700690 0.800719
O O10 0.271923 0.422950 0.899635
O O11 0.329707 0.416022 0.077385
O O12 0.853017 0.038433 0.315316
O O13 0.000000 0.000000 0.000000
O O14 0.744788 0.746591 0.590200
O O15 0.813469 0.515135 0.169620
O O16 0.500000 0.000000 0.000000
O O17 0.396642 0.173049 0.068921
O O18 0.741587 0.094282 0.950558
#
# Coordination Sequence:
#
# PCOD8011256 Si02
#       8
#     2   2   2   2   2   2   2   2
#     4  10  23  44  74 104 132 173 215 260 326 401
#     4  11  20  39  60  83 116 167 227 276 324 388
#     4  10  21  39  58  78 116 168 219 270 340 373
#     4   9  22  44  69 102 132 169 215 256 322 399
#     4  11  25  40  65  97 137 168 210 273 321 403
#     4  11  24  36  58  87 117 166 224 282 323 389
#     4  10  24  42  56  93 129 167 222 269 330 386
#     4  10  24  41  60  89 127 172 218 273 335 380
#
# _framework density 22.089214999999999
#
# number of rings (size 3 to 8) (size 9 to 14) (size 15 to 20)
#    0.000    1.750    3.750    0.375    3.500   11.500 
#    0.000    0.000    0.000    0.000    0.000    0.000 
#    0.000    0.000    0.000    0.000    0.000    0.000 
#
# Total GULP energy -198211.787957 kJ/mol
# GULP energy per Si atom -12388.236747 kJ/mol
# Density = 2.203894 g / cm^3
# Si number density = 22.089215 Si / 1000 Ang^3
#
#
#
# Elastic Constant Matrix: (Units=GPa)
#
#
# Indices 1 2 3 4 5 6 
#
# 1 109.3444 24.2919 15.1078 6.9923 23.3235 -3.8985
# 2 24.2919 83.9806 17.1281 -1.0342 7.4280 -16.4228
# 3 15.1078 17.1281 88.4282 -10.4057 13.0682 -9.5247
# 4 6.9923 -1.0342 -10.4057 44.1616 1.3509 10.1677
# 5 23.3235 7.4280 13.0682 1.3509 32.2248 5.1677
# 6 -3.8985 -16.4228 -9.5247 10.1677 5.1677 33.2050
#
#
#
# Elastic Compliance Matrix: (Units=1/GPa)
#
#
# Indices 1 2 3 4 5 6 
#
# 1 0.011605 -0.002187 -0.000419 -0.002223 -0.007965 0.002081
# 2 -0.002187 0.014428 -0.001460 -0.001247 -0.002252 0.007193
# 3 -0.000419 -0.001460 0.013066 0.002580 -0.005248 0.003003
# 4 -0.002223 -0.001247 0.002580 0.025403 0.001082 -0.008085
# 5 -0.007965 -0.002252 -0.005248 0.001082 0.041047 -0.010274
# 6 0.002081 0.007193 0.003003 -0.008085 -0.010274 0.038854
#
#
# Mechanical properties :
#
#
# Convention : Reuss Voigt Hill
#
# Bulk Modulus (GPa) = 32.29404 43.86765 38.08085
# Shear Modulus (GPa) = 30.70168 36.93331 33.81749
#
# Velocity S-wave (km/s) = 3.73217 4.09345 3.91698
# Velocity P-wave (km/s) = 5.76400 6.49956 6.14280
#
# Compressibility (1/GPa) = 0.03096546
#
# Stress axis : x y z
#
# Youngs Moduli (GPa) = 86.17248 69.30793 76.53588
#
# Poissons Ratio (x) = 0.15159 0.03209
# Poissons Ratio (y) = 0.18847 0.11176
# Poissons Ratio (z) = 0.03613 0.10121
#
# Static dielectric constant tensor:
#      x y z
#    x 3.861330 0.382340 0.003270 
#    y 0.382340 4.589110 -0.239940 
#    z 0.003270 -0.239940 3.904410 
# 
# 
# High freq. dielectric constant tensor:
#      x y z
#    x 1.864410 -0.013360 0.014020 
#    y -0.013360 1.874350 -0.012600 
#    z 0.014020 -0.012600 1.863020 
# 
# From -- ./inp_files/143149.got.cif
#   From: 2010.06.25/outbox.cif.g09.slc.cpg/sg2_72_cif.got.tgz:143149.got - 2010.06.27 13:26:56.
