data_PCOD8011439
_publ_section_title
;
Structure prediction by ZEFSAII (Michael W. Deem and Ramdas Pophale) SiO2 
 PCOD8011439
Probable space group: P -1
;
_chemical_formula_sum "Si O2"
_cell_formula_units_Z 16
_cell_length_a 12.152044
_cell_length_b 12.292614
_cell_length_c 5.092455
_cell_angle_alpha 82.884703
_cell_angle_beta 72.860085
_cell_angle_gamma 72.508770
_cell_volume 692.797152
_symmetry_space_group_name_H-M "P -1"
_symmetry_group_IT_number 2
_symmetry_cell_setting 'triclinic'
loop_
_space_group_symop_operation_xyz
x,y,z
-x,-y,-z
loop_
_atom_site_type_symbol
_atom_site_label
_atom_site_fract_x
_atom_site_fract_y
_atom_site_fract_z
Si Si1 0.674506 0.578372 0.579457
Si Si2 0.607359 0.137071 0.904333
Si Si3 0.355464 0.271040 0.928797
Si Si4 0.743569 0.039647 0.324867
Si Si5 0.132039 0.768523 0.825040
Si Si6 0.274335 0.667003 0.246394
Si Si7 0.069918 0.445879 0.711855
Si Si8 0.133314 0.202686 0.883969
O O1 0.605880 0.660376 0.366821
O O2 0.640547 0.462285 0.717937
O O3 0.805517 0.524203 0.382639
O O4 0.671095 0.651268 0.819800
O O5 0.466923 0.159761 0.933839
O O6 0.688921 0.061309 0.645879
O O7 0.630614 0.260814 0.882868
O O8 0.637371 0.068183 0.175749
O O9 0.238697 0.225713 0.984504
O O10 0.834296 0.114341 0.175227
O O11 0.817164 0.907804 0.297244
O O12 0.186830 0.715154 0.531736
O O13 0.188658 0.678289 0.045872
O O14 0.987847 0.801918 0.878932
O O15 0.090652 0.311666 0.695052
O O16 0.000000 0.500000 0.500000
O O17 0.000000 0.500000 0.000000
#
# Coordination Sequence:
#
# PCOD8011439 Si02
#       8
#     2   2   2   2   2   2   2   2
#     4  11  22  38  58  90 120 158 205 242 295 357
#     4  10  23  43  61  88 119 157 205 252 299 347
#     4  11  25  39  59  89 124 158 203 249 294 358
#     4  10  23  41  65  87 116 157 205 251 295 353
#     4  10  21  39  61  91 121 154 198 247 301 356
#     4  10  21  39  64  87 121 160 197 247 300 351
#     4  11  22  37  57  84 121 156 188 231 287 355
#     4  11  24  40  63  91 123 159 196 245 301 356
#
# _framework density 23.094781999999999
#
# number of rings (size 3 to 8) (size 9 to 14) (size 15 to 20)
#    0.000    1.500    0.000    4.875    0.000    8.000 
#    0.000    3.750    0.000    0.000    0.000    0.000 
#    0.000    0.000    0.000    0.000    0.000    0.000 
#
# Total GULP energy -198329.133248 kJ/mol
# GULP energy per Si atom -12395.570828 kJ/mol
# Density = 2.304222 g / cm^3
# Si number density = 23.094782 Si / 1000 Ang^3
#
#
#
# Elastic Constant Matrix: (Units=GPa)
#
#
# Indices 1 2 3 4 5 6 
#
# 1 93.1554 26.5727 16.8049 2.4431 0.7269 -15.5487
# 2 26.5727 111.5753 10.4396 -3.1862 8.8440 0.2695
# 3 16.8049 10.4396 94.3329 0.3507 19.0611 7.4069
# 4 2.4431 -3.1862 0.3507 21.4353 -3.2128 0.2900
# 5 0.7269 8.8440 19.0611 -3.2128 22.0804 3.0261
# 6 -15.5487 0.2695 7.4069 0.2900 3.0261 22.8223
#
#
#
# Elastic Compliance Matrix: (Units=1/GPa)
#
#
# Indices 1 2 3 4 5 6 
#
# 1 0.014055 -0.003273 -0.003371 -0.001867 0.002053 0.010460
# 2 -0.003273 0.010049 0.000388 0.001320 -0.003787 -0.001989
# 3 -0.003371 0.000388 0.013909 -0.001444 -0.011540 -0.005267
# 4 -0.001867 0.001320 -0.001444 0.048341 0.008158 -0.002515
# 5 0.002053 -0.003787 -0.011540 0.008158 0.058249 -0.002638
# 6 0.010460 -0.001989 -0.005267 -0.002515 -0.002638 0.053058
#
#
# Mechanical properties :
#
#
# Convention : Reuss Voigt Hill
#
# Bulk Modulus (GPa) = 39.21620 45.18866 42.20243
# Shear Modulus (GPa) = 22.86508 29.61734 26.24121
#
# Velocity S-wave (km/s) = 3.14993 3.58498 3.37447
# Velocity P-wave (km/s) = 5.49971 6.06178 5.78757
#
# Compressibility (1/GPa) = 0.02549966
#
# Stress axis : x y z
#
# Youngs Moduli (GPa) = 71.14696 99.51689 71.89590
#
# Poissons Ratio (x) = 0.32575 0.24235
# Poissons Ratio (y) = 0.23289 -0.02786
# Poissons Ratio (z) = 0.23983 -0.03857
#
# Static dielectric constant tensor:
#      x y z
#    x 4.301430 0.061250 -0.078080 
#    y 0.061250 4.410430 -0.161470 
#    z -0.078080 -0.161470 4.034360 
# 
# 
# High freq. dielectric constant tensor:
#      x y z
#    x 1.907270 -0.000370 0.002850 
#    y -0.000370 1.923180 0.000810 
#    z 0.002850 0.000810 1.916540 
# 
# From -- ./inp_files/70444.got.cif
#   From: 2010.06.25/outbox.cif.g09.slc.cpg/sg2_36_cif.got.tgz:70444.got - 2010.06.27 13:26:56.
