data_PCOD8011358
_publ_section_title
;
Structure prediction by ZEFSAII (Michael W. Deem and Ramdas Pophale) SiO2 
 PCOD8011358
Probable space group: P -1
;
_chemical_formula_sum "Si O2"
_cell_formula_units_Z 16
_cell_length_a 15.504942
_cell_length_b 10.208137
_cell_length_c 20.285435
_cell_angle_alpha 33.412149
_cell_angle_beta 153.642714
_cell_angle_gamma 136.562888
_cell_volume 781.800760
_symmetry_space_group_name_H-M "P -1"
_symmetry_group_IT_number 2
_symmetry_cell_setting 'triclinic'
loop_
_space_group_symop_operation_xyz
x,y,z
-x,-y,-z
loop_
_atom_site_type_symbol
_atom_site_label
_atom_site_fract_x
_atom_site_fract_y
_atom_site_fract_z
Si Si1 0.384698 0.681804 0.716640
Si Si2 0.596981 0.477879 0.426974
Si Si3 0.031238 0.824201 0.499260
Si Si4 0.111126 0.958573 0.198400
Si Si5 0.800151 0.780456 0.978504
Si Si6 0.616704 0.749983 0.198558
Si Si7 0.078266 0.324378 0.368721
Si Si8 0.658096 0.912245 0.589924
O O1 0.217063 0.669749 0.660983
O O2 0.585880 0.716147 0.878431
O O3 0.417411 0.430748 0.807575
O O4 0.323293 0.899858 0.533925
O O5 0.531373 0.653110 0.248641
O O6 0.692036 0.623532 0.490275
O O7 0.409756 0.338676 0.379511
O O8 0.779899 0.300070 0.601040
O O9 0.844819 0.783626 0.344771
O O10 0.008367 0.736803 0.594222
O O11 0.066102 0.104796 0.402996
O O12 0.223464 0.058183 0.170878
O O13 0.135801 0.118906 0.214191
O O14 0.887337 0.927120 0.037729
O O15 0.947052 0.552308 0.154921
O O16 0.500000 0.000000 0.000000
O O17 0.500000 0.000000 0.500000
#
# Coordination Sequence:
#
# PCOD8011358 Si02
#       8
#     2   2   2   2   2   2   2   2
#     4  12  21  35  61  93 116 150 199 243 289 350
#     4   9  16  33  60  84 107 156 192 228 289 357
#     4  10  23  39  56  82 120 162 195 238 297 346
#     4   9  16  30  54  87 115 145 191 233 285 357
#     4  10  18  30  59  88 107 148 200 240 277 344
#     4  11  21  36  60  87 116 153 198 236 285 352
#     4   9  20  39  57  78 120 160 196 240 292 346
#     4  10  16  32  58  87 113 151 189 232 290 357
#
# _framework density 20.465571000000001
#
# number of rings (size 3 to 8) (size 9 to 14) (size 15 to 20)
#    0.000    2.000    5.000    1.125    0.000    0.500 
#    0.000    0.625    0.000    1.500    0.000    0.000 
#    0.000    0.000    0.000    0.000    0.000    0.000 
#
# Total GULP energy -198314.712058 kJ/mol
# GULP energy per Si atom -12394.669504 kJ/mol
# Density = 2.041899 g / cm^3
# Si number density = 20.465571 Si / 1000 Ang^3
#
#
#
# Elastic Constant Matrix: (Units=GPa)
#
#
# Indices 1 2 3 4 5 6 
#
# 1 30.7768 21.4598 25.0535 2.1367 -2.3700 -0.2425
# 2 21.4598 152.2075 42.8425 24.3549 -2.2191 1.2498
# 3 25.0535 42.8425 88.9383 8.6564 -9.6947 2.3151
# 4 2.1367 24.3549 8.6564 45.0645 3.4758 -11.2054
# 5 -2.3700 -2.2191 -9.6947 3.4758 23.6330 0.3153
# 6 -0.2425 1.2498 2.3151 -11.2054 0.3153 12.8736
#
#
#
# Elastic Compliance Matrix: (Units=1/GPa)
#
#
# Indices 1 2 3 4 5 6 
#
# 1 0.043940 -0.003705 -0.011266 0.003806 -0.001210 0.006556
# 2 -0.003705 0.008685 -0.002454 -0.005345 0.000292 -0.005131
# 3 -0.011266 -0.002454 0.016742 -0.003322 0.006077 -0.006025
# 4 0.003806 -0.005345 -0.003322 0.033695 -0.006848 0.030684
# 5 -0.001210 0.000292 0.006077 -0.006848 0.045829 -0.008227
# 6 0.006556 -0.005131 -0.006025 0.030684 -0.008227 0.106293
#
#
# Mechanical properties :
#
#
# Convention : Reuss Voigt Hill
#
# Bulk Modulus (GPa) = 28.97128 50.07045 39.52087
# Shear Modulus (GPa) = 16.58148 28.48534 22.53341
#
# Velocity S-wave (km/s) = 2.84951 3.73482 3.32179
# Velocity P-wave (km/s) = 5.00131 6.56638 5.83654
#
# Compressibility (1/GPa) = 0.03451694
#
# Stress axis : x y z
#
# Youngs Moduli (GPa) = 22.75805 115.14426 59.72879
#
# Poissons Ratio (x) = 0.42655 0.67293
# Poissons Ratio (y) = 0.08431 0.14660
# Poissons Ratio (z) = 0.25640 0.28261
#
# Static dielectric constant tensor:
#      x y z
#    x 3.198320 -0.044650 -0.336370 
#    y -0.044650 4.681660 0.368080 
#    z -0.336370 0.368080 3.613570 
# 
# 
# High freq. dielectric constant tensor:
#      x y z
#    x 1.746490 0.008750 -0.035900 
#    y 0.008750 1.833090 0.017120 
#    z -0.035900 0.017120 1.784060 
# 
# From -- ./inp_files/399779.got.cif
#   From: 2010.06.25/outbox.cif.g09.slc.cpg/sg2_200_cif.got.tgz:399779.got - 2010.06.27 13:26:56.
