data_PCOD8011733
_publ_section_title
;
Structure prediction by ZEFSAII (Michael W. Deem and Ramdas Pophale) SiO2 
 PCOD8011733
Probable space group: P -1
;
_chemical_formula_sum "Si O2"
_cell_formula_units_Z 12
_cell_length_a 12.147745
_cell_length_b 5.084153
_cell_length_c 14.129370
_cell_angle_alpha 71.814560
_cell_angle_beta 44.001623
_cell_angle_gamma 82.784301
_cell_volume 569.426100
_symmetry_space_group_name_H-M "P -1"
_symmetry_group_IT_number 2
_symmetry_cell_setting 'triclinic'
loop_
_space_group_symop_operation_xyz
x,y,z
-x,-y,-z
loop_
_atom_site_type_symbol
_atom_site_label
_atom_site_fract_x
_atom_site_fract_y
_atom_site_fract_z
Si Si1 0.746037 0.883067 0.017755
Si Si2 0.077511 0.524313 0.172481
Si Si3 0.569525 0.241948 0.680150
Si Si4 0.142088 0.430101 0.858999
Si Si5 0.467291 0.803465 0.631311
Si Si6 0.061537 0.716291 0.517721
O O1 0.552493 0.794283 0.149687
O O2 0.800160 0.845332 0.099034
O O3 0.829027 0.687128 0.918688
O O4 0.795175 0.199662 0.917869
O O5 0.921779 0.610653 0.204404
O O6 0.010254 0.387994 0.325884
O O7 0.563341 0.537169 0.597321
O O8 0.746946 0.234523 0.607740
O O9 0.518008 0.978097 0.673981
O O10 0.279478 0.694102 0.755745
O O11 0.000000 0.500000 0.000000
O O12 0.500000 0.000000 0.500000
O O13 0.000000 0.500000 0.500000
O O14 0.000000 0.000000 0.500000
#
# Coordination Sequence:
#
# PCOD8011733 Si02
#       6
#     2   2   2   2   2   2
#     4  10  21  39  63  96 128 161 196 248 318 387
#     4  11  22  40  64  92 127 166 206 252 306 371
#     4  11  23  42  63  89 128 164 205 267 314 365
#     4   9  19  34  59  93 129 160 192 238 303 382
#     4  11  22  36  59  95 130 168 203 242 310 387
#     4  12  27  47  66  89 120 167 223 273 312 354
#
# _framework density 21.073848999999999
#
# number of rings (size 3 to 8) (size 9 to 14) (size 15 to 20)
#    0.000    1.333    0.000    7.000    0.000    8.000 
#    0.000    5.000    0.000    0.000    0.000    0.000 
#    0.000    0.000    0.000    0.000    0.000    0.000 
#
# Total GULP energy -148766.590877 kJ/mol
# GULP energy per Si atom -12397.215906 kJ/mol
# Density = 2.102588 g / cm^3
# Si number density = 21.073849 Si / 1000 Ang^3
#
#
#
# Elastic Constant Matrix: (Units=GPa)
#
#
# Indices 1 2 3 4 5 6 
#
# 1 121.3290 46.2446 88.2843 -4.4479 -25.6359 -10.5577
# 2 46.2446 130.4281 48.0911 -9.4223 -7.9566 -8.8263
# 3 88.2843 48.0911 147.7889 -7.6760 -9.2670 -5.2528
# 4 -4.4479 -9.4223 -7.6760 33.5827 0.3294 4.8896
# 5 -25.6359 -7.9566 -9.2670 0.3294 39.5457 -3.8704
# 6 -10.5577 -8.8263 -5.2528 4.8896 -3.8704 30.3954
#
#
#
# Elastic Compliance Matrix: (Units=1/GPa)
#
#
# Indices 1 2 3 4 5 6 
#
# 1 0.018659 -0.002145 -0.009689 -0.001266 0.009958 0.005656
# 2 -0.002145 0.009242 -0.001571 0.001742 0.000225 0.001416
# 3 -0.009689 -0.001571 0.012824 0.001587 -0.003835 -0.002349
# 4 -0.001266 0.001742 0.001587 0.031165 -0.000826 -0.004778
# 5 0.009958 0.000225 -0.003835 -0.000826 0.031583 0.007016
# 6 0.005656 0.001416 -0.002349 -0.004778 0.007016 0.036532
#
#
# Mechanical properties :
#
#
# Convention : Reuss Voigt Hill
#
# Bulk Modulus (GPa) = 71.86163 84.97623 78.41893
# Shear Modulus (GPa) = 29.16242 35.16648 32.16445
#
# Velocity S-wave (km/s) = 3.72401 4.08944 3.91099
# Velocity P-wave (km/s) = 7.25706 7.91888 7.59518
#
# Compressibility (1/GPa) = 0.01391563
#
# Stress axis : x y z
#
# Youngs Moduli (GPa) = 53.59209 108.19906 77.97825
#
# Poissons Ratio (x) = 0.23205 0.75553
# Poissons Ratio (y) = 0.11494 0.12254
# Poissons Ratio (z) = 0.51925 0.17003
#
# Static dielectric constant tensor:
#      x y z
#    x 5.376030 -0.288080 -0.374950 
#    y -0.288080 3.905710 -0.065720 
#    z -0.374950 -0.065720 4.137010 
# 
# 
# High freq. dielectric constant tensor:
#      x y z
#    x 1.811760 -0.004940 -0.014870 
#    y -0.004940 1.836360 -0.009030 
#    z -0.014870 -0.009030 1.840380 
# 
# From -- ./inp_files/407712.got.cif
#   From: 2010.06.25/outbox.cif.g09.slc.cpg/sg2_204_cif.got.tgz:407712.got - 2010.06.27 13:26:56.
