data_PCOD8011149
_publ_section_title
;
Structure prediction by ZEFSAII (Michael W. Deem and Ramdas Pophale) SiO2 
 PCOD8011149
Probable space group: P -1
;
_chemical_formula_sum "Si O2"
_cell_formula_units_Z 16
_cell_length_a 14.049210
_cell_length_b 18.922172
_cell_length_c 9.881492
_cell_angle_alpha 127.342935
_cell_angle_beta 52.373012
_cell_angle_gamma 160.544659
_cell_volume 688.184305
_symmetry_space_group_name_H-M "P -1"
_symmetry_group_IT_number 2
_symmetry_cell_setting 'triclinic'
loop_
_space_group_symop_operation_xyz
x,y,z
-x,-y,-z
loop_
_atom_site_type_symbol
_atom_site_label
_atom_site_fract_x
_atom_site_fract_y
_atom_site_fract_z
Si Si1 0.311668 0.797133 0.117616
Si Si2 0.514694 0.681875 0.051150
Si Si3 0.974168 0.943197 0.139721
Si Si4 0.648508 0.876140 0.771102
Si Si5 0.117065 0.574354 0.291135
Si Si6 0.228722 0.451942 0.765366
Si Si7 0.908717 0.080777 0.498818
Si Si8 0.392059 0.843179 0.603161
O O1 0.150996 0.622971 0.160748
O O2 0.077566 0.702057 0.136842
O O3 0.550418 0.016103 0.243368
O O4 0.476907 0.850984 0.924156
O O5 0.308855 0.618446 0.217897
O O6 0.647926 0.711360 0.093016
O O7 0.340792 0.510178 0.888606
O O8 0.791590 0.917466 0.019049
O O9 0.022261 0.075970 0.306540
O O10 0.051621 0.926252 0.172446
O O11 0.455895 0.660535 0.722810
O O12 0.731357 0.925915 0.601703
O O13 0.214004 0.720977 0.474821
O O14 0.785740 0.326592 0.320429
O O15 0.181387 0.324385 0.589836
O O16 0.695905 0.997884 0.497453
#
# Coordination Sequence:
#
# PCOD8011149 Si02
#       8
#     2   2   2   2   2   2   2   2
#     4  11  22  38  63  94 127 156 205 249 313 365
#     4  10  21  38  68  85 121 168 203 246 305 360
#     4  10  21  43  62  89 122 168 208 246 301 362
#     4  11  23  37  63  92 121 166 200 254 302 363
#     4  11  20  41  62  90 128 161 202 251 309 363
#     4  10  23  39  63  94 121 162 200 257 306 361
#     4  11  23  40  64  92 126 157 206 255 305 359
#     4  10  24  36  64  96 123 160 199 258 310 363
#
# _framework density 23.249586000000001
#
# number of rings (size 3 to 8) (size 9 to 14) (size 15 to 20)
#    0.000    1.500    3.750    1.875    3.500    3.000 
#    0.000    0.625    0.000    3.000    0.000    0.000 
#    0.000    0.000    0.000    0.000    0.000    0.000 
#
# Total GULP energy -198385.376414 kJ/mol
# GULP energy per Si atom -12399.086026 kJ/mol
# Density = 2.319667 g / cm^3
# Si number density = 23.249586 Si / 1000 Ang^3
#
#
#
# Elastic Constant Matrix: (Units=GPa)
#
#
# Indices 1 2 3 4 5 6 
#
# 1 52.0882 17.8824 6.4367 5.9243 7.5915 18.6216
# 2 17.8824 78.1696 19.5131 14.1792 -0.5410 6.2127
# 3 6.4367 19.5131 70.9203 2.7817 2.1260 -2.3395
# 4 5.9243 14.1792 2.7817 29.3091 5.6942 3.3377
# 5 7.5915 -0.5410 2.1260 5.6942 26.4332 5.4758
# 6 18.6216 6.2127 -2.3395 3.3377 5.4758 40.3706
#
#
#
# Elastic Compliance Matrix: (Units=1/GPa)
#
#
# Indices 1 2 3 4 5 6 
#
# 1 0.025439 -0.004614 -0.001206 -0.000641 -0.005019 -0.010360
# 2 -0.004614 0.016181 -0.003876 -0.007174 0.003614 -0.000483
# 3 -0.001206 -0.003876 0.015368 0.000717 -0.001579 0.002198
# 4 -0.000641 -0.007174 0.000717 0.039352 -0.008357 -0.000679
# 5 -0.005019 0.003614 -0.001579 -0.008357 0.041964 -0.003333
# 6 -0.010360 -0.000483 0.002198 -0.000679 -0.003333 0.030259
#
#
# Mechanical properties :
#
#
# Convention : Reuss Voigt Hill
#
# Bulk Modulus (GPa) = 26.59788 32.09360 29.34574
# Shear Modulus (GPa) = 24.93925 29.71233 27.32579
#
# Velocity S-wave (km/s) = 3.27872 3.57875 3.43202
# Velocity P-wave (km/s) = 5.07921 5.55972 5.32489
#
# Compressibility (1/GPa) = 0.03759698
#
# Stress axis : x y z
#
# Youngs Moduli (GPa) = 39.30910 61.80273 65.07054
#
# Poissons Ratio (x) = 0.28515 0.07845
# Poissons Ratio (y) = 0.18136 0.25222
# Poissons Ratio (z) = 0.04739 0.23955
#
# Static dielectric constant tensor:
#      x y z
#    x 4.176620 0.430030 0.078130 
#    y 0.430030 4.248860 0.201830 
#    z 0.078130 0.201830 4.113180 
# 
# 
# High freq. dielectric constant tensor:
#      x y z
#    x 1.901330 0.029500 0.004100 
#    y 0.029500 1.913410 0.008770 
#    z 0.004100 0.008770 1.922520 
# 
# From -- ./inp_files/319052.got.cif
#   From: 2010.06.25/outbox.cif.g09.slc.cpg/sg2_160_cif.got.tgz:319052.got - 2010.06.27 13:26:56.
