data_PCOD8011651
_publ_section_title
;
Structure prediction by ZEFSAII (Michael W. Deem and Ramdas Pophale) SiO2 
 PCOD8011651
Probable space group: P -1
;
_chemical_formula_sum "Si O2"
_cell_formula_units_Z 16
_cell_length_a 9.150966
_cell_length_b 9.701193
_cell_length_c 16.055257
_cell_angle_alpha 141.726869
_cell_angle_beta 70.537997
_cell_angle_gamma 102.051589
_cell_volume 829.002820
_symmetry_space_group_name_H-M "P -1"
_symmetry_group_IT_number 2
_symmetry_cell_setting 'triclinic'
loop_
_space_group_symop_operation_xyz
x,y,z
-x,-y,-z
loop_
_atom_site_type_symbol
_atom_site_label
_atom_site_fract_x
_atom_site_fract_y
_atom_site_fract_z
Si Si1 0.570918 0.070135 0.357455
Si Si2 0.292968 0.133996 0.322752
Si Si3 0.910256 0.202567 0.866695
Si Si4 0.617523 0.806133 0.851215
Si Si5 0.046863 0.097535 0.124888
Si Si6 0.428477 0.422779 0.667870
Si Si7 0.755431 0.397803 0.369962
Si Si8 0.772340 0.641425 0.170560
O O1 0.417498 0.033569 0.317639
O O2 0.520790 0.188602 0.511120
O O3 0.684267 0.222604 0.360581
O O4 0.653841 0.824334 0.236108
O O5 0.372024 0.145509 0.224582
O O6 0.220112 0.378301 0.478401
O O7 0.156445 0.971213 0.266256
O O8 0.054187 0.283719 0.827026
O O9 0.962174 0.090446 0.891805
O O10 0.779208 0.406862 0.008016
O O11 0.782934 0.811379 0.868691
O O12 0.548411 0.567217 0.763332
O O13 0.500000 0.000000 0.000000
O O14 0.926148 0.308464 0.266422
O O15 0.000000 0.000000 0.000000
O O16 0.363203 0.556682 0.662352
O O17 0.282938 0.385195 0.736712
#
# Coordination Sequence:
#
# PCOD8011651 Si02
#       8
#     2   2   2   2   2   2   2   2
#     4  11  21  39  64  89 121 161 203 249 299 361
#     4  10  21  39  63  91 117 157 206 253 302 348
#     4  10  23  41  59  86 124 166 198 248 304 359
#     4  11  21  35  60  90 123 151 199 256 300 347
#     4  11  23  38  62  93 119 156 203 253 304 352
#     4  11  21  40  60  92 122 157 200 251 308 350
#     4  11  20  40  65  92 120 156 203 256 300 356
#     4  11  23  40  59  84 126 166 200 241 305 367
#
# _framework density 19.300294999999998
#
# number of rings (size 3 to 8) (size 9 to 14) (size 15 to 20)
#    0.000    1.250    3.750    4.125    0.000    3.500 
#    0.000    6.250    0.000    0.000    0.000    0.000 
#    0.000    0.000    0.000    0.000    0.000    0.000 
#
# Total GULP energy -198431.678854 kJ/mol
# GULP energy per Si atom -12401.979928 kJ/mol
# Density = 1.925637 g / cm^3
# Si number density = 19.300295 Si / 1000 Ang^3
#
#
#
# Elastic Constant Matrix: (Units=GPa)
#
#
# Indices 1 2 3 4 5 6 
#
# 1 88.7183 21.1126 54.3926 -7.3955 12.7315 9.7316
# 2 21.1126 62.8018 36.1095 -4.1379 10.6342 10.8026
# 3 54.3926 36.1095 132.6127 -5.9731 3.7374 -1.7490
# 4 -7.3955 -4.1379 -5.9731 30.8231 2.8680 -9.0030
# 5 12.7315 10.6342 3.7374 2.8680 40.8751 2.9454
# 6 9.7316 10.8026 -1.7490 -9.0030 2.9454 27.7415
#
#
#
# Elastic Compliance Matrix: (Units=1/GPa)
#
#
# Indices 1 2 3 4 5 6 
#
# 1 0.016742 0.000003 -0.006746 0.001554 -0.004323 -0.005336
# 2 0.000003 0.021445 -0.005838 -0.000276 -0.004426 -0.008339
# 3 -0.006746 -0.005838 0.011977 0.001373 0.002023 0.005626
# 4 0.001554 -0.000276 0.001373 0.036940 -0.003999 0.012062
# 5 -0.004323 -0.004426 0.002023 -0.003999 0.027117 -0.000809
# 6 -0.005336 -0.008339 0.005626 0.012062 -0.000809 0.045522
#
#
# Mechanical properties :
#
#
# Convention : Reuss Voigt Hill
#
# Bulk Modulus (GPa) = 39.99936 56.37358 48.18647
# Shear Modulus (GPa) = 25.87472 31.38914 28.63193
#
# Velocity S-wave (km/s) = 3.66545 4.03718 3.85580
# Velocity P-wave (km/s) = 6.21962 7.14170 6.69655
#
# Compressibility (1/GPa) = 0.02500040
#
# Stress axis : x y z
#
# Youngs Moduli (GPa) = 59.72854 46.63178 83.49610
#
# Poissons Ratio (x) = -0.00014 0.56330
# Poissons Ratio (y) = -0.00018 0.48746
# Poissons Ratio (z) = 0.40296 0.27224
#
# Static dielectric constant tensor:
#      x y z
#    x 3.551070 0.132480 -0.069910 
#    y 0.132480 3.537720 0.116740 
#    z -0.069910 0.116740 3.827820 
# 
# 
# High freq. dielectric constant tensor:
#      x y z
#    x 1.749080 0.009940 -0.007340 
#    y 0.009940 1.742040 0.000810 
#    z -0.007340 0.000810 1.771520 
# 
# From -- ./inp_files/206337.got.cif
#   From: 2010.06.25/outbox.cif.g09.slc.cpg/sg2_104_cif.got.tgz:206337.got - 2010.06.27 13:26:56.
