data_PCOD8011749
_publ_section_title
;
Structure prediction by ZEFSAII (Michael W. Deem and Ramdas Pophale) SiO2 
 PCOD8011749
Probable space group: P -1
;
_chemical_formula_sum "Si O2"
_cell_formula_units_Z 14
_cell_length_a 5.160018
_cell_length_b 26.292749
_cell_length_c 10.794190
_cell_angle_alpha 156.666499
_cell_angle_beta 75.377925
_cell_angle_gamma 104.305670
_cell_volume 560.812678
_symmetry_space_group_name_H-M "P -1"
_symmetry_group_IT_number 2
_symmetry_cell_setting 'triclinic'
loop_
_space_group_symop_operation_xyz
x,y,z
-x,-y,-z
loop_
_atom_site_type_symbol
_atom_site_label
_atom_site_fract_x
_atom_site_fract_y
_atom_site_fract_z
Si Si1 0.349440 0.605666 0.611375
Si Si2 0.724528 0.109897 0.713138
Si Si3 0.152545 0.982605 0.762732
Si Si4 0.724111 0.126966 0.020116
Si Si5 0.854717 0.483171 0.303906
Si Si6 0.493580 0.346868 0.669059
Si Si7 0.915214 0.262475 0.624334
O O1 0.624508 0.549997 0.400653
O O2 0.251115 0.525449 0.563393
O O3 0.118223 0.578262 0.475834
O O4 0.409548 0.752850 0.970246
O O5 0.902628 0.092169 0.529564
O O6 0.500000 0.000000 0.500000
O O7 0.873726 0.108579 0.827264
O O8 0.090878 0.887429 0.671631
O O9 0.456126 0.035676 0.857915
O O10 0.930790 0.093532 0.031751
O O11 0.635210 0.274929 0.375537
O O12 0.920847 0.344766 0.933581
O O13 0.649898 0.299502 0.665272
O O14 0.186792 0.294842 0.589451
O O15 0.500000 0.500000 0.000000
#
# Coordination Sequence:
#
# PCOD8011749 Si02
#       7
#     2   2   2   2   2   2   2
#     4  10  21  39  63  99 139 169 227 265 351 401
#     4  10  23  44  68 104 142 181 217 282 345 414
#     4  11  24  46  72 107 132 176 235 282 348 400
#     4  11  26  44  70  99 144 184 225 281 339 407
#     4  10  22  38  65 100 129 178 216 289 330 395
#     4  12  29  49  69 102 136 186 231 278 345 407
#     4  12  25  46  75  97 141 175 235 290 329 400
#
# _framework density 24.963771999999999
#
# number of rings (size 3 to 8) (size 9 to 14) (size 15 to 20)
#    0.000    1.143    1.429    3.429    4.000    8.000 
#    0.000    0.000    0.000    0.000    0.000    0.000 
#    0.000    0.000    0.000    0.000    0.000    0.000 
#
# Total GULP energy -173548.719800 kJ/mol
# GULP energy per Si atom -12396.337129 kJ/mol
# Density = 2.490695 g / cm^3
# Si number density = 24.963772 Si / 1000 Ang^3
#
#
#
# Elastic Constant Matrix: (Units=GPa)
#
#
# Indices 1 2 3 4 5 6 
#
# 1 149.2478 19.0460 18.1074 20.8374 -2.7257 -4.0833
# 2 19.0460 68.8175 7.6577 23.2696 3.2541 -4.2425
# 3 18.1074 7.6577 98.7420 27.6584 -1.9163 -2.7074
# 4 20.8374 23.2696 27.6584 45.9247 -6.9500 -2.3107
# 5 -2.7257 3.2541 -1.9163 -6.9500 36.7803 7.0462
# 6 -4.0833 -4.2425 -2.7074 -2.3107 7.0462 28.6266
#
#
#
# Elastic Compliance Matrix: (Units=1/GPa)
#
#
# Indices 1 2 3 4 5 6 
#
# 1 0.007257 -0.001116 -0.000569 -0.002347 0.000046 0.000615
# 2 -0.001116 0.018540 0.001673 -0.010377 -0.004159 0.002933
# 3 -0.000569 0.001673 0.012402 -0.008203 -0.001285 0.000994
# 4 -0.002347 -0.010377 -0.008203 0.034024 0.007060 -0.001640
# 5 0.000046 -0.004159 -0.001285 0.007060 0.030286 -0.007616
# 6 0.000615 0.002933 0.000994 -0.001640 -0.007616 0.037291
#
#
# Mechanical properties :
#
#
# Convention : Reuss Voigt Hill
#
# Bulk Modulus (GPa) = 26.19456 45.15885 35.67671
# Shear Modulus (GPa) = 32.77625 40.39938 36.58781
#
# Velocity S-wave (km/s) = 3.62740 4.02720 3.83252
# Velocity P-wave (km/s) = 5.29715 6.30504 5.82294
#
# Compressibility (1/GPa) = 0.03817586
#
# Stress axis : x y z
#
# Youngs Moduli (GPa) = 137.79761 53.93679 80.63141
#
# Poissons Ratio (x) = 0.06019 0.04589
# Poissons Ratio (y) = 0.15376 -0.13492
# Poissons Ratio (z) = 0.07843 -0.09025
#
# Static dielectric constant tensor:
#      x y z
#    x 4.625890 -0.145820 0.003550 
#    y -0.145820 4.397250 -0.270370 
#    z 0.003550 -0.270370 4.789670 
# 
# 
# High freq. dielectric constant tensor:
#      x y z
#    x 1.991470 -0.007110 -0.002600 
#    y -0.007110 1.990420 -0.004940 
#    z -0.002600 -0.004940 2.014630 
# 
# From -- ./inp_files/371574.got.cif
#   From: 2010.06.25/outbox.cif.g09.slc.cpg/sg2_186_cif.got.tgz:371574.got - 2010.06.27 13:26:56.
