data_PCOD8011773
_publ_section_title
;
Structure prediction by ZEFSAII (Michael W. Deem and Ramdas Pophale) SiO2 
 PCOD8011773
Probable space group: P -1
;
_chemical_formula_sum "Si O2"
_cell_formula_units_Z 14
_cell_length_a 15.245978
_cell_length_b 8.858519
_cell_length_c 14.366196
_cell_angle_alpha 61.252233
_cell_angle_beta 151.172661
_cell_angle_gamma 99.119276
_cell_volume 642.378344
_symmetry_space_group_name_H-M "P -1"
_symmetry_group_IT_number 2
_symmetry_cell_setting 'triclinic'
loop_
_space_group_symop_operation_xyz
x,y,z
-x,-y,-z
loop_
_atom_site_type_symbol
_atom_site_label
_atom_site_fract_x
_atom_site_fract_y
_atom_site_fract_z
Si Si1 0.287147 0.677584 0.185544
Si Si2 0.345507 0.322164 0.232960
Si Si3 0.691107 0.110807 0.361291
Si Si4 0.809788 0.596391 0.136877
Si Si5 0.149310 0.081602 0.623218
Si Si6 0.789677 0.898677 0.703000
Si Si7 0.144247 0.070173 0.824030
O O1 0.500000 0.500000 0.500000
O O2 0.288383 0.553576 0.133042
O O3 0.055969 0.795233 0.998252
O O4 0.297899 0.864208 0.098522
O O5 0.254539 0.267352 0.252656
O O6 0.622314 0.130079 0.534231
O O7 0.207868 0.347594 0.005264
O O8 0.885600 0.143943 0.545423
O O9 0.680768 0.023963 0.276507
O O10 0.736470 0.934733 0.532304
O O11 0.434862 0.338328 0.073353
O O12 0.884824 0.724116 0.222039
O O13 0.000140 0.341697 0.406536
O O14 0.274428 0.003057 0.864185
O O15 0.000000 0.000000 0.500000
#
# Coordination Sequence:
#
# PCOD8011773 Si02
#       7
#     2   2   2   2   2   2   2
#     4  11  24  40  62  90 129 164 206 260 310 367
#     4  10  21  39  64  88 124 166 205 255 318 363
#     4   9  21  41  65  90 126 164 203 255 311 365
#     4  11  22  41  67  91 126 163 205 254 313 368
#     4  10  21  41  67  90 126 162 204 258 309 366
#     4   9  20  39  63  89 123 162 211 251 308 372
#     4  10  23  42  60  95 126 157 215 255 300 376
#
# _framework density 21.794008999999999
#
# number of rings (size 3 to 8) (size 9 to 14) (size 15 to 20)
#    0.000    2.000    0.000    3.429    6.000    3.429 
#    5.143    4.286    0.000    0.000    0.000    0.000 
#    0.000    0.000    0.000    0.000    0.000    0.000 
#
# Total GULP energy -173546.317787 kJ/mol
# GULP energy per Si atom -12396.165556 kJ/mol
# Density = 2.174440 g / cm^3
# Si number density = 21.794009 Si / 1000 Ang^3
#
#
#
# Elastic Constant Matrix: (Units=GPa)
#
#
# Indices 1 2 3 4 5 6 
#
# 1 129.2051 25.6524 25.0424 3.7927 -5.2857 -9.4173
# 2 25.6524 114.9537 7.6030 -5.3042 -9.0240 -4.8642
# 3 25.0424 7.6030 79.4723 -1.9969 2.4964 5.3021
# 4 3.7927 -5.3042 -1.9969 31.1799 -1.2018 -7.9816
# 5 -5.2857 -9.0240 2.4964 -1.2018 22.3191 -1.5976
# 6 -9.4173 -4.8642 5.3021 -7.9816 -1.5976 26.4217
#
#
#
# Elastic Compliance Matrix: (Units=1/GPa)
#
#
# Indices 1 2 3 4 5 6 
#
# 1 0.008976 -0.001523 -0.002994 -0.000575 0.002062 0.003471
# 2 -0.001523 0.009605 -0.000655 0.002531 0.003901 0.002358
# 3 -0.002994 -0.000655 0.013955 -0.000030 -0.002835 -0.004169
# 4 -0.000575 0.002531 -0.000030 0.035586 0.003611 0.011235
# 5 0.002062 0.003901 -0.002835 0.003611 0.047812 0.006004
# 6 0.003471 0.002358 -0.004169 0.011235 0.006004 0.044112
#
#
# Mechanical properties :
#
#
# Convention : Reuss Voigt Hill
#
# Bulk Modulus (GPa) = 45.05844 48.91406 46.98625
# Shear Modulus (GPa) = 28.12332 33.67300 30.89816
#
# Velocity S-wave (km/s) = 3.59613 3.93499 3.76937
# Velocity P-wave (km/s) = 6.16137 6.56795 6.36791
#
# Compressibility (1/GPa) = 0.02219340
#
# Stress axis : x y z
#
# Youngs Moduli (GPa) = 111.40280 104.11109 71.65676
#
# Poissons Ratio (x) = 0.15855 0.21452
# Poissons Ratio (y) = 0.16965 0.04695
# Poissons Ratio (z) = 0.33350 0.06822
#
# Static dielectric constant tensor:
#      x y z
#    x 4.555420 -0.153960 -0.003810 
#    y -0.153960 3.836960 -0.101180 
#    z -0.003810 -0.101180 3.895600 
# 
# 
# High freq. dielectric constant tensor:
#      x y z
#    x 1.875470 -0.006560 -0.007340 
#    y -0.006560 1.845280 -0.012590 
#    z -0.007340 -0.012590 1.845860 
# 
# From -- ./inp_files/212077.got.cif
#   From: 2010.06.25/outbox.cif.g09.slc.cpg/sg2_107_cif.got.tgz:212077.got - 2010.06.27 13:26:56.
