data_PCOD8011067
_publ_section_title
;
Structure prediction by ZEFSAII (Michael W. Deem and Ramdas Pophale) SiO2 
 PCOD8011067
Probable space group: P -1
;
_chemical_formula_sum "Si O2"
_cell_formula_units_Z 14
_cell_length_a 10.134812
_cell_length_b 10.697336
_cell_length_c 12.191869
_cell_angle_alpha 105.623777
_cell_angle_beta 102.049561
_cell_angle_gamma 138.970631
_cell_volume 633.883260
_symmetry_space_group_name_H-M "P -1"
_symmetry_group_IT_number 2
_symmetry_cell_setting 'triclinic'
loop_
_space_group_symop_operation_xyz
x,y,z
-x,-y,-z
loop_
_atom_site_type_symbol
_atom_site_label
_atom_site_fract_x
_atom_site_fract_y
_atom_site_fract_z
Si Si1 0.374096 0.007002 0.124763
Si Si2 0.256464 0.416242 0.390433
Si Si3 0.747762 0.801550 0.830856
Si Si4 0.312867 0.815193 0.278334
Si Si5 0.182382 0.278189 0.593828
Si Si6 0.121379 0.689390 0.796575
Si Si7 0.664152 0.941065 0.502605
O O1 0.306451 0.092629 0.181227
O O2 0.686853 0.236453 0.229348
O O3 0.260190 0.803380 0.139137
O O4 0.264556 0.903201 0.958363
O O5 0.172676 0.214198 0.267055
O O6 0.268660 0.396277 0.515796
O O7 0.545880 0.700913 0.459389
O O8 0.053990 0.365684 0.324702
O O9 0.466958 0.510375 0.762826
O O10 0.000000 0.000000 0.000000
O O11 0.523521 0.872809 0.348583
O O12 0.035989 0.546272 0.217798
O O13 0.422121 0.034861 0.408721
O O14 0.000000 0.000000 0.500000
O O15 0.980785 0.210506 0.602511
#
# Coordination Sequence:
#
# PCOD8011067 Si02
#       7
#     2   2   2   2   2   2   2
#     4  11  22  39  65  91 133 173 216 264 331 390
#     4  11  23  45  69  94 137 172 216 275 334 381
#     4  12  25  45  66  99 137 175 215 273 332 390
#     4  10  21  38  66  95 127 164 220 276 321 380
#     4  12  25  41  70  96 130 175 224 263 324 399
#     4  10  22  41  64  94 128 173 217 269 324 393
#     4  10  22  41  66  99 127 169 221 273 323 389
#
# _framework density 22.086085000000001
#
# number of rings (size 3 to 8) (size 9 to 14) (size 15 to 20)
#    0.000    1.143    2.857    3.429    2.000    0.000 
#    0.000    7.857    0.000    0.000    0.000    0.000 
#    0.000    0.000    0.000    0.000    0.000    0.000 
#
# Total GULP energy -173503.745217 kJ/mol
# GULP energy per Si atom -12393.124658 kJ/mol
# Density = 2.203582 g / cm^3
# Si number density = 22.086085 Si / 1000 Ang^3
#
#
#
# Elastic Constant Matrix: (Units=GPa)
#
#
# Indices 1 2 3 4 5 6 
#
# 1 108.8314 55.3341 41.4760 5.0968 17.2080 3.3268
# 2 55.3341 123.8978 46.6871 9.1004 16.1477 -5.0597
# 3 41.4760 46.6871 93.5026 17.7357 18.7884 3.6851
# 4 5.0968 9.1004 17.7357 33.7637 3.2433 1.4711
# 5 17.2080 16.1477 18.7884 3.2433 33.6337 2.1852
# 6 3.3268 -5.0597 3.6851 1.4711 2.1852 30.8316
#
#
#
# Elastic Compliance Matrix: (Units=1/GPa)
#
#
# Indices 1 2 3 4 5 6 
#
# 1 0.013099 -0.004435 -0.003206 0.001241 -0.002796 -0.001619
# 2 -0.004435 0.011775 -0.003616 -0.000590 -0.001501 0.002978
# 3 -0.003206 -0.003616 0.016214 -0.006516 -0.004954 -0.001523
# 4 0.001241 -0.000590 -0.006516 0.033041 0.000170 -0.001041
# 5 -0.002796 -0.001501 -0.004954 0.000170 0.034753 -0.001824
# 6 -0.001619 0.002978 -0.001523 -0.001041 -0.001824 0.033459
#
#
# Mechanical properties :
#
#
# Convention : Reuss Voigt Hill
#
# Bulk Modulus (GPa) = 53.83747 68.13624 60.98686
# Shear Modulus (GPa) = 29.23221 31.82810 30.53015
#
# Velocity S-wave (km/s) = 3.64202 3.80029 3.72200
# Velocity P-wave (km/s) = 6.48960 7.08333 6.79295
#
# Compressibility (1/GPa) = 0.01857442
#
# Stress axis : x y z
#
# Youngs Moduli (GPa) = 76.34440 84.92598 61.67584
#
# Poissons Ratio (x) = 0.37663 0.19771
# Poissons Ratio (y) = 0.33858 0.22302
# Poissons Ratio (z) = 0.24473 0.30709
#
# Static dielectric constant tensor:
#      x y z
#    x 4.349660 0.133050 0.169010 
#    y 0.133050 3.922390 0.191560 
#    z 0.169010 0.191560 4.084700 
# 
# 
# High freq. dielectric constant tensor:
#      x y z
#    x 1.890560 -0.001790 0.006310 
#    y -0.001790 1.856660 0.014380 
#    z 0.006310 0.014380 1.861740 
# 
# From -- ./inp_files/428393.got.cif
#   From: 2010.06.25/outbox.cif.g09.slc.cpg/sg2_215_cif.got.tgz:428393.got - 2010.06.27 13:26:56.
