data_PCOD8011083
_publ_section_title
;
Structure prediction by ZEFSAII (Michael W. Deem and Ramdas Pophale) SiO2 
 PCOD8011083
Probable space group: P -1
;
_chemical_formula_sum "Si O2"
_cell_formula_units_Z 14
_cell_length_a 11.597448
_cell_length_b 7.684389
_cell_length_c 10.647518
_cell_angle_alpha 118.658962
_cell_angle_beta 39.664543
_cell_angle_gamma 101.736080
_cell_volume 507.657410
_symmetry_space_group_name_H-M "P -1"
_symmetry_group_IT_number 2
_symmetry_cell_setting 'triclinic'
loop_
_space_group_symop_operation_xyz
x,y,z
-x,-y,-z
loop_
_atom_site_type_symbol
_atom_site_label
_atom_site_fract_x
_atom_site_fract_y
_atom_site_fract_z
Si Si1 0.571737 0.679499 0.342805
Si Si2 0.763186 0.859996 0.724457
Si Si3 0.900604 0.649599 0.886013
Si Si4 0.445938 0.689159 0.920874
Si Si5 0.178459 0.246450 0.633188
Si Si6 0.175015 0.621528 0.337450
Si Si7 0.178557 0.864710 0.652736
O O1 0.665409 0.672149 0.398046
O O2 0.365556 0.850527 0.572764
O O3 0.549464 0.452776 0.253459
O O4 0.698163 0.746301 0.152541
O O5 0.724610 0.882298 0.614225
O O6 0.984354 0.813058 0.546981
O O7 0.657203 0.075439 0.955007
O O8 0.659060 0.683377 0.791183
O O9 0.003296 0.442363 0.808171
O O10 0.009170 0.824143 0.863151
O O11 0.888304 0.585327 0.724591
O O12 0.335792 0.624487 0.104475
O O13 0.105447 0.091823 0.730117
O O14 0.247876 0.665747 0.428979
#
# Coordination Sequence:
#
# PCOD8011083 Si02
#       7
#     2   2   2   2   2   2   2
#     4  11  25  44  66  99 137 172 224 276 325 396
#     4  10  21  40  66 102 127 173 228 264 331 399
#     4  10  25  44  69 101 129 176 229 268 331 396
#     4  10  21  38  66  98 130 168 222 273 322 387
#     4  11  24  47  70  94 137 181 217 273 334 392
#     4  10  21  40  66  95 138 171 213 280 332 384
#     4  12  25  43  68  99 139 175 216 277 335 391
#
# _framework density 27.577650999999999
#
# number of rings (size 3 to 8) (size 9 to 14) (size 15 to 20)
#    0.000    1.429    1.429    3.429    4.000    6.286 
#    0.000    1.429    0.000    0.000    0.000    0.000 
#    0.000    0.000    0.000    0.000    0.000    0.000 
#
# Total GULP energy -173583.223506 kJ/mol
# GULP energy per Si atom -12398.801679 kJ/mol
# Density = 2.751488 g / cm^3
# Si number density = 27.577651 Si / 1000 Ang^3
#
#
#
# Elastic Constant Matrix: (Units=GPa)
#
#
# Indices 1 2 3 4 5 6 
#
# 1 139.7492 21.1514 18.9015 0.2346 -10.5475 24.9142
# 2 21.1514 149.8208 16.7243 -4.1717 -13.4811 11.3904
# 3 18.9015 16.7243 45.3916 -13.8553 -26.6534 11.3277
# 4 0.2346 -4.1717 -13.8553 40.2961 13.3407 0.2449
# 5 -10.5475 -13.4811 -26.6534 13.3407 34.3124 -4.7741
# 6 24.9142 11.3904 11.3277 0.2449 -4.7741 26.5487
#
#
#
# Elastic Compliance Matrix: (Units=1/GPa)
#
#
# Indices 1 2 3 4 5 6 
#
# 1 0.008779 -0.000482 -0.001560 -0.000791 0.000596 -0.007251
# 2 -0.000482 0.007145 -0.001045 -0.000150 0.001646 -0.001870
# 3 -0.001560 -0.001045 0.045992 0.005529 0.030990 -0.012190
# 4 -0.000791 -0.000150 0.005529 0.029328 -0.007860 -0.003237
# 5 0.000596 0.001646 0.030990 -0.007860 0.056511 -0.004254
# 6 -0.007251 -0.001870 -0.012190 -0.003237 -0.004254 0.049740
#
#
# Mechanical properties :
#
#
# Convention : Reuss Voigt Hill
#
# Bulk Modulus (GPa) = 17.93953 49.83511 33.88732
# Shear Modulus (GPa) = 22.49732 38.77707 30.63720
#
# Velocity S-wave (km/s) = 2.85929 3.75387 3.33670
# Velocity P-wave (km/s) = 4.17372 6.07444 5.21147
#
# Compressibility (1/GPa) = 0.05574283
#
# Stress axis : x y z
#
# Youngs Moduli (GPa) = 113.91232 139.94958 21.74314
#
# Poissons Ratio (x) = 0.06750 0.03391
# Poissons Ratio (y) = 0.05495 0.02271
# Poissons Ratio (z) = 0.17765 0.14618
#
# Static dielectric constant tensor:
#      x y z
#    x 5.205490 0.482270 0.003880 
#    y 0.482270 5.005010 -0.045740 
#    z 0.003880 -0.045740 4.892760 
# 
# 
# High freq. dielectric constant tensor:
#      x y z
#    x 2.117480 0.023330 -0.011220 
#    y 0.023330 2.124470 0.001380 
#    z -0.011220 0.001380 2.111610 
# 
# From -- ./inp_files/417977.got.cif
#   From: 2010.06.25/outbox.cif.g09.slc.cpg/sg2_209_cif.got.tgz:417977.got - 2010.06.27 13:26:56.
