data_PCOD8011472
_publ_section_title
;
Structure prediction by ZEFSAII (Michael W. Deem and Ramdas Pophale) SiO2 
 PCOD8011472
Probable space group: P -1
;
_chemical_formula_sum "Si O2"
_cell_formula_units_Z 16
_cell_length_a 9.500835
_cell_length_b 7.968695
_cell_length_c 11.879786
_cell_angle_alpha 104.021063
_cell_angle_beta 55.720815
_cell_angle_gamma 112.976183
_cell_volume 683.928693
_symmetry_space_group_name_H-M "P -1"
_symmetry_group_IT_number 2
_symmetry_cell_setting 'triclinic'
loop_
_space_group_symop_operation_xyz
x,y,z
-x,-y,-z
loop_
_atom_site_type_symbol
_atom_site_label
_atom_site_fract_x
_atom_site_fract_y
_atom_site_fract_z
Si Si1 0.574083 0.143905 0.360173
Si Si2 0.148869 0.729562 0.072020
Si Si3 0.688452 0.916436 0.093636
Si Si4 0.236312 0.852560 0.511599
Si Si5 0.527790 0.552264 0.626435
Si Si6 0.223410 0.388513 0.889076
Si Si7 0.125661 0.383412 0.383475
Si Si8 0.699220 0.304046 0.779295
O O1 0.654846 0.000547 0.241571
O O2 0.702973 0.242849 0.422323
O O3 0.561384 0.286221 0.293789
O O4 0.368902 0.060614 0.489192
O O5 0.177192 0.759334 0.197888
O O6 0.938375 0.645665 0.131231
O O7 0.225423 0.922962 0.006854
O O8 0.245991 0.578013 0.974499
O O9 0.813317 0.787446 0.040025
O O10 0.505309 0.779826 0.100661
O O11 0.284160 0.771817 0.363068
O O12 0.019478 0.817945 0.610322
O O13 0.500000 0.500000 0.500000
O O14 0.407473 0.398601 0.740508
O O15 0.735592 0.624185 0.582190
O O16 0.232669 0.474999 0.235943
O O17 0.000000 0.500000 0.500000
#
# Coordination Sequence:
#
# PCOD8011472 Si02
#       8
#     2   2   2   2   2   2   2   2
#     4  10  22  41  68  96 136 173 220 280 332 400
#     4  11  25  45  70  96 135 175 231 277 321 402
#     4  11  22  46  68  96 132 176 226 277 336 384
#     4   9  21  38  63  97 132 174 213 267 344 392
#     4  12  24  40  69  98 136 176 223 278 336 400
#     4  11  26  44  67 103 128 178 230 273 334 391
#     4  10  21  39  61  96 133 171 217 270 332 397
#     4  10  21  39  67  94 133 172 215 276 329 391
#
# _framework density 23.394252000000002
#
# number of rings (size 3 to 8) (size 9 to 14) (size 15 to 20)
#    0.000    1.500    2.500    2.250    8.750    1.000 
#    0.000    2.500    0.000    0.000    0.000    0.000 
#    0.000    0.000    0.000    0.000    0.000    0.000 
#
# Total GULP energy -198222.106736 kJ/mol
# GULP energy per Si atom -12388.881671 kJ/mol
# Density = 2.334101 g / cm^3
# Si number density = 23.394252 Si / 1000 Ang^3
#
#
#
# Elastic Constant Matrix: (Units=GPa)
#
#
# Indices 1 2 3 4 5 6 
#
# 1 163.3790 38.9477 38.2787 -2.8598 18.3585 12.0804
# 2 38.9477 84.0992 22.4607 -14.5544 2.8839 -6.3105
# 3 38.2787 22.4607 59.8928 -15.3554 9.4825 5.2535
# 4 -2.8598 -14.5544 -15.3554 24.8849 -2.7196 -4.1039
# 5 18.3585 2.8839 9.4825 -2.7196 35.8872 -9.2080
# 6 12.0804 -6.3105 5.2535 -4.1039 -9.2080 51.1756
#
#
#
# Elastic Compliance Matrix: (Units=1/GPa)
#
#
# Indices 1 2 3 4 5 6 
#
# 1 0.008686 -0.003786 -0.004462 -0.004952 -0.004158 -0.003204
# 2 -0.003786 0.015938 -0.002216 0.008558 0.002996 0.004312
# 3 -0.004462 -0.002216 0.024243 0.012573 -0.003326 -0.001299
# 4 -0.004952 0.008558 0.012573 0.053820 0.004140 0.005994
# 5 -0.004158 0.002996 -0.003326 0.004140 0.032986 0.007959
# 6 -0.003204 0.004312 -0.001299 0.005994 0.007959 0.022875
#
#
# Mechanical properties :
#
#
# Convention : Reuss Voigt Hill
#
# Bulk Modulus (GPa) = 35.79162 56.30502 46.04832
# Shear Modulus (GPa) = 26.48464 36.23514 31.35989
#
# Velocity S-wave (km/s) = 3.36832 3.93986 3.66525
# Velocity P-wave (km/s) = 5.51906 6.69454 6.13502
#
# Compressibility (1/GPa) = 0.02793950
#
# Stress axis : x y z
#
# Youngs Moduli (GPa) = 115.12608 62.74464 41.24879
#
# Poissons Ratio (x) = 0.23755 0.18405
# Poissons Ratio (y) = 0.43586 0.09140
# Poissons Ratio (z) = 0.51369 0.13903
#
# Static dielectric constant tensor:
#      x y z
#    x 4.998310 1.176390 -0.417480 
#    y 1.176390 6.339330 -1.272440 
#    z -0.417480 -1.272440 4.341660 
# 
# 
# High freq. dielectric constant tensor:
#      x y z
#    x 1.935750 0.014450 0.011360 
#    y 0.014450 1.921740 -0.026820 
#    z 0.011360 -0.026820 1.905070 
# 
# From -- ./inp_files/382246.got.cif
#   From: 2010.06.25/outbox.cif.g09.slc.cpg/sg2_192_cif.got.tgz:382246.got - 2010.06.27 13:26:56.
