data_PCOD8011537
_publ_section_title
;
Structure prediction by ZEFSAII (Michael W. Deem and Ramdas Pophale) SiO2 
 PCOD8011537
Probable space group: P -1
;
_chemical_formula_sum "Si O2"
_cell_formula_units_Z 16
_cell_length_a 23.405897
_cell_length_b 4.994433
_cell_length_c 6.034165
_cell_angle_alpha 80.129867
_cell_angle_beta 86.835335
_cell_angle_gamma 106.732831
_cell_volume 661.423271
_symmetry_space_group_name_H-M "P -1"
_symmetry_group_IT_number 2
_symmetry_cell_setting 'triclinic'
loop_
_space_group_symop_operation_xyz
x,y,z
-x,-y,-z
loop_
_atom_site_type_symbol
_atom_site_label
_atom_site_fract_x
_atom_site_fract_y
_atom_site_fract_z
Si Si1 0.700340 0.411425 0.248590
Si Si2 0.526000 0.722091 0.772717
Si Si3 0.369436 0.021090 0.027938
Si Si4 0.075563 0.334853 0.568920
Si Si5 0.787473 0.431333 0.583680
Si Si6 0.016301 0.722795 0.767405
Si Si7 0.739560 0.842021 0.835704
Si Si8 0.586625 0.494215 0.410016
O O1 0.748181 0.300579 0.389860
O O2 0.646155 0.396225 0.433717
O O3 0.738383 0.725574 0.105398
O O4 0.672080 0.258413 0.046340
O O5 0.573182 0.009148 0.832585
O O6 0.566784 0.586520 0.632429
O O7 0.469402 0.766493 0.642642
O O8 0.500000 0.500000 0.000000
O O9 0.327088 0.127567 0.193589
O O10 0.397809 0.246130 0.800544
O O11 0.145881 0.392028 0.521282
O O12 0.061630 0.615015 0.620992
O O13 0.044413 0.270709 0.344093
O O14 0.050460 0.054703 0.774355
O O15 0.756336 0.641152 0.679734
O O16 0.787685 0.159186 0.771752
O O17 0.000000 0.500000 0.000000
#
# Coordination Sequence:
#
# PCOD8011537 Si02
#       8
#     2   2   2   2   2   2   2   2
#     4  11  25  41  65  96 132 176 226 271 336 410
#     4   9  18  37  62  88 126 162 221 276 342 402
#     4  10  21  39  62  90 128 169 222 275 332 407
#     4  10  23  41  64 104 133 175 229 270 325 394
#     4  12  26  42  70  98 141 178 221 280 331 394
#     4  10  21  42  70  96 139 178 222 276 328 377
#     4  11  25  44  64  96 132 180 221 273 337 397
#     4   9  20  38  61  90 125 169 217 276 340 403
#
# _framework density 24.190259999999999
#
# number of rings (size 3 to 8) (size 9 to 14) (size 15 to 20)
#    0.000    1.750    1.250    1.875    5.250    2.500 
#    0.000    5.625    0.000    0.000    0.000    0.000 
#    0.000    0.000    0.000    0.000    0.000    0.000 
#
# Total GULP energy -198216.930312 kJ/mol
# GULP energy per Si atom -12388.558145 kJ/mol
# Density = 2.413520 g / cm^3
# Si number density = 24.190260 Si / 1000 Ang^3
#
#
#
# Elastic Constant Matrix: (Units=GPa)
#
#
# Indices 1 2 3 4 5 6 
#
# 1 137.0335 44.5396 48.9081 8.0899 -7.0729 24.4168
# 2 44.5396 113.2235 34.3018 -11.6118 -1.4254 7.6481
# 3 48.9081 34.3018 69.4492 -4.2179 -12.5675 23.5889
# 4 8.0899 -11.6118 -4.2179 39.1435 -1.1664 -2.9836
# 5 -7.0729 -1.4254 -12.5675 -1.1664 23.7277 -2.2741
# 6 24.4168 7.6481 23.5889 -2.9836 -2.2741 33.7417
#
#
#
# Elastic Compliance Matrix: (Units=1/GPa)
#
#
# Indices 1 2 3 4 5 6 
#
# 1 0.011069 -0.002897 -0.005287 -0.004032 -0.000259 -0.004031
# 2 -0.002897 0.011606 -0.004933 0.003677 -0.002303 0.003084
# 3 -0.005287 -0.004933 0.027190 0.001897 0.011364 -0.013131
# 4 -0.004032 0.003677 0.001897 0.027982 0.001720 0.003348
# 5 -0.000259 -0.002303 0.011364 0.001720 0.047662 -0.003871
# 6 -0.004031 0.003084 -0.013131 0.003348 -0.003871 0.041070
#
#
# Mechanical properties :
#
#
# Convention : Reuss Voigt Hill
#
# Bulk Modulus (GPa) = 42.31664 63.91168 53.11416
# Shear Modulus (GPa) = 24.91399 32.11968 28.51683
#
# Velocity S-wave (km/s) = 3.21272 3.64784 3.43717
# Velocity P-wave (km/s) = 5.59404 6.64982 6.14465
#
# Compressibility (1/GPa) = 0.02363137
#
# Stress axis : x y z
#
# Youngs Moduli (GPa) = 90.34338 86.16232 36.77763
#
# Poissons Ratio (x) = 0.24962 0.19443
# Poissons Ratio (y) = 0.26173 0.18143
# Poissons Ratio (z) = 0.47761 0.42506
#
# Static dielectric constant tensor:
#      x y z
#    x 4.357260 0.150670 -0.083230 
#    y 0.150670 4.497020 -0.068950 
#    z -0.083230 -0.068950 4.337830 
# 
# 
# High freq. dielectric constant tensor:
#      x y z
#    x 1.949970 0.005540 -0.011920 
#    y 0.005540 1.955480 -0.016100 
#    z -0.011920 -0.016100 1.963910 
# 
# From -- ./inp_files/121563.got.cif
#   From: 2010.06.25/outbox.cif.g09.slc.cpg/sg2_61_cif.got.tgz:121563.got - 2010.06.27 13:26:56.
