data_PCOD8011184
_publ_section_title
;
Structure prediction by ZEFSAII (Michael W. Deem and Ramdas Pophale) SiO2 
 PCOD8011184
Probable space group: P -1
;
_chemical_formula_sum "Si O2"
_cell_formula_units_Z 16
_cell_length_a 27.353133
_cell_length_b 15.439817
_cell_length_c 9.485326
_cell_angle_alpha 130.649186
_cell_angle_beta 139.537451
_cell_angle_gamma 18.967608
_cell_volume 799.730142
_symmetry_space_group_name_H-M "P -1"
_symmetry_group_IT_number 2
_symmetry_cell_setting 'triclinic'
loop_
_space_group_symop_operation_xyz
x,y,z
-x,-y,-z
loop_
_atom_site_type_symbol
_atom_site_label
_atom_site_fract_x
_atom_site_fract_y
_atom_site_fract_z
Si Si1 0.943157 0.422929 0.393918
Si Si2 0.837238 0.311499 0.009331
Si Si3 0.025273 0.348093 0.811021
Si Si4 0.268062 0.074528 0.592400
Si Si5 0.626969 0.822116 0.453405
Si Si6 0.568267 0.659418 0.030859
Si Si7 0.548262 0.302945 0.910024
Si Si8 0.516520 0.753739 0.554349
O O1 0.912027 0.331731 0.240342
O O2 0.760598 0.748741 0.300303
O O3 0.019126 0.369022 0.650932
O O4 0.082593 0.257028 0.394846
O O5 0.734240 0.398385 0.010309
O O6 0.709019 0.506551 0.797371
O O7 0.000000 0.000000 0.000000
O O8 0.848550 0.515707 0.650965
O O9 0.000000 0.500000 0.000000
O O10 0.228311 0.018105 0.944528
O O11 0.376985 0.880464 0.487672
O O12 0.376843 0.901127 0.789849
O O13 0.582333 0.772316 0.215944
O O14 0.500000 0.000000 0.500000
O O15 0.575573 0.999830 0.431548
O O16 0.560095 0.593052 0.080559
O O17 0.451680 0.369813 0.641035
O O18 0.500000 0.500000 0.000000
#
# Coordination Sequence:
#
# PCOD8011184 Si02
#       8
#     2   2   2   2   2   2   2   2
#     4  11  21  39  66 100 127 165 221 278 335 391
#     4  11  26  44  66  93 137 182 227 269 336 413
#     4  12  22  43  70 100 136 174 228 282 337 399
#     4  10  21  38  69  95 127 163 220 279 335 389
#     4  12  22  40  70 102 134 168 226 284 340 393
#     4  11  22  43  67  95 131 179 218 282 337 397
#     4  12  27  45  66  98 139 181 224 279 340 406
#     4  11  23  44  64  97 133 173 222 278 335 398
#
# _framework density 20.006748000000002
#
# number of rings (size 3 to 8) (size 9 to 14) (size 15 to 20)
#    0.000    0.750    6.250    0.750    1.750    3.000 
#    4.500    3.750    0.000    0.000    0.000    0.000 
#    0.000    0.000    0.000    0.000    0.000    0.000 
#
# Total GULP energy -198329.127628 kJ/mol
# GULP energy per Si atom -12395.570477 kJ/mol
# Density = 1.996121 g / cm^3
# Si number density = 20.006748 Si / 1000 Ang^3
#
#
#
# Elastic Constant Matrix: (Units=GPa)
#
#
# Indices 1 2 3 4 5 6 
#
# 1 122.7387 53.2327 61.5272 9.9903 -2.6074 -11.0283
# 2 53.2327 117.7935 41.7423 2.2702 -1.4927 -5.3443
# 3 61.5272 41.7423 85.4218 3.7330 -17.9326 -0.7445
# 4 9.9903 2.2702 3.7330 25.5942 -4.4577 9.3596
# 5 -2.6074 -1.4927 -17.9326 -4.4577 31.4265 2.6362
# 6 -11.0283 -5.3443 -0.7445 9.3596 2.6362 34.9267
#
#
#
# Elastic Compliance Matrix: (Units=1/GPa)
#
#
# Indices 1 2 3 4 5 6 
#
# 1 0.016283 -0.002941 -0.011345 -0.008303 -0.007044 0.007206
# 2 -0.002941 0.011150 -0.003725 0.000071 -0.001899 0.000823
# 3 -0.011345 -0.003725 0.024354 0.005977 0.014155 -0.006303
# 4 -0.008303 0.000071 0.005977 0.049432 0.011127 -0.016570
# 5 -0.007044 -0.001899 0.014155 0.011127 0.041500 -0.008327
# 6 0.007206 0.000823 -0.006303 -0.016570 -0.008327 0.035967
#
#
# Mechanical properties :
#
#
# Convention : Reuss Voigt Hill
#
# Bulk Modulus (GPa) = 63.42669 70.99536 67.21103
# Shear Modulus (GPa) = 22.73114 29.68626 26.20870
#
# Velocity S-wave (km/s) = 3.37437 3.85621 3.62331
# Velocity P-wave (km/s) = 6.85225 7.44244 7.15343
#
# Compressibility (1/GPa) = 0.01576623
#
# Stress axis : x y z
#
# Youngs Moduli (GPa) = 61.41211 89.68287 41.06162
#
# Poissons Ratio (x) = 0.26374 0.46583
# Poissons Ratio (y) = 0.18060 0.15296
# Poissons Ratio (z) = 0.69670 0.33408
#
# Static dielectric constant tensor:
#      x y z
#    x 3.767670 -0.111190 -0.195480 
#    y -0.111190 3.882750 -0.446340 
#    z -0.195480 -0.446340 4.198920 
# 
# 
# High freq. dielectric constant tensor:
#      x y z
#    x 1.790550 -0.021600 -0.006580 
#    y -0.021600 1.776190 -0.001660 
#    z -0.006580 -0.001660 1.785190 
# 
# From -- ./inp_files/188587.got.cif
#   From: 2010.06.25/outbox.cif.g09.slc.cpg/sg2_95_cif.got.tgz:188587.got - 2010.06.27 13:26:56.
