data_PCOD8011247
_publ_section_title
;
Structure prediction by ZEFSAII (Michael W. Deem and Ramdas Pophale) SiO2 
 PCOD8011247
Probable space group: P -1
;
_chemical_formula_sum "Si O2"
_cell_formula_units_Z 16
_cell_length_a 18.077419
_cell_length_b 6.482951
_cell_length_c 8.571712
_cell_angle_alpha 91.244331
_cell_angle_beta 89.129402
_cell_angle_gamma 132.968339
_cell_volume 734.895140
_symmetry_space_group_name_H-M "P -1"
_symmetry_group_IT_number 2
_symmetry_cell_setting 'triclinic'
loop_
_space_group_symop_operation_xyz
x,y,z
-x,-y,-z
loop_
_atom_site_type_symbol
_atom_site_label
_atom_site_fract_x
_atom_site_fract_y
_atom_site_fract_z
Si Si1 0.601569 0.123660 0.580139
Si Si2 0.907816 0.347248 0.301109
Si Si3 0.744770 0.373984 0.300322
Si Si4 0.215957 0.169318 0.893764
Si Si5 0.063901 0.925776 0.433528
Si Si6 0.741568 0.666222 0.761841
Si Si7 0.585766 0.708431 0.771414
Si Si8 0.389211 0.172769 0.881227
O O1 0.688717 0.326980 0.457242
O O2 0.645904 0.331768 0.731972
O O3 0.500000 0.000000 0.500000
O O4 0.580195 0.851449 0.629411
O O5 0.821999 0.345817 0.350495
O O6 0.914564 0.184127 0.426890
O O7 0.008445 0.680555 0.297207
O O8 0.876591 0.170947 0.137427
O O9 0.797056 0.675951 0.231938
O O10 0.668385 0.142516 0.169849
O O11 0.322469 0.254100 0.867988
O O12 0.210858 0.264028 0.065564
O O13 0.168423 0.204040 0.361334
O O14 0.000000 0.000000 0.500000
O O15 0.693516 0.801646 0.749224
O O16 0.486336 0.373683 0.766187
O O17 0.579071 0.807472 0.941168
#
# Coordination Sequence:
#
# PCOD8011247 Si02
#       8
#     2   2   2   2   2   2   2   2
#     4  12  24  35  57  90 122 159 199 243 294 349
#     4  10  22  40  64  88 114 155 195 240 303 353
#     4  11  21  38  60  86 121 155 194 244 296 352
#     4  10  21  39  62  89 119 156 199 240 291 352
#     4  11  23  42  64  89 120 153 195 245 300 355
#     4  11  24  40  61  87 118 157 200 246 294 350
#     4  10  21  39  57  85 120 155 201 244 288 348
#     4   9  20  37  60  83 118 162 195 239 293 346
#
# _framework density 21.771815
#
# number of rings (size 3 to 8) (size 9 to 14) (size 15 to 20)
#    0.000    1.500    0.000    5.250    0.000    5.500 
#    0.000    7.500    0.000    0.000    0.000    0.000 
#    0.000    0.000    0.000    0.000    0.000    0.000 
#
# Total GULP energy -198301.434680 kJ/mol
# GULP energy per Si atom -12393.839668 kJ/mol
# Density = 2.172226 g / cm^3
# Si number density = 21.771815 Si / 1000 Ang^3
#
#
#
# Elastic Constant Matrix: (Units=GPa)
#
#
# Indices 1 2 3 4 5 6 
#
# 1 101.3679 34.6759 41.8106 -9.1079 8.1920 -0.8331
# 2 34.6759 113.5999 25.4170 13.2774 1.0496 9.0771
# 3 41.8106 25.4170 57.7276 -2.3456 0.0108 -2.8226
# 4 -9.1079 13.2774 -2.3456 42.5608 -0.1934 8.4621
# 5 8.1920 1.0496 0.0108 -0.1934 31.6184 -3.5095
# 6 -0.8331 9.0771 -2.8226 8.4621 -3.5095 34.4967
#
#
#
# Elastic Compliance Matrix: (Units=1/GPa)
#
#
# Indices 1 2 3 4 5 6 
#
# 1 0.015613 -0.002876 -0.009934 0.003880 -0.004038 -0.001042
# 2 -0.002876 0.010974 -0.003012 -0.003753 0.000107 -0.002272
# 3 -0.009934 -0.003012 0.025979 -0.000351 0.003004 0.003070
# 4 0.003880 -0.003753 -0.000351 0.026586 -0.001340 -0.005606
# 5 -0.004038 0.000107 0.003004 -0.001340 0.033084 0.003815
# 6 -0.001042 -0.002272 0.003070 -0.005606 0.003815 0.031575
#
#
# Mechanical properties :
#
#
# Convention : Reuss Voigt Hill
#
# Bulk Modulus (GPa) = 47.79864 52.94471 50.37167
# Shear Modulus (GPa) = 27.40783 33.12129 30.26456
#
# Velocity S-wave (km/s) = 3.55190 3.90461 3.73242
# Velocity P-wave (km/s) = 6.23084 6.68571 6.46228
#
# Compressibility (1/GPa) = 0.02092110
#
# Stress axis : x y z
#
# Youngs Moduli (GPa) = 64.05046 91.12577 38.49203
#
# Poissons Ratio (x) = 0.26207 0.38239
# Poissons Ratio (y) = 0.18420 0.11595
# Poissons Ratio (z) = 0.63629 0.27450
#
# Static dielectric constant tensor:
#      x y z
#    x 3.810650 0.045190 0.075430 
#    y 0.045190 4.070460 0.321870 
#    z 0.075430 0.321870 3.836400 
# 
# 
# High freq. dielectric constant tensor:
#      x y z
#    x 1.852440 0.001990 0.013850 
#    y 0.001990 1.864510 0.024890 
#    z 0.013850 0.024890 1.849690 
# 
# From -- ./inp_files/37435.got.cif
#   From: 2010.06.25/outbox.cif.g09.slc.cpg/sg2_19_cif.got.tgz:37435.got - 2010.06.27 13:26:56.
