data_PCOD8011701
_publ_section_title
;
Structure prediction by ZEFSAII (Michael W. Deem and Ramdas Pophale) SiO2 
 PCOD8011701
Probable space group: P -1
;
_chemical_formula_sum "Si O2"
_cell_formula_units_Z 12
_cell_length_a 11.933843
_cell_length_b 8.140169
_cell_length_c 11.517171
_cell_angle_alpha 37.749505
_cell_angle_beta 55.013490
_cell_angle_gamma 56.516317
_cell_volume 550.283676
_symmetry_space_group_name_H-M "P -1"
_symmetry_group_IT_number 2
_symmetry_cell_setting 'triclinic'
loop_
_space_group_symop_operation_xyz
x,y,z
-x,-y,-z
loop_
_atom_site_type_symbol
_atom_site_label
_atom_site_fract_x
_atom_site_fract_y
_atom_site_fract_z
Si Si1 0.118080 0.345376 0.434972
Si Si2 0.542062 0.551126 0.234660
Si Si3 0.614809 0.001706 0.775541
Si Si4 0.159527 0.742960 0.772036
Si Si5 0.916800 0.692206 0.778888
Si Si6 0.418588 0.331170 0.226661
O O1 0.040675 0.342473 0.360233
O O2 0.255460 0.479634 0.259434
O O3 0.000000 0.500000 0.500000
O O4 0.173440 0.048290 0.626207
O O5 0.693508 0.428445 0.266063
O O6 0.487602 0.313014 0.324941
O O7 0.443784 0.683853 0.326209
O O8 0.541420 0.795842 0.007229
O O9 0.780486 0.932459 0.739282
O O10 0.583189 0.957207 0.680653
O O11 0.046816 0.772874 0.720417
O O12 0.112214 0.595427 0.995081
O O13 0.500000 0.500000 0.000000
#
# Coordination Sequence:
#
# PCOD8011701 Si02
#       6
#     2   2   2   2   2   2
#     4  11  24  40  62  95 129 166 210 263 321 377
#     4   9  17  33  58  88 116 157 208 255 306 371
#     4   8  16  33  60  85 114 161 208 248 310 371
#     4  10  21  39  63  93 126 161 216 263 314 378
#     4   9  20  41  63  87 126 169 205 263 318 381
#     4   9  19  38  60  87 124 166 207 258 311 378
#
# _framework density 21.806933999999998
#
# number of rings (size 3 to 8) (size 9 to 14) (size 15 to 20)
#    0.000    2.667    0.000    1.500    2.333    1.333 
#    6.000    3.333    0.000    0.000    0.000    0.000 
#    0.000    0.000    0.000    0.000    0.000    0.000 
#
# Total GULP energy -148683.279070 kJ/mol
# GULP energy per Si atom -12390.273256 kJ/mol
# Density = 2.175730 g / cm^3
# Si number density = 21.806934 Si / 1000 Ang^3
#
#
#
# Elastic Constant Matrix: (Units=GPa)
#
#
# Indices 1 2 3 4 5 6 
#
# 1 140.3042 81.8327 26.1693 8.0023 -7.0396 -3.1157
# 2 81.8327 178.8445 43.0078 29.6831 -3.0398 0.9019
# 3 26.1693 43.0078 69.3583 14.1583 -11.3082 -7.1867
# 4 8.0023 29.6831 14.1583 32.0806 -3.3994 -3.7922
# 5 -7.0396 -3.0398 -11.3082 -3.3994 25.0555 5.3042
# 6 -3.1157 0.9019 -7.1867 -3.7922 5.3042 26.4469
#
#
#
# Elastic Compliance Matrix: (Units=1/GPa)
#
#
# Indices 1 2 3 4 5 6 
#
# 1 0.010071 -0.004799 -0.000939 0.002679 0.001957 0.001087
# 2 -0.004799 0.009712 -0.003419 -0.006786 -0.002132 -0.002371
# 3 -0.000939 -0.003419 0.019135 -0.003945 0.006726 0.003291
# 4 0.002679 -0.006786 -0.003945 0.039334 0.002509 0.004612
# 5 0.001957 -0.002132 0.006726 0.002509 0.044960 -0.006527
# 6 0.001087 -0.002371 0.003291 0.004612 -0.006527 0.040885
#
#
# Mechanical properties :
#
#
# Convention : Reuss Voigt Hill
#
# Bulk Modulus (GPa) = 48.53690 76.72519 62.63105
# Shear Modulus (GPa) = 26.41579 32.54975 29.48277
#
# Velocity S-wave (km/s) = 3.48422 3.86765 3.68093
# Velocity P-wave (km/s) = 6.20421 7.43002 6.84461
#
# Compressibility (1/GPa) = 0.02060288
#
# Stress axis : x y z
#
# Youngs Moduli (GPa) = 99.29310 102.96960 52.25897
#
# Poissons Ratio (x) = 0.49417 0.04908
# Poissons Ratio (y) = 0.47652 0.17869
# Poissons Ratio (z) = 0.09326 0.35209
#
# Static dielectric constant tensor:
#      x y z
#    x 4.212540 0.296550 -0.140030 
#    y 0.296550 4.057460 0.097050 
#    z -0.140030 0.097050 3.943510 
# 
# 
# High freq. dielectric constant tensor:
#      x y z
#    x 1.859600 0.000040 -0.006990 
#    y 0.000040 1.837190 0.014310 
#    z -0.006990 0.014310 1.858020 
# 
# From -- ./inp_files/176231.got.cif
#   From: 2010.06.25/outbox.cif.g09.slc.cpg/sg2_89_cif.got.tgz:176231.got - 2010.06.27 13:26:56.
