data_PCOD8011597
_publ_section_title
;
Structure prediction by ZEFSAII (Michael W. Deem and Ramdas Pophale) SiO2 
 PCOD8011597
Probable space group: P -1
;
_chemical_formula_sum "Si O2"
_cell_formula_units_Z 16
_cell_length_a 9.511679
_cell_length_b 23.752243
_cell_length_c 10.100037
_cell_angle_alpha 31.224965
_cell_angle_beta 114.312309
_cell_angle_gamma 134.519946
_cell_volume 726.338071
_symmetry_space_group_name_H-M "P -1"
_symmetry_group_IT_number 2
_symmetry_cell_setting 'triclinic'
loop_
_space_group_symop_operation_xyz
x,y,z
-x,-y,-z
loop_
_atom_site_type_symbol
_atom_site_label
_atom_site_fract_x
_atom_site_fract_y
_atom_site_fract_z
Si Si1 0.475068 0.366223 0.206945
Si Si2 0.698140 0.252244 0.120028
Si Si3 0.186145 0.266879 0.760830
Si Si4 0.345997 0.190435 0.756293
Si Si5 0.503606 0.369458 0.912917
Si Si6 0.274188 0.866699 0.093992
Si Si7 0.183508 0.577255 0.629061
Si Si8 0.424862 0.017979 0.249554
O O1 0.294602 0.205456 0.555590
O O2 0.724780 0.438810 0.172368
O O3 0.500000 0.500000 0.000000
O O4 0.394825 0.321247 0.114623
O O5 0.504948 0.126409 0.190880
O O6 0.735007 0.166108 0.401609
O O7 0.617956 0.311810 0.056418
O O8 0.939535 0.403675 0.838091
O O9 0.211179 0.192357 0.804288
O O10 0.297022 0.279102 0.913070
O O11 0.303574 0.439314 0.415052
O O12 0.916384 0.142105 0.932587
O O13 0.626927 0.343355 0.575005
O O14 0.283607 0.030179 0.077185
O O15 0.161399 0.691311 0.430406
O O16 0.353253 0.915144 0.874268
O O17 0.500000 0.000000 0.000000
#
# Coordination Sequence:
#
# PCOD8011597 Si02
#       8
#     2   2   2   2   2   2   2   2
#     4  10  21  39  63 103 143 168 228 288 343 414
#     4  11  22  41  70 101 140 185 235 290 339 415
#     4  11  22  42  72 102 139 176 229 289 350 410
#     4   9  20  43  65  98 137 174 230 278 353 411
#     4  11  22  37  71 108 135 176 234 291 342 414
#     4  11  25  45  68 102 136 183 232 288 351 412
#     4   9  22  41  70  99 134 184 231 282 342 417
#     4  10  24  42  65  97 148 182 235 283 347 411
#
# _framework density 22.028310000000001
#
# number of rings (size 3 to 8) (size 9 to 14) (size 15 to 20)
#    0.750    1.000    3.750    0.000    1.750    6.500 
#    0.000    4.375    2.750    0.000    0.000    0.000 
#    0.000    0.000    0.000    0.000    0.000    0.000 
#
# Total GULP energy -198289.033531 kJ/mol
# GULP energy per Si atom -12393.064596 kJ/mol
# Density = 2.197817 g / cm^3
# Si number density = 22.028310 Si / 1000 Ang^3
#
#
#
# Elastic Constant Matrix: (Units=GPa)
#
#
# Indices 1 2 3 4 5 6 
#
# 1 137.8749 17.9294 32.5489 2.8770 -5.7019 -11.3588
# 2 17.9294 49.2382 6.7374 17.7753 -9.0187 -10.8041
# 3 32.5489 6.7374 103.9326 13.5241 11.5403 6.1330
# 4 2.8770 17.7753 13.5241 33.0028 6.6196 -8.4878
# 5 -5.7019 -9.0187 11.5403 6.6196 29.2086 1.9859
# 6 -11.3588 -10.8041 6.1330 -8.4878 1.9859 32.6816
#
#
#
# Elastic Compliance Matrix: (Units=1/GPa)
#
#
# Indices 1 2 3 4 5 6 
#
# 1 0.008631 -0.002671 -0.003208 0.002588 0.001316 0.003311
# 2 -0.002671 0.031083 -0.000540 -0.017877 0.013068 0.004012
# 3 -0.003208 -0.000540 0.011997 -0.004668 -0.004169 -0.004504
# 4 0.002588 -0.017877 -0.004668 0.046786 -0.014378 0.008890
# 5 0.001316 0.013068 -0.004169 -0.014378 0.043490 -0.000817
# 6 0.003311 0.004012 -0.004504 0.008890 -0.000817 0.036279
#
#
# Mechanical properties :
#
#
# Convention : Reuss Voigt Hill
#
# Bulk Modulus (GPa) = 25.72429 45.05299 35.38864
# Shear Modulus (GPa) = 24.50226 34.56728 29.53477
#
# Velocity S-wave (km/s) = 3.33875 3.96564 3.66562
# Velocity P-wave (km/s) = 5.15424 6.43934 5.83229
#
# Compressibility (1/GPa) = 0.03887377
#
# Stress axis : x y z
#
# Youngs Moduli (GPa) = 115.86416 32.17150 83.35106
#
# Poissons Ratio (x) = 0.08592 0.26740
# Poissons Ratio (y) = 0.30942 0.04503
# Poissons Ratio (z) = 0.37171 0.01738
#
# Static dielectric constant tensor:
#      x y z
#    x 4.012440 -0.036700 0.164180 
#    y -0.036700 3.765190 0.308810 
#    z 0.164180 0.308810 4.046740 
# 
# 
# High freq. dielectric constant tensor:
#      x y z
#    x 1.870680 -0.005350 0.016420 
#    y -0.005350 1.844870 0.017350 
#    z 0.016420 0.017350 1.867290 
# 
# From -- ./inp_files/406536.got.cif
#   From: 2010.06.25/outbox.cif.g09.slc.cpg/sg2_204_cif.got.tgz:406536.got - 2010.06.27 13:26:56.
