data_PCOD8011147
_publ_section_title
;
Structure prediction by ZEFSAII (Michael W. Deem and Ramdas Pophale) SiO2 
 PCOD8011147
Probable space group: P -1
;
_chemical_formula_sum "Si O2"
_cell_formula_units_Z 16
_cell_length_a 8.258292
_cell_length_b 11.888673
_cell_length_c 14.327507
_cell_angle_alpha 29.804493
_cell_angle_beta 70.694167
_cell_angle_gamma 68.437117
_cell_volume 650.036866
_symmetry_space_group_name_H-M "P -1"
_symmetry_group_IT_number 2
_symmetry_cell_setting 'triclinic'
loop_
_space_group_symop_operation_xyz
x,y,z
-x,-y,-z
loop_
_atom_site_type_symbol
_atom_site_label
_atom_site_fract_x
_atom_site_fract_y
_atom_site_fract_z
Si Si1 0.936271 0.364141 0.694698
Si Si2 0.367642 0.613793 0.065987
Si Si3 0.252025 0.993824 0.952147
Si Si4 0.211828 0.925576 0.605098
Si Si5 0.174157 0.989350 0.360172
Si Si6 0.735684 0.553277 0.976087
Si Si7 0.345560 0.265533 0.458918
Si Si8 0.515989 0.244992 0.641971
O O1 0.843123 0.565262 0.634963
O O2 0.000000 0.500000 0.500000
O O3 0.102993 0.217061 0.818763
O O4 0.796422 0.183708 0.829623
O O5 0.535385 0.682452 0.934048
O O6 0.456577 0.411716 0.267314
O O7 0.241096 0.516572 0.086810
O O8 0.252682 0.840696 0.968621
O O9 0.439062 0.085648 0.850329
O O10 0.207855 0.662177 0.813774
O O11 0.016929 0.075316 0.547010
O O12 0.278491 0.944879 0.471656
O O13 0.335442 0.022110 0.587477
O O14 0.283704 0.850499 0.355012
O O15 0.146671 0.261759 0.149345
O O16 0.400212 0.242556 0.572575
O O17 0.500000 0.500000 0.500000
#
# Coordination Sequence:
#
# PCOD8011147 Si02
#       8
#     2   2   2   2   2   2   2   2
#     4  10  21  38  68  96 132 172 226 282 330 410
#     4  10  21  38  68 104 129 173 231 285 336 413
#     4  10  21  41  63  97 133 173 231 277 338 407
#     4  11  25  42  71 103 135 186 223 287 348 406
#     4  11  25  46  66 102 146 173 232 285 344 411
#     4  11  21  39  68  99 138 174 221 281 346 409
#     4  11  23  42  72  99 133 178 234 279 350 412
#     4  12  26  45  71 100 142 187 232 292 348 409
#
# _framework density 24.613989
#
# number of rings (size 3 to 8) (size 9 to 14) (size 15 to 20)
#    0.000    1.250    3.750    1.875    3.500    1.000 
#    0.000    2.500    5.500    0.000    0.000    0.000 
#    0.000    0.000    0.000    0.000    0.000    0.000 
#
# Total GULP energy -198226.683999 kJ/mol
# GULP energy per Si atom -12389.167750 kJ/mol
# Density = 2.455797 g / cm^3
# Si number density = 24.613989 Si / 1000 Ang^3
#
#
#
# Elastic Constant Matrix: (Units=GPa)
#
#
# Indices 1 2 3 4 5 6 
#
# 1 36.8576 15.6131 6.1171 6.3339 -14.8995 -3.5735
# 2 15.6131 89.8910 38.5514 -6.6080 -14.7577 -3.5739
# 3 6.1171 38.5514 152.4390 8.9064 -20.3289 0.4979
# 4 6.3339 -6.6080 8.9064 38.6344 -6.9641 -6.1366
# 5 -14.8995 -14.7577 -20.3289 -6.9641 39.6250 0.0748
# 6 -3.5735 -3.5739 0.4979 -6.1366 0.0748 34.4316
#
#
#
# Elastic Compliance Matrix: (Units=1/GPa)
#
#
# Indices 1 2 3 4 5 6 
#
# 1 0.034518 -0.005129 0.001653 -0.004567 0.011110 0.002188
# 2 -0.005129 0.014297 -0.003362 0.004808 0.002513 0.001852
# 3 0.001653 -0.003362 0.007879 -0.002228 0.003022 -0.000695
# 4 -0.004567 0.004808 -0.002228 0.029555 0.004115 0.005316
# 5 0.011110 0.002513 0.003022 0.004115 0.032620 0.002033
# 6 0.002188 0.001852 -0.000695 0.005316 0.002033 0.030415
#
#
# Mechanical properties :
#
#
# Convention : Reuss Voigt Hill
#
# Bulk Modulus (GPa) = 23.24552 44.41677 33.83114
# Shear Modulus (GPa) = 28.20105 37.13195 32.66650
#
# Velocity S-wave (km/s) = 3.38854 3.88825 3.64696
# Velocity P-wave (km/s) = 4.97736 6.18405 5.61322
#
# Compressibility (1/GPa) = 0.04301904
#
# Stress axis : x y z
#
# Youngs Moduli (GPa) = 28.97033 69.94567 126.91601
#
# Poissons Ratio (x) = 0.35877 -0.20984
# Poissons Ratio (y) = 0.14860 0.42665
# Poissons Ratio (z) = -0.04790 0.23513
#
# Static dielectric constant tensor:
#      x y z
#    x 4.245880 -0.600270 -0.335380 
#    y -0.600270 4.728230 0.187980 
#    z -0.335380 0.187980 4.825090 
# 
# 
# High freq. dielectric constant tensor:
#      x y z
#    x 1.947210 -0.037600 -0.014570 
#    y -0.037600 1.977900 -0.003030 
#    z -0.014570 -0.003030 2.000300 
# 
# From -- ./inp_files/499648.got.cif
#   From: 2010.06.25/outbox.cif.g09.slc.cpg/sg2_250_cif.got.tgz:499648.got - 2010.06.27 13:26:56.
