data_PCOD8011230
_publ_section_title
;
Structure prediction by ZEFSAII (Michael W. Deem and Ramdas Pophale) SiO2 
 PCOD8011230
Probable space group: P -1
;
_chemical_formula_sum "Si O2"
_cell_formula_units_Z 16
_cell_length_a 14.837531
_cell_length_b 7.574459
_cell_length_c 14.341927
_cell_angle_alpha 78.669605
_cell_angle_beta 34.818239
_cell_angle_gamma 91.749890
_cell_volume 847.755441
_symmetry_space_group_name_H-M "P -1"
_symmetry_group_IT_number 2
_symmetry_cell_setting 'triclinic'
loop_
_space_group_symop_operation_xyz
x,y,z
-x,-y,-z
loop_
_atom_site_type_symbol
_atom_site_label
_atom_site_fract_x
_atom_site_fract_y
_atom_site_fract_z
Si Si1 0.035921 0.517170 0.726069
Si Si2 0.788390 0.234634 0.842635
Si Si3 0.829912 0.034667 0.659739
Si Si4 0.105702 0.331153 0.014458
Si Si5 0.495435 0.298689 0.986272
Si Si6 0.652397 0.239425 0.667171
Si Si7 0.114994 0.734244 0.961378
Si Si8 0.310766 0.059956 0.885437
O O1 0.892900 0.440578 0.775732
O O2 0.995486 0.687019 0.799308
O O3 0.020472 0.343839 0.830529
O O4 0.217483 0.582918 0.517229
O O5 0.879603 0.208208 0.673490
O O6 0.598629 0.217607 0.980192
O O7 0.782345 0.064662 0.935069
O O8 0.752432 0.098377 0.627214
O O9 0.694257 0.846945 0.840057
O O10 0.000000 0.000000 0.500000
O O11 0.185972 0.559473 0.896206
O O12 0.252430 0.243351 0.906897
O O13 0.975515 0.217087 0.056868
O O14 0.500000 0.500000 0.000000
O O15 0.574324 0.315804 0.813830
O O16 0.510157 0.132576 0.724132
O O17 0.264624 0.926557 0.845747
#
# Coordination Sequence:
#
# PCOD8011230 Si02
#       8
#     2   2   2   2   2   2   2   2
#     4   9  21  36  59  83 116 145 194 239 275 347
#     4  10  21  39  54  83 116 151 194 240 279 342
#     4  11  24  38  56  79 118 152 193 239 283 342
#     4   9  19  36  65  84 111 155 191 233 297 346
#     4  11  24  38  57  78 117 154 192 238 293 337
#     4  11  23  38  53  85 120 144 194 244 282 333
#     4   8  19  39  61  85 116 144 198 235 284 356
#     4  11  19  36  63  82 114 154 191 239 290 340
#
# _framework density 18.873366999999998
#
# number of rings (size 3 to 8) (size 9 to 14) (size 15 to 20)
#    0.750    1.250    2.500    1.125    7.000    1.000 
#    0.000    1.250    0.000    0.000    0.000    0.000 
#    0.000    0.000    0.000    0.000    0.000    0.000 
#
# Total GULP energy -198289.998925 kJ/mol
# GULP energy per Si atom -12393.124933 kJ/mol
# Density = 1.883041 g / cm^3
# Si number density = 18.873367 Si / 1000 Ang^3
#
#
#
# Elastic Constant Matrix: (Units=GPa)
#
#
# Indices 1 2 3 4 5 6 
#
# 1 128.4515 50.5969 50.7398 6.4205 -20.0687 20.5096
# 2 50.5969 83.8529 38.4995 12.1686 -11.6685 8.9522
# 3 50.7398 38.4995 107.0439 0.6156 -16.7718 13.8569
# 4 6.4205 12.1686 0.6156 26.7978 -3.4235 -6.8225
# 5 -20.0687 -11.6685 -16.7718 -3.4235 22.9955 0.5438
# 6 20.5096 8.9522 13.8569 -6.8225 0.5438 37.6971
#
#
#
# Elastic Compliance Matrix: (Units=1/GPa)
#
#
# Indices 1 2 3 4 5 6 
#
# 1 0.012584 -0.004780 -0.002538 -0.001235 0.006642 -0.005098
# 2 -0.004780 0.017896 -0.003744 -0.007151 0.001151 -0.001584
# 3 -0.002538 -0.003744 0.013076 0.002182 0.005800 -0.002225
# 4 -0.001235 -0.007151 0.002182 0.043610 0.003155 0.009415
# 5 0.006642 0.001151 0.005800 0.003155 0.054715 -0.006237
# 6 -0.005098 -0.001584 -0.002225 0.009415 -0.006237 0.032289
#
#
# Mechanical properties :
#
#
# Convention : Reuss Voigt Hill
#
# Bulk Modulus (GPa) = 46.66053 66.55785 56.60919
# Shear Modulus (GPa) = 24.57758 29.46554 27.02156
#
# Velocity S-wave (km/s) = 3.61257 3.95552 3.78793
# Velocity P-wave (km/s) = 6.49442 7.49690 7.01359
#
# Compressibility (1/GPa) = 0.02143139
#
# Stress axis : x y z
#
# Youngs Moduli (GPa) = 79.46691 55.87812 76.47720
#
# Poissons Ratio (x) = 0.26710 0.19409
# Poissons Ratio (y) = 0.37985 0.28635
# Poissons Ratio (z) = 0.20168 0.20922
#
# Static dielectric constant tensor:
#      x y z
#    x 3.696330 0.123760 -0.033880 
#    y 0.123760 3.572230 0.010580 
#    z -0.033880 0.010580 3.134920 
# 
# 
# High freq. dielectric constant tensor:
#      x y z
#    x 1.745390 0.014630 -0.002990 
#    y 0.014630 1.726990 -0.000850 
#    z -0.002990 -0.000850 1.697600 
# 
# From -- ./inp_files/212569.got.cif
#   From: 2010.06.25/outbox.cif.g09.slc.cpg/sg2_107_cif.got.tgz:212569.got - 2010.06.27 13:26:56.
