data_PCOD8011371
_publ_section_title
;
Structure prediction by ZEFSAII (Michael W. Deem and Ramdas Pophale) SiO2 
 PCOD8011371
Probable space group: P -1
;
_chemical_formula_sum "Si O2"
_cell_formula_units_Z 16
_cell_length_a 8.751853
_cell_length_b 11.977006
_cell_length_c 14.784938
_cell_angle_alpha 148.226518
_cell_angle_beta 70.037936
_cell_angle_gamma 99.625841
_cell_volume 742.949425
_symmetry_space_group_name_H-M "P -1"
_symmetry_group_IT_number 2
_symmetry_cell_setting 'triclinic'
loop_
_space_group_symop_operation_xyz
x,y,z
-x,-y,-z
loop_
_atom_site_type_symbol
_atom_site_label
_atom_site_fract_x
_atom_site_fract_y
_atom_site_fract_z
Si Si1 0.345514 0.998113 0.853735
Si Si2 0.845249 0.084643 0.814180
Si Si3 0.798553 0.838514 0.180947
Si Si4 0.814977 0.803881 0.794952
Si Si5 0.387800 0.495013 0.932515
Si Si6 0.688915 0.779389 0.552338
Si Si7 0.519069 0.177657 0.548059
Si Si8 0.803262 0.410425 0.401297
O O1 0.240539 0.181797 0.931740
O O2 0.544229 0.939274 0.753473
O O3 0.297875 0.770076 0.686695
O O4 0.308922 0.096671 0.029298
O O5 0.010389 0.173659 0.843891
O O6 0.808034 0.006944 0.868453
O O7 0.853029 0.876591 0.602396
O O8 0.702112 0.269990 0.924152
O O9 0.744459 0.649721 0.118592
O O10 0.694050 0.086240 0.398372
O O11 0.761928 0.598543 0.617271
O O12 0.002446 0.712959 0.731298
O O13 0.512922 0.395675 0.756105
O O14 0.500000 0.500000 0.000000
O O15 0.638561 0.781712 0.460132
O O16 0.738137 0.527867 0.400719
O O17 0.500000 0.000000 0.500000
#
# Coordination Sequence:
#
# PCOD8011371 Si02
#       8
#     2   2   2   2   2   2   2   2
#     4  11  21  41  64  91 132 166 211 260 312 369
#     4  11  22  41  62  92 127 159 207 260 308 376
#     4  10  22  41  63  93 122 165 206 253 314 375
#     4  10  23  39  63  94 129 169 207 263 311 376
#     4  11  23  43  65  91 122 159 209 259 312 373
#     4  10  23  40  61  93 126 163 210 260 309 376
#     4   9  20  41  63  84 119 159 204 254 306 365
#     4  10  21  39  60  93 127 166 212 254 316 371
#
# _framework density 21.535786000000002
#
# number of rings (size 3 to 8) (size 9 to 14) (size 15 to 20)
#    0.000    1.750    1.250    3.375    1.750    2.000 
#    9.000    6.875    0.000    0.000    0.000    0.000 
#    0.000    0.000    0.000    0.000    0.000    0.000 
#
# Total GULP energy -198290.470889 kJ/mol
# GULP energy per Si atom -12393.154431 kJ/mol
# Density = 2.148677 g / cm^3
# Si number density = 21.535786 Si / 1000 Ang^3
#
#
#
# Elastic Constant Matrix: (Units=GPa)
#
#
# Indices 1 2 3 4 5 6 
#
# 1 80.0913 30.0265 19.6392 -4.1051 -0.7985 -20.9392
# 2 30.0265 112.3542 46.6626 1.3212 -4.1417 -28.2769
# 3 19.6392 46.6626 79.2885 -6.9007 11.6879 -6.9730
# 4 -4.1051 1.3212 -6.9007 36.5159 -11.1926 3.8774
# 5 -0.7985 -4.1417 11.6879 -11.1926 23.1567 11.8018
# 6 -20.9392 -28.2769 -6.9730 3.8774 11.8018 45.2138
#
#
#
# Elastic Compliance Matrix: (Units=1/GPa)
#
#
# Indices 1 2 3 4 5 6 
#
# 1 0.015211 -0.001833 -0.001862 0.000209 -0.001861 0.006079
# 2 -0.001833 0.014482 -0.007990 -0.002314 0.002059 0.006637
# 3 -0.001862 -0.007990 0.019453 0.000331 -0.011166 0.000027
# 4 0.000209 -0.002314 0.000331 0.035200 0.021501 -0.009930
# 5 -0.001861 0.002059 -0.011166 0.021501 0.070494 -0.021540
# 6 0.006079 0.006637 0.000027 -0.009930 -0.021540 0.035561
#
#
# Mechanical properties :
#
#
# Convention : Reuss Voigt Hill
#
# Bulk Modulus (GPa) = 38.79621 51.59897 45.19759
# Shear Modulus (GPa) = 22.48575 32.67100 27.57837
#
# Velocity S-wave (km/s) = 3.23478 3.89917 3.58241
# Velocity P-wave (km/s) = 5.65735 6.65455 6.17611
#
# Compressibility (1/GPa) = 0.02577571
#
# Stress axis : x y z
#
# Youngs Moduli (GPa) = 65.74257 69.04995 51.40659
#
# Poissons Ratio (x) = 0.12657 0.09571
# Poissons Ratio (y) = 0.12051 0.41075
# Poissons Ratio (z) = 0.12240 0.55173
#
# Static dielectric constant tensor:
#      x y z
#    x 3.913190 -0.186740 -0.017000 
#    y -0.186740 4.008200 0.053990 
#    z -0.017000 0.053990 3.833800 
# 
# 
# High freq. dielectric constant tensor:
#      x y z
#    x 1.848840 -0.020190 0.007850 
#    y -0.020190 1.854290 0.015150 
#    z 0.007850 0.015150 1.834690 
# 
# From -- ./inp_files/343091.got.cif
#   From: 2010.06.25/outbox.cif.g09.slc.cpg/sg2_172_cif.got.tgz:343091.got - 2010.06.27 13:26:56.
