data_PCOD8011514
_publ_section_title
;
Structure prediction by ZEFSAII (Michael W. Deem and Ramdas Pophale) SiO2 
 PCOD8011514
Probable space group: P -1
;
_chemical_formula_sum "Si O2"
_cell_formula_units_Z 12
_cell_length_a 9.532286
_cell_length_b 6.065357
_cell_length_c 13.560610
_cell_angle_alpha 98.826380
_cell_angle_beta 82.813325
_cell_angle_gamma 132.642176
_cell_volume 569.660120
_symmetry_space_group_name_H-M "P -1"
_symmetry_group_IT_number 2
_symmetry_cell_setting 'triclinic'
loop_
_space_group_symop_operation_xyz
x,y,z
-x,-y,-z
loop_
_atom_site_type_symbol
_atom_site_label
_atom_site_fract_x
_atom_site_fract_y
_atom_site_fract_z
Si Si1 0.381057 0.697689 0.051786
Si Si2 0.188798 0.380395 0.714904
Si Si3 0.694393 0.756402 0.126268
Si Si4 0.293901 0.729485 0.540747
Si Si5 0.014195 0.245604 0.384290
Si Si6 0.975323 0.564763 0.815509
O O1 0.512406 0.722521 0.125211
O O2 0.213030 0.653184 0.116993
O O3 0.292579 0.415147 0.970802
O O4 0.500000 0.000000 0.000000
O O5 0.324881 0.375337 0.772540
O O6 0.315624 0.647161 0.642374
O O7 0.075687 0.430298 0.799357
O O8 0.034774 0.064810 0.649745
O O9 0.886778 0.103562 0.127230
O O10 0.187749 0.440692 0.459277
O O11 0.173387 0.829679 0.562146
O O12 0.500000 0.000000 0.500000
O O13 0.081728 0.434764 0.290824
#
# Coordination Sequence:
#
# PCOD8011514 Si02
#       6
#     2   2   2   2   2   2
#     4  11  24  40  62  90 121 158 203 250 299 355
#     4  10  21  40  64  88 121 160 199 246 299 354
#     4  10  23  41  60  88 122 158 204 248 296 354
#     4  10  21  39  62  89 121 155 196 246 297 352
#     4   9  21  39  59  88 120 155 199 242 294 358
#     4  10  22  41  62  86 122 161 198 246 299 354
#
# _framework density 21.065194000000002
#
# number of rings (size 3 to 8) (size 9 to 14) (size 15 to 20)
#    0.000    2.000    0.000    2.000    0.000   14.000 
#    0.000    8.333    0.000    0.000    0.000    0.000 
#    0.000    0.000    0.000    0.000    0.000    0.000 
#
# Total GULP energy -148853.512102 kJ/mol
# GULP energy per Si atom -12404.459342 kJ/mol
# Density = 2.101725 g / cm^3
# Si number density = 21.065194 Si / 1000 Ang^3
#
#
#
# Elastic Constant Matrix: (Units=GPa)
#
#
# Indices 1 2 3 4 5 6 
#
# 1 107.7267 79.5475 68.6348 -5.1784 5.1543 0.2313
# 2 79.5475 115.2783 69.0104 -17.4713 -8.5269 8.0126
# 3 68.6348 69.0104 111.2325 -4.2367 -0.6789 16.0502
# 4 -5.1784 -17.4713 -4.2367 32.3887 2.4362 -5.2560
# 5 5.1543 -8.5269 -0.6789 2.4362 34.5062 1.2576
# 6 0.2313 8.0126 16.0502 -5.2560 1.2576 33.7749
#
#
#
# Elastic Compliance Matrix: (Units=1/GPa)
#
#
# Indices 1 2 3 4 5 6 
#
# 1 0.024549 -0.013749 -0.007722 -0.002888 -0.007253 0.006584
# 2 -0.013749 0.023388 -0.005388 0.008885 0.007165 -0.001778
# 3 -0.007722 -0.005388 0.018106 -0.003086 0.000680 -0.007779
# 4 -0.002888 0.008885 -0.003086 0.035611 -0.000127 0.004925
# 5 -0.007253 0.007165 0.000680 -0.000127 0.031973 -0.003183
# 6 0.006584 -0.001778 -0.007779 0.004925 -0.003183 0.034566
#
#
# Mechanical properties :
#
#
# Convention : Reuss Voigt Hill
#
# Bulk Modulus (GPa) = 81.12888 85.40258 83.26573
# Shear Modulus (GPa) = 22.12195 27.93694 25.02945
#
# Velocity S-wave (km/s) = 3.24414 3.64567 3.45075
# Velocity P-wave (km/s) = 7.25462 7.63880 7.44919
#
# Compressibility (1/GPa) = 0.01232607
#
# Stress axis : x y z
#
# Youngs Moduli (GPa) = 40.73418 42.75737 55.22898
#
# Poissons Ratio (x) = 0.58789 0.42647
# Poissons Ratio (y) = 0.56007 0.29755
# Poissons Ratio (z) = 0.31454 0.23036
#
# Static dielectric constant tensor:
#      x y z
#    x 3.798360 -0.192250 0.098210 
#    y -0.192250 3.712650 0.238620 
#    z 0.098210 0.238620 3.971330 
# 
# 
# High freq. dielectric constant tensor:
#      x y z
#    x 1.818360 -0.014290 0.007210 
#    y -0.014290 1.821930 0.012920 
#    z 0.007210 0.012920 1.838200 
# 
# From -- ./inp_files/3300.got.cif
#   From: 2010.06.25/outbox.cif.g09.slc.cpg/sg2_2_cif.got.tgz:3300.got - 2010.06.27 13:26:56.
