data_PCOD8011410
_publ_section_title
;
Structure prediction by ZEFSAII (Michael W. Deem and Ramdas Pophale) SiO2 
 PCOD8011410
Probable space group: P -1
;
_chemical_formula_sum "Si O2"
_cell_formula_units_Z 14
_cell_length_a 9.781176
_cell_length_b 9.269565
_cell_length_c 17.135630
_cell_angle_alpha 131.210979
_cell_angle_beta 136.128965
_cell_angle_gamma 79.160702
_cell_volume 676.341499
_symmetry_space_group_name_H-M "P -1"
_symmetry_group_IT_number 2
_symmetry_cell_setting 'triclinic'
loop_
_space_group_symop_operation_xyz
x,y,z
-x,-y,-z
loop_
_atom_site_type_symbol
_atom_site_label
_atom_site_fract_x
_atom_site_fract_y
_atom_site_fract_z
Si Si1 0.858863 0.347874 0.213565
Si Si2 0.259292 0.517557 0.334360
Si Si3 0.032749 0.742425 0.616076
Si Si4 0.700948 0.879321 0.728240
Si Si5 0.112444 0.390164 0.055074
Si Si6 0.410355 0.531742 0.740493
Si Si7 0.506604 0.942816 0.820562
O O1 0.923014 0.216982 0.258138
O O2 0.707405 0.439941 0.220673
O O3 0.099527 0.549382 0.343126
O O4 0.717056 0.179013 0.025079
O O5 0.226258 0.274662 0.252131
O O6 0.529362 0.734522 0.533151
O O7 0.170892 0.501649 0.204743
O O8 0.262645 0.932131 0.729572
O O9 0.000000 0.500000 0.500000
O O10 0.789976 0.708075 0.471790
O O11 0.554722 0.937359 0.747513
O O12 0.936213 0.114316 0.881081
O O13 0.360530 0.468974 0.142951
O O14 0.000000 0.500000 0.000000
O O15 0.498220 0.737452 0.789026
#
# Coordination Sequence:
#
# PCOD8011410 Si02
#       7
#     2   2   2   2   2   2   2
#     4  10  18  31  58  91 120 150 192 256 309 351
#     4  11  22  39  67  93 117 157 203 259 308 349
#     4   8  16  27  50  83 121 144 184 243 310 350
#     4  11  22  38  66  92 123 151 208 259 303 352
#     4  12  26  43  60  86 129 169 202 243 301 370
#     4  10  19  35  53  86 123 155 197 244 304 359
#     4  10  16  32  58  94 119 148 193 259 310 349
#
# _framework density 20.699601000000001
#
# number of rings (size 3 to 8) (size 9 to 14) (size 15 to 20)
#    0.000    2.000    2.857    5.571    2.000    0.571 
#    0.000    0.714    0.000    1.714    0.000    0.000 
#    0.000    0.000    0.000    0.000    0.000    0.000 
#
# Total GULP energy -173490.170398 kJ/mol
# GULP energy per Si atom -12392.155028 kJ/mol
# Density = 2.065249 g / cm^3
# Si number density = 20.699601 Si / 1000 Ang^3
#
#
#
# Elastic Constant Matrix: (Units=GPa)
#
#
# Indices 1 2 3 4 5 6 
#
# 1 123.5113 37.8357 36.8483 -18.3656 8.1147 -11.0622
# 2 37.8357 84.4548 42.2933 -26.6067 2.6293 -11.2447
# 3 36.8483 42.2933 112.2953 -26.8399 9.8044 -4.5454
# 4 -18.3656 -26.6067 -26.8399 20.6227 -4.8049 3.9071
# 5 8.1147 2.6293 9.8044 -4.8049 31.4452 -12.3999
# 6 -11.0622 -11.2447 -4.5454 3.9071 -12.3999 21.8269
#
#
#
# Elastic Compliance Matrix: (Units=1/GPa)
#
#
# Indices 1 2 3 4 5 6 
#
# 1 0.010018 -0.002278 -0.001456 0.003486 -0.000302 0.002805
# 2 -0.002278 0.022615 -0.002242 0.024005 0.006861 0.009631
# 3 -0.001456 -0.002242 0.013543 0.013359 -0.002829 -0.003071
# 4 0.003486 0.024005 0.013359 0.101471 0.010233 0.004565
# 5 -0.000302 0.006861 -0.002829 0.010233 0.043984 0.025948
# 6 0.002805 0.009631 -0.003071 0.004565 0.025948 0.065483
#
#
# Mechanical properties :
#
#
# Convention : Reuss Voigt Hill
#
# Bulk Modulus (GPa) = 29.21897 61.57954 45.39925
# Shear Modulus (GPa) = 17.82700 28.33122 23.07911
#
# Velocity S-wave (km/s) = 2.93785 3.70359 3.34272
# Velocity P-wave (km/s) = 5.06501 6.93559 6.07276
#
# Compressibility (1/GPa) = 0.03422434
#
# Stress axis : x y z
#
# Youngs Moduli (GPa) = 99.81971 44.21861 73.83872
#
# Poissons Ratio (x) = 0.10072 0.10754
# Poissons Ratio (y) = 0.22736 0.16552
# Poissons Ratio (z) = 0.14538 0.09912
#
# Static dielectric constant tensor:
#      x y z
#    x 4.223850 -0.169630 0.375810 
#    y -0.169630 3.222900 -0.573530 
#    z 0.375810 -0.573530 4.246100 
# 
# 
# High freq. dielectric constant tensor:
#      x y z
#    x 1.831300 -0.003240 0.012900 
#    y -0.003240 1.724730 -0.042090 
#    z 0.012900 -0.042090 1.823570 
# 
# From -- ./inp_files/554813.got.cif
#   From: 2010.06.25/outbox.cif.g09.slc.cpg/sg2_278_cif.got.tgz:554813.got - 2010.06.27 13:26:56.
