data_PCOD8011004
_publ_section_title
;
Structure prediction by ZEFSAII (Michael W. Deem and Ramdas Pophale) SiO2 
 PCOD8011004
Probable space group: P -1
;
_chemical_formula_sum "Si O2"
_cell_formula_units_Z 16
_cell_length_a 9.787264
_cell_length_b 8.755032
_cell_length_c 12.086392
_cell_angle_alpha 89.284235
_cell_angle_beta 49.857007
_cell_angle_gamma 77.867694
_cell_volume 763.457309
_symmetry_space_group_name_H-M "P -1"
_symmetry_group_IT_number 2
_symmetry_cell_setting 'triclinic'
loop_
_space_group_symop_operation_xyz
x,y,z
-x,-y,-z
loop_
_atom_site_type_symbol
_atom_site_label
_atom_site_fract_x
_atom_site_fract_y
_atom_site_fract_z
Si Si1 0.843962 0.418463 0.619767
Si Si2 0.776598 0.519808 0.294445
Si Si3 0.576240 0.397590 0.198748
Si Si4 0.878935 0.364207 0.860069
Si Si5 0.524156 0.856584 0.405518
Si Si6 0.024257 0.000246 0.160349
Si Si7 0.155962 0.768330 0.575072
Si Si8 0.700929 0.046410 0.163956
O O1 0.633773 0.500742 0.692770
O O2 0.840057 0.403475 0.752307
O O3 0.900470 0.254094 0.522209
O O4 0.000000 0.500000 0.500000
O O5 0.693298 0.455570 0.232004
O O6 0.646446 0.692411 0.394711
O O7 0.784772 0.402440 0.393949
O O8 0.983059 0.538596 0.162939
O O9 0.558889 0.219323 0.228058
O O10 0.685927 0.408740 0.027270
O O11 0.980503 0.178529 0.813337
O O12 0.323003 0.846837 0.480561
O O13 0.500000 0.000000 0.500000
O O14 0.612093 0.906395 0.247522
O O15 0.211478 0.007935 0.000932
O O16 0.011796 0.107334 0.275666
O O17 0.851177 0.077515 0.171801
#
# Coordination Sequence:
#
# PCOD8011004 Si02
#       8
#     2   2   2   2   2   2   2   2
#     4  12  27  45  64  95 139 184 218 269 332 400
#     4  12  22  39  69 103 130 165 230 281 333 381
#     4  11  24  43  71  99 130 172 229 280 325 394
#     4  11  24  44  68  96 137 180 215 270 339 399
#     4  12  22  36  63 100 135 169 208 278 336 389
#     4  10  21  41  62  96 131 172 216 270 330 397
#     4  12  24  40  65  96 133 173 221 272 324 398
#     4  10  21  38  65  96 135 165 212 278 341 380
#
# _framework density 20.957294999999998
#
# number of rings (size 3 to 8) (size 9 to 14) (size 15 to 20)
#    0.000    0.750    6.250    1.125    1.750    2.500 
#    0.000    0.000    0.000    3.000    0.000    0.000 
#    0.000    0.000    0.000    0.000    0.000    0.000 
#
# Total GULP energy -198358.118736 kJ/mol
# GULP energy per Si atom -12397.382421 kJ/mol
# Density = 2.090959 g / cm^3
# Si number density = 20.957295 Si / 1000 Ang^3
#
#
#
# Elastic Constant Matrix: (Units=GPa)
#
#
# Indices 1 2 3 4 5 6 
#
# 1 85.1579 22.6320 42.5699 1.0835 1.9742 16.4019
# 2 22.6320 91.6659 48.6757 -6.6111 -3.8752 18.0285
# 3 42.5699 48.6757 108.5450 7.0268 1.8087 11.4674
# 4 1.0835 -6.6111 7.0268 36.9706 3.4560 3.5629
# 5 1.9742 -3.8752 1.8087 3.4560 27.9102 -2.8499
# 6 16.4019 18.0285 11.4674 3.5629 -2.8499 28.4890
#
#
#
# Elastic Compliance Matrix: (Units=1/GPa)
#
#
# Indices 1 2 3 4 5 6 
#
# 1 0.015974 0.000728 -0.005862 0.001669 -0.001639 -0.007671
# 2 0.000728 0.016649 -0.007193 0.005034 0.001228 -0.008566
# 3 -0.005862 -0.007193 0.014759 -0.004079 -0.000789 0.002417
# 4 0.001669 0.005034 -0.004079 0.029634 -0.003494 -0.006560
# 5 -0.001639 0.001228 -0.000789 -0.003494 0.037072 0.004629
# 6 -0.007671 -0.008566 0.002417 -0.006560 0.004629 0.045249
#
#
# Mechanical properties :
#
#
# Convention : Reuss Voigt Hill
#
# Bulk Modulus (GPa) = 43.99641 57.01381 50.50511
# Shear Modulus (GPa) = 26.10085 30.10670 28.10378
#
# Velocity S-wave (km/s) = 3.53289 3.79433 3.66594
# Velocity P-wave (km/s) = 6.13846 6.81614 6.48616
#
# Compressibility (1/GPa) = 0.02272913
#
# Stress axis : x y z
#
# Youngs Moduli (GPa) = 62.60305 60.06524 67.75511
#
# Poissons Ratio (x) = -0.04375 0.39716
# Poissons Ratio (y) = -0.04560 0.48735
# Poissons Ratio (z) = 0.36696 0.43204
#
# Static dielectric constant tensor:
#      x y z
#    x 3.549960 -0.050350 0.037090 
#    y -0.050350 3.835420 -0.129200 
#    z 0.037090 -0.129200 4.263930 
# 
# 
# High freq. dielectric constant tensor:
#      x y z
#    x 1.793500 0.010640 -0.000390 
#    y 0.010640 1.827760 -0.001440 
#    z -0.000390 -0.001440 1.842860 
# 
# From -- ./inp_files/238699.got.cif
#   From: 2010.06.25/outbox.cif.g09.slc.cpg/sg2_120_cif.got.tgz:238699.got - 2010.06.27 13:26:56.
