data_PCOD8011337
_publ_section_title
;
Structure prediction by ZEFSAII (Michael W. Deem and Ramdas Pophale) SiO2 
 PCOD8011337
Probable space group: P -1
;
_chemical_formula_sum "Si O2"
_cell_formula_units_Z 16
_cell_length_a 23.304222
_cell_length_b 9.326712
_cell_length_c 14.257428
_cell_angle_alpha 49.357793
_cell_angle_beta 33.217336
_cell_angle_gamma 29.396599
_cell_volume 797.874533
_symmetry_space_group_name_H-M "P -1"
_symmetry_group_IT_number 2
_symmetry_cell_setting 'triclinic'
loop_
_space_group_symop_operation_xyz
x,y,z
-x,-y,-z
loop_
_atom_site_type_symbol
_atom_site_label
_atom_site_fract_x
_atom_site_fract_y
_atom_site_fract_z
Si Si1 0.396258 0.017051 0.063480
Si Si2 0.083574 0.848684 0.741540
Si Si3 0.946027 0.423710 0.384160
Si Si4 0.713438 0.714066 0.181804
Si Si5 0.082960 0.619309 0.138675
Si Si6 0.235749 0.854644 0.359202
Si Si7 0.078920 0.250769 0.073735
Si Si8 0.600183 0.718570 0.725030
O O1 0.233591 0.373241 0.110847
O O2 0.337260 0.897701 0.236097
O O3 0.500000 0.000000 0.000000
O O4 0.498448 0.814708 0.917000
O O5 0.240475 0.485729 0.708092
O O6 0.145304 0.901911 0.554427
O O7 0.918462 0.961800 0.884825
O O8 0.022468 0.047276 0.831671
O O9 0.951459 0.632601 0.319527
O O10 0.961919 0.388836 0.265627
O O11 0.765855 0.594013 0.584951
O O12 0.095597 0.097023 0.368969
O O13 0.517135 0.977158 0.309045
O O14 0.842412 0.463762 0.031538
O O15 0.743914 0.898408 0.078711
O O16 0.360963 0.525937 0.281431
O O17 0.000000 0.500000 0.000000
#
# Coordination Sequence:
#
# PCOD8011337 Si02
#       8
#     2   2   2   2   2   2   2   2
#     4  10  24  39  59  87 120 151 191 240 299 341
#     4  11  21  36  64  88 115 150 205 237 279 351
#     4  10  21  39  60  87 119 154 193 233 294 348
#     4   9  21  41  59  85 118 155 194 240 293 334
#     4   9  21  38  62  83 116 159 193 236 287 347
#     4  11  24  38  60  91 114 158 191 237 295 350
#     4   9  19  38  60  87 112 153 198 233 279 343
#     4  11  22  40  62  82 122 155 190 244 293 339
#
# _framework density 20.053279
#
# number of rings (size 3 to 8) (size 9 to 14) (size 15 to 20)
#    0.000    2.000    1.250    1.875    3.500    2.500 
#    0.000    0.625    2.750    0.000    0.000    0.000 
#    0.000    0.000    0.000    0.000    0.000    0.000 
#
# Total GULP energy -198304.886453 kJ/mol
# GULP energy per Si atom -12394.055403 kJ/mol
# Density = 2.000764 g / cm^3
# Si number density = 20.053279 Si / 1000 Ang^3
#
#
#
# Elastic Constant Matrix: (Units=GPa)
#
#
# Indices 1 2 3 4 5 6 
#
# 1 105.3475 43.5990 32.3319 -8.6132 -12.6629 6.4849
# 2 43.5990 91.0928 42.3382 -4.4241 -5.4137 5.8689
# 3 32.3319 42.3382 77.6509 -11.9646 -10.4719 -1.3765
# 4 -8.6132 -4.4241 -11.9646 29.3225 -1.2740 1.0354
# 5 -12.6629 -5.4137 -10.4719 -1.2740 35.1898 -5.7695
# 6 6.4849 5.8689 -1.3765 1.0354 -5.7695 28.6109
#
#
#
# Elastic Compliance Matrix: (Units=1/GPa)
#
#
# Indices 1 2 3 4 5 6 
#
# 1 0.012732 -0.004809 -0.001910 0.002422 0.003123 -0.001449
# 2 -0.004809 0.016914 -0.007867 -0.002051 -0.002052 -0.003098
# 3 -0.001910 -0.007867 0.019654 0.006348 0.004792 0.003729
# 4 0.002422 -0.002051 0.006348 0.037272 0.003725 -0.000420
# 5 0.003123 -0.002052 0.004792 0.003725 0.031807 0.006223
# 6 -0.001449 -0.003098 0.003729 -0.000420 0.006223 0.037365
#
#
# Mechanical properties :
#
#
# Convention : Reuss Voigt Hill
#
# Bulk Modulus (GPa) = 49.68810 56.73660 53.21235
# Shear Modulus (GPa) = 26.09251 29.01278 27.55265
#
# Velocity S-wave (km/s) = 3.61107 3.80779 3.71073
# Velocity P-wave (km/s) = 6.49756 6.90556 6.70466
#
# Compressibility (1/GPa) = 0.02012554
#
# Stress axis : x y z
#
# Youngs Moduli (GPa) = 78.54471 59.12172 50.88114
#
# Poissons Ratio (x) = 0.28432 0.09720
# Poissons Ratio (y) = 0.37773 0.40030
# Poissons Ratio (z) = 0.15005 0.46514
#
# Static dielectric constant tensor:
#      x y z
#    x 3.915200 0.046410 -0.185290 
#    y 0.046410 3.575620 -0.188610 
#    z -0.185290 -0.188610 3.635100 
# 
# 
# High freq. dielectric constant tensor:
#      x y z
#    x 1.796310 0.000700 -0.003110 
#    y 0.000700 1.773650 -0.015510 
#    z -0.003110 -0.015510 1.775780 
# 
# From -- ./inp_files/182522.got.cif
#   From: 2010.06.25/outbox.cif.g09.slc.cpg/sg2_92_cif.got.tgz:182522.got - 2010.06.27 13:26:56.
