data_PCOD8011674
_publ_section_title
;
Structure prediction by ZEFSAII (Michael W. Deem and Ramdas Pophale) SiO2 
 PCOD8011674
Probable space group: P -1
;
_chemical_formula_sum "Si O2"
_cell_formula_units_Z 16
_cell_length_a 15.053245
_cell_length_b 6.727397
_cell_length_c 16.900311
_cell_angle_alpha 73.360271
_cell_angle_beta 150.557547
_cell_angle_gamma 93.961671
_cell_volume 744.654937
_symmetry_space_group_name_H-M "P -1"
_symmetry_group_IT_number 2
_symmetry_cell_setting 'triclinic'
loop_
_space_group_symop_operation_xyz
x,y,z
-x,-y,-z
loop_
_atom_site_type_symbol
_atom_site_label
_atom_site_fract_x
_atom_site_fract_y
_atom_site_fract_z
Si Si1 0.155108 0.790771 0.047698
Si Si2 0.271226 0.991064 0.257193
Si Si3 0.295714 0.683005 0.843365
Si Si4 0.376045 0.797570 0.060704
Si Si5 0.027933 0.471592 0.432127
Si Si6 0.685472 0.335494 0.398992
Si Si7 0.470314 0.326593 0.386575
Si Si8 0.335823 0.989644 0.708068
O O1 0.200956 0.968554 0.117259
O O2 0.222685 0.804676 0.009330
O O3 0.271720 0.549537 0.207617
O O4 0.920078 0.861096 0.855813
O O5 0.402163 0.745913 0.425034
O O6 0.413343 0.120960 0.341451
O O7 0.244538 0.876293 0.715583
O O8 0.163163 0.535003 0.757277
O O9 0.500000 0.500000 0.000000
O O10 0.275111 0.812461 0.895633
O O11 0.554733 0.558014 0.224696
O O12 0.452040 0.002730 0.106007
O O13 0.090839 0.674206 0.427146
O O14 0.000000 0.500000 0.500000
O O15 0.195640 0.243489 0.560765
O O16 0.620361 0.352162 0.436731
O O17 0.659422 0.127083 0.359350
#
# Coordination Sequence:
#
# PCOD8011674 Si02
#       8
#     2   2   2   2   2   2   2   2
#     4  10  21  40  61  89 127 156 198 256 305 358
#     4  10  21  39  63  92 117 161 206 239 316 374
#     4  12  22  40  59  87 120 159 203 246 298 356
#     4  10  22  38  59  91 120 156 201 249 297 360
#     4  11  23  40  59  85 118 162 205 246 297 360
#     4  10  21  40  61  87 121 158 201 243 303 356
#     4  10  21  39  64  90 122 159 199 255 301 366
#     4  11  21  40  62  81 120 166 194 246 304 349
#
# _framework density 21.486463000000001
#
# number of rings (size 3 to 8) (size 9 to 14) (size 15 to 20)
#    0.000    1.500    2.500    3.000    0.000    1.000 
#    2.250    6.250    0.000    0.000    0.000    0.000 
#    0.000    0.000    0.000    0.000    0.000    0.000 
#
# Total GULP energy -198324.000952 kJ/mol
# GULP energy per Si atom -12395.250060 kJ/mol
# Density = 2.143756 g / cm^3
# Si number density = 21.486463 Si / 1000 Ang^3
#
#
#
# Elastic Constant Matrix: (Units=GPa)
#
#
# Indices 1 2 3 4 5 6 
#
# 1 63.2348 10.2362 14.7586 4.2778 6.8666 1.0310
# 2 10.2362 86.1626 17.7387 18.8980 8.6991 -0.9099
# 3 14.7586 17.7387 74.8659 9.0134 11.7619 6.4644
# 4 4.2778 18.8980 9.0134 44.2711 -0.0263 2.9746
# 5 6.8666 8.6991 11.7619 -0.0263 28.8844 3.3965
# 6 1.0310 -0.9099 6.4644 2.9746 3.3965 33.5180
#
#
#
# Elastic Compliance Matrix: (Units=1/GPa)
#
#
# Indices 1 2 3 4 5 6 
#
# 1 0.016925 -0.001052 -0.002610 -0.000676 -0.002678 0.000286
# 2 -0.001052 0.013682 -0.002008 -0.005440 -0.003246 0.001603
# 3 -0.002610 -0.002008 0.015535 -0.001901 -0.004831 -0.002312
# 4 -0.000676 -0.005440 -0.001901 0.025520 0.002869 -0.002316
# 5 -0.002678 -0.003246 -0.004831 0.002869 0.038586 -0.003239
# 6 0.000286 0.001603 -0.002312 -0.002316 -0.003239 0.030849
#
#
# Mechanical properties :
#
#
# Convention : Reuss Voigt Hill
#
# Bulk Modulus (GPa) = 28.73298 34.41445 31.57371
# Shear Modulus (GPa) = 30.48092 33.43670 31.95881
#
# Velocity S-wave (km/s) = 3.77053 3.94912 3.86086
# Velocity P-wave (km/s) = 5.68837 6.07006 5.88231
#
# Compressibility (1/GPa) = 0.03480321
#
# Stress axis : x y z
#
# Youngs Moduli (GPa) = 59.08290 73.08839 64.37113
#
# Poissons Ratio (x) = 0.07687 0.16800
# Poissons Ratio (y) = 0.06214 0.12925
# Poissons Ratio (z) = 0.15420 0.14676
#
# Static dielectric constant tensor:
#      x y z
#    x 3.740430 0.434130 0.399600 
#    y 0.434130 5.094020 0.506430 
#    z 0.399600 0.506430 3.965010 
# 
# 
# High freq. dielectric constant tensor:
#      x y z
#    x 1.840030 -0.001530 0.010380 
#    y -0.001530 1.851540 0.009290 
#    z 0.010380 0.009290 1.834830 
# 
# From -- ./inp_files/48513.got.cif
#   From: 2010.06.25/outbox.cif.g09.slc.cpg/sg2_25_cif.got.tgz:48513.got - 2010.06.27 13:26:56.
