data_PCOD8011299
_publ_section_title
;
Structure prediction by ZEFSAII (Michael W. Deem and Ramdas Pophale) SiO2 
 PCOD8011299
Probable space group: P -1
;
_chemical_formula_sum "Si O2"
_cell_formula_units_Z 16
_cell_length_a 12.472587
_cell_length_b 11.137801
_cell_length_c 6.266728
_cell_angle_alpha 71.676765
_cell_angle_beta 99.877932
_cell_angle_gamma 109.867735
_cell_volume 775.184594
_symmetry_space_group_name_H-M "P -1"
_symmetry_group_IT_number 2
_symmetry_cell_setting 'triclinic'
loop_
_space_group_symop_operation_xyz
x,y,z
-x,-y,-z
loop_
_atom_site_type_symbol
_atom_site_label
_atom_site_fract_x
_atom_site_fract_y
_atom_site_fract_z
Si Si1 0.665814 0.664106 0.482091
Si Si2 0.348203 0.060240 0.565224
Si Si3 0.528003 0.424729 0.854074
Si Si4 0.402078 0.896249 0.311666
Si Si5 0.668691 0.322002 0.255818
Si Si6 0.958363 0.399934 0.845714
Si Si7 0.164403 0.450447 0.580987
Si Si8 0.226334 0.828865 0.913248
O O1 0.670758 0.796093 0.543803
O O2 0.613226 0.530176 0.670835
O O3 0.585761 0.663365 0.252217
O O4 0.793642 0.664030 0.456328
O O5 0.463183 0.049980 0.731834
O O6 0.353889 0.002734 0.361078
O O7 0.242053 0.970992 0.724935
O O8 0.500000 0.500000 0.000000
O O9 0.588473 0.322844 0.026133
O O10 0.402309 0.772755 0.532397
O O11 0.324983 0.844329 0.111362
O O12 0.725562 0.466992 0.292201
O O13 0.766525 0.266989 0.226815
O O14 0.869315 0.453060 0.652500
O O15 0.060584 0.385910 0.741205
O O16 0.896928 0.247189 0.984092
O O17 0.000000 0.500000 0.000000
#
# Coordination Sequence:
#
# PCOD8011299 Si02
#       8
#     2   2   2   2   2   2   2   2
#     4  11  24  39  55  92 130 166 198 249 303 374
#     4  10  23  37  58  88 125 165 206 236 299 374
#     4  11  22  35  60  88 129 164 198 239 309 370
#     4  10  21  39  59  88 124 163 203 252 294 363
#     4  11  20  35  61  94 118 156 198 252 308 365
#     4  11  23  41  65  93 115 154 210 268 310 352
#     4  11  23  38  62  91 124 151 199 262 315 357
#     4  11  21  38  64  84 120 159 206 257 301 354
#
# _framework density 20.640246000000001
#
# number of rings (size 3 to 8) (size 9 to 14) (size 15 to 20)
#    0.000    1.250    3.750    2.625    1.750    3.000 
#    0.000    0.625    0.000    1.500    0.000    0.000 
#    0.000    0.000    0.000    0.000    0.000    0.000 
#
# Total GULP energy -198332.029157 kJ/mol
# GULP energy per Si atom -12395.751822 kJ/mol
# Density = 2.059327 g / cm^3
# Si number density = 20.640246 Si / 1000 Ang^3
#
#
#
# Elastic Constant Matrix: (Units=GPa)
#
#
# Indices 1 2 3 4 5 6 
#
# 1 98.8926 33.2568 19.0776 -7.2864 -18.0324 -7.5555
# 2 33.2568 83.2838 10.6600 -4.7393 -10.9406 -6.9905
# 3 19.0776 10.6600 61.6489 -1.6904 -3.2930 2.5925
# 4 -7.2864 -4.7393 -1.6904 31.1996 2.4893 -1.0876
# 5 -18.0324 -10.9406 -3.2930 2.4893 29.6512 -1.2142
# 6 -7.5555 -6.9905 2.5925 -1.0876 -1.2142 34.1000
#
#
#
# Elastic Compliance Matrix: (Units=1/GPa)
#
#
# Indices 1 2 3 4 5 6 
#
# 1 0.013547 -0.003805 -0.003253 0.001994 0.006419 0.002761
# 2 -0.003805 0.014310 -0.001214 0.001074 0.002836 0.002318
# 3 -0.003253 -0.001214 0.017503 -0.000031 -0.000575 -0.002322
# 4 0.001994 0.001074 -0.000031 0.032823 -0.001082 0.001673
# 5 0.006419 0.002836 -0.000575 -0.001082 0.038842 0.003396
# 6 0.002761 0.002318 -0.002322 0.001673 0.003396 0.030763
#
#
# Mechanical properties :
#
#
# Convention : Reuss Voigt Hill
#
# Bulk Modulus (GPa) = 34.70020 41.09043 37.89531
# Shear Modulus (GPa) = 28.74579 31.04554 29.89566
#
# Velocity S-wave (km/s) = 3.73595 3.88251 3.80993
# Velocity P-wave (km/s) = 5.95467 6.32848 6.14442
#
# Compressibility (1/GPa) = 0.02881828
#
# Stress axis : x y z
#
# Youngs Moduli (GPa) = 73.81453 69.88084 57.13149
#
# Poissons Ratio (x) = 0.26589 0.18585
# Poissons Ratio (y) = 0.28086 0.06933
# Poissons Ratio (z) = 0.24012 0.08480
#
# Static dielectric constant tensor:
#      x y z
#    x 3.559640 0.164720 -0.338160 
#    y 0.164720 3.697380 0.159410 
#    z -0.338160 0.159410 3.583170 
# 
# 
# High freq. dielectric constant tensor:
#      x y z
#    x 1.785200 0.001730 -0.020960 
#    y 0.001730 1.800580 0.007900 
#    z -0.020960 0.007900 1.814530 
# 
# From -- ./inp_files/69273.got.cif
#   From: 2010.06.25/outbox.cif.g09.slc.cpg/sg2_35_cif.got.tgz:69273.got - 2010.06.27 13:26:56.
