data_PCOD8011691
_publ_section_title
;
Structure prediction by ZEFSAII (Michael W. Deem and Ramdas Pophale) SiO2 
 PCOD8011691
Probable space group: P -1
;
_chemical_formula_sum "Si O2"
_cell_formula_units_Z 14
_cell_length_a 8.693172
_cell_length_b 12.203338
_cell_length_c 13.877594
_cell_angle_alpha 150.535895
_cell_angle_beta 130.631172
_cell_angle_gamma 62.413967
_cell_volume 527.859942
_symmetry_space_group_name_H-M "P -1"
_symmetry_group_IT_number 2
_symmetry_cell_setting 'triclinic'
loop_
_space_group_symop_operation_xyz
x,y,z
-x,-y,-z
loop_
_atom_site_type_symbol
_atom_site_label
_atom_site_fract_x
_atom_site_fract_y
_atom_site_fract_z
Si Si1 0.197856 0.184313 0.613726
Si Si2 0.720830 0.968740 0.269026
Si Si3 0.361623 0.585184 0.375994
Si Si4 0.582887 0.241371 0.167862
Si Si5 0.665012 0.848810 0.563242
Si Si6 0.071726 0.632462 0.897080
Si Si7 0.007853 0.242633 0.239708
O O1 0.310707 0.100700 0.685092
O O2 0.337256 0.175810 0.570764
O O3 0.193634 0.446065 0.831944
O O4 0.963631 0.013320 0.371388
O O5 0.648203 0.202760 0.394220
O O6 0.569627 0.758695 0.986791
O O7 0.537599 0.450821 0.374934
O O8 0.427327 0.727177 0.410040
O O9 0.128497 0.401116 0.137742
O O10 0.819105 0.266181 0.249828
O O11 0.500000 0.000000 0.000000
O O12 0.798668 0.698210 0.560394
O O13 0.760856 0.117284 0.836315
O O14 0.978006 0.583583 0.711812
O O15 0.000000 0.000000 0.000000
#
# Coordination Sequence:
#
# PCOD8011691 Si02
#       7
#     2   2   2   2   2   2   2
#     4  10  22  41  67  92 128 178 214 262 328 379
#     4  10  23  43  64  96 132 167 219 267 317 389
#     4  11  25  41  67  98 127 172 215 262 327 380
#     4  12  24  41  67  99 130 167 216 267 322 385
#     4  11  23  42  65  96 132 167 217 269 317 387
#     4  10  22  42  64  94 134 172 213 266 322 380
#     4  10  21  39  63  92 129 169 208 262 324 374
#
# _framework density 26.522186999999999
#
# number of rings (size 3 to 8) (size 9 to 14) (size 15 to 20)
#    0.000    1.429    0.000    6.000    0.000    7.429 
#    0.000    9.286    0.000    0.000    0.000    0.000 
#    0.000    0.000    0.000    0.000    0.000    0.000 
#
# Total GULP energy -173478.599600 kJ/mol
# GULP energy per Si atom -12391.328543 kJ/mol
# Density = 2.646182 g / cm^3
# Si number density = 26.522187 Si / 1000 Ang^3
#
#
#
# Elastic Constant Matrix: (Units=GPa)
#
#
# Indices 1 2 3 4 5 6 
#
# 1 128.4443 11.5353 26.4909 15.7181 16.8706 13.6735
# 2 11.5353 98.6615 22.7157 14.3827 3.5274 0.3828
# 3 26.4909 22.7157 65.0079 13.1979 16.5676 -0.4436
# 4 15.7181 14.3827 13.1979 43.3275 2.2693 -5.2054
# 5 16.8706 3.5274 16.5676 2.2693 41.0706 21.8131
# 6 13.6735 0.3828 -0.4436 -5.2054 21.8131 43.7788
#
#
#
# Elastic Compliance Matrix: (Units=1/GPa)
#
#
# Indices 1 2 3 4 5 6 
#
# 1 0.009141 0.000054 -0.002967 -0.002707 -0.000965 -0.002727
# 2 0.000054 0.011367 -0.003745 -0.002854 0.001268 -0.001125
# 3 -0.002967 -0.003745 0.021028 -0.002884 -0.009823 0.005724
# 4 -0.002707 -0.002854 -0.002884 0.026531 -0.001452 0.004719
# 5 -0.000965 0.001268 -0.009823 -0.001452 0.038986 -0.019407
# 6 -0.002727 -0.001125 0.005724 0.004719 -0.019407 0.033992
#
#
# Mechanical properties :
#
#
# Convention : Reuss Voigt Hill
#
# Bulk Modulus (GPa) = 35.43613 45.95528 40.69570
# Shear Modulus (GPa) = 30.53102 41.06017 35.79559
#
# Velocity S-wave (km/s) = 3.39654 3.93891 3.67774
# Velocity P-wave (km/s) = 5.36395 6.16859 5.78028
#
# Compressibility (1/GPa) = 0.02821979
#
# Stress axis : x y z
#
# Youngs Moduli (GPa) = 109.39939 87.97639 47.55457
#
# Poissons Ratio (x) = -0.00476 0.14109
# Poissons Ratio (y) = -0.00592 0.17811
# Poissons Ratio (z) = 0.32458 0.32950
#
# Static dielectric constant tensor:
#      x y z
#    x 4.977650 0.124380 -0.036740 
#    y 0.124380 5.025890 0.164540 
#    z -0.036740 0.164540 5.167390 
# 
# 
# High freq. dielectric constant tensor:
#      x y z
#    x 2.080530 0.000110 0.004670 
#    y 0.000110 2.062130 0.031060 
#    z 0.004670 0.031060 2.056760 
# 
# From -- ./inp_files/416778.got.cif
#   From: 2010.06.25/outbox.cif.g09.slc.cpg/sg2_209_cif.got.tgz:416778.got - 2010.06.27 13:26:56.
