data_PCOD8011063
_publ_section_title
;
Structure prediction by ZEFSAII (Michael W. Deem and Ramdas Pophale) SiO2 
 PCOD8011063
Probable space group: P -1
;
_chemical_formula_sum "Si O2"
_cell_formula_units_Z 14
_cell_length_a 21.191556
_cell_length_b 9.696196
_cell_length_c 9.263140
_cell_angle_alpha 135.218965
_cell_angle_beta 31.078972
_cell_angle_gamma 123.328951
_cell_volume 683.103881
_symmetry_space_group_name_H-M "P -1"
_symmetry_group_IT_number 2
_symmetry_cell_setting 'triclinic'
loop_
_space_group_symop_operation_xyz
x,y,z
-x,-y,-z
loop_
_atom_site_type_symbol
_atom_site_label
_atom_site_fract_x
_atom_site_fract_y
_atom_site_fract_z
Si Si1 0.948526 0.996205 0.758791
Si Si2 0.712170 0.814997 0.135660
Si Si3 0.319374 0.216433 0.147538
Si Si4 0.791662 0.160156 0.814401
Si Si5 0.776107 0.362117 0.294486
Si Si6 0.629022 0.434408 0.118835
Si Si7 0.580713 0.229103 0.766151
O O1 0.876290 0.220194 0.093356
O O2 0.000000 0.000000 0.500000
O O3 0.067212 0.927471 0.577953
O O4 0.854773 0.838397 0.844989
O O5 0.703900 0.618590 0.097373
O O6 0.640388 0.999944 0.503053
O O7 0.643862 0.801969 0.106325
O O8 0.213358 0.408662 0.525865
O O9 0.270852 0.020028 0.142462
O O10 0.435557 0.245029 0.037835
O O11 0.793663 0.316516 0.056730
O O12 0.716514 0.261955 0.903365
O O13 0.640570 0.321103 0.578656
O O14 0.500000 0.500000 0.500000
O O15 0.602681 0.354894 0.955472
#
# Coordination Sequence:
#
# PCOD8011063 Si02
#       7
#     2   2   2   2   2   2   2
#     4   9  19  43  64  94 125 156 218 266 292 372
#     4  11  23  41  67  90 128 171 204 259 317 360
#     4  12  21  36  69  93 118 171 208 252 315 360
#     4  11  24  42  62  95 130 161 207 265 308 365
#     4  10  21  38  66  94 121 162 219 257 300 376
#     4  12  27  42  62  95 135 163 201 261 323 371
#     4  11  23  39  64  95 126 160 217 254 306 388
#
# _framework density 20.494686999999999
#
# number of rings (size 3 to 8) (size 9 to 14) (size 15 to 20)
#    0.000    1.143    5.714    2.571    2.000    4.571 
#    0.000    2.857    0.000    0.000    0.000    0.000 
#    0.000    0.000    0.000    0.000    0.000    0.000 
#
# Total GULP energy -173600.595564 kJ/mol
# GULP energy per Si atom -12400.042540 kJ/mol
# Density = 2.044804 g / cm^3
# Si number density = 20.494687 Si / 1000 Ang^3
#
#
#
# Elastic Constant Matrix: (Units=GPa)
#
#
# Indices 1 2 3 4 5 6 
#
# 1 51.3743 4.0646 24.3507 -3.1298 -18.2266 -5.2361
# 2 4.0646 111.5560 38.5220 8.3192 -2.4402 -10.2321
# 3 24.3507 38.5220 97.8927 0.5231 -15.4242 3.4132
# 4 -3.1298 8.3192 0.5231 31.8285 4.7680 2.7902
# 5 -18.2266 -2.4402 -15.4242 4.7680 35.8708 4.7256
# 6 -5.2361 -10.2321 3.4132 2.7902 4.7256 16.7224
#
#
#
# Elastic Compliance Matrix: (Units=1/GPa)
#
#
# Indices 1 2 3 4 5 6 
#
# 1 0.026560 0.002118 -0.006156 -0.000036 0.009935 0.008068
# 2 0.002118 0.012081 -0.005857 -0.003528 -0.001504 0.010264
# 3 -0.006156 -0.005857 0.015041 0.000929 0.004122 -0.009901
# 4 -0.000036 -0.003528 0.000929 0.033441 -0.003384 -0.006983
# 5 0.009935 -0.001504 0.004122 -0.003384 0.036139 -0.008299
# 6 0.008068 0.010264 -0.009901 -0.006983 -0.008299 0.074138
#
#
# Mechanical properties :
#
#
# Convention : Reuss Voigt Hill
#
# Bulk Modulus (GPa) = 29.50512 43.85527 36.68019
# Shear Modulus (GPa) = 21.88310 29.81004 25.84657
#
# Velocity S-wave (km/s) = 3.27118 3.81796 3.55510
# Velocity P-wave (km/s) = 5.35679 6.39379 5.89813
#
# Compressibility (1/GPa) = 0.03389242
#
# Stress axis : x y z
#
# Youngs Moduli (GPa) = 37.65065 82.77420 66.48472
#
# Poissons Ratio (x) = -0.17532 0.40928
# Poissons Ratio (y) = -0.07974 0.38939
# Poissons Ratio (z) = 0.23178 0.48480
#
# Static dielectric constant tensor:
#      x y z
#    x 3.700000 0.052520 -0.247830 
#    y 0.052520 3.816450 0.173870 
#    z -0.247830 0.173870 4.209960 
# 
# 
# High freq. dielectric constant tensor:
#      x y z
#    x 1.778010 0.006310 -0.008650 
#    y 0.006310 1.808790 0.011380 
#    z -0.008650 0.011380 1.810340 
# 
# From -- ./inp_files/178551.got.cif
#   From: 2010.06.25/outbox.cif.g09.slc.cpg/sg2_90_cif.got.tgz:178551.got - 2010.06.27 13:26:56.
