data_PCOD8011089
_publ_section_title
;
Structure prediction by ZEFSAII (Michael W. Deem and Ramdas Pophale) SiO2 
 PCOD8011089
Probable space group: P -1
;
_chemical_formula_sum "Si O2"
_cell_formula_units_Z 16
_cell_length_a 8.693545
_cell_length_b 15.034101
_cell_length_c 18.836167
_cell_angle_alpha 142.180819
_cell_angle_beta 151.042467
_cell_angle_gamma 34.490542
_cell_volume 653.382372
_symmetry_space_group_name_H-M "P -1"
_symmetry_group_IT_number 2
_symmetry_cell_setting 'triclinic'
loop_
_space_group_symop_operation_xyz
x,y,z
-x,-y,-z
loop_
_atom_site_type_symbol
_atom_site_label
_atom_site_fract_x
_atom_site_fract_y
_atom_site_fract_z
Si Si1 0.519436 0.950590 0.896017
Si Si2 0.263825 0.793102 0.869714
Si Si3 0.621402 0.385221 0.054650
Si Si4 0.189830 0.381240 0.135699
Si Si5 0.343992 0.606733 0.434900
Si Si6 0.742414 0.685317 0.534362
Si Si7 0.704120 0.108955 0.642876
Si Si8 0.604303 0.700845 0.223356
O O1 0.127823 0.004346 0.737892
O O2 0.735498 0.755218 0.857912
O O3 0.742152 0.035397 0.001882
O O4 0.500000 0.000000 0.000000
O O5 0.223512 0.707900 0.870010
O O6 0.632286 0.694069 0.915092
O O7 0.948414 0.798678 0.694831
O O8 0.812267 0.500303 0.186261
O O9 0.643421 0.258897 0.921610
O O10 0.219180 0.523203 0.988640
O O11 0.352201 0.497462 0.302016
O O12 0.500000 0.500000 0.500000
O O13 0.568243 0.694342 0.547968
O O14 0.937992 0.742266 0.374031
O O15 0.446360 0.767725 0.406045
O O16 0.000000 0.500000 0.500000
O O17 0.640751 0.211745 0.754284
O O18 0.500000 0.000000 0.500000
#
# Coordination Sequence:
#
# PCOD8011089 Si02
#       8
#     2   2   2   2   2   2   2   2
#     4  10  23  40  65  98 135 178 227 270 336 400
#     4  11  21  38  67 101 137 169 233 278 333 407
#     4  10  21  39  68 100 133 171 226 287 343 394
#     4  10  21  38  66  99 129 175 223 276 335 400
#     4  11  23  39  67  97 139 172 223 284 345 398
#     4  12  25  42  69 106 136 179 234 282 343 407
#     4  12  26  45  72  99 142 184 232 281 338 418
#     4  10  23  40  64  99 136 177 220 281 350 392
#
# _framework density 24.487957000000002
#
# number of rings (size 3 to 8) (size 9 to 14) (size 15 to 20)
#    0.000    1.250    1.250    5.625    5.250    0.000 
#    0.000    1.875    0.000   18.750    0.000    0.000 
#    0.000    0.000    0.000    0.000    0.000    0.000 
#
# Total GULP energy -198308.089943 kJ/mol
# GULP energy per Si atom -12394.255621 kJ/mol
# Density = 2.443222 g / cm^3
# Si number density = 24.487957 Si / 1000 Ang^3
#
#
#
# Elastic Constant Matrix: (Units=GPa)
#
#
# Indices 1 2 3 4 5 6 
#
# 1 88.5335 1.0526 8.5354 -9.3523 0.7741 15.4281
# 2 1.0526 65.0351 23.9717 -14.0510 -3.6033 10.1317
# 3 8.5354 23.9717 112.8299 -5.2571 14.0968 0.5598
# 4 -9.3523 -14.0510 -5.2571 36.3348 5.9346 0.5590
# 5 0.7741 -3.6033 14.0968 5.9346 43.3237 -1.5064
# 6 15.4281 10.1317 0.5598 0.5590 -1.5064 31.5459
#
#
#
# Elastic Compliance Matrix: (Units=1/GPa)
#
#
# Indices 1 2 3 4 5 6 
#
# 1 0.013089 0.002231 -0.001168 0.004256 -0.000502 -0.007197
# 2 0.002231 0.019740 -0.004190 0.007440 0.001689 -0.007408
# 3 -0.001168 -0.004190 0.010295 0.000140 -0.003643 0.001558
# 4 0.004256 0.007440 0.000140 0.032265 -0.004105 -0.005241
# 5 -0.000502 0.001689 -0.003643 -0.004105 0.025015 0.001035
# 6 -0.007197 -0.007408 0.001558 -0.005241 0.001035 0.037713
#
#
# Mechanical properties :
#
#
# Convention : Reuss Voigt Hill
#
# Bulk Modulus (GPa) = 27.12132 37.05754 32.08943
# Shear Modulus (GPa) = 31.91592 37.76348 34.83970
#
# Velocity S-wave (km/s) = 3.61408 3.93125 3.77600
# Velocity P-wave (km/s) = 5.33993 5.98098 5.66952
#
# Compressibility (1/GPa) = 0.03687136
#
# Stress axis : x y z
#
# Youngs Moduli (GPa) = 76.39851 50.65925 97.13121
#
# Poissons Ratio (x) = -0.11304 0.11341
# Poissons Ratio (y) = -0.17047 0.40700
# Poissons Ratio (z) = 0.08920 0.21228
#
# Static dielectric constant tensor:
#      x y z
#    x 4.635010 0.391560 0.575830 
#    y 0.391560 4.928160 0.710390 
#    z 0.575830 0.710390 5.384620 
# 
# 
# High freq. dielectric constant tensor:
#      x y z
#    x 1.973460 -0.000650 0.011690 
#    y -0.000650 1.955980 -0.003790 
#    z 0.011690 -0.003790 1.990730 
# 
# From -- ./inp_files/590292.got.cif
#   From: 2010.06.25/outbox.cif.g09.slc.cpg/sg2_296_cif.got.tgz:590292.got - 2010.06.27 13:26:56.
