data_PCOD8011464
_publ_section_title
;
Structure prediction by ZEFSAII (Michael W. Deem and Ramdas Pophale) SiO2 
 PCOD8011464
Probable space group: P -1
;
_chemical_formula_sum "Si O2"
_cell_formula_units_Z 16
_cell_length_a 14.479970
_cell_length_b 9.126555
_cell_length_c 12.845351
_cell_angle_alpha 49.407224
_cell_angle_beta 117.550372
_cell_angle_gamma 80.077535
_cell_volume 812.825685
_symmetry_space_group_name_H-M "P -1"
_symmetry_group_IT_number 2
_symmetry_cell_setting 'triclinic'
loop_
_space_group_symop_operation_xyz
x,y,z
-x,-y,-z
loop_
_atom_site_type_symbol
_atom_site_label
_atom_site_fract_x
_atom_site_fract_y
_atom_site_fract_z
Si Si1 0.909711 0.359364 0.046713
Si Si2 0.593260 0.844332 0.224132
Si Si3 0.281163 0.718969 0.949398
Si Si4 0.109580 0.321038 0.546730
Si Si5 0.804102 0.896367 0.768989
Si Si6 0.643809 0.604898 0.068658
Si Si7 0.114741 0.437835 0.850514
Si Si8 0.578356 0.474978 0.302038
O O1 0.799621 0.323127 0.994207
O O2 0.947654 0.330862 0.202880
O O3 0.060470 0.131652 0.167503
O O4 0.832581 0.659649 0.828421
O O5 0.758580 0.700472 0.368608
O O6 0.595537 0.608577 0.343340
O O7 0.500000 0.000000 0.000000
O O8 0.508417 0.073352 0.164200
O O9 0.349582 0.524833 0.974159
O O10 0.165448 0.029041 0.709938
O O11 0.408287 0.654777 0.110977
O O12 0.000000 0.500000 0.500000
O O13 0.020026 0.474849 0.323273
O O14 0.654355 0.181693 0.517878
O O15 0.799302 0.848526 0.911905
O O16 0.775243 0.588276 0.155079
O O17 0.651703 0.454192 0.242293
#
# Coordination Sequence:
#
# PCOD8011464 Si02
#       8
#     2   2   2   2   2   2   2   2
#     4   8  20  39  60  90 124 159 201 253 300 361
#     4  10  21  40  56  89 126 160 193 250 312 356
#     4  11  23  36  64  99 116 160 211 254 306 355
#     4  12  24  37  63  91 126 159 204 257 307 362
#     4   9  20  41  60  87 128 163 199 248 311 361
#     4  10  21  39  61  94 126 151 208 260 298 366
#     4   9  21  39  60  88 123 156 199 253 303 357
#     4  11  22  37  65  88 126 164 201 248 311 367
#
# _framework density 19.684417
#
# number of rings (size 3 to 8) (size 9 to 14) (size 15 to 20)
#    0.750    1.250    2.500    1.875    5.250    1.500 
#    0.000    1.250    0.000    0.000    0.000    0.000 
#    0.000    0.000    0.000    0.000    0.000    0.000 
#
# Total GULP energy -198286.672064 kJ/mol
# GULP energy per Si atom -12392.917004 kJ/mol
# Density = 1.963961 g / cm^3
# Si number density = 19.684417 Si / 1000 Ang^3
#
#
#
# Elastic Constant Matrix: (Units=GPa)
#
#
# Indices 1 2 3 4 5 6 
#
# 1 108.6159 25.0102 36.4216 16.6180 8.8764 15.3385
# 2 25.0102 80.8024 24.5918 -5.2246 13.2462 8.4481
# 3 36.4216 24.5918 98.9412 8.5336 0.4727 3.7542
# 4 16.6180 -5.2246 8.5336 27.7352 6.4079 8.0229
# 5 8.8764 13.2462 0.4727 6.4079 31.8634 0.1593
# 6 15.3385 8.4481 3.7542 8.0229 0.1593 24.2312
#
#
#
# Elastic Compliance Matrix: (Units=1/GPa)
#
#
# Indices 1 2 3 4 5 6 
#
# 1 0.012478 -0.002465 -0.003343 -0.005222 -0.001328 -0.004784
# 2 -0.002465 0.017035 -0.003868 0.009805 -0.008275 -0.006972
# 3 -0.003343 -0.003868 0.012532 -0.004147 0.003173 0.002875
# 4 -0.005222 0.009805 -0.004147 0.049784 -0.012492 -0.015872
# 5 -0.001328 -0.008275 0.003173 -0.012492 0.037623 0.007123
# 6 -0.004784 -0.006972 0.002875 -0.015872 0.007123 0.051491
#
#
# Mechanical properties :
#
#
# Convention : Reuss Voigt Hill
#
# Bulk Modulus (GPa) = 44.06354 51.15633 47.60993
# Shear Modulus (GPa) = 24.05455 30.25501 27.15478
#
# Velocity S-wave (km/s) = 3.49952 3.92472 3.71820
# Velocity P-wave (km/s) = 6.22595 6.82514 6.53242
#
# Compressibility (1/GPa) = 0.02269450
#
# Stress axis : x y z
#
# Youngs Moduli (GPa) = 80.14025 58.70103 79.79360
#
# Poissons Ratio (x) = 0.14468 0.26671
# Poissons Ratio (y) = 0.19753 0.30868
# Poissons Ratio (z) = 0.26787 0.22708
#
# Static dielectric constant tensor:
#      x y z
#    x 3.643070 0.138540 0.118310 
#    y 0.138540 3.762660 -0.243350 
#    z 0.118310 -0.243350 3.481710 
# 
# 
# High freq. dielectric constant tensor:
#      x y z
#    x 1.769080 0.012590 0.015010 
#    y 0.012590 1.751040 -0.010480 
#    z 0.015010 -0.010480 1.751450 
# 
# From -- ./inp_files/529410.got.cif
#   From: 2010.06.25/outbox.cif.g09.slc.cpg/sg2_265_cif.got.tgz:529410.got - 2010.06.27 13:26:56.
