data_PCOD8011725
_publ_section_title
;
Structure prediction by ZEFSAII (Michael W. Deem and Ramdas Pophale) SiO2 
 PCOD8011725
Probable space group: P -1
;
_chemical_formula_sum "Si O2"
_cell_formula_units_Z 14
_cell_length_a 17.843459
_cell_length_b 8.537478
_cell_length_c 18.613821
_cell_angle_alpha 139.844284
_cell_angle_beta 23.007212
_cell_angle_gamma 134.832633
_cell_volume 714.682447
_symmetry_space_group_name_H-M "P -1"
_symmetry_group_IT_number 2
_symmetry_cell_setting 'triclinic'
loop_
_space_group_symop_operation_xyz
x,y,z
-x,-y,-z
loop_
_atom_site_type_symbol
_atom_site_label
_atom_site_fract_x
_atom_site_fract_y
_atom_site_fract_z
Si Si1 0.665932 0.405825 0.532895
Si Si2 0.182914 0.012736 0.666302
Si Si3 0.424756 0.216025 0.052385
Si Si4 0.582496 0.523283 0.356224
Si Si5 0.751262 0.006102 0.008249
Si Si6 0.217736 0.092740 0.336850
Si Si7 0.496100 0.719060 0.227135
O O1 0.807627 0.176521 0.340907
O O2 0.587201 0.391209 0.516798
O O3 0.780495 0.654962 0.532642
O O4 0.490491 0.387756 0.740434
O O5 0.319783 0.909905 0.446187
O O6 0.248484 0.278652 0.727055
O O7 0.976786 0.033502 0.820903
O O8 0.285702 0.123149 0.205721
O O9 0.456678 0.504404 0.130346
O O10 0.313064 0.162207 0.059300
O O11 0.634045 0.092840 0.822471
O O12 0.500000 0.500000 0.500000
O O13 0.662228 0.270276 0.168968
O O14 0.684692 0.872083 0.093334
O O15 0.000000 0.000000 0.500000
#
# Coordination Sequence:
#
# PCOD8011725 Si02
#       7
#     2   2   2   2   2   2   2
#     4   9  21  44  61  88 127 163 204 255 308 372
#     4  10  24  41  62  91 124 165 213 246 310 372
#     4  10  22  38  63  95 129 161 204 256 308 375
#     4  12  22  43  67  88 126 165 210 264 310 353
#     4  12  23  40  65  96 124 162 211 260 307 361
#     4  10  21  39  63  95 127 165 205 248 317 370
#     4   9  22  41  62  88 130 163 196 257 319 365
#
# _framework density 19.589120999999999
#
# number of rings (size 3 to 8) (size 9 to 14) (size 15 to 20)
#    0.857    0.857    2.857    1.286    2.000    2.857 
#    0.000    4.286    0.000    0.000    0.000    0.000 
#    0.000    0.000    0.000    0.000    0.000    0.000 
#
# Total GULP energy -173544.748014 kJ/mol
# GULP energy per Si atom -12396.053430 kJ/mol
# Density = 1.954453 g / cm^3
# Si number density = 19.589121 Si / 1000 Ang^3
#
#
#
# Elastic Constant Matrix: (Units=GPa)
#
#
# Indices 1 2 3 4 5 6 
#
# 1 100.8526 26.6934 26.3645 -5.1256 -13.6519 8.0830
# 2 26.6934 115.9033 21.7847 -4.6186 -3.5296 12.1971
# 3 26.3645 21.7847 68.3183 -18.3249 -9.4735 3.0625
# 4 -5.1256 -4.6186 -18.3249 35.1561 5.0955 -1.0590
# 5 -13.6519 -3.5296 -9.4735 5.0955 23.6785 -0.4757
# 6 8.0830 12.1971 3.0625 -1.0590 -0.4757 20.6986
#
#
#
# Elastic Compliance Matrix: (Units=1/GPa)
#
#
# Indices 1 2 3 4 5 6 
#
# 1 0.012251 -0.001688 -0.003600 -0.001216 0.005569 -0.003191
# 2 -0.001688 0.009964 -0.002455 -0.000290 -0.000506 -0.004876
# 3 -0.003600 -0.002455 0.019665 0.008907 0.003519 0.000480
# 4 -0.001216 -0.000290 0.008907 0.033535 -0.004378 0.000943
# 5 0.005569 -0.000506 0.003519 -0.004378 0.047687 -0.001525
# 6 -0.003191 -0.004876 0.000480 0.000943 -0.001525 0.052374
#
#
# Mechanical properties :
#
#
# Convention : Reuss Voigt Hill
#
# Bulk Modulus (GPa) = 37.88809 48.30659 43.09734
# Shear Modulus (GPa) = 25.02976 29.92208 27.47592
#
# Velocity S-wave (km/s) = 3.57842 3.91254 3.74921
# Velocity P-wave (km/s) = 6.03795 6.71745 6.38674
#
# Compressibility (1/GPa) = 0.02639352
#
# Stress axis : x y z
#
# Youngs Moduli (GPa) = 81.62460 100.35887 50.85075
#
# Poissons Ratio (x) = 0.16939 0.18308
# Poissons Ratio (y) = 0.13777 0.12486
# Poissons Ratio (z) = 0.29388 0.24642
#
# Static dielectric constant tensor:
#      x y z
#    x 3.370330 -0.024940 0.088100 
#    y -0.024940 3.776580 0.144060 
#    z 0.088100 0.144060 3.353440 
# 
# 
# High freq. dielectric constant tensor:
#      x y z
#    x 1.751720 0.001520 0.003520 
#    y 0.001520 1.785910 0.008560 
#    z 0.003520 0.008560 1.742730 
# 
# From -- ./inp_files/233911.got.cif
#   From: 2010.06.25/outbox.cif.g09.slc.cpg/sg2_117_cif.got.tgz:233911.got - 2010.06.27 13:26:56.
