data_PCOD8011020
_publ_section_title
;
Structure prediction by ZEFSAII (Michael W. Deem and Ramdas Pophale) SiO2 
 PCOD8011020
Probable space group: P -1
;
_chemical_formula_sum "Si O2"
_cell_formula_units_Z 12
_cell_length_a 10.683905
_cell_length_b 16.782661
_cell_length_c 5.205853
_cell_angle_alpha 100.961263
_cell_angle_beta 112.223965
_cell_angle_gamma 35.573160
_cell_volume 490.567134
_symmetry_space_group_name_H-M "P -1"
_symmetry_group_IT_number 2
_symmetry_cell_setting 'triclinic'
loop_
_space_group_symop_operation_xyz
x,y,z
-x,-y,-z
loop_
_atom_site_type_symbol
_atom_site_label
_atom_site_fract_x
_atom_site_fract_y
_atom_site_fract_z
Si Si1 0.178604 0.055984 0.451934
Si Si2 0.868748 0.593945 0.706633
Si Si3 0.433837 0.872193 0.036408
Si Si4 0.649785 0.273994 0.150720
Si Si5 0.594637 0.582549 0.454752
Si Si6 0.108065 0.278841 0.530862
O O1 0.161047 0.159781 0.455002
O O2 0.927713 0.136426 0.292553
O O3 0.283435 0.988816 0.771826
O O4 0.337203 0.940862 0.283247
O O5 0.619965 0.669089 0.548840
O O6 0.859626 0.695586 0.714308
O O7 0.000000 0.500000 0.500000
O O8 0.000000 0.500000 0.000000
O O9 0.441538 0.772717 0.940788
O O10 0.702215 0.772259 0.161122
O O11 0.542812 0.377632 0.370758
O O12 0.561258 0.362926 0.880132
O O13 0.849308 0.415919 0.534470
#
# Coordination Sequence:
#
# PCOD8011020 Si02
#       6
#     2   2   2   2   2   2
#     4  12  28  47  69 103 144 193 231 281 351 411
#     4  10  21  38  65  99 132 171 219 277 340 404
#     4  12  26  47  72 100 141 191 241 282 334 419
#     4  12  25  46  73 100 142 185 238 283 341 431
#     4  11  24  42  73 106 134 180 231 293 358 404
#     4  11  26  45  74 108 144 173 234 302 353 412
#
# _framework density 24.461482
#
# number of rings (size 3 to 8) (size 9 to 14) (size 15 to 20)
#    0.000    0.667    1.667    6.000    2.333    6.667 
#    0.000    0.000    0.000    0.000    0.000    0.000 
#    0.000    0.000    0.000    0.000    0.000    0.000 
#
# Total GULP energy -148764.292457 kJ/mol
# GULP energy per Si atom -12397.024371 kJ/mol
# Density = 2.440581 g / cm^3
# Si number density = 24.461482 Si / 1000 Ang^3
#
#
#
# Elastic Constant Matrix: (Units=GPa)
#
#
# Indices 1 2 3 4 5 6 
#
# 1 22.7642 -2.2287 50.6444 -4.6251 11.7432 -38.6776
# 2 -2.2287 71.6357 59.6654 -18.5349 23.1642 -59.3479
# 3 50.6444 59.6654 178.8804 -19.7580 -30.6221 0.5766
# 4 -4.6251 -18.5349 -19.7580 34.9971 0.4789 -9.3898
# 5 11.7432 23.1642 -30.6221 0.4789 22.0002 18.5577
# 6 -38.6776 -59.3479 0.5766 -9.3898 18.5577 0.0643
#
#
#
# Elastic Compliance Matrix: (Units=1/GPa)
#
#
# Indices 1 2 3 4 5 6 
#
# 1 0.022615 -0.011404 -0.002204 -0.007546 0.006953 -0.011760
# 2 -0.011404 0.008119 0.001352 0.002257 0.003313 -0.004673
# 3 -0.002204 0.001352 0.006904 0.006359 0.002707 0.007727
# 4 -0.007546 0.002257 0.006359 0.032851 0.007908 0.002227
# 5 0.006953 0.003313 0.002707 0.007908 0.028952 0.015290
# 6 -0.011760 -0.004673 0.007727 0.002227 0.015290 0.007841
#
#
# Mechanical properties :
#
#
# Convention : Reuss Voigt Hill
#
# Bulk Modulus (GPa) = 76.18644 54.38252 65.28448
# Shear Modulus (GPa) = 36.71902 22.42560 29.57231
#
# Velocity S-wave (km/s) = 3.87860 3.03111 3.48074
# Velocity P-wave (km/s) = 7.16039 5.87625 6.54987
#
# Compressibility (1/GPa) = 0.01312570
#
# Stress axis : x y z
#
# Youngs Moduli (GPa) = 44.21932 123.16268 144.84164
#
# Poissons Ratio (x) = 1.40458 0.31924
# Poissons Ratio (y) = 0.50429 -0.19585
# Poissons Ratio (z) = 0.09746 -0.16654
#
# Static dielectric constant tensor:
#      x y z
#    x 5.358540 0.114240 -0.802120 
#    y 0.114240 4.533830 -0.200470 
#    z -0.802120 -0.200470 5.384260 
# 
# 
# High freq. dielectric constant tensor:
#      x y z
#    x 1.970550 -0.011320 -0.008910 
#    y -0.011320 1.979170 -0.003180 
#    z -0.008910 -0.003180 1.990150 
# 
# From -- ./inp_files/80733.got.cif
#   From: 2010.06.25/outbox.cif.g09.slc.cpg/sg2_41_cif.got.tgz:80733.got - 2010.06.27 13:26:56.
