data_PCOD8011592
_publ_section_title
;
Structure prediction by ZEFSAII (Michael W. Deem and Ramdas Pophale) SiO2 
 PCOD8011592
Probable space group: P -1
;
_chemical_formula_sum "Si O2"
_cell_formula_units_Z 14
_cell_length_a 22.658946
_cell_length_b 16.383427
_cell_length_c 12.142734
_cell_angle_alpha 37.928623
_cell_angle_beta 27.718776
_cell_angle_gamma 18.307508
_cell_volume 616.072174
_symmetry_space_group_name_H-M "P -1"
_symmetry_group_IT_number 2
_symmetry_cell_setting 'triclinic'
loop_
_space_group_symop_operation_xyz
x,y,z
-x,-y,-z
loop_
_atom_site_type_symbol
_atom_site_label
_atom_site_fract_x
_atom_site_fract_y
_atom_site_fract_z
Si Si1 0.268138 0.462989 0.880633
Si Si2 0.245783 0.460264 0.170422
Si Si3 0.295497 0.525030 0.233752
Si Si4 0.387453 0.103924 0.777496
Si Si5 0.807218 0.087954 0.992548
Si Si6 0.329640 0.923480 0.558640
Si Si7 0.985699 0.475530 0.229756
O O1 0.529018 0.253073 0.599733
O O2 0.357732 0.380687 0.947511
O O3 0.140943 0.435221 0.095521
O O4 0.062592 0.770759 0.869403
O O5 0.354454 0.476258 0.056165
O O6 0.349267 0.227000 0.300058
O O7 0.925837 0.751498 0.391389
O O8 0.562280 0.257933 0.145556
O O9 0.099069 0.579948 0.509117
O O10 0.151600 0.793312 0.224027
O O11 0.459314 0.188024 0.600463
O O12 0.265752 0.215547 0.736767
O O13 0.170693 0.250308 0.065918
O O14 0.755929 0.119143 0.175482
#
# Coordination Sequence:
#
# PCOD8011592 Si02
#       7
#     2   2   2   2   2   2   2
#     4  10  24  42  66  96 130 166 210 259 320 374
#     4  11  25  38  65  99 130 167 206 259 324 379
#     4  11  24  42  66  94 129 165 215 264 313 376
#     4  10  21  39  63 100 127 162 215 261 316 368
#     4  10  23  47  65  92 125 170 216 262 312 373
#     4  10  22  42  65  93 130 169 207 264 306 387
#     4  10  22  39  68  95 128 164 213 265 311 375
#
# _framework density 22.724609999999998
#
# number of rings (size 3 to 8) (size 9 to 14) (size 15 to 20)
#    0.000    1.714    1.429    1.286    8.000    4.571 
#    2.571    2.857    0.000    0.000    0.000    0.000 
#    0.000    0.000    0.000    0.000    0.000    0.000 
#
# Total GULP energy -173564.781645 kJ/mol
# GULP energy per Si atom -12397.484403 kJ/mol
# Density = 2.267289 g / cm^3
# Si number density = 22.724610 Si / 1000 Ang^3
#
#
#
# Elastic Constant Matrix: (Units=GPa)
#
#
# Indices 1 2 3 4 5 6 
#
# 1 100.3333 15.6697 36.0554 -0.0702 7.5452 -3.1307
# 2 15.6697 105.0069 53.8318 4.0035 -5.4506 -2.0443
# 3 36.0554 53.8318 71.6520 12.2962 26.1577 5.1361
# 4 -0.0702 4.0035 12.2962 25.0362 8.5312 1.7965
# 5 7.5452 -5.4506 26.1577 8.5312 15.6889 3.7749
# 6 -3.1307 -2.0443 5.1361 1.7965 3.7749 38.2736
#
#
#
# Elastic Compliance Matrix: (Units=1/GPa)
#
#
# Indices 1 2 3 4 5 6 
#
# 1 0.009961 -0.007332 0.008543 0.005368 -0.024855 0.001476
# 2 -0.007332 -0.017087 0.045076 0.008598 -0.082275 0.000150
# 3 0.008543 0.045076 -0.074073 -0.020655 0.146383 -0.000421
# 4 0.005368 0.008598 -0.020655 0.045243 0.010108 0.000550
# 5 -0.024855 -0.082275 0.146383 0.010108 -0.200827 -0.006739
# 6 0.001476 0.000150 -0.000421 0.000550 -0.006739 0.026952
#
#
# Mechanical properties :
#
#
# Convention : Reuss Voigt Hill
#
# Bulk Modulus (GPa) = 87.90682 54.23398 71.07040
# Shear Modulus (GPa) = -16.74410 27.22879 5.24234
#
# Velocity S-wave (km/s) = -2.71740 3.46527 1.52050
# Velocity P-wave (km/s) = 5.37790 6.31889 5.86729
#
# Compressibility (1/GPa) = 0.01137568
#
# Stress axis : x y z
#
# Youngs Moduli (GPa) = 100.39255 -58.52563 -13.50026
#
# Poissons Ratio (x) = -0.42911 0.11533
# Poissons Ratio (y) = 0.73608 0.60854
# Poissons Ratio (z) = -0.85764 2.63811
#
# Static dielectric constant tensor:
#      x y z
#    x 4.310960 -0.064870 0.171120 
#    y -0.064870 4.071760 0.128140 
#    z 0.171120 0.128140 3.780680 
# 
# 
# High freq. dielectric constant tensor:
#      x y z
#    x 1.910010 -0.009470 0.011420 
#    y -0.009470 1.902900 0.005930 
#    z 0.011420 0.005930 1.867690 
# 
# From -- ./inp_files/458106.got.cif
#   From: 2010.06.25/outbox.cif.g09.slc.cpg/sg2_230_cif.got.tgz:458106.got - 2010.06.27 13:26:56.
