data_PCOD8011963
_publ_section_title
;
Structure prediction by ZEFSAII (Michael W. Deem and Ramdas Pophale) SiO2 
 PCOD8011963
Probable space group: P -1
;
_chemical_formula_sum "Si O2"
_cell_formula_units_Z 14
_cell_length_a 8.940706
_cell_length_b 8.157223
_cell_length_c 11.359644
_cell_angle_alpha 87.549196
_cell_angle_beta 84.408764
_cell_angle_gamma 126.553019
_cell_volume 657.067506
_symmetry_space_group_name_H-M "P -1"
_symmetry_group_IT_number 2
_symmetry_cell_setting 'triclinic'
loop_
_space_group_symop_operation_xyz
x,y,z
-x,-y,-z
loop_
_atom_site_type_symbol
_atom_site_label
_atom_site_fract_x
_atom_site_fract_y
_atom_site_fract_z
Si Si1 0.488431 0.869467 0.751850
Si Si2 0.458467 0.664871 0.992755
Si Si3 0.817561 0.885988 0.672406
Si Si4 0.142950 0.998089 0.071375
Si Si5 0.077113 0.290092 0.507457
Si Si6 0.794289 0.298582 0.828000
Si Si7 0.860350 0.372862 0.366492
O O1 0.412103 0.697566 0.864348
O O2 0.627376 0.858588 0.656539
O O3 0.306076 0.808194 0.695947
O O4 0.609746 0.102238 0.784061
O O5 0.654601 0.877298 0.013193
O O6 0.500000 0.500000 0.000000
O O7 0.281967 0.604633 0.087382
O O8 0.837485 0.884391 0.812494
O O9 0.802525 0.702106 0.611917
O O10 0.004570 0.099832 0.604788
O O11 0.094156 0.774686 0.108224
O O12 0.000000 0.000000 0.000000
O O13 0.201319 0.496674 0.570513
O O14 0.895344 0.264249 0.469571
O O15 0.943100 0.474200 0.722321
#
# Coordination Sequence:
#
# PCOD8011963 Si02
#       7
#     2   2   2   2   2   2   2
#     4  10  22  41  60  89 123 162 203 253 313 368
#     4  10  23  39  61  90 126 161 206 256 309 372
#     4   9  20  41  61  86 133 157 201 259 306 358
#     4  10  21  39  65  92 125 165 202 251 318 368
#     4  10  21  40  61  90 122 164 204 258 301 364
#     4  10  22  44  58  90 134 158 201 264 302 371
#     4  11  23  38  66  89 117 162 214 246 313 363
#
# _framework density 21.306791
#
# number of rings (size 3 to 8) (size 9 to 14) (size 15 to 20)
#    0.000    2.286    2.857    1.714    6.000    4.000 
#    0.000    1.429    0.000    0.000    0.000    0.000 
#    0.000    0.000    0.000    0.000    0.000    0.000 
#
# Total GULP energy -173476.996743 kJ/mol
# GULP energy per Si atom -12391.214053 kJ/mol
# Density = 2.125830 g / cm^3
# Si number density = 21.306791 Si / 1000 Ang^3
#
#
#
# Elastic Constant Matrix: (Units=GPa)
#
#
# Indices 1 2 3 4 5 6 
#
# 1 78.4950 20.5256 36.1920 16.4558 -5.9192 0.0745
# 2 20.5256 54.2612 17.9805 5.8875 -0.2180 3.0161
# 3 36.1920 17.9805 79.9805 9.2316 -18.7988 2.1873
# 4 16.4558 5.8875 9.2316 21.2348 -6.2544 -2.5901
# 5 -5.9192 -0.2180 -18.7988 -6.2544 50.5405 16.1259
# 6 0.0745 3.0161 2.1873 -2.5901 16.1259 34.4223
#
#
#
# Elastic Compliance Matrix: (Units=1/GPa)
#
#
# Indices 1 2 3 4 5 6 
#
# 1 0.019170 -0.003754 -0.007037 -0.011257 -0.002052 0.000849
# 2 -0.003754 0.021173 -0.003110 -0.002164 -0.001405 -0.001154
# 3 -0.007037 -0.003110 0.018220 0.000025 0.007313 -0.004294
# 4 -0.011257 -0.002164 0.000025 0.058198 0.005195 0.002158
# 5 -0.002052 -0.001405 0.007313 0.005195 0.026907 -0.012552
# 6 0.000849 -0.001154 -0.004294 0.002158 -0.012552 0.035465
#
#
# Mechanical properties :
#
#
# Convention : Reuss Voigt Hill
#
# Bulk Modulus (GPa) = 32.50853 40.23699 36.37276
# Shear Modulus (GPa) = 23.02129 30.44211 26.73170
#
# Velocity S-wave (km/s) = 3.29061 3.78398 3.54589
# Velocity P-wave (km/s) = 5.45234 6.16579 5.82001
#
# Compressibility (1/GPa) = 0.03076116
#
# Stress axis : x y z
#
# Youngs Moduli (GPa) = 52.16449 47.22940 54.88488
#
# Poissons Ratio (x) = 0.17729 0.38623
# Poissons Ratio (y) = 0.19581 0.17070
# Poissons Ratio (z) = 0.36709 0.14689
#
# Static dielectric constant tensor:
#      x y z
#    x 3.790500 -0.147480 -0.189270 
#    y -0.147480 3.667900 -0.063130 
#    z -0.189270 -0.063130 3.980430 
# 
# 
# High freq. dielectric constant tensor:
#      x y z
#    x 1.826660 -0.014370 -0.011270 
#    y -0.014370 1.816520 -0.007690 
#    z -0.011270 -0.007690 1.840110 
# 
# From -- ./inp_files/178189.got.cif
#   From: 2010.06.25/outbox.cif.g09.slc.cpg/sg2_90_cif.got.tgz:178189.got - 2010.06.27 13:26:56.
