data_PCOD8011505
_publ_section_title
;
Structure prediction by ZEFSAII (Michael W. Deem and Ramdas Pophale) SiO2 
 PCOD8011505
Probable space group: P -1
;
_chemical_formula_sum "Si O2"
_cell_formula_units_Z 14
_cell_length_a 15.603231
_cell_length_b 13.214384
_cell_length_c 9.693127
_cell_angle_alpha 27.792380
_cell_angle_beta 127.232069
_cell_angle_gamma 135.404476
_cell_volume 652.379212
_symmetry_space_group_name_H-M "P -1"
_symmetry_group_IT_number 2
_symmetry_cell_setting 'triclinic'
loop_
_space_group_symop_operation_xyz
x,y,z
-x,-y,-z
loop_
_atom_site_type_symbol
_atom_site_label
_atom_site_fract_x
_atom_site_fract_y
_atom_site_fract_z
Si Si1 0.773935 0.592025 0.166179
Si Si2 0.590706 0.765814 0.825520
Si Si3 0.845892 0.076704 0.241884
Si Si4 0.192370 0.486178 0.411850
Si Si5 0.360679 0.433980 0.430711
Si Si6 0.394121 0.752074 0.824550
Si Si7 0.022621 0.018686 0.278758
O O1 0.785076 0.444945 0.487250
O O2 0.690010 0.392576 0.213053
O O3 0.720984 0.771124 0.957632
O O4 0.906834 0.766324 0.022486
O O5 0.533155 0.798983 0.873781
O O6 0.604391 0.986137 0.471210
O O7 0.500000 0.500000 0.000000
O O8 0.879464 0.036990 0.477599
O O9 0.717147 0.849095 0.347714
O O10 0.831683 0.319898 0.930665
O O11 0.956117 0.116055 0.201646
O O12 0.311581 0.483356 0.466900
O O13 0.073823 0.222005 0.603687
O O14 0.500000 0.500000 0.500000
O O15 0.342567 0.600870 0.095822
#
# Coordination Sequence:
#
# PCOD8011505 Si02
#       7
#     2   2   2   2   2   2   2
#     4  11  22  39  63  93 125 162 210 259 312 371
#     4   9  21  37  61  90 124 159 214 253 302 373
#     4  10  23  43  63  92 128 163 212 262 310 376
#     4  11  25  39  65  96 126 165 211 261 314 368
#     4  11  24  41  64  93 128 164 209 260 313 375
#     4  10  21  39  62  88 125 172 204 251 318 368
#     4  10  22  42  64  89 129 166 212 260 311 369
#
# _framework density 21.459910000000001
#
# number of rings (size 3 to 8) (size 9 to 14) (size 15 to 20)
#    0.000    1.714    1.429    1.714    2.000    8.000 
#    0.000    0.000    0.000    0.000    0.000    0.000 
#    0.000    0.000    0.000    0.000    0.000    0.000 
#
# Total GULP energy -173617.199693 kJ/mol
# GULP energy per Si atom -12401.228550 kJ/mol
# Density = 2.141107 g / cm^3
# Si number density = 21.459910 Si / 1000 Ang^3
#
#
#
# Elastic Constant Matrix: (Units=GPa)
#
#
# Indices 1 2 3 4 5 6 
#
# 1 79.9396 42.9997 33.8583 -3.9289 -12.6863 18.0814
# 2 42.9997 90.5951 31.5933 9.8767 -8.6106 2.0004
# 3 33.8583 31.5933 98.4472 -7.2380 -5.0624 -6.5178
# 4 -3.9289 9.8767 -7.2380 35.1071 -4.3713 -5.0203
# 5 -12.6863 -8.6106 -5.0624 -4.3713 40.4350 4.0842
# 6 18.0814 2.0004 -6.5178 -5.0203 4.0842 29.2890
#
#
#
# Elastic Compliance Matrix: (Units=1/GPa)
#
#
# Indices 1 2 3 4 5 6 
#
# 1 0.025030 -0.008899 -0.006317 0.002486 0.007135 -0.016819
# 2 -0.008899 0.016687 -0.002563 -0.005872 -0.000481 0.002844
# 3 -0.006317 -0.002563 0.013907 0.003879 -0.001175 0.007998
# 4 0.002486 -0.005872 0.003879 0.032282 0.003016 0.004842
# 5 0.007135 -0.000481 -0.001175 0.003016 0.027854 -0.008000
# 6 -0.016819 0.002844 0.007998 0.004842 -0.008000 0.048057
#
#
# Mechanical properties :
#
#
# Convention : Reuss Voigt Hill
#
# Bulk Modulus (GPa) = 49.83134 53.98717 51.90925
# Shear Modulus (GPa) = 24.26438 31.66827 27.96632
#
# Velocity S-wave (km/s) = 3.36621 3.84564 3.61389
# Velocity P-wave (km/s) = 6.19513 6.70302 6.45407
#
# Compressibility (1/GPa) = 0.02006769
#
# Stress axis : x y z
#
# Youngs Moduli (GPa) = 39.95150 59.92601 71.90697
#
# Poissons Ratio (x) = 0.53328 0.45421
# Poissons Ratio (y) = 0.35553 0.18428
# Poissons Ratio (z) = 0.25236 0.15358
#
# Static dielectric constant tensor:
#      x y z
#    x 4.140430 0.080270 -0.027000 
#    y 0.080270 3.649670 0.000770 
#    z -0.027000 0.000770 3.909840 
# 
# 
# High freq. dielectric constant tensor:
#      x y z
#    x 1.849190 0.006190 -0.009230 
#    y 0.006190 1.828750 -0.003780 
#    z -0.009230 -0.003780 1.847630 
# 
# From -- ./inp_files/55459.got.cif
#   From: 2010.06.25/outbox.cif.g09.slc.cpg/sg2_28_cif.got.tgz:55459.got - 2010.06.27 13:26:56.
