data_PCOD8011623
_publ_section_title
;
Structure prediction by ZEFSAII (Michael W. Deem and Ramdas Pophale) SiO2 
 PCOD8011623
Probable space group: P -1
;
_chemical_formula_sum "Si O2"
_cell_formula_units_Z 14
_cell_length_a 6.865220
_cell_length_b 24.838661
_cell_length_c 27.422823
_cell_angle_alpha 170.404603
_cell_angle_beta 121.171681
_cell_angle_gamma 59.421358
_cell_volume 666.891791
_symmetry_space_group_name_H-M "P -1"
_symmetry_group_IT_number 2
_symmetry_cell_setting 'triclinic'
loop_
_space_group_symop_operation_xyz
x,y,z
-x,-y,-z
loop_
_atom_site_type_symbol
_atom_site_label
_atom_site_fract_x
_atom_site_fract_y
_atom_site_fract_z
Si Si1 0.995066 0.841716 0.505081
Si Si2 0.358118 0.951267 0.094510
Si Si3 0.928866 0.667540 0.524340
Si Si4 0.212675 0.286405 0.851567
Si Si5 0.140933 0.308746 0.308767
Si Si6 0.869228 0.884175 0.130430
Si Si7 0.517175 0.112207 0.547047
O O1 0.727821 0.913909 0.533260
O O2 0.130267 0.989331 0.608691
O O3 0.105338 0.998737 0.706935
O O4 0.019484 0.460538 0.168865
O O5 0.607481 0.859012 0.060110
O O6 0.228199 0.119235 0.271509
O O7 0.367990 0.184279 0.254984
O O8 0.224617 0.625195 0.775080
O O9 0.156202 0.537682 0.467059
O O10 0.004976 0.864428 0.663442
O O11 0.320662 0.132223 0.679332
O O12 0.389003 0.518351 0.111006
O O13 0.000000 0.500000 0.000000
O O14 0.000000 0.500000 0.500000
O O15 0.000000 0.000000 0.000000
O O16 0.500000 0.000000 0.500000
#
# Coordination Sequence:
#
# PCOD8011623 Si02
#       7
#     2   2   2   2   2   2   2
#     4  12  28  44  64  97 132 162 220 254 314 391
#     4  10  21  39  63  88 127 165 213 263 316 368
#     4  10  21  39  63  88 127 165 213 263 316 368
#     4  12  26  45  74  99 128 165 207 266 326 376
#     4   8  16  33  58  89 116 160 210 265 310 363
#     4  12  26  41  62  94 128 174 210 256 310 392
#     4  12  26  45  74  99 128 165 207 266 326 376
#
# _framework density 20.992912
#
# number of rings (size 3 to 8) (size 9 to 14) (size 15 to 20)
#    0.000    1.143    1.429    4.286    2.000    7.429 
#    0.000    0.000    0.000   12.000    0.000    0.000 
#    0.000    0.000    0.000    0.000    0.000    0.000 
#
# Total GULP energy -173531.826139 kJ/mol
# GULP energy per Si atom -12395.130438 kJ/mol
# Density = 2.094513 g / cm^3
# Si number density = 20.992912 Si / 1000 Ang^3
#
#
#
# Elastic Constant Matrix: (Units=GPa)
#
#
# Indices 1 2 3 4 5 6 
#
# 1 109.0812 59.3661 47.3338 4.1199 -8.4810 -1.7520
# 2 59.3661 139.5825 45.8381 7.8279 -5.3958 -3.4492
# 3 47.3338 45.8381 135.6675 -5.6374 -10.7999 13.7516
# 4 4.1199 7.8279 -5.6374 49.4496 9.0019 4.1243
# 5 -8.4810 -5.3958 -10.7999 9.0019 44.3531 7.7315
# 6 -1.7520 -3.4492 13.7516 4.1243 7.7315 61.2819
#
#
#
# Elastic Compliance Matrix: (Units=1/GPa)
#
#
# Indices 1 2 3 4 5 6 
#
# 1 0.013058 -0.004418 -0.003076 -0.001035 0.001295 0.000721
# 2 -0.004418 0.009781 -0.001921 -0.001481 0.000012 0.000953
# 3 -0.003076 -0.001921 0.009559 0.001571 0.001650 -0.002655
# 4 -0.001035 -0.001481 0.001571 0.021592 -0.004134 -0.001397
# 5 0.001295 0.000012 0.001650 -0.004134 0.024586 -0.003156
# 6 0.000721 0.000953 -0.002655 -0.001397 -0.003156 0.017480
#
#
# Mechanical properties :
#
#
# Convention : Reuss Voigt Hill
#
# Bulk Modulus (GPa) = 73.69913 76.60080 75.14997
# Shear Modulus (GPa) = 41.87334 46.46980 44.17157
#
# Velocity S-wave (km/s) = 4.47099 4.70999 4.59204
# Velocity P-wave (km/s) = 7.86358 8.13307 7.99946
#
# Compressibility (1/GPa) = 0.01356868
#
# Stress axis : x y z
#
# Youngs Moduli (GPa) = 76.58175 102.24072 104.61411
#
# Poissons Ratio (x) = 0.45165 0.32183
# Poissons Ratio (y) = 0.33830 0.20093
# Poissons Ratio (z) = 0.23559 0.19637
#
# Static dielectric constant tensor:
#      x y z
#    x 3.876200 -0.021900 -0.030350 
#    y -0.021900 4.339450 0.142870 
#    z -0.030350 0.142870 4.075910 
# 
# 
# High freq. dielectric constant tensor:
#      x y z
#    x 1.807420 0.000850 -0.007550 
#    y 0.000850 1.845910 -0.001230 
#    z -0.007550 -0.001230 1.846940 
# 
# From -- ./inp_files/10446.got.cif
#   From: 2010.06.25/outbox.cif.g09.slc.cpg/sg2_6_cif.got.tgz:10446.got - 2010.06.27 13:26:56.
