data_PCOD8011810
_publ_section_title
;
Structure prediction by ZEFSAII (Michael W. Deem and Ramdas Pophale) SiO2 
 PCOD8011810
Probable space group: P -1
;
_chemical_formula_sum "Si O2"
_cell_formula_units_Z 16
_cell_length_a 7.691765
_cell_length_b 9.252982
_cell_length_c 11.507166
_cell_angle_alpha 101.391334
_cell_angle_beta 90.823101
_cell_angle_gamma 67.679456
_cell_volume 741.034666
_symmetry_space_group_name_H-M "P -1"
_symmetry_group_IT_number 2
_symmetry_cell_setting 'triclinic'
loop_
_space_group_symop_operation_xyz
x,y,z
-x,-y,-z
loop_
_atom_site_type_symbol
_atom_site_label
_atom_site_fract_x
_atom_site_fract_y
_atom_site_fract_z
Si Si1 0.536697 0.823245 0.931995
Si Si2 0.163655 0.761471 0.933746
Si Si3 0.636749 0.576093 0.069831
Si Si4 0.059469 0.975624 0.176136
Si Si5 0.092190 0.849918 0.396618
Si Si6 0.350734 0.090216 0.285102
Si Si7 0.519250 0.771961 0.333050
Si Si8 0.872666 0.673629 0.482934
O O1 0.360506 0.778844 0.944887
O O2 0.585967 0.808264 0.792517
O O3 0.690576 0.689387 0.995277
O O4 0.500000 0.000000 0.000000
O O5 0.178693 0.579045 0.915214
O O6 0.069045 0.838846 0.823320
O O7 0.039484 0.863333 0.055326
O O8 0.545049 0.672222 0.199643
O O9 0.500000 0.500000 0.000000
O O10 0.266081 0.977078 0.196679
O O11 0.999268 0.908665 0.279388
O O12 0.320298 0.785668 0.390638
O O13 0.020791 0.714217 0.412735
O O14 0.000000 0.000000 0.500000
O O15 0.199193 0.209501 0.389046
O O16 0.517045 0.951668 0.336476
O O17 0.689924 0.681695 0.408800
O O18 0.000000 0.500000 0.500000
#
# Coordination Sequence:
#
# PCOD8011810 Si02
#       8
#     2   2   2   2   2   2   2   2
#     4  11  19  36  65  94 126 170 213 268 334 399
#     4  10  22  37  63  95 128 169 214 268 337 402
#     4  10  21  39  67  98 134 171 216 274 342 404
#     4  10  21  39  64  91 129 169 219 265 327 406
#     4  11  23  43  73  92 132 183 224 273 336 400
#     4  11  22  42  65  91 132 170 222 272 325 404
#     4  11  24  44  73  97 135 181 227 277 338 407
#     4  12  29  45  66 104 137 172 234 289 330 396
#
# _framework density 21.591432000000001
#
# number of rings (size 3 to 8) (size 9 to 14) (size 15 to 20)
#    0.000    1.250    5.000    2.625    3.500    3.500 
#    0.000    0.625    0.000    0.000    0.000    0.000 
#    0.000    0.000    0.000    0.000    0.000    0.000 
#
# Total GULP energy -198244.032735 kJ/mol
# GULP energy per Si atom -12390.252046 kJ/mol
# Density = 2.154229 g / cm^3
# Si number density = 21.591432 Si / 1000 Ang^3
#
#
#
# Elastic Constant Matrix: (Units=GPa)
#
#
# Indices 1 2 3 4 5 6 
#
# 1 72.7634 53.9741 44.7360 -14.4502 -2.6831 -8.6587
# 2 53.9741 216.1672 68.5160 -28.2271 -12.0860 -15.7679
# 3 44.7360 68.5160 116.0463 -14.1985 -15.0779 -3.0657
# 4 -14.4502 -28.2271 -14.1985 40.8651 2.4802 -3.4226
# 5 -2.6831 -12.0860 -15.0779 2.4802 26.8594 -4.9083
# 6 -8.6587 -15.7679 -3.0657 -3.4226 -4.9083 34.8941
#
#
#
# Elastic Compliance Matrix: (Units=1/GPa)
#
#
# Indices 1 2 3 4 5 6 
#
# 1 0.020482 -0.002554 -0.006129 0.003774 -0.002264 0.003442
# 2 -0.002554 0.006681 -0.002299 0.003039 0.001677 0.002717
# 3 -0.006129 -0.002299 0.013094 0.000408 0.005559 -0.000587
# 4 0.003774 0.003039 0.000408 0.028462 0.000292 0.005178
# 5 -0.002264 0.001677 0.005559 0.000292 0.042064 0.006630
# 6 0.003442 0.002717 -0.000587 0.005178 0.006630 0.032129
#
#
# Mechanical properties :
#
#
# Convention : Reuss Voigt Hill
#
# Bulk Modulus (GPa) = 54.66561 82.15880 68.41220
# Shear Modulus (GPa) = 29.24436 36.37379 32.80908
#
# Velocity S-wave (km/s) = 3.68427 4.10889 3.90236
# Velocity P-wave (km/s) = 6.59330 7.78748 7.21514
#
# Compressibility (1/GPa) = 0.01829304
#
# Stress axis : x y z
#
# Youngs Moduli (GPa) = 48.82447 149.67629 76.37182
#
# Poissons Ratio (x) = 0.38227 0.46809
# Poissons Ratio (y) = 0.12470 0.17555
# Poissons Ratio (z) = 0.29925 0.34405
#
# Static dielectric constant tensor:
#      x y z
#    x 3.860050 -0.234040 0.023320 
#    y -0.234040 5.435960 -0.583850 
#    z 0.023320 -0.583850 4.293610 
# 
# 
# High freq. dielectric constant tensor:
#      x y z
#    x 1.821080 -0.008650 -0.003400 
#    y -0.008650 1.866640 -0.014460 
#    z -0.003400 -0.014460 1.852520 
# 
# From -- ./inp_files/382947.got.cif
#   From: 2010.06.25/outbox.cif.g09.slc.cpg/sg2_192_cif.got.tgz:382947.got - 2010.06.27 13:26:56.
