data_PCOD8011260
_publ_section_title
;
Structure prediction by ZEFSAII (Michael W. Deem and Ramdas Pophale) SiO2 
 PCOD8011260
Probable space group: P -1
;
_chemical_formula_sum "Si O2"
_cell_formula_units_Z 12
_cell_length_a 8.931618
_cell_length_b 13.561401
_cell_length_c 7.238827
_cell_angle_alpha 100.088909
_cell_angle_beta 107.161353
_cell_angle_gamma 122.533389
_cell_volume 642.786281
_symmetry_space_group_name_H-M "P -1"
_symmetry_group_IT_number 2
_symmetry_cell_setting 'triclinic'
loop_
_space_group_symop_operation_xyz
x,y,z
-x,-y,-z
loop_
_atom_site_type_symbol
_atom_site_label
_atom_site_fract_x
_atom_site_fract_y
_atom_site_fract_z
Si Si1 0.486251 0.144369 0.062800
Si Si2 0.945759 0.372225 0.352116
Si Si3 0.963112 0.679772 0.001654
Si Si4 0.767004 0.589833 0.261067
Si Si5 0.604787 0.054419 0.753497
Si Si6 0.370966 0.318246 0.032845
O O1 0.712081 0.256415 0.247646
O O2 0.380723 0.043608 0.159717
O O3 0.480477 0.081399 0.847302
O O4 0.360611 0.194932 0.999043
O O5 0.000000 0.500000 0.500000
O O6 0.016855 0.395207 0.173928
O O7 0.071065 0.335427 0.491756
O O8 0.886742 0.591042 0.128070
O O9 0.796635 0.699507 0.898724
O O10 0.172773 0.817954 0.162630
O O11 0.674827 0.660957 0.188577
O O12 0.592600 0.444041 0.213291
O O13 0.500000 0.000000 0.500000
#
# Coordination Sequence:
#
# PCOD8011260 Si02
#       6
#     2   2   2   2   2   2
#     4  10  21  39  58  83 116 140 195 237 267 333
#     4  11  20  35  59  86 112 152 184 226 283 333
#     4   9  21  37  58  81 115 147 188 228 280 333
#     4   9  19  38  54  82 126 139 183 229 282 335
#     4  10  21  40  59  80 110 152 192 233 275 330
#     4   9  19  40  54  84 119 147 178 240 278 328
#
# _framework density 18.668723
#
# number of rings (size 3 to 8) (size 9 to 14) (size 15 to 20)
#    1.000    1.333    1.667    1.000    0.000    2.000 
#    6.000    0.833    0.000    0.000    0.000    0.000 
#    0.000    0.000    0.000    0.000    0.000    0.000 
#
# Total GULP energy -148686.168876 kJ/mol
# GULP energy per Si atom -12390.514073 kJ/mol
# Density = 1.862623 g / cm^3
# Si number density = 18.668723 Si / 1000 Ang^3
#
#
#
# Elastic Constant Matrix: (Units=GPa)
#
#
# Indices 1 2 3 4 5 6 
#
# 1 76.5920 36.1866 35.6770 6.6413 -2.3537 2.3706
# 2 36.1866 69.1587 39.3944 5.8800 -9.8490 -7.6008
# 3 35.6770 39.3944 114.0537 9.9299 2.1756 7.8245
# 4 6.6413 5.8800 9.9299 22.1468 -1.3849 -1.1053
# 5 -2.3537 -9.8490 2.1756 -1.3849 25.8917 -4.6793
# 6 2.3706 -7.6008 7.8245 -1.1053 -4.6793 38.3968
#
#
#
# Elastic Compliance Matrix: (Units=1/GPa)
#
#
# Indices 1 2 3 4 5 6 
#
# 1 0.018504 -0.008740 -0.002330 -0.002449 -0.002070 -0.002720
# 2 -0.008740 0.025376 -0.006811 0.000034 0.010930 0.008284
# 3 -0.002330 -0.006811 0.012566 -0.003654 -0.004860 -0.004463
# 4 -0.002449 0.000034 -0.003654 0.047846 0.003138 0.002662
# 5 -0.002070 0.010930 -0.004860 0.003138 0.044763 0.008827
# 6 -0.002720 0.008284 -0.004463 0.002662 0.008827 0.029913
#
#
# Mechanical properties :
#
#
# Convention : Reuss Voigt Hill
#
# Bulk Modulus (GPa) = 48.34585 53.59115 50.96850
# Shear Modulus (GPa) = 22.56057 27.19017 24.87537
#
# Velocity S-wave (km/s) = 3.48008 3.82049 3.65425
# Velocity P-wave (km/s) = 6.48852 6.94480 6.72053
#
# Compressibility (1/GPa) = 0.02068430
#
# Stress axis : x y z
#
# Youngs Moduli (GPa) = 54.04273 39.40672 79.57940
#
# Poissons Ratio (x) = 0.34443 0.18542
# Poissons Ratio (y) = 0.47235 0.54200
# Poissons Ratio (z) = 0.12592 0.26839
#
# Static dielectric constant tensor:
#      x y z
#    x 3.457200 0.059270 0.123690 
#    y 0.059270 3.345850 -0.063810 
#    z 0.123690 -0.063810 3.358400 
# 
# 
# High freq. dielectric constant tensor:
#      x y z
#    x 1.723850 0.010020 0.010660 
#    y 0.010020 1.719260 -0.005690 
#    z 0.010660 -0.005690 1.712390 
# 
# From -- ./inp_files/33304.got.cif
#   From: 2010.06.25/outbox.cif.g09.slc.cpg/sg2_17_cif.got.tgz:33304.got - 2010.06.27 13:26:56.
