data_PCOD8011687
_publ_section_title
;
Structure prediction by ZEFSAII (Michael W. Deem and Ramdas Pophale) SiO2 
 PCOD8011687
Probable space group: P -1
;
_chemical_formula_sum "Si O2"
_cell_formula_units_Z 16
_cell_length_a 5.286654
_cell_length_b 7.049091
_cell_length_c 19.508571
_cell_angle_alpha 115.460274
_cell_angle_beta 104.821199
_cell_angle_gamma 60.288529
_cell_volume 569.260740
_symmetry_space_group_name_H-M "P -1"
_symmetry_group_IT_number 2
_symmetry_cell_setting 'triclinic'
loop_
_space_group_symop_operation_xyz
x,y,z
-x,-y,-z
loop_
_atom_site_type_symbol
_atom_site_label
_atom_site_fract_x
_atom_site_fract_y
_atom_site_fract_z
Si Si1 0.738598 0.684325 0.417753
Si Si2 0.364273 0.910438 0.829632
Si Si3 0.698584 0.138462 0.035085
Si Si4 0.746776 0.581043 0.051554
Si Si5 0.032852 0.577472 0.811299
Si Si6 0.015069 0.202758 0.301358
Si Si7 0.879410 0.988319 0.562836
Si Si8 0.278908 0.087776 0.689862
O O1 0.789621 0.775672 0.510337
O O2 0.815453 0.806397 0.377052
O O3 0.920076 0.405404 0.383173
O O4 0.393277 0.762858 0.400910
O O5 0.240897 0.824285 0.874368
O O6 0.687207 0.711249 0.812778
O O7 0.191360 0.942722 0.747998
O O8 0.338087 0.163270 0.884358
O O9 0.536038 0.370415 0.010801
O O10 0.500000 0.000000 0.000000
O O11 0.000000 0.000000 0.000000
O O12 0.840554 0.407839 0.099884
O O13 0.000000 0.500000 0.000000
O O14 0.115357 0.672674 0.761928
O O15 0.146177 0.300195 0.766767
O O16 0.367032 0.051971 0.300991
O O17 0.000000 0.000000 0.500000
O O18 0.084353 0.930582 0.638413
#
# Coordination Sequence:
#
# PCOD8011687 Si02
#       8
#     2   2   2   2   2   2   2   2
#     4   9  20  38  62  90 129 166 217 264 314 382
#     4  12  25  42  68  95 130 171 213 270 325 386
#     4  11  26  46  68  98 130 165 217 269 323 396
#     4  11  24  44  69  96 126 172 212 265 331 384
#     4  11  24  43  64  97 132 167 222 268 319 389
#     4  11  23  41  61  95 130 167 220 265 318 387
#     4   9  18  38  62  90 128 171 211 269 316 369
#     4  10  21  39  63  92 127 173 212 263 326 372
#
# _framework density 28.106629000000002
#
# number of rings (size 3 to 8) (size 9 to 14) (size 15 to 20)
#    0.000    1.500    2.500    1.875    0.000    5.500 
#    0.000    5.625    0.000    0.000    0.000    0.000 
#    0.000    0.000    0.000    0.000    0.000    0.000 
#
# Total GULP energy -198223.070517 kJ/mol
# GULP energy per Si atom -12388.941907 kJ/mol
# Density = 2.804266 g / cm^3
# Si number density = 28.106629 Si / 1000 Ang^3
#
#
#
# Elastic Constant Matrix: (Units=GPa)
#
#
# Indices 1 2 3 4 5 6 
#
# 1 144.5917 95.6008 79.9116 3.6197 19.8019 -45.1663
# 2 95.6008 189.5821 111.4325 8.3825 5.1161 -8.8144
# 3 79.9116 111.4325 250.4598 -19.4358 28.8805 -27.7226
# 4 3.6197 8.3825 -19.4358 72.2570 -12.4089 -12.1973
# 5 19.8019 5.1161 28.8805 -12.4089 52.3573 2.5526
# 6 -45.1663 -8.8144 -27.7226 -12.1973 2.5526 55.9242
#
#
#
# Elastic Compliance Matrix: (Units=1/GPa)
#
#
# Indices 1 2 3 4 5 6 
#
# 1 0.016976 -0.008127 0.000492 0.001396 -0.006214 0.013262
# 2 -0.008127 0.011342 -0.003925 -0.002555 0.003889 -0.007457
# 3 0.000492 -0.003925 0.006511 0.002276 -0.003032 0.003642
# 4 0.001396 -0.002555 0.002276 0.015901 0.001980 0.005231
# 5 -0.006214 0.003889 -0.003032 0.001980 0.023531 -0.006551
# 6 0.013262 -0.007457 0.003642 0.005231 -0.006551 0.030662
#
#
# Mechanical properties :
#
#
# Convention : Reuss Voigt Hill
#
# Bulk Modulus (GPa) = 85.40547 128.72485 107.06516
# Shear Modulus (GPa) = 37.89434 55.95362 46.92398
#
# Velocity S-wave (km/s) = 3.67582 4.46664 4.09038
# Velocity P-wave (km/s) = 6.96187 8.51465 7.77711
#
# Compressibility (1/GPa) = 0.01170885
#
# Stress axis : x y z
#
# Youngs Moduli (GPa) = 58.90581 88.17148 153.58276
#
# Poissons Ratio (x) = 0.71661 -0.07561
# Poissons Ratio (y) = 0.47876 0.60279
# Poissons Ratio (z) = -0.02900 0.34606
#
# Static dielectric constant tensor:
#      x y z
#    x 5.586450 0.583240 -0.005000 
#    y 0.583240 5.896550 -0.969750 
#    z -0.005000 -0.969750 7.869580 
# 
# 
# High freq. dielectric constant tensor:
#      x y z
#    x 2.170560 0.042150 0.014290 
#    y 0.042150 2.178660 -0.036110 
#    z 0.014290 -0.036110 2.221520 
# 
# From -- ./inp_files/582525.got.cif
#   From: 2010.06.25/outbox.cif.g09.slc.cpg/sg2_292_cif.got.tgz:582525.got - 2010.06.27 13:26:56.
