data_PCOD8011445
_publ_section_title
;
Structure prediction by ZEFSAII (Michael W. Deem and Ramdas Pophale) SiO2 
 PCOD8011445
Probable space group: P -1
;
_chemical_formula_sum "Si O2"
_cell_formula_units_Z 14
_cell_length_a 24.849920
_cell_length_b 13.800071
_cell_length_c 8.200844
_cell_angle_alpha 140.566854
_cell_angle_beta 151.852024
_cell_angle_gamma 26.214398
_cell_volume 583.692122
_symmetry_space_group_name_H-M "P -1"
_symmetry_group_IT_number 2
_symmetry_cell_setting 'triclinic'
loop_
_space_group_symop_operation_xyz
x,y,z
-x,-y,-z
loop_
_atom_site_type_symbol
_atom_site_label
_atom_site_fract_x
_atom_site_fract_y
_atom_site_fract_z
Si Si1 0.976322 0.463967 0.655482
Si Si2 0.268737 0.293051 0.419223
Si Si3 0.652717 0.432262 0.496818
Si Si4 0.843295 0.809080 0.507140
Si Si5 0.328427 0.554281 0.786812
Si Si6 0.695140 0.278663 0.737190
Si Si7 0.445020 0.128826 0.188145
O O1 0.017936 0.307197 0.414546
O O2 0.815870 0.558422 0.447402
O O3 0.932055 0.675405 0.739430
O O4 0.132574 0.321074 0.004920
O O5 0.332891 0.367937 0.575523
O O6 0.420979 0.036464 0.530501
O O7 0.753001 0.330905 0.460217
O O8 0.767364 0.282805 0.767165
O O9 0.566754 0.678562 0.611667
O O10 0.515119 0.433016 0.123466
O O11 0.733390 0.063527 0.567421
O O12 0.728330 0.778452 0.102325
O O13 0.230237 0.721630 0.896428
O O14 0.500000 0.500000 0.500000
O O15 0.500000 0.000000 0.000000
#
# Coordination Sequence:
#
# PCOD8011445 Si02
#       7
#     2   2   2   2   2   2   2
#     4  10  25  43  67  95 140 175 219 274 341 407
#     4  11  23  43  67  99 132 175 226 275 334 394
#     4  10  22  37  63 103 136 160 219 286 338 378
#     4  11  23  45  69  97 133 178 224 274 338 398
#     4  10  21  39  61  91 134 171 211 270 331 397
#     4  10  21  39  65  97 130 170 217 280 327 384
#     4  12  21  37  74 103 126 173 232 284 321 389
#
# _framework density 23.985247999999999
#
# number of rings (size 3 to 8) (size 9 to 14) (size 15 to 20)
#    0.000    1.429    1.429    5.143    0.000    5.714 
#    2.571    1.429    0.000    0.000    0.000    0.000 
#    0.000    0.000    0.000    0.000    0.000    0.000 
#
# Total GULP energy -173519.708841 kJ/mol
# GULP energy per Si atom -12394.264917 kJ/mol
# Density = 2.393066 g / cm^3
# Si number density = 23.985248 Si / 1000 Ang^3
#
#
#
# Elastic Constant Matrix: (Units=GPa)
#
#
# Indices 1 2 3 4 5 6 
#
# 1 165.8880 22.7161 13.9203 2.6640 -30.7313 19.3795
# 2 22.7161 113.1050 22.9183 3.3233 -8.0687 14.1900
# 3 13.9203 22.9183 44.1586 5.1663 -6.4861 9.2933
# 4 2.6640 3.3233 5.1663 34.6049 5.1221 -2.9575
# 5 -30.7313 -8.0687 -6.4861 5.1221 40.1635 -1.2935
# 6 19.3795 14.1900 9.2933 -2.9575 -1.2935 31.0503
#
#
#
# Elastic Compliance Matrix: (Units=1/GPa)
#
#
# Indices 1 2 3 4 5 6 
#
# 1 0.007753 -0.000486 -0.000174 -0.001780 0.005889 -0.004489
# 2 -0.000486 0.010297 -0.004298 -0.000725 0.000994 -0.003143
# 3 -0.000174 -0.004298 0.027406 -0.004782 0.003832 -0.006426
# 4 -0.001780 -0.000725 -0.004782 0.031196 -0.006078 0.005592
# 5 0.005889 0.000994 0.003832 -0.006078 0.030851 -0.004570
# 6 -0.004489 -0.003143 -0.006426 0.005592 -0.004570 0.038709
#
#
# Mechanical properties :
#
#
# Convention : Reuss Voigt Hill
#
# Bulk Modulus (GPa) = 28.13827 49.14013 38.63920
# Shear Modulus (GPa) = 29.76643 38.73687 34.25165
#
# Velocity S-wave (km/s) = 3.52665 4.02310 3.78303
# Velocity P-wave (km/s) = 5.32353 6.48942 5.93517
#
# Compressibility (1/GPa) = 0.03553879
#
# Stress axis : x y z
#
# Youngs Moduli (GPa) = 128.97724 97.12032 36.48856
#
# Poissons Ratio (x) = 0.04724 0.00634
# Poissons Ratio (y) = 0.06273 0.15684
# Poissons Ratio (z) = 0.02241 0.41745
#
# Static dielectric constant tensor:
#      x y z
#    x 5.443520 0.220870 -0.354110 
#    y 0.220870 4.012750 -0.104850 
#    z -0.354110 -0.104850 4.174800 
# 
# 
# High freq. dielectric constant tensor:
#      x y z
#    x 1.984950 0.014010 -0.014580 
#    y 0.014010 1.924170 0.005630 
#    z -0.014580 0.005630 1.927390 
# 
# From -- ./inp_files/156801.got.cif
#   From: 2010.06.25/outbox.cif.g09.slc.cpg/sg2_79_cif.got.tgz:156801.got - 2010.06.27 13:26:56.
