data_PCOD8011280
_publ_section_title
;
Structure prediction by ZEFSAII (Michael W. Deem and Ramdas Pophale) SiO2 
 PCOD8011280
Probable space group: P -1
;
_chemical_formula_sum "Si O2"
_cell_formula_units_Z 16
_cell_length_a 6.327066
_cell_length_b 11.988035
_cell_length_c 12.358931
_cell_angle_alpha 85.364215
_cell_angle_beta 98.418277
_cell_angle_gamma 128.404283
_cell_volume 726.624637
_symmetry_space_group_name_H-M "P -1"
_symmetry_group_IT_number 2
_symmetry_cell_setting 'triclinic'
loop_
_space_group_symop_operation_xyz
x,y,z
-x,-y,-z
loop_
_atom_site_type_symbol
_atom_site_label
_atom_site_fract_x
_atom_site_fract_y
_atom_site_fract_z
Si Si1 0.006913 0.562623 0.736709
Si Si2 0.124198 0.351296 0.071871
Si Si3 0.356434 0.872393 0.643799
Si Si4 0.726480 0.559239 0.154778
Si Si5 0.569723 0.701380 0.280312
Si Si6 0.165060 0.943243 0.003013
Si Si7 0.088475 0.927314 0.439242
Si Si8 0.512626 0.080779 0.822945
O O1 0.004703 0.602204 0.858351
O O2 0.692360 0.451993 0.679385
O O3 0.194776 0.706206 0.670084
O O4 0.141313 0.483329 0.746056
O O5 0.431921 0.418506 0.114276
O O6 0.088724 0.383068 0.943642
O O7 0.976810 0.185394 0.082549
O O8 0.213479 0.869577 0.525121
O O9 0.679299 0.957833 0.638009
O O10 0.327438 0.951755 0.733907
O O11 0.696718 0.674930 0.190998
O O12 0.444479 0.781353 0.231120
O O13 0.814040 0.792058 0.375527
O O14 0.217859 0.906548 0.130597
O O15 0.422223 0.066473 0.942249
O O16 0.000000 0.000000 0.000000
O O17 0.000000 0.000000 0.500000
#
# Coordination Sequence:
#
# PCOD8011280 Si02
#       8
#     2   2   2   2   2   2   2   2
#     4  11  24  43  69 100 142 178 225 284 338 408
#     4  10  21  39  58  97 138 189 227 266 328 409
#     4  11  26  46  72 102 130 179 227 292 349 406
#     4  10  23  38  65  97 142 186 226 270 340 402
#     4  11  25  44  72 102 135 185 229 283 339 410
#     4  11  24  36  63 101 140 183 227 280 329 402
#     4  11  26  48  75  99 132 174 233 291 358 413
#     4  11  24  41  65 100 139 176 234 275 337 410
#
# _framework density 22.019621999999998
#
# number of rings (size 3 to 8) (size 9 to 14) (size 15 to 20)
#    0.000    1.250    2.500    1.875    7.000    4.500 
#    0.000    1.250    0.000    0.000    0.000    0.000 
#    0.000    0.000    0.000    0.000    0.000    0.000 
#
# Total GULP energy -198252.230635 kJ/mol
# GULP energy per Si atom -12390.764415 kJ/mol
# Density = 2.196950 g / cm^3
# Si number density = 22.019622 Si / 1000 Ang^3
#
#
#
# Elastic Constant Matrix: (Units=GPa)
#
#
# Indices 1 2 3 4 5 6 
#
# 1 104.4707 57.9146 42.0899 -6.9156 8.0980 -11.1690
# 2 57.9146 141.6315 50.5794 3.5432 10.0317 6.4291
# 3 42.0899 50.5794 94.4589 4.6599 8.8810 6.5253
# 4 -6.9156 3.5432 4.6599 37.9333 5.7675 -0.2515
# 5 8.0980 10.0317 8.8810 5.7675 30.8265 -1.2873
# 6 -11.1690 6.4291 6.5253 -0.2515 -1.2873 35.0140
#
#
#
# Elastic Compliance Matrix: (Units=1/GPa)
#
#
# Indices 1 2 3 4 5 6 
#
# 1 0.015257 -0.004847 -0.004715 0.004095 -0.001563 0.006607
# 2 -0.004847 0.010365 -0.003018 -0.001333 -0.001104 -0.002937
# 3 -0.004715 -0.003018 0.014842 -0.002151 -0.001812 -0.003798
# 4 0.004095 -0.001333 -0.002151 0.028306 -0.005236 0.001962
# 5 -0.001563 -0.001104 -0.001812 -0.005236 0.034764 0.001282
# 6 0.006607 -0.002937 -0.003798 0.001962 0.001282 0.031976
#
#
# Mechanical properties :
#
#
# Convention : Reuss Voigt Hill
#
# Bulk Modulus (GPa) = 65.33635 71.30322 68.31979
# Shear Modulus (GPa) = 30.16197 33.41991 31.79094
#
# Velocity S-wave (km/s) = 3.70507 3.90004 3.80380
# Velocity P-wave (km/s) = 6.93106 7.26170 7.09831
#
# Compressibility (1/GPa) = 0.01530542
#
# Stress axis : x y z
#
# Youngs Moduli (GPa) = 65.54401 96.47762 67.37521
#
# Poissons Ratio (x) = 0.46760 0.31765
# Poissons Ratio (y) = 0.31767 0.20335
# Poissons Ratio (z) = 0.30901 0.29118
#
# Static dielectric constant tensor:
#      x y z
#    x 4.069090 0.113800 0.020670 
#    y 0.113800 4.124590 0.169700 
#    z 0.020670 0.169700 4.075230 
# 
# 
# High freq. dielectric constant tensor:
#      x y z
#    x 1.874450 0.006110 0.001890 
#    y 0.006110 1.875790 0.009880 
#    z 0.001890 0.009880 1.847830 
# 
# From -- ./inp_files/364584.got.cif
#   From: 2010.06.25/outbox.cif.g09.slc.cpg/sg2_183_cif.got.tgz:364584.got - 2010.06.27 13:26:56.
