data_PCOD8011409
_publ_section_title
;
Structure prediction by ZEFSAII (Michael W. Deem and Ramdas Pophale) SiO2 
 PCOD8011409
Probable space group: P -1
;
_chemical_formula_sum "Si O2"
_cell_formula_units_Z 16
_cell_length_a 18.725934
_cell_length_b 23.545348
_cell_length_c 6.581277
_cell_angle_alpha 73.465916
_cell_angle_beta 117.832188
_cell_angle_gamma 160.311895
_cell_volume 738.287395
_symmetry_space_group_name_H-M "P -1"
_symmetry_group_IT_number 2
_symmetry_cell_setting 'triclinic'
loop_
_space_group_symop_operation_xyz
x,y,z
-x,-y,-z
loop_
_atom_site_type_symbol
_atom_site_label
_atom_site_fract_x
_atom_site_fract_y
_atom_site_fract_z
Si Si1 0.193519 0.799529 0.339346
Si Si2 0.019520 0.441368 0.391562
Si Si3 0.603048 0.243284 0.096209
Si Si4 0.967459 0.892225 0.994735
Si Si5 0.748868 0.448281 0.809952
Si Si6 0.919699 0.152190 0.970247
Si Si7 0.470180 0.582586 0.383069
Si Si8 0.813603 0.853350 0.211937
O O1 0.091677 0.695522 0.510405
O O2 0.500000 0.000000 0.500000
O O3 0.144540 0.835408 0.265487
O O4 0.030261 0.661743 0.069716
O O5 0.766054 0.305452 0.131663
O O6 0.229868 0.626372 0.612105
O O7 0.190062 0.541782 0.324808
O O8 0.572554 0.280584 0.883133
O O9 0.306661 0.013358 0.990209
O O10 0.696039 0.707857 0.687429
O O11 0.071839 0.898258 0.116927
O O12 0.919389 0.874210 0.186272
O O13 0.200271 0.097924 0.999540
O O14 0.572018 0.383026 0.603318
O O15 0.200168 0.354736 0.258864
O O16 0.537999 0.640299 0.172393
O O17 0.000000 0.000000 0.500000
#
# Coordination Sequence:
#
# PCOD8011409 Si02
#       8
#     2   2   2   2   2   2   2   2
#     4  10  21  41  60  85 126 159 196 259 308 359
#     4  10  21  40  64  85 120 165 206 256 310 365
#     4  10  21  39  61  88 124 156 209 264 302 359
#     4  10  21  39  66  89 122 164 206 247 304 366
#     4  10  22  38  64  88 115 166 209 247 310 367
#     4  11  22  39  62  93 126 165 203 253 313 368
#     4  10  22  39  58  90 129 160 199 253 305 367
#     4   9  20  40  65  87 120 162 204 254 303 356
#
# _framework density 21.671778
#
# number of rings (size 3 to 8) (size 9 to 14) (size 15 to 20)
#    0.000    2.000    1.250    1.500    0.000    7.000 
#    0.000    6.250    0.000    0.000    0.000    0.000 
#    0.000    0.000    0.000    0.000    0.000    0.000 
#
# Total GULP energy -198389.245812 kJ/mol
# GULP energy per Si atom -12399.327863 kJ/mol
# Density = 2.162245 g / cm^3
# Si number density = 21.671778 Si / 1000 Ang^3
#
#
#
# Elastic Constant Matrix: (Units=GPa)
#
#
# Indices 1 2 3 4 5 6 
#
# 1 130.9214 19.6566 17.7419 -14.6247 -0.4664 5.6471
# 2 19.6566 121.0607 22.4314 9.9840 -7.1015 3.5388
# 3 17.7419 22.4314 46.9640 -1.0176 0.7434 5.3028
# 4 -14.6247 9.9840 -1.0176 17.1804 8.9916 1.1970
# 5 -0.4664 -7.1015 0.7434 8.9916 30.0269 -10.6599
# 6 5.6471 3.5388 5.3028 1.1970 -10.6599 36.0345
#
#
#
# Elastic Compliance Matrix: (Units=1/GPa)
#
#
# Indices 1 2 3 4 5 6 
#
# 1 0.009782 -0.002518 -0.001798 0.012637 -0.005246 -0.002993
# 2 -0.002518 0.011036 -0.005028 -0.012995 0.007551 0.002716
# 3 -0.001798 -0.005028 0.025116 0.005974 -0.005291 -0.004684
# 4 0.012637 -0.012995 0.005974 0.097908 -0.038057 -0.016094
# 5 -0.005246 0.007551 -0.005291 -0.038057 0.052838 0.017754
# 6 -0.002993 0.002716 -0.004684 -0.016094 0.017754 0.034429
#
#
# Mechanical properties :
#
#
# Convention : Reuss Voigt Hill
#
# Bulk Modulus (GPa) = 36.70190 46.51177 41.60684
# Shear Modulus (GPa) = 19.31405 32.58944 25.95174
#
# Velocity S-wave (km/s) = 2.98855 3.88206 3.46423
# Velocity P-wave (km/s) = 5.37407 6.44999 5.93646
#
# Compressibility (1/GPa) = 0.02724655
#
# Stress axis : x y z
#
# Youngs Moduli (GPa) = 102.22995 90.61247 39.81563
#
# Poissons Ratio (x) = 0.22812 0.07159
# Poissons Ratio (y) = 0.25737 0.20019
# Poissons Ratio (z) = 0.18383 0.45559
#
# Static dielectric constant tensor:
#      x y z
#    x 4.081890 -0.010050 0.160570 
#    y -0.010050 4.312660 -0.107960 
#    z 0.160570 -0.107960 3.905030 
# 
# 
# High freq. dielectric constant tensor:
#      x y z
#    x 1.860180 -0.001270 0.008510 
#    y -0.001270 1.861370 0.004150 
#    z 0.008510 0.004150 1.827900 
# 
# From -- ./inp_files/89819.got.cif
#   From: 2010.06.25/outbox.cif.g09.slc.cpg/sg2_45_cif.got.tgz:89819.got - 2010.06.27 13:26:56.
