data_PCOD8011400
_publ_section_title
;
Structure prediction by ZEFSAII (Michael W. Deem and Ramdas Pophale) SiO2 
 PCOD8011400
Probable space group: P -1
;
_chemical_formula_sum "Si O2"
_cell_formula_units_Z 16
_cell_length_a 18.856971
_cell_length_b 6.508700
_cell_length_c 9.920069
_cell_angle_alpha 43.421332
_cell_angle_beta 106.855649
_cell_angle_gamma 110.258599
_cell_volume 783.713046
_symmetry_space_group_name_H-M "P -1"
_symmetry_group_IT_number 2
_symmetry_cell_setting 'triclinic'
loop_
_space_group_symop_operation_xyz
x,y,z
-x,-y,-z
loop_
_atom_site_type_symbol
_atom_site_label
_atom_site_fract_x
_atom_site_fract_y
_atom_site_fract_z
Si Si1 0.766257 0.848967 0.972637
Si Si2 0.661577 0.450438 0.306350
Si Si3 0.100656 0.297443 0.016275
Si Si4 0.127773 0.577483 0.174877
Si Si5 0.721075 0.445060 0.627409
Si Si6 0.400829 0.233536 0.483701
Si Si7 0.530867 0.719970 0.211016
Si Si8 0.991962 0.369568 0.707221
O O1 0.717537 0.564939 0.159857
O O2 0.809943 0.718491 0.936460
O O3 0.837800 0.056707 0.992892
O O4 0.710027 0.073314 0.792659
O O5 0.710492 0.548586 0.420481
O O6 0.591528 0.623606 0.188528
O O7 0.633440 0.087583 0.452022
O O8 0.073072 0.441547 0.795470
O O9 0.092539 0.492140 0.050888
O O10 0.041582 0.986088 0.158842
O O11 0.195528 0.407795 0.338644
O O12 0.065323 0.487468 0.299727
O O13 0.660808 0.553771 0.639511
O O14 0.465596 0.417674 0.334996
O O15 0.433377 0.170639 0.677031
O O16 0.500000 0.000000 0.000000
O O17 0.000000 0.500000 0.500000
#
# Coordination Sequence:
#
# PCOD8011400 Si02
#       8
#     2   2   2   2   2   2   2   2
#     4   9  22  37  58  88 122 156 202 246 301 363
#     4  11  22  38  62  90 120 158 201 252 299 360
#     4  10  21  39  61  87 123 158 206 250 300 363
#     4   9  21  41  60  86 125 160 196 252 304 357
#     4   9  22  38  57  87 122 153 201 247 300 361
#     4  10  22  38  60  89 120 154 202 252 296 359
#     4  10  22  40  60  87 121 157 202 247 300 360
#     4  10  22  39  61  90 120 158 205 254 301 361
#
# _framework density 20.415637
#
# number of rings (size 3 to 8) (size 9 to 14) (size 15 to 20)
#    0.750    1.500    0.000    1.500    3.500    4.000 
#    2.250    0.000    0.000    0.000    0.000    0.000 
#    0.000    0.000    0.000    0.000    0.000    0.000 
#
# Total GULP energy -198262.560593 kJ/mol
# GULP energy per Si atom -12391.410037 kJ/mol
# Density = 2.036917 g / cm^3
# Si number density = 20.415637 Si / 1000 Ang^3
#
#
#
# Elastic Constant Matrix: (Units=GPa)
#
#
# Indices 1 2 3 4 5 6 
#
# 1 112.8786 40.0162 47.6145 3.2922 -1.4257 -6.2430
# 2 40.0162 81.1281 40.0426 10.8625 -5.2752 -7.6706
# 3 47.6145 40.0426 103.8839 8.5785 -2.5991 0.4819
# 4 3.2922 10.8625 8.5785 23.9118 0.6132 -3.8338
# 5 -1.4257 -5.2752 -2.5991 0.6132 37.7401 1.8087
# 6 -6.2430 -7.6706 0.4819 -3.8338 1.8087 20.4742
#
#
#
# Elastic Compliance Matrix: (Units=1/GPa)
#
#
# Indices 1 2 3 4 5 6 
#
# 1 0.012131 -0.003947 -0.004239 0.002101 -0.000552 0.002762
# 2 -0.003947 0.017777 -0.004584 -0.005228 0.001893 0.004418
# 3 -0.004239 -0.004584 0.013598 -0.002846 0.000369 -0.003896
# 4 0.002101 -0.005228 -0.002846 0.046191 -0.001961 0.007571
# 5 -0.000552 0.001893 0.000369 -0.001961 0.026904 -0.002212
# 6 0.002762 0.004418 -0.003896 0.007571 -0.002212 0.053044
#
#
# Mechanical properties :
#
#
# Convention : Reuss Voigt Hill
#
# Bulk Modulus (GPa) = 55.66349 61.47081 58.56715
# Shear Modulus (GPa) = 24.85405 27.77303 26.31354
#
# Velocity S-wave (km/s) = 3.49291 3.69233 3.59401
# Velocity P-wave (km/s) = 6.60239 6.95362 6.78028
#
# Compressibility (1/GPa) = 0.01796510
#
# Stress axis : x y z
#
# Youngs Moduli (GPa) = 82.43374 56.25329 73.53882
#
# Poissons Ratio (x) = 0.22206 0.31170
# Poissons Ratio (y) = 0.32541 0.33712
# Poissons Ratio (z) = 0.34941 0.25788
#
# Static dielectric constant tensor:
#      x y z
#    x 3.858700 -0.043890 0.148600 
#    y -0.043890 3.529550 0.080990 
#    z 0.148600 0.080990 3.433110 
# 
# 
# High freq. dielectric constant tensor:
#      x y z
#    x 1.814460 -0.007750 0.005440 
#    y -0.007750 1.788660 0.005900 
#    z 0.005440 0.005900 1.777330 
# 
# From -- ./inp_files/339588.got.cif
#   From: 2010.06.25/outbox.cif.g09.slc.cpg/sg2_170_cif.got.tgz:339588.got - 2010.06.27 13:26:56.
