data_PCOD8011064
_publ_section_title
;
Structure prediction by ZEFSAII (Michael W. Deem and Ramdas Pophale) SiO2 
 PCOD8011064
Probable space group: P -1
;
_chemical_formula_sum "Si O2"
_cell_formula_units_Z 16
_cell_length_a 14.972313
_cell_length_b 11.602040
_cell_length_c 8.850170
_cell_angle_alpha 75.411737
_cell_angle_beta 113.106788
_cell_angle_gamma 149.607385
_cell_volume 702.875632
_symmetry_space_group_name_H-M "P -1"
_symmetry_group_IT_number 2
_symmetry_cell_setting 'triclinic'
loop_
_space_group_symop_operation_xyz
x,y,z
-x,-y,-z
loop_
_atom_site_type_symbol
_atom_site_label
_atom_site_fract_x
_atom_site_fract_y
_atom_site_fract_z
Si Si1 0.358756 0.567450 0.236074
Si Si2 0.503665 0.357944 0.381841
Si Si3 0.980346 0.047549 0.127845
Si Si4 0.865427 0.998141 0.585226
Si Si5 0.972833 0.353544 0.435796
Si Si6 0.412116 0.963871 0.805846
Si Si7 0.336219 0.249964 0.776774
Si Si8 0.618837 0.225434 0.428263
O O1 0.395237 0.528755 0.424410
O O2 0.134728 0.317117 0.139806
O O3 0.429813 0.778052 0.242068
O O4 0.478687 0.640138 0.149986
O O5 0.599228 0.545205 0.262773
O O6 0.506291 0.229700 0.356264
O O7 0.290881 0.176420 0.329305
O O8 0.997907 0.968255 0.300490
O O9 0.773749 0.884938 0.090227
O O10 0.000000 0.000000 0.000000
O O11 0.954431 0.223554 0.583363
O O12 0.801069 0.926617 0.393471
O O13 0.000000 0.500000 0.500000
O O14 0.176285 0.545500 0.426327
O O15 0.788507 0.174358 0.262285
O O16 0.364429 0.800500 0.724399
O O17 0.500000 0.000000 0.000000
O O18 0.500000 0.000000 0.500000
#
# Coordination Sequence:
#
# PCOD8011064 Si02
#       8
#     2   2   2   2   2   2   2   2
#     4  11  22  43  67  95 134 170 228 278 332 406
#     4  11  19  38  71  99 125 169 234 279 320 396
#     4  12  27  41  62 103 141 173 215 279 351 410
#     4  11  20  41  65  96 127 171 230 273 324 408
#     4  10  21  38  66  94 127 178 234 276 326 406
#     4  11  24  44  66  97 136 178 224 288 350 396
#     4  11  22  40  71  94 123 176 224 269 333 393
#     4  11  22  39  66  97 131 180 231 278 331 403
#
# _framework density 22.763629000000002
#
# number of rings (size 3 to 8) (size 9 to 14) (size 15 to 20)
#    0.000    1.000    6.250    2.625    1.750    3.500 
#    2.250    0.625    0.000    0.000    0.000    0.000 
#    0.000    0.000    0.000    0.000    0.000    0.000 
#
# Total GULP energy -198254.767890 kJ/mol
# GULP energy per Si atom -12390.922993 kJ/mol
# Density = 2.271182 g / cm^3
# Si number density = 22.763629 Si / 1000 Ang^3
#
#
#
# Elastic Constant Matrix: (Units=GPa)
#
#
# Indices 1 2 3 4 5 6 
#
# 1 93.5798 33.6124 2.4040 -2.0275 -12.1069 1.1600
# 2 33.6124 154.7624 18.8186 4.9297 -3.8571 6.1198
# 3 2.4040 18.8186 44.5830 3.3561 2.6245 10.7711
# 4 -2.0275 4.9297 3.3561 21.3447 1.7823 -4.7580
# 5 -12.1069 -3.8571 2.6245 1.7823 32.5588 -5.4337
# 6 1.1600 6.1198 10.7711 -4.7580 -5.4337 50.1361
#
#
#
# Elastic Compliance Matrix: (Units=1/GPa)
#
#
# Indices 1 2 3 4 5 6 
#
# 1 0.012203 -0.002610 -0.000086 0.001568 0.004260 0.000665
# 2 -0.002610 0.007439 -0.002794 -0.001626 0.000161 -0.000384
# 3 -0.000086 -0.002794 0.025563 -0.004436 -0.003167 -0.005913
# 4 0.001568 -0.001626 -0.004436 0.049426 -0.001007 0.005697
# 5 0.004260 0.000161 -0.003167 -0.001007 0.033308 0.004077
# 6 0.000665 -0.000384 -0.005913 0.005697 0.004077 0.022230
#
#
# Mechanical properties :
#
#
# Convention : Reuss Voigt Hill
#
# Bulk Modulus (GPa) = 29.21763 44.73280 36.97521
# Shear Modulus (GPa) = 28.97620 36.68061 32.82840
#
# Velocity S-wave (km/s) = 3.57167 4.01854 3.80168
# Velocity P-wave (km/s) = 5.46554 6.42069 5.96227
#
# Compressibility (1/GPa) = 0.03422592
#
# Stress axis : x y z
#
# Youngs Moduli (GPa) = 81.94962 134.42619 39.11926
#
# Poissons Ratio (x) = 0.35084 0.00336
# Poissons Ratio (y) = 0.21388 0.10928
# Poissons Ratio (z) = 0.00704 0.37552
#
# Static dielectric constant tensor:
#      x y z
#    x 5.700710 -0.094460 -0.531930 
#    y -0.094460 4.122670 0.199410 
#    z -0.531930 0.199410 3.962730 
# 
# 
# High freq. dielectric constant tensor:
#      x y z
#    x 1.908730 -0.004640 -0.002510 
#    y -0.004640 1.918960 0.008660 
#    z -0.002510 0.008660 1.845480 
# 
# From -- ./inp_files/307391.got.cif
#   From: 2010.06.25/outbox.cif.g09.slc.cpg/sg2_154_cif.got.tgz:307391.got - 2010.06.27 13:26:56.
