data_PCOD8011542
_publ_section_title
;
Structure prediction by ZEFSAII (Michael W. Deem and Ramdas Pophale) SiO2 
 PCOD8011542
Probable space group: P -1
;
_chemical_formula_sum "Si O2"
_cell_formula_units_Z 16
_cell_length_a 8.799326
_cell_length_b 15.636354
_cell_length_c 9.064329
_cell_angle_alpha 141.582464
_cell_angle_beta 94.842790
_cell_angle_gamma 84.528837
_cell_volume 771.341155
_symmetry_space_group_name_H-M "P -1"
_symmetry_group_IT_number 2
_symmetry_cell_setting 'triclinic'
loop_
_space_group_symop_operation_xyz
x,y,z
-x,-y,-z
loop_
_atom_site_type_symbol
_atom_site_label
_atom_site_fract_x
_atom_site_fract_y
_atom_site_fract_z
Si Si1 0.862983 0.397575 0.174758
Si Si2 0.348829 0.267436 0.001178
Si Si3 0.951676 0.866617 0.230405
Si Si4 0.163434 0.543170 0.420129
Si Si5 0.683402 0.247203 0.484992
Si Si6 0.419083 0.619094 0.057960
Si Si7 0.427629 0.147566 0.150689
Si Si8 0.131235 0.033013 0.946646
O O1 0.823203 0.374899 0.313723
O O2 0.987456 0.513606 0.332002
O O3 0.709606 0.447420 0.143767
O O4 0.924570 0.259080 0.909155
O O5 0.267659 0.403039 0.250780
O O6 0.439416 0.182904 0.024426
O O7 0.218538 0.175370 0.793403
O O8 0.463459 0.303573 0.930301
O O9 0.956456 0.895954 0.098371
O O10 0.000000 0.000000 0.500000
O O11 0.216343 0.634092 0.411961
O O12 0.656925 0.268992 0.685523
O O13 0.519350 0.257107 0.400283
O O14 0.771914 0.101588 0.278800
O O15 0.500000 0.500000 0.000000
O O16 0.500000 0.000000 0.000000
O O17 0.247601 0.142840 0.172088
O O18 0.000000 0.000000 0.000000
#
# Coordination Sequence:
#
# PCOD8011542 Si02
#       8
#     2   2   2   2   2   2   2   2
#     4  10  23  40  64  90 125 162 215 265 317 373
#     4  10  22  41  64  89 127 170 214 259 313 379
#     4  10  21  42  63  89 121 165 212 259 319 371
#     4  10  21  41  64  92 121 168 213 268 313 369
#     4  11  22  39  60  93 130 161 211 257 320 376
#     4  12  25  41  58  96 131 170 206 251 325 382
#     4   9  21  40  63  91 125 168 213 263 306 377
#     4  10  21  39  62  91 121 159 213 263 310 370
#
# _framework density 20.743092000000001
#
# number of rings (size 3 to 8) (size 9 to 14) (size 15 to 20)
#    0.000    1.750    1.250    2.250    1.750    4.500 
#    2.250   10.000    0.000    0.000    0.000    0.000 
#    0.000    0.000    0.000    0.000    0.000    0.000 
#
# Total GULP energy -198363.835019 kJ/mol
# GULP energy per Si atom -12397.739689 kJ/mol
# Density = 2.069588 g / cm^3
# Si number density = 20.743092 Si / 1000 Ang^3
#
#
#
# Elastic Constant Matrix: (Units=GPa)
#
#
# Indices 1 2 3 4 5 6 
#
# 1 123.2419 65.0342 49.8476 -17.7560 17.3698 20.1555
# 2 65.0342 121.6739 17.9925 -2.8970 14.6158 16.4940
# 3 49.8476 17.9925 94.0056 -8.5857 13.0341 6.2700
# 4 -17.7560 -2.8970 -8.5857 28.7318 -2.7973 -2.8198
# 5 17.3698 14.6158 13.0341 -2.7973 35.4560 -0.9876
# 6 20.1555 16.4940 6.2700 -2.8198 -0.9876 46.7703
#
#
#
# Elastic Compliance Matrix: (Units=1/GPa)
#
#
# Indices 1 2 3 4 5 6 
#
# 1 0.015966 -0.006745 -0.005997 0.006835 -0.002391 -0.003336
# 2 -0.006745 0.012078 0.001461 -0.002931 -0.002493 -0.001778
# 3 -0.005997 0.001461 0.013942 0.000355 -0.002757 0.000163
# 4 0.006835 -0.002931 0.000355 0.038958 0.000814 0.000407
# 5 -0.002391 -0.002493 -0.002757 0.000814 0.031564 0.002994
# 6 -0.003336 -0.001778 0.000163 0.000407 0.002994 0.023512
#
#
# Mechanical properties :
#
#
# Convention : Reuss Voigt Hill
#
# Bulk Modulus (GPa) = 51.48007 67.18553 59.33280
# Shear Modulus (GPa) = 30.29257 35.92809 33.11033
#
# Velocity S-wave (km/s) = 3.82562 4.16631 3.99959
# Velocity P-wave (km/s) = 6.66226 7.45680 7.07070
#
# Compressibility (1/GPa) = 0.01942499
#
# Stress axis : x y z
#
# Youngs Moduli (GPa) = 62.63173 82.79227 71.72662
#
# Poissons Ratio (x) = 0.55843 0.43016
# Poissons Ratio (y) = 0.42245 -0.10482
# Poissons Ratio (z) = 0.37561 -0.12099
#
# Static dielectric constant tensor:
#      x y z
#    x 3.785220 -0.126540 0.307520 
#    y -0.126540 3.631370 0.338140 
#    z 0.307520 0.338140 3.133600 
# 
# 
# High freq. dielectric constant tensor:
#      x y z
#    x 1.822970 -0.001960 0.014240 
#    y -0.001960 1.816160 0.006250 
#    z 0.014240 0.006250 1.804150 
# 
# From -- ./inp_files/178918.got.cif
#   From: 2010.06.25/outbox.cif.g09.slc.cpg/sg2_90_cif.got.tgz:178918.got - 2010.06.27 13:26:56.
