data_PCOD8011210
_publ_section_title
;
Structure prediction by ZEFSAII (Michael W. Deem and Ramdas Pophale) SiO2 
 PCOD8011210
Probable space group: P -1
;
_chemical_formula_sum "Si O2"
_cell_formula_units_Z 14
_cell_length_a 8.602882
_cell_length_b 20.747157
_cell_length_c 10.390860
_cell_angle_alpha 25.554320
_cell_angle_beta 56.894365
_cell_angle_gamma 64.383162
_cell_volume 660.718480
_symmetry_space_group_name_H-M "P -1"
_symmetry_group_IT_number 2
_symmetry_cell_setting 'triclinic'
loop_
_space_group_symop_operation_xyz
x,y,z
-x,-y,-z
loop_
_atom_site_type_symbol
_atom_site_label
_atom_site_fract_x
_atom_site_fract_y
_atom_site_fract_z
Si Si1 0.983846 0.805620 0.225361
Si Si2 0.763895 0.891303 0.799498
Si Si3 0.916056 0.649418 0.800629
Si Si4 0.856198 0.611595 0.398756
Si Si5 0.588017 0.149399 0.117253
Si Si6 0.496613 0.567081 0.238595
Si Si7 0.055780 0.924156 0.402630
O O1 0.915084 0.760373 0.480597
O O2 0.895862 0.662525 0.435545
O O3 0.208620 0.842818 0.049703
O O4 0.906161 0.958113 0.945686
O O5 0.545700 0.827723 0.985806
O O6 0.861201 0.949850 0.514546
O O7 0.881450 0.762182 0.027556
O O8 0.779692 0.028292 0.650664
O O9 0.039068 0.750778 0.673043
O O10 0.705870 0.595320 0.039520
O O11 0.000000 0.500000 0.000000
O O12 0.639073 0.534547 0.617618
O O13 0.000000 0.500000 0.500000
O O14 0.500000 0.000000 0.500000
O O15 0.589124 0.279555 0.987924
O O16 0.500000 0.500000 0.500000
#
# Coordination Sequence:
#
# PCOD8011210 Si02
#       7
#     2   2   2   2   2   2   2
#     4  11  24  41  66  96 135 173 219 270 340 391
#     4  10  21  38  70  96 130 162 230 272 324 375
#     4  12  26  42  66  95 136 180 216 271 339 391
#     4  11  23  38  68 101 130 171 221 279 325 384
#     4  12  21  39  67 104 123 171 226 270 325 392
#     4  12  23  43  69  93 133 172 224 273 323 399
#     4  10  21  42  65  94 130 174 213 276 324 392
#
# _framework density 21.189056000000001
#
# number of rings (size 3 to 8) (size 9 to 14) (size 15 to 20)
#    0.000    0.857    5.714    1.286    2.000    0.571 
#    0.000    0.714    3.143    0.000    0.000    0.000 
#    0.000    0.000    0.000    0.000    0.000    0.000 
#
# Total GULP energy -173549.522134 kJ/mol
# GULP energy per Si atom -12396.394438 kJ/mol
# Density = 2.114083 g / cm^3
# Si number density = 21.189056 Si / 1000 Ang^3
#
#
#
# Elastic Constant Matrix: (Units=GPa)
#
#
# Indices 1 2 3 4 5 6 
#
# 1 90.6698 30.9889 27.7053 -0.9021 -22.0292 21.8389
# 2 30.9889 99.9192 47.6650 -11.2000 -12.8971 16.2801
# 3 27.7053 47.6650 111.0966 6.3238 -9.3658 5.7959
# 4 -0.9021 -11.2000 6.3238 50.0704 4.7123 -8.5319
# 5 -22.0292 -12.8971 -9.3658 4.7123 37.7907 -6.7952
# 6 21.8389 16.2801 5.7959 -8.5319 -6.7952 36.9506
#
#
#
# Elastic Compliance Matrix: (Units=1/GPa)
#
#
# Indices 1 2 3 4 5 6 
#
# 1 0.015742 -0.002075 -0.001973 -0.001813 0.006906 -0.007229
# 2 -0.002075 0.014354 -0.005541 0.003195 0.001334 -0.003246
# 3 -0.001973 -0.005541 0.011997 -0.002630 0.000477 0.001206
# 4 -0.001813 0.003195 -0.002630 0.022024 -0.002520 0.004698
# 5 0.006906 0.001334 0.000477 -0.002520 0.031457 0.000459
# 6 -0.007229 -0.003246 0.001206 0.004698 0.000459 0.033746
#
#
# Mechanical properties :
#
#
# Convention : Reuss Voigt Hill
#
# Bulk Modulus (GPa) = 43.63889 57.15601 50.39745
# Shear Modulus (GPa) = 32.02318 37.98411 35.00365
#
# Velocity S-wave (km/s) = 3.89177 4.23854 4.06885
# Velocity P-wave (km/s) = 6.39017 7.14048 6.77572
#
# Compressibility (1/GPa) = 0.02291534
#
# Stress axis : x y z
#
# Youngs Moduli (GPa) = 63.52414 69.66689 83.35070
#
# Poissons Ratio (x) = 0.14457 0.16445
# Poissons Ratio (y) = 0.13182 0.46185
# Poissons Ratio (z) = 0.12533 0.38603
#
# Static dielectric constant tensor:
#      x y z
#    x 3.986530 0.312980 -0.097600 
#    y 0.312980 3.751170 -0.240420 
#    z -0.097600 -0.240420 4.076390 
# 
# 
# High freq. dielectric constant tensor:
#      x y z
#    x 1.829630 0.023650 -0.006640 
#    y 0.023650 1.815090 -0.019120 
#    z -0.006640 -0.019120 1.845900 
# 
# From -- ./inp_files/157175.got.cif
#   From: 2010.06.25/outbox.cif.g09.slc.cpg/sg2_79_cif.got.tgz:157175.got - 2010.06.27 13:26:56.
