data_PCOD8011179
_publ_section_title
;
Structure prediction by ZEFSAII (Michael W. Deem and Ramdas Pophale) SiO2 
 PCOD8011179
Probable space group: P -1
;
_chemical_formula_sum "Si O2"
_cell_formula_units_Z 14
_cell_length_a 8.934036
_cell_length_b 11.855409
_cell_length_c 9.085741
_cell_angle_alpha 85.258502
_cell_angle_beta 85.318478
_cell_angle_gamma 129.085555
_cell_volume 733.201477
_symmetry_space_group_name_H-M "P -1"
_symmetry_group_IT_number 2
_symmetry_cell_setting 'triclinic'
loop_
_space_group_symop_operation_xyz
x,y,z
-x,-y,-z
loop_
_atom_site_type_symbol
_atom_site_label
_atom_site_fract_x
_atom_site_fract_y
_atom_site_fract_z
Si Si1 0.112153 0.058876 0.168487
Si Si2 0.492886 0.942519 0.168031
Si Si3 0.117010 0.832672 0.723345
Si Si4 0.534379 0.715221 0.087983
Si Si5 0.111668 0.442544 0.046194
Si Si6 0.146166 0.267286 0.825565
Si Si7 0.133720 0.869270 0.374079
O O1 0.985248 0.105435 0.214378
O O2 0.167824 0.019180 0.320330
O O3 0.316821 0.193250 0.067624
O O4 0.985131 0.907724 0.093813
O O5 0.503036 0.812162 0.174693
O O6 0.293558 0.873784 0.273929
O O7 0.670166 0.078545 0.232997
O O8 0.500000 0.000000 0.000000
O O9 0.139608 0.846061 0.546001
O O10 0.991776 0.660910 0.791376
O O11 0.334946 0.575252 0.050225
O O12 0.626729 0.661641 0.191621
O O13 0.096681 0.346379 0.926240
O O14 0.000000 0.500000 0.000000
O O15 0.079704 0.267876 0.664762
#
# Coordination Sequence:
#
# PCOD8011179 Si02
#       7
#     2   2   2   2   2   2   2
#     4  10  21  38  69  91 120 154 212 258 306 354
#     4  12  21  38  65  93 122 159 213 253 300 361
#     4  12  23  42  62  93 130 162 199 255 317 362
#     4  12  21  38  64  95 118 163 211 258 295 359
#     4  12  26  39  62  91 128 166 207 250 304 372
#     4  10  21  41  63  92 116 161 212 254 301 360
#     4  10  23  38  66  95 124 156 203 263 313 358
#
# _framework density 19.094342999999999
#
# number of rings (size 3 to 8) (size 9 to 14) (size 15 to 20)
#    0.857    0.000    4.286    5.143    0.000    0.000 
#    0.000    3.571    0.000    0.000    0.000    0.000 
#    0.000    0.000    0.000    0.000    0.000    0.000 
#
# Total GULP energy -173559.963536 kJ/mol
# GULP energy per Si atom -12397.140253 kJ/mol
# Density = 1.905088 g / cm^3
# Si number density = 19.094343 Si / 1000 Ang^3
#
#
#
# Elastic Constant Matrix: (Units=GPa)
#
#
# Indices 1 2 3 4 5 6 
#
# 1 157.3639 53.9221 68.8873 6.4279 8.6750 1.1193
# 2 53.9221 99.8560 61.7890 8.3795 4.2801 11.9128
# 3 68.8873 61.7890 114.8276 10.0909 15.7601 12.9612
# 4 6.4279 8.3795 10.0909 18.9176 2.3864 3.3784
# 5 8.6750 4.2801 15.7601 2.3864 26.8586 10.4293
# 6 1.1193 11.9128 12.9612 3.3784 10.4293 41.7467
#
#
#
# Elastic Compliance Matrix: (Units=1/GPa)
#
#
# Indices 1 2 3 4 5 6 
#
# 1 0.009089 -0.002501 -0.004219 0.000020 -0.000835 0.001987
# 2 -0.002501 0.016227 -0.007199 -0.002433 0.003865 -0.003097
# 3 -0.004219 -0.007199 0.016388 -0.003120 -0.006416 -0.001066
# 4 0.000020 -0.002433 -0.003120 0.056262 -0.001843 -0.002430
# 5 -0.000835 0.003865 -0.006416 -0.001843 0.044743 -0.010117
# 6 0.001987 -0.003097 -0.001066 -0.002430 -0.010117 0.027839
#
#
# Mechanical properties :
#
#
# Convention : Reuss Voigt Hill
#
# Bulk Modulus (GPa) = 72.10540 82.36050 77.23295
# Shear Modulus (GPa) = 24.62950 30.00118 27.31534
#
# Velocity S-wave (km/s) = 3.59539 3.96815 3.78636
# Velocity P-wave (km/s) = 7.42162 8.01386 7.72342
#
# Compressibility (1/GPa) = 0.01386859
#
# Stress axis : x y z
#
# Youngs Moduli (GPa) = 110.01766 61.62488 61.01946
#
# Poissons Ratio (x) = 0.15411 0.25742
# Poissons Ratio (y) = 0.27513 0.43926
# Poissons Ratio (z) = 0.46413 0.44362
#
# Static dielectric constant tensor:
#      x y z
#    x 4.209930 -0.045610 -0.227230 
#    y -0.045610 3.512810 0.087260 
#    z -0.227230 0.087260 3.835670 
# 
# 
# High freq. dielectric constant tensor:
#      x y z
#    x 1.774230 0.000680 0.007550 
#    y 0.000680 1.731960 0.010900 
#    z 0.007550 0.010900 1.720920 
# 
# From -- ./inp_files/183215.got.cif
#   From: 2010.06.25/outbox.cif.g09.slc.cpg/sg2_92_cif.got.tgz:183215.got - 2010.06.27 13:26:56.
