data_PCOD8011792
_publ_section_title
;
Structure prediction by ZEFSAII (Michael W. Deem and Ramdas Pophale) SiO2 
 PCOD8011792
Probable space group: P -1
;
_chemical_formula_sum "Si O2"
_cell_formula_units_Z 16
_cell_length_a 11.141293
_cell_length_b 10.986669
_cell_length_c 8.843865
_cell_angle_alpha 104.999633
_cell_angle_beta 120.534527
_cell_angle_gamma 57.744977
_cell_volume 788.413787
_symmetry_space_group_name_H-M "P -1"
_symmetry_group_IT_number 2
_symmetry_cell_setting 'triclinic'
loop_
_space_group_symop_operation_xyz
x,y,z
-x,-y,-z
loop_
_atom_site_type_symbol
_atom_site_label
_atom_site_fract_x
_atom_site_fract_y
_atom_site_fract_z
Si Si1 0.627130 0.011953 0.691448
Si Si2 0.971107 0.376055 0.509891
Si Si3 0.906243 0.574066 0.111599
Si Si4 0.331803 0.113965 0.008013
Si Si5 0.798897 0.064063 0.253042
Si Si6 0.576343 0.270190 0.944948
Si Si7 0.740673 0.445468 0.141264
Si Si8 0.877882 0.938169 0.577803
O O1 0.569070 0.167874 0.778295
O O2 0.500000 0.000000 0.500000
O O3 0.658334 0.898266 0.807927
O O4 0.782543 0.983615 0.687441
O O5 0.975005 0.392280 0.698524
O O6 0.109400 0.214574 0.507845
O O7 0.000000 0.500000 0.500000
O O8 0.806063 0.394554 0.339186
O O9 0.876874 0.451224 0.130888
O O10 0.735262 0.718155 0.021384
O O11 0.000000 0.500000 0.000000
O O12 0.500000 0.000000 0.000000
O O13 0.191746 0.081105 0.853501
O O14 0.948674 0.077109 0.291546
O O15 0.790808 0.058079 0.428694
O O16 0.636244 0.192871 0.121461
O O17 0.400059 0.394253 0.890623
O O18 0.690574 0.337154 0.994453
#
# Coordination Sequence:
#
# PCOD8011792 Si02
#       8
#     2   2   2   2   2   2   2   2
#     4  11  26  38  65  94 127 162 218 266 314 381
#     4  10  22  39  65  86 124 166 204 259 314 384
#     4  11  24  38  63  95 122 163 213 265 314 380
#     4  11  23  41  64  90 130 168 207 264 326 383
#     4  10  21  39  64  90 123 166 207 258 317 382
#     4  10  22  42  63  91 120 172 206 260 318 380
#     4  10  22  42  65  86 129 164 210 252 324 387
#     4  11  22  40  63  96 123 165 211 263 321 372
#
# _framework density 20.293913
#
# number of rings (size 3 to 8) (size 9 to 14) (size 15 to 20)
#    0.000    1.500    2.500    2.250    7.000    3.000 
#    0.000    0.000    0.000    3.750    0.000    0.000 
#    0.000    0.000    0.000    0.000    0.000    0.000 
#
# Total GULP energy -198243.299042 kJ/mol
# GULP energy per Si atom -12390.206190 kJ/mol
# Density = 2.024772 g / cm^3
# Si number density = 20.293913 Si / 1000 Ang^3
#
#
#
# Elastic Constant Matrix: (Units=GPa)
#
#
# Indices 1 2 3 4 5 6 
#
# 1 91.7993 25.1890 47.5447 4.5530 -8.7363 3.0356
# 2 25.1890 106.7932 44.5492 1.8546 0.0851 4.7047
# 3 47.5447 44.5492 144.4850 4.3268 -4.8632 -8.7895
# 4 4.5530 1.8546 4.3268 36.1403 7.1458 8.4922
# 5 -8.7363 0.0851 -4.8632 7.1458 30.9755 3.8832
# 6 3.0356 4.7047 -8.7895 8.4922 3.8832 26.9866
#
#
#
# Elastic Compliance Matrix: (Units=1/GPa)
#
#
# Indices 1 2 3 4 5 6 
#
# 1 0.013971 -0.001415 -0.004162 -0.001303 0.003947 -0.002839
# 2 -0.001415 0.011152 -0.003205 0.000840 -0.000752 -0.002985
# 3 -0.004162 -0.003205 0.009612 -0.001576 0.000127 0.004635
# 4 -0.001303 0.000840 -0.001576 0.031531 -0.006704 -0.009471
# 5 0.003947 -0.000752 0.000127 -0.006704 0.035373 -0.003252
# 6 -0.002839 -0.002985 0.004635 -0.009471 -0.003252 0.042853
#
#
# Mechanical properties :
#
#
# Convention : Reuss Voigt Hill
#
# Bulk Modulus (GPa) = 58.23368 64.18260 61.20814
# Shear Modulus (GPa) = 29.80093 33.87345 31.83719
#
# Velocity S-wave (km/s) = 3.83621 4.08995 3.96511
# Velocity P-wave (km/s) = 6.95554 7.34838 7.15466
#
# Compressibility (1/GPa) = 0.01717219
#
# Stress axis : x y z
#
# Youngs Moduli (GPa) = 71.57568 89.66929 104.03227
#
# Poissons Ratio (x) = 0.12685 0.43299
# Poissons Ratio (y) = 0.10125 0.33343
# Poissons Ratio (z) = 0.29790 0.28740
#
# Static dielectric constant tensor:
#      x y z
#    x 3.647240 0.383430 0.113290 
#    y 0.383430 3.837250 -0.132720 
#    z 0.113290 -0.132720 4.133590 
# 
# 
# High freq. dielectric constant tensor:
#      x y z
#    x 1.777150 0.027010 0.009700 
#    y 0.027010 1.792650 -0.010620 
#    z 0.009700 -0.010620 1.809070 
# 
# From -- ./inp_files/262719.got.cif
#   From: 2010.06.25/outbox.cif.g09.slc.cpg/sg2_132_cif.got.tgz:262719.got - 2010.06.27 13:26:56.
