data_PCOD8011426
_publ_section_title
;
Structure prediction by ZEFSAII (Michael W. Deem and Ramdas Pophale) SiO2 
 PCOD8011426
Probable space group: P -1
;
_chemical_formula_sum "Si O2"
_cell_formula_units_Z 12
_cell_length_a 16.233231
_cell_length_b 15.958264
_cell_length_c 8.841930
_cell_angle_alpha 101.637711
_cell_angle_beta 111.920545
_cell_angle_gamma 17.974234
_cell_volume 553.679904
_symmetry_space_group_name_H-M "P -1"
_symmetry_group_IT_number 2
_symmetry_cell_setting 'triclinic'
loop_
_space_group_symop_operation_xyz
x,y,z
-x,-y,-z
loop_
_atom_site_type_symbol
_atom_site_label
_atom_site_fract_x
_atom_site_fract_y
_atom_site_fract_z
Si Si1 0.885048 0.547613 0.151036
Si Si2 0.616564 0.301982 0.446222
Si Si3 0.055605 0.243959 0.364931
Si Si4 0.527725 0.019099 0.250876
Si Si5 0.482915 0.327468 0.624590
Si Si6 0.614491 0.407558 0.213677
O O1 0.843748 0.497417 0.194867
O O2 0.251801 0.215310 0.210823
O O3 0.825383 0.681939 0.273970
O O4 0.614867 0.796639 0.922920
O O5 0.500000 0.500000 0.500000
O O6 0.402959 0.424512 0.426134
O O7 0.553369 0.373532 0.248869
O O8 0.999162 0.927037 0.617345
O O9 0.831996 0.419370 0.414400
O O10 0.349428 0.027922 0.558301
O O11 0.209438 0.024163 0.291417
O O12 0.594099 0.315466 0.770086
O O13 0.500000 0.500000 0.000000
#
# Coordination Sequence:
#
# PCOD8011426 Si02
#       6
#     2   2   2   2   2   2
#     4  10  21  39  61  90 116 160 212 246 285 374
#     4   9  20  41  64  88 121 161 206 259 297 378
#     4  12  22  39  60  91 127 161 193 257 316 353
#     4  10  21  39  63  85 119 163 208 243 298 362
#     4  11  23  40  61  92 131 155 205 254 312 368
#     4  10  21  43  68  90 118 170 215 252 305 372
#
# _framework density 21.673172999999998
#
# number of rings (size 3 to 8) (size 9 to 14) (size 15 to 20)
#    0.000    1.667    1.667    3.000    0.000    2.667 
#    3.000    5.000    0.000    0.000    0.000    0.000 
#    0.000    0.000    0.000    0.000    0.000    0.000 
#
# Total GULP energy -148699.041100 kJ/mol
# GULP energy per Si atom -12391.586758 kJ/mol
# Density = 2.162384 g / cm^3
# Si number density = 21.673173 Si / 1000 Ang^3
#
#
#
# Elastic Constant Matrix: (Units=GPa)
#
#
# Indices 1 2 3 4 5 6 
#
# 1 135.9320 45.7501 43.2316 -1.0512 -36.0460 3.8222
# 2 45.7501 121.9939 28.0709 7.5572 -16.1014 8.5209
# 3 43.2316 28.0709 94.3336 12.1543 -32.2312 11.4196
# 4 -1.0512 7.5572 12.1543 20.0964 0.3347 -1.0725
# 5 -36.0460 -16.1014 -32.2312 0.3347 26.4568 2.6662
# 6 3.8222 8.5209 11.4196 -1.0725 2.6662 39.3685
#
#
#
# Elastic Compliance Matrix: (Units=1/GPa)
#
#
# Indices 1 2 3 4 5 6 
#
# 1 0.012408 -0.002566 0.000939 0.000660 0.016684 -0.002033
# 2 -0.002566 0.009936 -0.000067 -0.003992 0.002739 -0.002176
# 3 0.000939 -0.000067 0.024362 -0.015714 0.032098 -0.009745
# 4 0.000660 -0.003992 -0.015714 0.061627 -0.022315 0.008548
# 5 0.016684 0.002739 0.032098 -0.022315 0.103510 -0.019141
# 6 -0.002033 -0.002176 -0.009745 0.008548 -0.019141 0.030425
#
#
# Mechanical properties :
#
#
# Convention : Reuss Voigt Hill
#
# Bulk Modulus (GPa) = 23.08590 65.15163 44.11876
# Shear Modulus (GPa) = 19.22366 32.86481 26.04423
#
# Velocity S-wave (km/s) = 2.98145 3.89830 3.47029
# Velocity P-wave (km/s) = 4.74626 7.09849 6.03803
#
# Compressibility (1/GPa) = 0.04331649
#
# Stress axis : x y z
#
# Youngs Moduli (GPa) = 80.59164 100.64781 41.04792
#
# Poissons Ratio (x) = 0.25828 -0.03853
# Poissons Ratio (y) = 0.20681 0.00276
# Poissons Ratio (z) = -0.07565 0.00676
#
# Static dielectric constant tensor:
#      x y z
#    x 4.462990 -0.050220 -0.687060 
#    y -0.050220 5.273060 0.496890 
#    z -0.687060 0.496890 3.812100 
# 
# 
# High freq. dielectric constant tensor:
#      x y z
#    x 1.860990 -0.001000 -0.040560 
#    y -0.001000 1.872520 0.012340 
#    z -0.040560 0.012340 1.811300 
# 
# From -- ./inp_files/46930.got.cif
#   From: 2010.06.25/outbox.cif.g09.slc.cpg/sg2_24_cif.got.tgz:46930.got - 2010.06.27 13:26:56.
