data_PCOD8011798
_publ_section_title
;
Structure prediction by ZEFSAII (Michael W. Deem and Ramdas Pophale) SiO2 
 PCOD8011798
Probable space group: P -1
;
_chemical_formula_sum "Si O2"
_cell_formula_units_Z 16
_cell_length_a 7.984170
_cell_length_b 21.907303
_cell_length_c 18.976392
_cell_angle_alpha 17.641039
_cell_angle_beta 59.851000
_cell_angle_gamma 52.097536
_cell_volume 744.138527
_symmetry_space_group_name_H-M "P -1"
_symmetry_group_IT_number 2
_symmetry_cell_setting 'triclinic'
loop_
_space_group_symop_operation_xyz
x,y,z
-x,-y,-z
loop_
_atom_site_type_symbol
_atom_site_label
_atom_site_fract_x
_atom_site_fract_y
_atom_site_fract_z
Si Si1 0.310473 0.489654 0.235993
Si Si2 0.985581 0.855390 0.998760
Si Si3 0.132354 0.131766 0.838929
Si Si4 0.346177 0.996499 0.325982
Si Si5 0.625821 0.823399 0.021615
Si Si6 0.496148 0.160631 0.386369
Si Si7 0.982007 0.326575 0.513259
Si Si8 0.814460 0.320675 0.092177
O O1 0.570774 0.271230 0.424382
O O2 0.156605 0.371744 0.383500
O O3 0.275355 0.657159 0.993188
O O4 0.233796 0.646454 0.150682
O O5 0.804263 0.893740 0.934897
O O6 0.993882 0.089937 0.747721
O O7 0.922670 0.769865 0.178063
O O8 0.044950 0.329744 0.579143
O O9 0.399853 0.954291 0.970879
O O10 0.000000 0.000000 0.000000
O O11 0.474755 0.972660 0.398814
O O12 0.422651 0.112344 0.121668
O O13 0.081418 0.151464 0.224838
O O14 0.727854 0.544337 0.315231
O O15 0.706990 0.200933 0.292783
O O16 0.500000 0.000000 0.500000
O O17 0.264195 0.416960 0.150885
#
# Coordination Sequence:
#
# PCOD8011798 Si02
#       8
#     2   2   2   2   2   2   2   2
#     4  10  21  39  64  90 129 164 205 261 310 359
#     4  10  22  40  62  90 121 171 218 253 313 371
#     4  10  22  41  62  90 126 168 216 262 312 363
#     4  11  21  42  66  93 130 163 201 258 314 363
#     4  11  22  42  61  93 127 165 209 261 316 366
#     4  10  24  43  69  93 126 165 202 250 312 377
#     4  10  21  41  60  85 129 161 208 267 308 359
#     4  10  21  44  64  94 130 157 205 258 305 370
#
# _framework density 21.501373999999998
#
# number of rings (size 3 to 8) (size 9 to 14) (size 15 to 20)
#    0.000    1.750    3.750    0.750    0.000    6.500 
#    6.750    3.750    0.000    0.000    0.000    0.000 
#    0.000    0.000    0.000    0.000    0.000    0.000 
#
# Total GULP energy -198306.907804 kJ/mol
# GULP energy per Si atom -12394.181738 kJ/mol
# Density = 2.145244 g / cm^3
# Si number density = 21.501374 Si / 1000 Ang^3
#
#
#
# Elastic Constant Matrix: (Units=GPa)
#
#
# Indices 1 2 3 4 5 6 
#
# 1 51.2607 31.6995 40.6243 -16.7408 3.0850 8.0069
# 2 31.6995 153.2979 63.9545 -26.3462 11.6533 14.5180
# 3 40.6243 63.9545 116.1501 -26.8366 18.6066 15.3049
# 4 -16.7408 -26.3462 -26.8366 47.9307 -2.5456 5.2262
# 5 3.0850 11.6533 18.6066 -2.5456 36.2613 -4.6191
# 6 8.0069 14.5180 15.3049 5.2262 -4.6191 31.5434
#
#
#
# Elastic Compliance Matrix: (Units=1/GPa)
#
#
# Indices 1 2 3 4 5 6 
#
# 1 0.028867 -0.001620 -0.007882 0.005251 0.002054 -0.003327
# 2 -0.001620 0.009044 -0.003155 0.002884 -0.001315 -0.002891
# 3 -0.007882 -0.003155 0.016188 0.004882 -0.007075 -0.006246
# 4 0.005251 0.002884 0.004882 0.027950 -0.003207 -0.010129
# 5 0.002054 -0.001315 -0.007075 -0.003207 0.032350 0.008785
# 6 -0.003327 -0.002891 -0.006246 -0.010129 0.008785 0.039873
#
#
# Mechanical properties :
#
#
# Convention : Reuss Voigt Hill
#
# Bulk Modulus (GPa) = 34.73995 65.91838 50.32916
# Shear Modulus (GPa) = 26.42962 35.44243 30.93603
#
# Velocity S-wave (km/s) = 3.50981 4.06443 3.79726
# Velocity P-wave (km/s) = 5.71114 7.26295 6.53328
#
# Compressibility (1/GPa) = 0.02878531
#
# Stress axis : x y z
#
# Youngs Moduli (GPa) = 34.64135 110.57089 61.77368
#
# Poissons Ratio (x) = 0.17907 0.48691
# Poissons Ratio (y) = 0.05610 0.19491
# Poissons Ratio (z) = 0.27305 0.34888
#
# Static dielectric constant tensor:
#      x y z
#    x 3.366640 0.236060 0.187840 
#    y 0.236060 4.332630 0.363620 
#    z 0.187840 0.363620 4.023660 
# 
# 
# High freq. dielectric constant tensor:
#      x y z
#    x 1.801620 -0.005190 0.017340 
#    y -0.005190 1.871370 0.001530 
#    z 0.017340 0.001530 1.852130 
# 
# From -- ./inp_files/562536.got.cif
#   From: 2010.06.25/outbox.cif.g09.slc.cpg/sg2_282_cif.got.tgz:562536.got - 2010.06.27 13:26:56.
