data_PCOD8011602
_publ_section_title
;
Structure prediction by ZEFSAII (Michael W. Deem and Ramdas Pophale) SiO2 
 PCOD8011602
Probable space group: P -1
;
_chemical_formula_sum "Si O2"
_cell_formula_units_Z 16
_cell_length_a 8.991533
_cell_length_b 15.901212
_cell_length_c 14.861005
_cell_angle_alpha 35.654521
_cell_angle_beta 37.813625
_cell_angle_gamma 55.171731
_cell_volume 744.280364
_symmetry_space_group_name_H-M "P -1"
_symmetry_group_IT_number 2
_symmetry_cell_setting 'triclinic'
loop_
_space_group_symop_operation_xyz
x,y,z
-x,-y,-z
loop_
_atom_site_type_symbol
_atom_site_label
_atom_site_fract_x
_atom_site_fract_y
_atom_site_fract_z
Si Si1 0.651820 0.827670 0.628597
Si Si2 0.248930 0.047804 0.991137
Si Si3 0.518249 0.781569 0.428825
Si Si4 0.363474 0.752453 0.258448
Si Si5 0.712010 0.009766 0.279353
Si Si6 0.710185 0.500192 0.625743
Si Si7 0.046812 0.666056 0.658083
Si Si8 0.579978 0.454206 0.098162
O O1 0.759248 0.975044 0.392566
O O2 0.511457 0.720129 0.710926
O O3 0.862541 0.777519 0.630542
O O4 0.448777 0.864130 0.764289
O O5 0.425249 0.092214 0.783483
O O6 0.364861 0.159034 0.918903
O O7 0.219139 0.875985 0.181816
O O8 0.986521 0.074464 0.056513
O O9 0.573626 0.861579 0.426786
O O10 0.672037 0.649555 0.464272
O O11 0.226181 0.714665 0.614838
O O12 0.404018 0.638478 0.261509
O O13 0.207120 0.660357 0.495013
O O14 0.560195 0.482441 0.807454
O O15 0.000000 0.500000 0.500000
O O16 0.878396 0.510824 0.906735
O O17 0.500000 0.500000 0.000000
#
# Coordination Sequence:
#
# PCOD8011602 Si02
#       8
#     2   2   2   2   2   2   2   2
#     4  10  21  39  63  85 124 171 207 254 321 379
#     4  10  22  41  66  93 131 166 214 264 319 380
#     4  11  25  40  65 100 127 165 216 272 314 381
#     4  10  22  42  67  94 129 176 207 263 325 378
#     4  11  21  39  62  91 121 169 213 255 317 378
#     4  12  24  42  67  96 132 168 217 267 319 383
#     4  10  22  43  65  92 135 163 211 267 324 378
#     4  10  22  41  65  92 124 174 209 261 323 379
#
# _framework density 21.497274000000001
#
# number of rings (size 3 to 8) (size 9 to 14) (size 15 to 20)
#    0.000    1.500    2.500    2.625    0.000    9.000 
#    4.500    0.000    0.000    0.000    0.000    0.000 
#    0.000    0.000    0.000    0.000    0.000    0.000 
#
# Total GULP energy -198227.224813 kJ/mol
# GULP energy per Si atom -12389.201551 kJ/mol
# Density = 2.144834 g / cm^3
# Si number density = 21.497274 Si / 1000 Ang^3
#
#
#
# Elastic Constant Matrix: (Units=GPa)
#
#
# Indices 1 2 3 4 5 6 
#
# 1 108.7164 50.0613 34.0091 1.7214 -25.1358 -4.9673
# 2 50.0613 144.4166 31.0412 -5.4016 -20.8446 11.0126
# 3 34.0091 31.0412 88.9917 12.3118 -13.5917 8.4722
# 4 1.7214 -5.4016 12.3118 19.5367 -2.6686 -1.0868
# 5 -25.1358 -20.8446 -13.5917 -2.6686 44.4803 5.6028
# 6 -4.9673 11.0126 8.4722 -1.0868 5.6028 33.0063
#
#
#
# Elastic Compliance Matrix: (Units=1/GPa)
#
#
# Indices 1 2 3 4 5 6 
#
# 1 0.012985 -0.003318 -0.003591 0.000975 0.004331 0.003280
# 2 -0.003318 0.009255 -0.001814 0.004157 0.002588 -0.003424
# 3 -0.003591 -0.001814 0.015300 -0.009835 0.001771 -0.004487
# 4 0.000975 0.004157 -0.009835 0.058968 0.002683 0.002770
# 5 0.004331 0.002588 0.001771 0.002683 0.027506 -0.005247
# 6 0.003280 -0.003424 -0.004487 0.002770 -0.005247 0.034067
#
#
# Mechanical properties :
#
#
# Convention : Reuss Voigt Hill
#
# Bulk Modulus (GPa) = 49.76422 63.59421 56.67922
# Shear Modulus (GPa) = 27.43876 34.53888 30.98882
#
# Velocity S-wave (km/s) = 3.57653 4.01267 3.80086
# Velocity P-wave (km/s) = 6.34466 7.14950 6.75907
#
# Compressibility (1/GPa) = 0.02009476
#
# Stress axis : x y z
#
# Youngs Moduli (GPa) = 77.01106 108.05368 65.35816
#
# Poissons Ratio (x) = 0.35851 0.23469
# Poissons Ratio (y) = 0.25551 0.11856
# Poissons Ratio (z) = 0.27653 0.19601
#
# Static dielectric constant tensor:
#      x y z
#    x 4.006160 0.126550 -0.390940 
#    y 0.126550 4.022300 -0.637410 
#    z -0.390940 -0.637410 5.191970 
# 
# 
# High freq. dielectric constant tensor:
#      x y z
#    x 1.848820 0.001800 -0.003010 
#    y 0.001800 1.823050 -0.002020 
#    z -0.003010 -0.002020 1.854230 
# 
# From -- ./inp_files/503752.got.cif
#   From: 2010.06.25/outbox.cif.g09.slc.cpg/sg2_252_cif.got.tgz:503752.got - 2010.06.27 13:26:56.
