data_PCOD8011742
_publ_section_title
;
Structure prediction by ZEFSAII (Michael W. Deem and Ramdas Pophale) SiO2 
 PCOD8011742
Probable space group: P -1
;
_chemical_formula_sum "Si O2"
_cell_formula_units_Z 14
_cell_length_a 8.418658
_cell_length_b 9.455672
_cell_length_c 12.579100
_cell_angle_alpha 38.142764
_cell_angle_beta 108.564349
_cell_angle_gamma 110.829927
_cell_volume 576.732457
_symmetry_space_group_name_H-M "P -1"
_symmetry_group_IT_number 2
_symmetry_cell_setting 'triclinic'
loop_
_space_group_symop_operation_xyz
x,y,z
-x,-y,-z
loop_
_atom_site_type_symbol
_atom_site_label
_atom_site_fract_x
_atom_site_fract_y
_atom_site_fract_z
Si Si1 0.335085 0.412463 0.130814
Si Si2 0.480249 0.954174 0.691872
Si Si3 0.602066 0.072853 0.084387
Si Si4 0.218978 0.668585 0.532965
Si Si5 0.143667 0.221452 0.394131
Si Si6 0.845788 0.754004 0.384061
Si Si7 0.172371 0.609959 0.790291
O O1 0.489150 0.311340 0.167626
O O2 0.267874 0.219524 0.321058
O O3 0.375037 0.650024 0.064904
O O4 0.209166 0.435650 0.992886
O O5 0.511736 0.027159 0.778519
O O6 0.273985 0.889744 0.662276
O O7 0.603444 0.145497 0.537272
O O8 0.779546 0.970897 0.184570
O O9 0.500000 0.000000 0.000000
O O10 0.226267 0.483084 0.552435
O O11 0.214648 0.536052 0.723252
O O12 0.053689 0.795254 0.408008
O O13 0.235589 0.278168 0.495007
O O14 0.030947 0.419934 0.227061
O O15 0.000000 0.000000 0.500000
#
# Coordination Sequence:
#
# PCOD8011742 Si02
#       7
#     2   2   2   2   2   2   2
#     4  11  24  41  67  99 135 178 227 273 343 396
#     4  11  24  41  65 101 133 180 231 272 341 397
#     4  11  26  45  66  99 141 177 226 282 339 402
#     4  10  23  43  69  98 139 180 225 280 334 403
#     4  11  22  41  68  94 132 176 228 275 326 407
#     4  10  24  44  66  98 138 180 227 274 341 403
#     4  10  21  39  63  98 130 173 222 279 327 393
#
# _framework density 24.274687
#
# number of rings (size 3 to 8) (size 9 to 14) (size 15 to 20)
#    0.000    1.429    0.000    6.000    6.000    2.857 
#    0.000    0.714    0.000    0.000    0.000    0.000 
#    0.000    0.000    0.000    0.000    0.000    0.000 
#
# Total GULP energy -173447.257951 kJ/mol
# GULP energy per Si atom -12389.089854 kJ/mol
# Density = 2.421944 g / cm^3
# Si number density = 24.274687 Si / 1000 Ang^3
#
#
#
# Elastic Constant Matrix: (Units=GPa)
#
#
# Indices 1 2 3 4 5 6 
#
# 1 86.5273 39.0366 35.7682 9.6756 12.6782 0.9105
# 2 39.0366 143.1078 53.5036 26.6046 21.8009 -14.8454
# 3 35.7682 53.5036 92.6556 26.3827 8.9415 -2.4805
# 4 9.6756 26.6046 26.3827 51.1334 0.9627 -1.6107
# 5 12.6782 21.8009 8.9415 0.9627 33.6929 6.1134
# 6 0.9105 -14.8454 -2.4805 -1.6107 6.1134 33.7770
#
#
#
# Elastic Compliance Matrix: (Units=1/GPa)
#
#
# Indices 1 2 3 4 5 6 
#
# 1 0.014691 -0.002198 -0.004343 0.000620 -0.002762 -0.001151
# 2 -0.002198 0.011195 -0.003986 -0.003055 -0.006302 0.005682
# 3 -0.004343 -0.003986 0.016314 -0.005548 0.000175 -0.000733
# 4 0.000620 -0.003055 -0.005548 0.023804 0.002740 -0.001127
# 5 -0.002762 -0.006302 0.000175 0.002740 0.036329 -0.009127
# 6 -0.001151 0.005682 -0.000733 -0.001127 -0.009127 0.033679
#
#
# Mechanical properties :
#
#
# Convention : Reuss Voigt Hill
#
# Bulk Modulus (GPa) = 47.28837 64.32307 55.80572
# Shear Modulus (GPa) = 30.46660 36.65281 33.55970
#
# Velocity S-wave (km/s) = 3.54655 3.88998 3.72223
# Velocity P-wave (km/s) = 6.02441 6.83604 6.44302
#
# Compressibility (1/GPa) = 0.02114685
#
# Stress axis : x y z
#
# Youngs Moduli (GPa) = 68.06712 89.32706 61.29633
#
# Poissons Ratio (x) = 0.19630 0.26622
# Poissons Ratio (y) = 0.14958 0.24433
# Poissons Ratio (z) = 0.29563 0.35606
#
# Static dielectric constant tensor:
#      x y z
#    x 5.586390 -0.641530 0.706410 
#    y -0.641530 4.567060 0.089690 
#    z 0.706410 0.089690 4.660010 
# 
# 
# High freq. dielectric constant tensor:
#      x y z
#    x 1.971610 -0.026720 0.022630 
#    y -0.026720 1.964380 0.018410 
#    z 0.022630 0.018410 1.968710 
# 
# From -- ./inp_files/377730.got.cif
#   From: 2010.06.25/outbox.cif.g09.slc.cpg/sg2_189_cif.got.tgz:377730.got - 2010.06.27 13:26:56.
