data_PCOD8011595
_publ_section_title
;
Structure prediction by ZEFSAII (Michael W. Deem and Ramdas Pophale) SiO2 
 PCOD8011595
Probable space group: P -1
;
_chemical_formula_sum "Si O2"
_cell_formula_units_Z 16
_cell_length_a 6.418981
_cell_length_b 22.143971
_cell_length_c 11.024870
_cell_angle_alpha 32.963540
_cell_angle_beta 120.360685
_cell_angle_gamma 106.842618
_cell_volume 704.971853
_symmetry_space_group_name_H-M "P -1"
_symmetry_group_IT_number 2
_symmetry_cell_setting 'triclinic'
loop_
_space_group_symop_operation_xyz
x,y,z
-x,-y,-z
loop_
_atom_site_type_symbol
_atom_site_label
_atom_site_fract_x
_atom_site_fract_y
_atom_site_fract_z
Si Si1 0.254936 0.979716 0.367437
Si Si2 0.800191 0.468368 0.160749
Si Si3 0.594414 0.256020 0.066886
Si Si4 0.529143 0.927056 0.944983
Si Si5 0.067925 0.645808 0.860487
Si Si6 0.893639 0.179888 0.055561
Si Si7 0.039118 0.383722 0.629607
Si Si8 0.174088 0.107082 0.693210
O O1 0.431894 0.855341 0.676128
O O2 0.032660 0.963033 0.245998
O O3 0.417949 0.043060 0.227559
O O4 0.137384 0.068213 0.294518
O O5 0.918938 0.388089 0.218690
O O6 0.899117 0.405158 0.422666
O O7 0.500000 0.500000 0.000000
O O8 0.909773 0.578502 0.005414
O O9 0.657160 0.358159 0.994787
O O10 0.836686 0.203556 0.140595
O O11 0.337813 0.317760 0.814665
O O12 0.418804 0.042280 0.797340
O O13 0.350089 0.844701 0.034155
O O14 0.777960 0.863069 0.203218
O O15 0.920046 0.778734 0.605367
O O16 0.914987 0.298324 0.806366
O O17 0.000000 0.500000 0.500000
#
# Coordination Sequence:
#
# PCOD8011595 Si02
#       8
#     2   2   2   2   2   2   2   2
#     4  10  22  42  67 101 136 179 230 274 342 411
#     4  11  26  45  69 100 131 174 233 287 340 402
#     4  11  25  46  68 100 140 185 226 284 340 410
#     4  10  21  39  63 100 139 174 220 278 337 405
#     4  10  24  44  70  95 133 176 227 282 339 400
#     4  11  25  40  68 101 137 181 228 283 342 401
#     4  12  28  46  70 101 137 184 231 284 345 409
#     4   9  21  38  64  98 136 177 215 276 342 403
#
# _framework density 22.695943
#
# number of rings (size 3 to 8) (size 9 to 14) (size 15 to 20)
#    0.000    1.500    0.000    3.000    5.250   11.000 
#    2.250    0.000    0.000    0.000    0.000    0.000 
#    0.000    0.000    0.000    0.000    0.000    0.000 
#
# Total GULP energy -198306.190477 kJ/mol
# GULP energy per Si atom -12394.136905 kJ/mol
# Density = 2.264429 g / cm^3
# Si number density = 22.695943 Si / 1000 Ang^3
#
#
#
# Elastic Constant Matrix: (Units=GPa)
#
#
# Indices 1 2 3 4 5 6 
#
# 1 94.8942 33.7646 41.1783 -3.9533 -9.7432 10.9984
# 2 33.7646 117.4151 42.0982 7.6659 -2.9356 13.9200
# 3 41.1783 42.0982 98.2732 4.2040 -7.1918 15.9988
# 4 -3.9533 7.6659 4.2040 45.4216 7.1401 1.0253
# 5 -9.7432 -2.9356 -7.1918 7.1401 31.4357 0.0649
# 6 10.9984 13.9200 15.9988 1.0253 0.0649 37.9191
#
#
#
# Elastic Compliance Matrix: (Units=1/GPa)
#
#
# Indices 1 2 3 4 5 6 
#
# 1 0.013768 -0.002237 -0.004466 0.001599 0.002676 -0.001336
# 2 -0.002237 0.010653 -0.003261 -0.001638 -0.000069 -0.001841
# 3 -0.004466 -0.003261 0.014205 -0.001370 0.001879 -0.003467
# 4 0.001599 -0.001638 -0.001370 0.023387 -0.005283 0.000093
# 5 0.002676 -0.000069 0.001879 -0.005283 0.034267 -0.001460
# 6 -0.001336 -0.001841 -0.003467 0.000093 -0.001460 0.028898
#
#
# Mechanical properties :
#
#
# Convention : Reuss Voigt Hill
#
# Bulk Modulus (GPa) = 53.48386 60.51827 57.00107
# Shear Modulus (GPa) = 33.03849 35.85803 34.44826
#
# Velocity S-wave (km/s) = 3.81950 3.97915 3.90014
# Velocity P-wave (km/s) = 6.56262 6.91622 6.74174
#
# Compressibility (1/GPa) = 0.01869723
#
# Stress axis : x y z
#
# Youngs Moduli (GPa) = 72.63123 93.87044 70.39982
#
# Poissons Ratio (x) = 0.21000 0.31439
# Poissons Ratio (y) = 0.16249 0.22959
# Poissons Ratio (z) = 0.32436 0.30614
#
# Static dielectric constant tensor:
#      x y z
#    x 4.084040 0.166760 0.025180 
#    y 0.166760 4.569830 0.022120 
#    z 0.025180 0.022120 4.064030 
# 
# 
# High freq. dielectric constant tensor:
#      x y z
#    x 1.889440 0.009460 -0.001680 
#    y 0.009460 1.921320 0.001730 
#    z -0.001680 0.001730 1.890790 
# 
# From -- ./inp_files/371021.got.cif
#   From: 2010.06.25/outbox.cif.g09.slc.cpg/sg2_186_cif.got.tgz:371021.got - 2010.06.27 13:26:56.
