data_PCOD8011662
_publ_section_title
;
Structure prediction by ZEFSAII (Michael W. Deem and Ramdas Pophale) SiO2 
 PCOD8011662
Probable space group: P -1
;
_chemical_formula_sum "Si O2"
_cell_formula_units_Z 16
_cell_length_a 18.812131
_cell_length_b 9.842743
_cell_length_c 6.621248
_cell_angle_alpha 50.995566
_cell_angle_beta 126.193649
_cell_angle_gamma 116.388059
_cell_volume 763.680419
_symmetry_space_group_name_H-M "P -1"
_symmetry_group_IT_number 2
_symmetry_cell_setting 'triclinic'
loop_
_space_group_symop_operation_xyz
x,y,z
-x,-y,-z
loop_
_atom_site_type_symbol
_atom_site_label
_atom_site_fract_x
_atom_site_fract_y
_atom_site_fract_z
Si Si1 0.591294 0.739446 0.343334
Si Si2 0.721177 0.924591 0.701636
Si Si3 0.595135 0.027140 0.724388
Si Si4 0.021260 0.237191 0.241125
Si Si5 0.850139 0.006791 0.170782
Si Si6 0.049385 0.569497 0.714175
Si Si7 0.598607 0.339720 0.707762
Si Si8 0.773235 0.203683 0.210147
O O1 0.661379 0.772205 0.617618
O O2 0.601986 0.544643 0.460960
O O3 0.490150 0.737064 0.249625
O O4 0.610945 0.888095 0.063252
O O5 0.657156 0.020532 0.644055
O O6 0.775465 0.053180 0.518092
O O7 0.797713 0.879636 0.031666
O O8 0.500000 0.000000 0.500000
O O9 0.605731 0.229070 0.621132
O O10 0.098775 0.111316 0.481068
O O11 0.002407 0.285142 0.398063
O O12 0.059882 0.409057 0.028830
O O13 0.928235 0.146163 0.073896
O O14 0.781674 0.113407 0.085996
O O15 0.147263 0.649196 0.745477
O O16 0.000000 0.500000 0.500000
O O17 0.685357 0.299058 0.013572
#
# Coordination Sequence:
#
# PCOD8011662 Si02
#       8
#     2   2   2   2   2   2   2   2
#     4  11  25  43  66  97 133 167 218 272 316 385
#     4  12  22  40  65  94 124 172 220 256 327 384
#     4  12  23  43  70  91 129 178 209 266 325 381
#     4   9  21  40  61  91 126 160 213 266 314 393
#     4  10  21  39  65  91 122 169 214 262 324 382
#     4  10  21  39  63  91 125 166 206 266 329 375
#     4  11  23  45  64  96 133 166 214 270 321 376
#     4  11  23  39  63  90 129 168 210 271 318 381
#
# _framework density 20.951172
#
# number of rings (size 3 to 8) (size 9 to 14) (size 15 to 20)
#    0.000    1.250    3.750    1.875    0.000    4.500 
#    2.250    3.750    0.000    0.000    0.000    0.000 
#    0.000    0.000    0.000    0.000    0.000    0.000 
#
# Total GULP energy -198245.944741 kJ/mol
# GULP energy per Si atom -12390.371546 kJ/mol
# Density = 2.090349 g / cm^3
# Si number density = 20.951172 Si / 1000 Ang^3
#
#
#
# Elastic Constant Matrix: (Units=GPa)
#
#
# Indices 1 2 3 4 5 6 
#
# 1 96.2845 39.7358 33.7744 -1.7437 8.1604 18.3136
# 2 39.7358 138.5238 43.1496 8.9698 2.4609 9.4784
# 3 33.7744 43.1496 73.2581 13.8274 9.5691 3.8607
# 4 -1.7437 8.9698 13.8274 42.6419 1.2999 8.3451
# 5 8.1604 2.4609 9.5691 1.2999 29.4157 -0.5264
# 6 18.3136 9.4784 3.8607 8.3451 -0.5264 29.6023
#
#
#
# Elastic Compliance Matrix: (Units=1/GPa)
#
#
# Indices 1 2 3 4 5 6 
#
# 1 0.015515 -0.002221 -0.005944 0.004979 -0.002576 -0.009561
# 2 -0.002221 0.009326 -0.004507 -0.000461 0.001307 -0.000871
# 3 -0.005944 -0.004507 0.020649 -0.006688 -0.004320 0.004236
# 4 0.004979 -0.000461 -0.006688 0.027881 -0.000577 -0.009931
# 5 -0.002576 0.001307 -0.004320 -0.000577 0.036077 0.002542
# 6 -0.009561 -0.000871 0.004236 -0.009931 0.002542 0.042267
#
#
# Mechanical properties :
#
#
# Convention : Reuss Voigt Hill
#
# Bulk Modulus (GPa) = 49.63937 60.15401 54.89669
# Shear Modulus (GPa) = 27.20728 33.09242 30.14985
#
# Velocity S-wave (km/s) = 3.60752 3.97861 3.79760
# Velocity P-wave (km/s) = 6.41067 7.06255 6.74449
#
# Compressibility (1/GPa) = 0.02014530
#
# Stress axis : x y z
#
# Youngs Moduli (GPa) = 64.45565 107.22359 48.42920
#
# Poissons Ratio (x) = 0.23818 0.28785
# Poissons Ratio (y) = 0.14318 0.21827
# Poissons Ratio (z) = 0.38311 0.48326
#
# Static dielectric constant tensor:
#      x y z
#    x 4.327670 0.162370 0.068480 
#    y 0.162370 4.071050 0.154510 
#    z 0.068480 0.154510 3.694550 
# 
# 
# High freq. dielectric constant tensor:
#      x y z
#    x 1.835110 0.013020 0.011440 
#    y 0.013020 1.829160 0.011250 
#    z 0.011440 0.011250 1.804000 
# 
# From -- ./inp_files/106399.got.cif
#   From: 2010.06.25/outbox.cif.g09.slc.cpg/sg2_54_cif.got.tgz:106399.got - 2010.06.27 13:26:56.
