data_PCOD8011866
_publ_section_title
;
Structure prediction by ZEFSAII (Michael W. Deem and Ramdas Pophale) SiO2 
 PCOD8011866
Probable space group: P -1
;
_chemical_formula_sum "Si O2"
_cell_formula_units_Z 16
_cell_length_a 9.251869
_cell_length_b 9.422060
_cell_length_c 11.956107
_cell_angle_alpha 101.997652
_cell_angle_beta 54.693393
_cell_angle_gamma 123.796611
_cell_volume 696.821688
_symmetry_space_group_name_H-M "P -1"
_symmetry_group_IT_number 2
_symmetry_cell_setting 'triclinic'
loop_
_space_group_symop_operation_xyz
x,y,z
-x,-y,-z
loop_
_atom_site_type_symbol
_atom_site_label
_atom_site_fract_x
_atom_site_fract_y
_atom_site_fract_z
Si Si1 0.060610 0.504596 0.161058
Si Si2 0.289764 0.054965 0.310528
Si Si3 0.257983 0.519262 0.301291
Si Si4 0.126305 0.271688 0.518357
Si Si5 0.654886 0.153486 0.317194
Si Si6 0.470153 0.618267 0.856127
Si Si7 0.444737 0.195319 0.621497
Si Si8 0.743477 0.593463 0.293901
O O1 0.117816 0.535049 0.272485
O O2 0.877880 0.303706 0.191328
O O3 0.973318 0.621149 0.175951
O O4 0.257374 0.547549 0.005746
O O5 0.205847 0.145081 0.442276
O O6 0.484966 0.058854 0.279799
O O7 0.378457 0.171401 0.175376
O O8 0.105956 0.853335 0.340832
O O9 0.110363 0.363117 0.428887
O O10 0.411381 0.470275 0.163257
O O11 0.392222 0.701830 0.333872
O O12 0.285814 0.424929 0.559788
O O13 0.578243 0.239979 0.454854
O O14 0.686184 0.010892 0.336301
O O15 0.428629 0.569011 0.731795
O O16 0.265791 0.240934 0.706619
#
# Coordination Sequence:
#
# PCOD8011866 Si02
#       8
#     2   2   2   2   2   2   2   2
#     4  12  25  41  67  93 125 177 217 251 310 385
#     4  10  21  39  64  95 126 167 200 274 309 384
#     4  10  24  41  66  94 130 165 209 271 310 378
#     4  10  22  38  65  98 127 158 213 257 341 356
#     4  11  23  38  66  92 135 162 209 259 319 384
#     4  10  23  45  66  89 127 175 218 252 312 377
#     4  10  24  41  61  97 133 163 203 265 332 366
#     4  11  22  41  66  93 126 165 212 264 309 380
#
# _framework density 22.961395
#
# number of rings (size 3 to 8) (size 9 to 14) (size 15 to 20)
#    0.000    1.500    2.500    1.500    5.250    4.000 
#    0.000    4.375    0.000    0.000    0.000    0.000 
#    0.000    0.000    0.000    0.000    0.000    0.000 
#
# Total GULP energy -198281.149880 kJ/mol
# GULP energy per Si atom -12392.571868 kJ/mol
# Density = 2.290913 g / cm^3
# Si number density = 22.961395 Si / 1000 Ang^3
#
#
#
# Elastic Constant Matrix: (Units=GPa)
#
#
# Indices 1 2 3 4 5 6 
#
# 1 107.6685 34.1002 -2.5170 -3.1886 -1.9221 -5.4403
# 2 34.1002 108.1496 32.8161 -12.6301 -13.8672 -7.4754
# 3 -2.5170 32.8161 54.2482 -18.8636 -10.9364 -3.4805
# 4 -3.1886 -12.6301 -18.8636 26.3087 10.5017 -3.6860
# 5 -1.9221 -13.8672 -10.9364 10.5017 32.0320 4.3589
# 6 -5.4403 -7.4754 -3.4805 -3.6860 4.3589 28.2687
#
#
#
# Elastic Compliance Matrix: (Units=1/GPa)
#
#
# Indices 1 2 3 4 5 6 
#
# 1 0.010919 -0.004331 0.004026 0.002823 -0.001040 0.001980
# 2 -0.004331 0.013374 -0.007892 -0.000765 0.002926 0.001181
# 3 0.004026 -0.007892 0.030392 0.019057 0.000291 0.004870
# 4 0.002823 -0.000765 0.019057 0.059357 -0.014846 0.012716
# 5 -0.001040 0.002926 0.000291 -0.014846 0.038375 -0.007244
# 6 0.001980 0.001181 0.004870 0.012716 -0.007244 0.039443
#
#
# Mechanical properties :
#
#
# Convention : Reuss Voigt Hill
#
# Bulk Modulus (GPa) = 26.11622 44.31832 35.21727
# Shear Modulus (GPa) = 22.62262 31.03301 26.82781
#
# Velocity S-wave (km/s) = 3.14227 3.68030 3.42188
# Velocity P-wave (km/s) = 4.95619 6.11577 5.56626
#
# Compressibility (1/GPa) = 0.03829038
#
# Stress axis : x y z
#
# Youngs Moduli (GPa) = 91.58623 74.77158 32.90313
#
# Poissons Ratio (x) = 0.32384 -0.13245
# Poissons Ratio (y) = 0.39666 0.25967
# Poissons Ratio (z) = -0.36869 0.59008
#
# Static dielectric constant tensor:
#      x y z
#    x 4.310180 -0.028840 -0.061240 
#    y -0.028840 4.143710 0.036700 
#    z -0.061240 0.036700 3.793120 
# 
# 
# High freq. dielectric constant tensor:
#      x y z
#    x 1.920110 -0.009050 -0.009040 
#    y -0.009050 1.906370 0.001820 
#    z -0.009040 0.001820 1.871400 
# 
# From -- ./inp_files/382540.got.cif
#   From: 2010.06.25/outbox.cif.g09.slc.cpg/sg2_192_cif.got.tgz:382540.got - 2010.06.27 13:26:56.
