data_PCOD8011373
_publ_section_title
;
Structure prediction by ZEFSAII (Michael W. Deem and Ramdas Pophale) SiO2 
 PCOD8011373
Probable space group: P -1
;
_chemical_formula_sum "Si O2"
_cell_formula_units_Z 16
_cell_length_a 13.992355
_cell_length_b 9.105566
_cell_length_c 21.121145
_cell_angle_alpha 109.139714
_cell_angle_beta 21.696963
_cell_angle_gamma 119.265879
_cell_volume 798.494286
_symmetry_space_group_name_H-M "P -1"
_symmetry_group_IT_number 2
_symmetry_cell_setting 'triclinic'
loop_
_space_group_symop_operation_xyz
x,y,z
-x,-y,-z
loop_
_atom_site_type_symbol
_atom_site_label
_atom_site_fract_x
_atom_site_fract_y
_atom_site_fract_z
Si Si1 0.208096 0.101798 0.326029
Si Si2 0.909744 0.382658 0.691978
Si Si3 0.641350 0.865519 0.201392
Si Si4 0.725356 0.212812 0.457959
Si Si5 0.142602 0.884385 0.218628
Si Si6 0.827680 0.914583 0.299565
Si Si7 0.752567 0.536524 0.625756
Si Si8 0.597724 0.956544 0.107208
O O1 0.282410 0.307419 0.296737
O O2 0.062033 0.992401 0.335138
O O3 0.513855 0.098335 0.150062
O O4 0.000000 0.000000 0.500000
O O5 0.951408 0.312741 0.723689
O O6 0.575359 0.238661 0.850473
O O7 0.976481 0.586929 0.686270
O O8 0.153159 0.390949 0.493527
O O9 0.470522 0.875269 0.369976
O O10 0.566197 0.658333 0.207220
O O11 0.513268 0.923917 0.228888
O O12 0.000000 0.000000 0.000000
O O13 0.511073 0.224314 0.537637
O O14 0.857640 0.095648 0.334691
O O15 0.932131 0.832669 0.279165
O O16 0.500000 0.000000 0.000000
O O17 0.046550 0.962413 0.110957
O O18 0.000000 0.500000 0.500000
#
# Coordination Sequence:
#
# PCOD8011373 Si02
#       8
#     2   2   2   2   2   2   2   2
#     4  11  21  38  62  94 122 157 204 257 312 357
#     4  10  21  39  60  94 117 157 206 250 305 361
#     4  11  22  40  65  88 123 162 201 258 311 356
#     4  10  25  40  63  88 124 167 204 251 309 365
#     4  11  22  39  62  90 123 162 201 250 307 359
#     4  11  23  42  59  89 126 166 205 245 310 368
#     4  11  21  37  63  95 118 151 204 255 304 367
#     4  11  21  40  63  90 127 156 205 263 299 367
#
# _framework density 20.037713
#
# number of rings (size 3 to 8) (size 9 to 14) (size 15 to 20)
#    0.000    1.250    7.500    0.000    5.250    1.000 
#    2.250    0.625    2.750    0.000    0.000    0.000 
#    0.000    0.000    0.000    0.000    0.000    0.000 
#
# Total GULP energy -198304.964898 kJ/mol
# GULP energy per Si atom -12394.060306 kJ/mol
# Density = 1.999211 g / cm^3
# Si number density = 20.037713 Si / 1000 Ang^3
#
#
#
# Elastic Constant Matrix: (Units=GPa)
#
#
# Indices 1 2 3 4 5 6 
#
# 1 115.3069 6.1489 12.7088 4.7354 7.0423 -14.3361
# 2 6.1489 92.0455 30.8468 -0.6963 4.2238 0.4861
# 3 12.7088 30.8468 68.0502 -1.9598 4.6681 -9.1139
# 4 4.7354 -0.6963 -1.9598 28.4609 3.2026 4.3277
# 5 7.0423 4.2238 4.6681 3.2026 33.7103 1.3260
# 6 -14.3361 0.4861 -9.1139 4.3277 1.3260 28.1892
#
#
#
# Elastic Compliance Matrix: (Units=1/GPa)
#
#
# Indices 1 2 3 4 5 6 
#
# 1 0.009619 -0.000290 -0.000931 -0.002230 -0.001830 0.005024
# 2 -0.000290 0.012969 -0.006085 0.000381 -0.000665 -0.002366
# 3 -0.000931 -0.006085 0.018527 0.000641 -0.001890 0.005612
# 4 -0.002230 0.000381 0.000641 0.036871 -0.002920 -0.006456
# 5 -0.001830 -0.000665 -0.001890 -0.002920 0.030769 -0.002529
# 6 0.005024 -0.002366 0.005612 -0.006456 -0.002529 0.040995
#
#
# Mechanical properties :
#
#
# Convention : Reuss Voigt Hill
#
# Bulk Modulus (GPa) = 37.73145 41.64573 39.68859
# Shear Modulus (GPa) = 28.86944 33.11860 30.99402
#
# Velocity S-wave (km/s) = 3.79985 4.06989 3.93718
# Velocity P-wave (km/s) = 6.17437 6.55089 6.36542
#
# Compressibility (1/GPa) = 0.02650309
#
# Stress axis : x y z
#
# Youngs Moduli (GPa) = 103.96602 77.10946 53.97607
#
# Poissons Ratio (x) = 0.02237 0.05023
# Poissons Ratio (y) = 0.03016 0.32843
# Poissons Ratio (z) = 0.09675 0.46918
#
# Static dielectric constant tensor:
#      x y z
#    x 4.038910 -0.002420 0.108980 
#    y -0.002420 3.793980 -0.005860 
#    z 0.108980 -0.005860 3.498550 
# 
# 
# High freq. dielectric constant tensor:
#      x y z
#    x 1.800230 0.000900 0.010280 
#    y 0.000900 1.766960 -0.002350 
#    z 0.010280 -0.002350 1.764480 
# 
# From -- ./inp_files/399035.got.cif
#   From: 2010.06.25/outbox.cif.g09.slc.cpg/sg2_200_cif.got.tgz:399035.got - 2010.06.27 13:26:56.
