data_PCOD8011467
_publ_section_title
;
Structure prediction by ZEFSAII (Michael W. Deem and Ramdas Pophale) SiO2 
 PCOD8011467
Probable space group: P -1
;
_chemical_formula_sum "Si O2"
_cell_formula_units_Z 16
_cell_length_a 25.296766
_cell_length_b 15.930615
_cell_length_c 22.805836
_cell_angle_alpha 161.714376
_cell_angle_beta 16.423289
_cell_angle_gamma 153.927867
_cell_volume 807.116855
_symmetry_space_group_name_H-M "P -1"
_symmetry_group_IT_number 2
_symmetry_cell_setting 'triclinic'
loop_
_space_group_symop_operation_xyz
x,y,z
-x,-y,-z
loop_
_atom_site_type_symbol
_atom_site_label
_atom_site_fract_x
_atom_site_fract_y
_atom_site_fract_z
Si Si1 0.253247 0.703363 0.152425
Si Si2 0.589371 0.549829 0.376755
Si Si3 0.299668 0.484261 0.452495
Si Si4 0.057066 0.366975 0.411597
Si Si5 0.693670 0.057491 0.861669
Si Si6 0.039104 0.678748 0.752362
Si Si7 0.746747 0.181604 0.162611
Si Si8 0.129260 0.067535 0.629560
O O1 0.191717 0.811927 0.224686
O O2 0.142720 0.453517 0.120348
O O3 0.196873 0.977806 0.432725
O O4 0.475413 0.591553 0.846799
O O5 0.500000 0.500000 0.500000
O O6 0.444865 0.676911 0.566275
O O7 0.734902 0.758724 0.367098
O O8 0.678814 0.259695 0.066144
O O9 0.210423 0.588189 0.554536
O O10 0.240411 0.716506 0.717145
O O11 0.209341 0.224583 0.400654
O O12 0.100137 0.573998 0.553162
O O13 0.000000 0.500000 0.500000
O O14 0.876158 0.217547 0.520792
O O15 0.244682 0.143555 0.057705
O O16 0.500000 0.000000 0.000000
O O17 0.000000 0.000000 0.000000
O O18 0.918327 0.240497 0.975229
#
# Coordination Sequence:
#
# PCOD8011467 Si02
#       8
#     2   2   2   2   2   2   2   2
#     4  10  22  43  64  95 133 162 210 265 311 384
#     4  12  23  38  64  93 132 171 209 254 316 378
#     4  11  23  42  67  91 132 169 210 257 322 377
#     4   9  21  45  64  88 128 159 208 269 310 368
#     4  10  21  39  61  94 132 168 203 260 312 376
#     4  11  25  42  69  95 124 169 215 264 320 376
#     4  10  23  41  62  93 128 163 213 256 313 372
#     4   9  24  39  65  92 129 162 216 256 317 371
#
# _framework density 19.823647000000001
#
# number of rings (size 3 to 8) (size 9 to 14) (size 15 to 20)
#    0.750    1.000    2.500    2.250    5.250    1.500 
#    0.000    0.625    0.000    0.000    0.000    0.000 
#    0.000    0.000    0.000    0.000    0.000    0.000 
#
# Total GULP energy -198234.773278 kJ/mol
# GULP energy per Si atom -12389.673330 kJ/mol
# Density = 1.977853 g / cm^3
# Si number density = 19.823647 Si / 1000 Ang^3
#
#
#
# Elastic Constant Matrix: (Units=GPa)
#
#
# Indices 1 2 3 4 5 6 
#
# 1 179.2614 50.5521 75.1473 9.7812 21.7811 -19.8206
# 2 50.5521 88.0032 38.2383 14.6013 5.8361 3.9961
# 3 75.1473 38.2383 120.5533 8.9457 24.4834 -2.6886
# 4 9.7812 14.6013 8.9457 42.1082 0.7658 2.1820
# 5 21.7811 5.8361 24.4834 0.7658 47.4480 6.8057
# 6 -19.8206 3.9961 -2.6886 2.1820 6.8057 38.4843
#
#
#
# Elastic Compliance Matrix: (Units=1/GPa)
#
#
# Indices 1 2 3 4 5 6 
#
# 1 0.009122 -0.003567 -0.003914 -0.000277 -0.002477 0.005249
# 2 -0.003567 0.015296 -0.002800 -0.003720 0.001796 -0.003728
# 3 -0.003914 -0.002800 0.012551 -0.000706 -0.004318 -0.000045
# 4 -0.000277 -0.003720 -0.000706 0.025310 0.000737 -0.001371
# 5 -0.002477 0.001796 -0.004318 0.000737 0.025104 -0.006245
# 6 0.005249 -0.003728 -0.000045 -0.001371 -0.006245 0.030254
#
#
# Mechanical properties :
#
#
# Convention : Reuss Voigt Hill
#
# Bulk Modulus (GPa) = 60.94869 79.52148 70.23509
# Shear Modulus (GPa) = 34.80245 40.53344 37.66794
#
# Velocity S-wave (km/s) = 4.19454 4.52674 4.36380
# Velocity P-wave (km/s) = 7.36689 8.21726 7.80367
#
# Compressibility (1/GPa) = 0.01640724
#
# Stress axis : x y z
#
# Youngs Moduli (GPa) = 109.63079 65.37479 79.67456
#
# Poissons Ratio (x) = 0.23321 0.31182
# Poissons Ratio (y) = 0.39108 0.22309
# Poissons Ratio (z) = 0.42906 0.18305
#
# Static dielectric constant tensor:
#      x y z
#    x 3.684740 0.080050 0.171110 
#    y 0.080050 4.910080 -0.179410 
#    z 0.171110 -0.179410 3.736330 
# 
# 
# High freq. dielectric constant tensor:
#      x y z
#    x 1.779940 -0.001430 0.018390 
#    y -0.001430 1.765750 0.010710 
#    z 0.018390 0.010710 1.776100 
# 
# From -- ./inp_files/602137.got.cif
#   From: 2010.06.25/outbox.cif.g09.slc.cpg/sg2_302_cif.got.tgz:602137.got - 2010.06.27 13:26:56.
