data_PCOD8011843
_publ_section_title
;
Structure prediction by ZEFSAII (Michael W. Deem and Ramdas Pophale) SiO2 
 PCOD8011843
Probable space group: P -1
;
_chemical_formula_sum "Si O2"
_cell_formula_units_Z 16
_cell_length_a 11.679534
_cell_length_b 11.158261
_cell_length_c 9.187164
_cell_angle_alpha 125.206241
_cell_angle_beta 114.282777
_cell_angle_gamma 51.249527
_cell_volume 760.562834
_symmetry_space_group_name_H-M "P -1"
_symmetry_group_IT_number 2
_symmetry_cell_setting 'triclinic'
loop_
_space_group_symop_operation_xyz
x,y,z
-x,-y,-z
loop_
_atom_site_type_symbol
_atom_site_label
_atom_site_fract_x
_atom_site_fract_y
_atom_site_fract_z
Si Si1 0.008679 0.724745 0.163284
Si Si2 0.872930 0.959444 0.697271
Si Si3 0.207793 0.321052 0.488804
Si Si4 0.449883 0.370963 0.744340
Si Si5 0.985237 0.505286 0.747512
Si Si6 0.275163 0.749585 0.378104
Si Si7 0.314411 0.753616 0.991163
Si Si8 0.822018 0.118745 0.277656
O O1 0.176057 0.679363 0.210073
O O2 0.987748 0.659387 0.262851
O O3 0.976110 0.643275 0.952064
O O4 0.893098 0.926868 0.239305
O O5 0.811845 0.841691 0.637339
O O6 0.049705 0.849933 0.692804
O O7 0.792725 0.052323 0.569821
O O8 0.830045 0.112987 0.898661
O O9 0.375024 0.269734 0.570602
O O10 0.115415 0.449960 0.661610
O O11 0.163036 0.410384 0.368681
O O12 0.559986 0.370390 0.679430
O O13 0.540077 0.273285 0.869483
O O14 0.327812 0.569093 0.854868
O O15 0.268816 0.747896 0.547931
O O16 0.296189 0.837433 0.881313
#
# Coordination Sequence:
#
# PCOD8011843 Si02
#       8
#     2   2   2   2   2   2   2   2
#     4  10  21  41  60  94 121 156 198 259 304 355
#     4  10  21  39  64  94 119 154 203 259 306 342
#     4  11  23  38  63  90 122 161 200 251 296 364
#     4  10  25  41  58  89 127 166 200 243 300 363
#     4  10  23  37  63  90 126 154 200 249 315 349
#     4  10  22  39  63  87 126 162 203 242 302 363
#     4  10  23  39  61  90 121 162 205 244 300 356
#     4  11  21  37  68  91 121 154 209 254 300 353
#
# _framework density 21.037051999999999
#
# number of rings (size 3 to 8) (size 9 to 14) (size 15 to 20)
#    0.000    1.750    0.000    4.125   12.250    2.500 
#    0.000    0.000    0.000    3.000    0.000    0.000 
#    0.000    0.000    0.000    0.000    0.000    0.000 
#
# Total GULP energy -198353.476279 kJ/mol
# GULP energy per Si atom -12397.092267 kJ/mol
# Density = 2.098917 g / cm^3
# Si number density = 21.037052 Si / 1000 Ang^3
#
#
#
# Elastic Constant Matrix: (Units=GPa)
#
#
# Indices 1 2 3 4 5 6 
#
# 1 94.6156 43.4077 65.5072 -15.4850 8.1670 -0.7730
# 2 43.4077 79.2604 56.7798 -18.1446 5.3799 8.4101
# 3 65.5072 56.7798 129.9479 -24.5602 -9.0723 2.9796
# 4 -15.4850 -18.1446 -24.5602 38.3825 3.0204 -4.6386
# 5 8.1670 5.3799 -9.0723 3.0204 34.5631 2.1514
# 6 -0.7730 8.4101 2.9796 -4.6386 2.1514 27.9410
#
#
#
# Elastic Compliance Matrix: (Units=1/GPa)
#
#
# Indices 1 2 3 4 5 6 
#
# 1 0.018727 -0.004274 -0.007809 0.001426 -0.006143 0.003347
# 2 -0.004274 0.021395 -0.006635 0.003875 -0.004096 -0.004892
# 3 -0.007809 -0.006635 0.015597 0.003182 0.006686 0.000131
# 4 0.001426 0.003875 0.003182 0.031217 -0.003079 0.003953
# 5 -0.006143 -0.004096 0.006686 -0.003079 0.033215 -0.002719
# 6 0.003347 -0.004892 0.000131 0.003953 -0.002719 0.038206
#
#
# Mechanical properties :
#
#
# Convention : Reuss Voigt Hill
#
# Bulk Modulus (GPa) = 54.69821 70.57925 62.63873
# Shear Modulus (GPa) = 24.76628 29.38595 27.07611
#
# Velocity S-wave (km/s) = 3.43486 3.74152 3.59146
# Velocity P-wave (km/s) = 6.46439 7.23105 6.85844
#
# Compressibility (1/GPa) = 0.01828213
#
# Stress axis : x y z
#
# Youngs Moduli (GPa) = 53.39742 46.74069 64.11663
#
# Poissons Ratio (x) = 0.19975 0.50071
# Poissons Ratio (y) = 0.22820 0.42543
# Poissons Ratio (z) = 0.41700 0.31014
#
# Static dielectric constant tensor:
#      x y z
#    x 3.600500 0.077870 -0.116640 
#    y 0.077870 3.839630 -0.172880 
#    z -0.116640 -0.172880 3.879090 
# 
# 
# High freq. dielectric constant tensor:
#      x y z
#    x 1.798530 0.006780 -0.011110 
#    y 0.006780 1.821530 -0.007640 
#    z -0.011110 -0.007640 1.838410 
# 
# From -- ./inp_files/263562.got.cif
#   From: 2010.06.25/outbox.cif.g09.slc.cpg/sg2_132_cif.got.tgz:263562.got - 2010.06.27 13:26:56.
