data_PCOD8011498
_publ_section_title
;
Structure prediction by ZEFSAII (Michael W. Deem and Ramdas Pophale) SiO2 
 PCOD8011498
Probable space group: P -1
;
_chemical_formula_sum "Si O2"
_cell_formula_units_Z 16
_cell_length_a 9.157939
_cell_length_b 12.211531
_cell_length_c 18.225520
_cell_angle_alpha 137.133433
_cell_angle_beta 44.458108
_cell_angle_gamma 149.008344
_cell_volume 692.395404
_symmetry_space_group_name_H-M "P -1"
_symmetry_group_IT_number 2
_symmetry_cell_setting 'triclinic'
loop_
_space_group_symop_operation_xyz
x,y,z
-x,-y,-z
loop_
_atom_site_type_symbol
_atom_site_label
_atom_site_fract_x
_atom_site_fract_y
_atom_site_fract_z
Si Si1 0.125297 0.411455 0.066672
Si Si2 0.348837 0.319671 0.586023
Si Si3 0.552918 0.269532 0.234989
Si Si4 0.335796 0.032374 0.342233
Si Si5 0.269740 0.253100 0.054021
Si Si6 0.898468 0.973360 0.852419
Si Si7 0.475710 0.097261 0.669623
Si Si8 0.700807 0.309138 0.552732
O O1 0.226673 0.408783 0.111122
O O2 0.884457 0.421433 0.162838
O O3 0.411264 0.636902 0.033489
O O4 0.974920 0.183325 0.965677
O O5 0.477200 0.565097 0.642856
O O6 0.454010 0.250891 0.452268
O O7 0.477274 0.331224 0.623237
O O8 0.005347 0.134994 0.628083
O O9 0.489970 0.112646 0.247226
O O10 0.321015 0.110756 0.176394
O O11 0.403877 0.900041 0.294099
O O12 0.259819 0.238240 0.138677
O O13 0.000000 0.000000 0.000000
O O14 0.198585 0.060274 0.760143
O O15 0.719991 0.321085 0.641352
O O16 0.403972 0.914130 0.552023
O O17 0.000000 0.500000 0.500000
#
# Coordination Sequence:
#
# PCOD8011498 Si02
#       8
#     2   2   2   2   2   2   2   2
#     4  10  23  41  64  92 125 165 211 256 309 375
#     4  10  23  40  61  90 125 167 210 260 317 379
#     4  12  24  39  63  94 129 171 208 255 319 375
#     4  10  23  42  63  90 127 165 213 266 314 375
#     4   9  21  43  64  86 120 162 210 262 308 362
#     4  11  23  39  63  94 129 164 208 259 310 372
#     4  10  22  39  62  89 117 160 207 256 312 368
#     4  10  21  39  62  88 119 156 206 261 313 369
#
# _framework density 23.108183
#
# number of rings (size 3 to 8) (size 9 to 14) (size 15 to 20)
#    0.000    1.750    0.000    3.000    0.000   14.500 
#    0.000    0.000    0.000    0.000    0.000    0.000 
#    0.000    0.000    0.000    0.000    0.000    0.000 
#
# Total GULP energy -198334.199318 kJ/mol
# GULP energy per Si atom -12395.887457 kJ/mol
# Density = 2.305559 g / cm^3
# Si number density = 23.108183 Si / 1000 Ang^3
#
#
#
# Elastic Constant Matrix: (Units=GPa)
#
#
# Indices 1 2 3 4 5 6 
#
# 1 191.2226 74.6204 36.9949 -41.6516 2.2451 -5.2711
# 2 74.6204 117.7271 17.2177 -45.3655 14.4873 -6.3926
# 3 36.9949 17.2177 74.7326 -17.4128 13.4043 -2.9142
# 4 -41.6516 -45.3655 -17.4128 49.1898 2.4325 2.8254
# 5 2.2451 14.4873 13.4043 2.4325 40.5519 -10.8766
# 6 -5.2711 -6.3926 -2.9142 2.8254 -10.8766 42.0387
#
#
#
# Elastic Compliance Matrix: (Units=1/GPa)
#
#
# Indices 1 2 3 4 5 6 
#
# 1 0.007712 -0.004051 -0.002837 0.001658 0.002009 0.000563
# 2 -0.004051 0.016708 0.002589 0.013306 -0.007571 -0.000641
# 3 -0.002837 0.002589 0.016890 0.006371 -0.007010 -0.001033
# 4 0.001658 0.013306 0.006371 0.036879 -0.009791 -0.002339
# 5 0.002009 -0.007571 -0.007010 -0.009791 0.032197 0.007603
# 6 0.000563 -0.000641 -0.001033 -0.002339 0.007603 0.025813
#
#
# Mechanical properties :
#
#
# Convention : Reuss Voigt Hill
#
# Bulk Modulus (GPa) = 30.56839 71.26094 50.91466
# Shear Modulus (GPa) = 32.11285 43.34601 37.72943
#
# Velocity S-wave (km/s) = 3.73188 4.33573 4.04509
# Velocity P-wave (km/s) = 5.64148 7.48129 6.62556
#
# Compressibility (1/GPa) = 0.03271353
#
# Stress axis : x y z
#
# Youngs Moduli (GPa) = 129.66269 59.85298 59.20567
#
# Poissons Ratio (x) = 0.24248 0.16794
# Poissons Ratio (y) = 0.52529 -0.15331
# Poissons Ratio (z) = 0.36779 -0.15498
#
# Static dielectric constant tensor:
#      x y z
#    x 4.536700 -0.236840 0.108180 
#    y -0.236840 4.461800 -0.110040 
#    z 0.108180 -0.110040 4.098660 
# 
# 
# High freq. dielectric constant tensor:
#      x y z
#    x 1.922200 -0.002930 0.000870 
#    y -0.002930 1.916510 -0.008030 
#    z 0.000870 -0.008030 1.905980 
# 
# From -- ./inp_files/469735.got.cif
#   From: 2010.06.25/outbox.cif.g09.slc.cpg/sg2_235_cif.got.tgz:469735.got - 2010.06.27 13:26:56.
