data_PCOD8011295
_publ_section_title
;
Structure prediction by ZEFSAII (Michael W. Deem and Ramdas Pophale) SiO2 
 PCOD8011295
Probable space group: P -1
;
_chemical_formula_sum "Si O2"
_cell_formula_units_Z 16
_cell_length_a 9.561494
_cell_length_b 21.770891
_cell_length_c 8.452587
_cell_angle_alpha 33.597670
_cell_angle_beta 50.225433
_cell_angle_gamma 64.912114
_cell_volume 723.366785
_symmetry_space_group_name_H-M "P -1"
_symmetry_group_IT_number 2
_symmetry_cell_setting 'triclinic'
loop_
_space_group_symop_operation_xyz
x,y,z
-x,-y,-z
loop_
_atom_site_type_symbol
_atom_site_label
_atom_site_fract_x
_atom_site_fract_y
_atom_site_fract_z
Si Si1 0.136384 0.425603 0.631257
Si Si2 0.533705 0.583811 0.051712
Si Si3 0.462444 0.875875 0.216525
Si Si4 0.891472 0.587981 0.952824
Si Si5 0.933131 0.177650 0.851857
Si Si6 0.653971 0.015906 0.218590
Si Si7 0.229669 0.248360 0.728162
Si Si8 0.588552 0.207449 0.239943
O O1 0.358143 0.486165 0.325602
O O2 0.113643 0.302823 0.823908
O O3 0.000000 0.500000 0.500000
O O4 0.081129 0.401325 0.903724
O O5 0.673778 0.537756 0.164597
O O6 0.646799 0.644199 0.688408
O O7 0.454822 0.672443 0.024865
O O8 0.644262 0.832234 0.122040
O O9 0.353246 0.792112 0.615363
O O10 0.500000 0.000000 0.000000
O O11 0.353248 0.881424 0.120172
O O12 0.974303 0.714155 0.554200
O O13 0.000000 0.500000 0.000000
O O14 0.081161 0.160964 0.910852
O O15 0.751300 0.197316 0.028561
O O16 0.861948 0.060473 0.050875
O O17 0.608463 0.892396 0.428729
O O18 0.500000 0.000000 0.500000
#
# Coordination Sequence:
#
# PCOD8011295 Si02
#       8
#     2   2   2   2   2   2   2   2
#     4  12  24  39  62  92 122 162 207 251 306 370
#     4  10  21  40  61  84 121 160 199 254 306 362
#     4   9  19  38  60  86 117 157 204 248 300 363
#     4  11  24  40  59  88 124 162 203 250 307 367
#     4  10  21  39  59  87 123 155 198 256 301 359
#     4   9  19  35  59  86 116 155 196 242 299 356
#     4  10  22  38  59  88 122 160 201 249 305 363
#     4   9  18  37  63  87 116 157 203 252 307 360
#
# _framework density 22.118794000000001
#
# number of rings (size 3 to 8) (size 9 to 14) (size 15 to 20)
#    0.000    2.000    0.000    3.750    0.000    6.000 
#    0.000   15.625    0.000    0.000    0.000    0.000 
#    0.000    0.000    0.000    0.000    0.000    0.000 
#
# Total GULP energy -198244.615786 kJ/mol
# GULP energy per Si atom -12390.288487 kJ/mol
# Density = 2.206845 g / cm^3
# Si number density = 22.118794 Si / 1000 Ang^3
#
#
#
# Elastic Constant Matrix: (Units=GPa)
#
#
# Indices 1 2 3 4 5 6 
#
# 1 127.2432 24.2526 36.1159 1.3220 -1.4648 10.1996
# 2 24.2526 93.7416 6.5959 2.9035 14.4485 -2.8826
# 3 36.1159 6.5959 49.3643 5.7332 -7.3450 8.2988
# 4 1.3220 2.9035 5.7332 30.9259 1.1501 5.8155
# 5 -1.4648 14.4485 -7.3450 1.1501 35.4692 -0.2623
# 6 10.1996 -2.8826 8.2988 5.8155 -0.2623 34.0745
#
#
#
# Elastic Compliance Matrix: (Units=1/GPa)
#
#
# Indices 1 2 3 4 5 6 
#
# 1 0.010480 -0.002270 -0.007260 0.001459 -0.000207 -0.001811
# 2 -0.002270 0.012227 -0.000979 -0.001069 -0.005227 0.002094
# 3 -0.007260 -0.000979 0.027731 -0.004227 0.005950 -0.003896
# 4 0.001459 -0.001069 -0.004227 0.034220 -0.001529 -0.005350
# 5 -0.000207 -0.005227 0.005950 -0.001529 0.031586 -0.001325
# 6 -0.001811 0.002094 -0.003896 -0.005350 -0.001325 0.031919
#
#
# Mechanical properties :
#
#
# Convention : Reuss Voigt Hill
#
# Bulk Modulus (GPa) = 33.98907 44.91976 39.45442
# Shear Modulus (GPa) = 27.93528 33.65292 30.79410
#
# Velocity S-wave (km/s) = 3.55768 3.90482 3.73529
# Velocity P-wave (km/s) = 5.68120 6.37830 6.03982
#
# Compressibility (1/GPa) = 0.02942122
#
# Stress axis : x y z
#
# Youngs Moduli (GPa) = 95.42236 81.78749 36.06090
#
# Poissons Ratio (x) = 0.18562 0.26179
# Poissons Ratio (y) = 0.21656 0.03530
# Poissons Ratio (z) = 0.69273 0.08007
#
# Static dielectric constant tensor:
#      x y z
#    x 4.391890 -0.049060 -0.206000 
#    y -0.049060 3.597870 -0.475660 
#    z -0.206000 -0.475660 3.672780 
# 
# 
# High freq. dielectric constant tensor:
#      x y z
#    x 1.873820 0.009310 0.002070 
#    y 0.009310 1.874120 0.006090 
#    z 0.002070 0.006090 1.859370 
# 
# From -- ./inp_files/188938.got.cif
#   From: 2010.06.25/outbox.cif.g09.slc.cpg/sg2_95_cif.got.tgz:188938.got - 2010.06.27 13:26:56.
