data_PCOD8011721
_publ_section_title
;
Structure prediction by ZEFSAII (Michael W. Deem and Ramdas Pophale) SiO2 
 PCOD8011721
Probable space group: P -1
;
_chemical_formula_sum "Si O2"
_cell_formula_units_Z 14
_cell_length_a 12.444643
_cell_length_b 18.354145
_cell_length_c 24.205644
_cell_angle_alpha 163.437480
_cell_angle_beta 153.242462
_cell_angle_gamma 35.689958
_cell_volume 667.192104
_symmetry_space_group_name_H-M "P -1"
_symmetry_group_IT_number 2
_symmetry_cell_setting 'triclinic'
loop_
_space_group_symop_operation_xyz
x,y,z
-x,-y,-z
loop_
_atom_site_type_symbol
_atom_site_label
_atom_site_fract_x
_atom_site_fract_y
_atom_site_fract_z
Si Si1 0.107710 0.312262 0.153752
Si Si2 0.480370 0.315135 0.747670
Si Si3 0.692405 0.124272 0.559360
Si Si4 0.761118 0.714302 0.030788
Si Si5 0.506036 0.106502 0.245167
Si Si6 0.923774 0.141862 0.823736
Si Si7 0.610129 0.140885 0.872997
O O1 0.311411 0.178554 0.168556
O O2 0.235240 0.637046 0.443226
O O3 0.001240 0.179752 0.950214
O O4 0.885230 0.249978 0.050967
O O5 0.756683 0.326179 0.859791
O O6 0.459060 0.137690 0.664590
O O7 0.250709 0.172274 0.496020
O O8 0.490061 0.613924 0.982043
O O9 0.990258 0.172038 0.734223
O O10 0.601180 0.067039 0.413124
O O11 0.630679 0.391058 0.744815
O O12 0.829098 0.776856 0.042674
O O13 0.562628 0.855264 0.060675
O O14 0.375085 0.018898 0.180660
#
# Coordination Sequence:
#
# PCOD8011721 Si02
#       7
#     2   2   2   2   2   2   2
#     4  11  24  47  65  91 129 171 218 260 309 375
#     4  10  22  37  63 100 126 156 207 265 323 374
#     4  10  21  39  63  94 134 160 205 267 322 378
#     4  10  23  40  60  98 130 163 211 261 319 382
#     4  11  27  43  65  92 131 173 214 260 307 380
#     4  10  21  39  65  90 129 165 202 268 316 372
#     4  12  24  41  69  96 126 169 214 261 320 376
#
# _framework density 20.983463
#
# number of rings (size 3 to 8) (size 9 to 14) (size 15 to 20)
#    0.000    1.429    1.429    3.429   10.000    1.143 
#    0.000    4.286    0.000    0.000    0.000    0.000 
#    0.000    0.000    0.000    0.000    0.000    0.000 
#
# Total GULP energy -173623.893349 kJ/mol
# GULP energy per Si atom -12401.706668 kJ/mol
# Density = 2.093570 g / cm^3
# Si number density = 20.983463 Si / 1000 Ang^3
#
#
#
# Elastic Constant Matrix: (Units=GPa)
#
#
# Indices 1 2 3 4 5 6 
#
# 1 105.1374 31.3154 34.0788 1.3019 6.1123 12.9764
# 2 31.3154 80.3481 46.0097 8.0109 -11.8991 6.6349
# 3 34.0788 46.0097 94.6079 3.2168 -12.4020 7.6176
# 4 1.3019 8.0109 3.2168 29.2045 3.3835 -4.2848
# 5 6.1123 -11.8991 -12.4020 3.3835 37.2269 7.0378
# 6 12.9764 6.6349 7.6176 -4.2848 7.0378 39.5924
#
#
#
# Elastic Compliance Matrix: (Units=1/GPa)
#
#
# Indices 1 2 3 4 5 6 
#
# 1 0.011959 -0.003418 -0.003007 0.000877 -0.003758 -0.002005
# 2 -0.003418 0.019360 -0.007127 -0.005318 0.005287 -0.002268
# 3 -0.003007 -0.007127 0.015752 -0.000313 0.003786 -0.001558
# 4 0.000877 -0.005318 -0.000313 0.037300 -0.006444 0.005846
# 5 -0.003758 0.005287 0.003786 -0.006444 0.032306 -0.006823
# 6 -0.002005 -0.002268 -0.001558 0.005846 -0.006823 0.028440
#
#
# Mechanical properties :
#
#
# Convention : Reuss Voigt Hill
#
# Bulk Modulus (GPa) = 50.08316 55.87789 52.98052
# Shear Modulus (GPa) = 27.95245 32.45074 30.20159
#
# Velocity S-wave (km/s) = 3.65378 3.93681 3.79793
# Velocity P-wave (km/s) = 6.45909 6.88127 6.67352
#
# Compressibility (1/GPa) = 0.01996679
#
# Stress axis : x y z
#
# Youngs Moduli (GPa) = 83.61870 51.65355 63.48576
#
# Poissons Ratio (x) = 0.17653 0.19088
# Poissons Ratio (y) = 0.28578 0.45249
# Poissons Ratio (z) = 0.25142 0.36816
#
# Static dielectric constant tensor:
#      x y z
#    x 3.912390 0.098870 0.041500 
#    y 0.098870 3.619850 0.035300 
#    z 0.041500 0.035300 3.894710 
# 
# 
# High freq. dielectric constant tensor:
#      x y z
#    x 1.836350 0.010410 0.000510 
#    y 0.010410 1.805530 0.004980 
#    z 0.000510 0.004980 1.828190 
# 
# From -- ./inp_files/595708.got.cif
#   From: 2010.06.25/outbox.cif.g09.slc.cpg/sg2_298_cif.got.tgz:595708.got - 2010.06.27 13:26:56.
