data_PCOD8011726
_publ_section_title
;
Structure prediction by ZEFSAII (Michael W. Deem and Ramdas Pophale) SiO2 
 PCOD8011726
Probable space group: P -1
;
_chemical_formula_sum "Si O2"
_cell_formula_units_Z 16
_cell_length_a 13.763242
_cell_length_b 13.779780
_cell_length_c 21.113393
_cell_angle_alpha 156.532364
_cell_angle_beta 29.745394
_cell_angle_gamma 150.022979
_cell_volume 740.144417
_symmetry_space_group_name_H-M "P -1"
_symmetry_group_IT_number 2
_symmetry_cell_setting 'triclinic'
loop_
_space_group_symop_operation_xyz
x,y,z
-x,-y,-z
loop_
_atom_site_type_symbol
_atom_site_label
_atom_site_fract_x
_atom_site_fract_y
_atom_site_fract_z
Si Si1 0.556903 0.852368 0.937305
Si Si2 0.779155 0.663058 0.165155
Si Si3 0.110414 0.246381 0.041483
Si Si4 0.846974 0.304854 0.113350
Si Si5 0.260914 0.498414 0.449395
Si Si6 0.191187 0.726005 0.366145
Si Si7 0.299002 0.283199 0.614687
Si Si8 0.386429 0.075332 0.686199
O O1 0.348096 0.640815 0.956781
O O2 0.715306 0.709216 0.738872
O O3 0.500000 0.000000 0.000000
O O4 0.644516 0.046969 0.062864
O O5 0.801520 0.720362 0.261134
O O6 0.655310 0.835073 0.306244
O O7 0.004165 0.723625 0.044072
O O8 0.224832 0.499216 0.170230
O O9 0.934622 0.302168 0.131961
O O10 0.283429 0.200367 0.872476
O O11 0.000000 0.000000 0.000000
O O12 0.793852 0.566448 0.292741
O O13 0.449472 0.571877 0.438217
O O14 0.039755 0.374738 0.534340
O O15 0.278705 0.763507 0.562057
O O16 0.364766 0.816589 0.377604
O O17 0.229895 0.980723 0.451970
#
# Coordination Sequence:
#
# PCOD8011726 Si02
#       8
#     2   2   2   2   2   2   2   2
#     4  11  22  38  64  94 129 161 198 246 318 376
#     4  10  22  38  63  97 126 162 201 255 307 382
#     4  11  24  45  64  88 123 164 218 258 300 362
#     4  11  23  41  64  91 126 166 204 257 308 364
#     4  10  21  39  63  95 128 157 205 253 309 376
#     4  11  23  40  67  85 127 170 203 262 303 353
#     4  10  22  39  61  93 126 156 206 252 313 373
#     4  10  23  42  65  93 123 163 212 251 313 365
#
# _framework density 21.617404000000001
#
# number of rings (size 3 to 8) (size 9 to 14) (size 15 to 20)
#    0.000    1.500    3.750    1.500    3.500    5.000 
#    0.000    5.000    0.000    0.000    0.000    0.000 
#    0.000    0.000    0.000    0.000    0.000    0.000 
#
# Total GULP energy -198419.198305 kJ/mol
# GULP energy per Si atom -12401.199894 kJ/mol
# Density = 2.156820 g / cm^3
# Si number density = 21.617404 Si / 1000 Ang^3
#
#
#
# Elastic Constant Matrix: (Units=GPa)
#
#
# Indices 1 2 3 4 5 6 
#
# 1 74.4381 31.0775 23.3385 16.1841 -26.7510 -8.8008
# 2 31.0775 89.7573 26.5111 17.8262 -7.7324 4.5207
# 3 23.3385 26.5111 105.1452 35.9712 -11.6397 -4.6810
# 4 16.1841 17.8262 35.9712 41.6769 -5.8865 -0.5844
# 5 -26.7510 -7.7324 -11.6397 -5.8865 43.7062 4.8606
# 6 -8.8008 4.5207 -4.6810 -0.5844 4.8606 24.7003
#
#
#
# Elastic Compliance Matrix: (Units=1/GPa)
#
#
# Indices 1 2 3 4 5 6 
#
# 1 0.021529 -0.005954 -0.000512 -0.003761 0.010763 0.006457
# 2 -0.005954 0.014366 -0.001801 -0.002541 -0.001382 -0.004880
# 3 -0.000512 -0.001801 0.014082 -0.010957 0.001389 0.002284
# 4 -0.003761 -0.002541 -0.010957 0.035884 -0.000616 -0.001981
# 5 0.010763 -0.001382 0.001389 -0.000616 0.029677 -0.001504
# 6 0.006457 -0.004880 0.002284 -0.001981 -0.001504 0.044361
#
#
# Mechanical properties :
#
#
# Convention : Reuss Voigt Hill
#
# Bulk Modulus (GPa) = 29.90153 47.91054 38.90603
# Shear Modulus (GPa) = 26.65492 34.57756 30.61624
#
# Velocity S-wave (km/s) = 3.51526 4.00374 3.76743
# Velocity P-wave (km/s) = 5.50802 6.60184 6.07958
#
# Compressibility (1/GPa) = 0.03344311
#
# Stress axis : x y z
#
# Youngs Moduli (GPa) = 46.44828 69.60733 71.01069
#
# Poissons Ratio (x) = 0.41445 0.03635
# Poissons Ratio (y) = 0.27656 0.12793
# Poissons Ratio (z) = 0.02377 0.12540
#
# Static dielectric constant tensor:
#      x y z
#    x 3.759210 0.121330 -0.184570 
#    y 0.121330 4.024540 0.283790 
#    z -0.184570 0.283790 4.218210 
# 
# 
# High freq. dielectric constant tensor:
#      x y z
#    x 1.828250 0.009690 -0.016760 
#    y 0.009690 1.855320 0.015480 
#    z -0.016760 0.015480 1.862540 
# 
# From -- ./inp_files/571139.got.cif
#   From: 2010.06.25/outbox.cif.g09.slc.cpg/sg2_286_cif.got.tgz:571139.got - 2010.06.27 13:26:56.
