data_PCOD8011455
_publ_section_title
;
Structure prediction by ZEFSAII (Michael W. Deem and Ramdas Pophale) SiO2 
 PCOD8011455
Probable space group: P -1
;
_chemical_formula_sum "Si O2"
_cell_formula_units_Z 12
_cell_length_a 5.352428
_cell_length_b 18.370011
_cell_length_c 7.245751
_cell_angle_alpha 133.692637
_cell_angle_beta 119.175671
_cell_angle_gamma 76.349651
_cell_volume 444.008690
_symmetry_space_group_name_H-M "P -1"
_symmetry_group_IT_number 2
_symmetry_cell_setting 'triclinic'
loop_
_space_group_symop_operation_xyz
x,y,z
-x,-y,-z
loop_
_atom_site_type_symbol
_atom_site_label
_atom_site_fract_x
_atom_site_fract_y
_atom_site_fract_z
Si Si1 0.452825 0.720111 0.992949
Si Si2 0.131122 0.760008 0.378851
Si Si3 0.264514 0.577342 0.328922
Si Si4 0.173021 0.879870 0.973210
Si Si5 0.413040 0.077654 0.248923
Si Si6 0.780346 0.464422 0.199948
O O1 0.407205 0.638951 0.665154
O O2 0.300490 0.817973 0.072656
O O3 0.304003 0.659928 0.017548
O O4 0.794602 0.756199 0.204776
O O5 0.202009 0.648756 0.259604
O O6 0.239387 0.829986 0.716203
O O7 0.338950 0.829769 0.424730
O O8 0.492664 0.514127 0.206885
O O9 0.960596 0.504665 0.148928
O O10 0.826518 0.865635 0.837487
O O11 0.292308 0.002484 0.244369
O O12 0.500000 0.000000 0.000000
O O13 0.000000 0.500000 0.500000
#
# Coordination Sequence:
#
# PCOD8011455 Si02
#       6
#     2   2   2   2   2   2
#     4  10  21  39  61  93 120 160 210 255 304 365
#     4  10  22  37  61  94 119 160 209 254 307 366
#     4  10  23  42  63  87 133 170 205 254 309 367
#     4   9  20  41  61  85 121 162 197 255 314 374
#     4   9  19  40  63  82 121 160 197 250 322 372
#     4  10  21  41  63  89 127 173 208 249 311 368
#
# _framework density 27.026496999999999
#
# number of rings (size 3 to 8) (size 9 to 14) (size 15 to 20)
#    0.000    2.333    0.000    2.000    7.000    2.000 
#   12.000    7.500    0.000    0.000    0.000    0.000 
#    0.000    0.000    0.000    0.000    0.000    0.000 
#
# Total GULP energy -148731.902497 kJ/mol
# GULP energy per Si atom -12394.325208 kJ/mol
# Density = 2.696498 g / cm^3
# Si number density = 27.026497 Si / 1000 Ang^3
#
#
#
# Elastic Constant Matrix: (Units=GPa)
#
#
# Indices 1 2 3 4 5 6 
#
# 1 149.1570 117.1635 61.2443 -2.0085 58.0826 14.6362
# 2 117.1635 244.6790 96.9985 16.6068 33.2630 -14.1102
# 3 61.2443 96.9985 155.6921 26.9659 45.7118 22.0695
# 4 -2.0085 16.6068 26.9659 51.4244 9.1829 0.6806
# 5 58.0826 33.2630 45.7118 9.1829 56.4559 -7.0526
# 6 14.6362 -14.1102 22.0695 0.6806 -7.0526 53.5904
#
#
#
# Elastic Compliance Matrix: (Units=1/GPa)
#
#
# Indices 1 2 3 4 5 6 
#
# 1 0.029147 -0.014629 0.008528 0.007350 -0.031919 -0.019618
# 2 -0.014629 0.013273 -0.008616 -0.003447 0.016422 0.013243
# 3 0.008528 -0.008616 0.015962 -0.001860 -0.018007 -0.013517
# 4 0.007350 -0.003447 -0.001860 0.023344 -0.008264 -0.003533
# 5 -0.031919 0.016422 -0.018007 -0.008264 0.060361 0.028505
# 6 -0.019618 0.013243 -0.013517 -0.003533 0.028505 0.036868
#
#
# Mechanical properties :
#
#
# Convention : Reuss Voigt Hill
#
# Bulk Modulus (GPa) = 34.54605 122.26008 78.40307
# Shear Modulus (GPa) = 22.93175 50.56893 36.75034
#
# Velocity S-wave (km/s) = 2.91605 4.33030 3.69153
# Velocity P-wave (km/s) = 4.91404 8.38673 6.87332
#
# Compressibility (1/GPa) = 0.02894687
#
# Stress axis : x y z
#
# Youngs Moduli (GPa) = 34.30868 75.34168 62.65014
#
# Poissons Ratio (x) = 1.10214 -0.53425
# Poissons Ratio (y) = 0.50189 0.53982
# Poissons Ratio (z) = -0.29257 0.64918
#
# Static dielectric constant tensor:
#      x y z
#    x 5.587380 0.606650 0.224780 
#    y 0.606650 7.279120 0.591100 
#    z 0.224780 0.591100 5.716740 
# 
# 
# High freq. dielectric constant tensor:
#      x y z
#    x 2.101770 0.012030 -0.009020 
#    y 0.012030 2.103470 0.013740 
#    z -0.009020 0.013740 2.136630 
# 
# From -- ./inp_files/46911.got.cif
#   From: 2010.06.25/outbox.cif.g09.slc.cpg/sg2_24_cif.got.tgz:46911.got - 2010.06.27 13:26:56.
