data_PCOD8011070
_publ_section_title
;
Structure prediction by ZEFSAII (Michael W. Deem and Ramdas Pophale) SiO2 
 PCOD8011070
Probable space group: P -1
;
_chemical_formula_sum "Si O2"
_cell_formula_units_Z 16
_cell_length_a 8.876191
_cell_length_b 11.894625
_cell_length_c 15.201145
_cell_angle_alpha 131.282667
_cell_angle_beta 76.129592
_cell_angle_gamma 65.376888
_cell_volume 721.028072
_symmetry_space_group_name_H-M "P -1"
_symmetry_group_IT_number 2
_symmetry_cell_setting 'triclinic'
loop_
_space_group_symop_operation_xyz
x,y,z
-x,-y,-z
loop_
_atom_site_type_symbol
_atom_site_label
_atom_site_fract_x
_atom_site_fract_y
_atom_site_fract_z
Si Si1 0.394980 0.132353 0.834725
Si Si2 0.314419 0.322592 0.760376
Si Si3 0.958096 0.839824 0.027494
Si Si4 0.933541 0.719293 0.610014
Si Si5 0.188814 0.933479 0.504381
Si Si6 0.686950 0.473280 0.677421
Si Si7 0.062002 0.600601 0.223766
Si Si8 0.139682 0.020716 0.079508
O O1 0.274182 0.258853 0.822229
O O2 0.296722 0.046470 0.841473
O O3 0.696051 0.908979 0.675270
O O4 0.307983 0.336555 0.013435
O O5 0.609545 0.114359 0.597330
O O6 0.169608 0.341550 0.713633
O O7 0.190220 0.582224 0.911646
O O8 0.973329 0.006570 0.131373
O O9 0.978313 0.810696 0.903146
O O10 0.000000 0.500000 0.500000
O O11 0.187380 0.593417 0.468696
O O12 0.854130 0.859389 0.784249
O O13 0.334734 0.691812 0.409997
O O14 0.000000 0.000000 0.500000
O O15 0.020920 0.185778 0.710311
O O16 0.876106 0.393942 0.683395
O O17 0.414870 0.753001 0.872787
#
# Coordination Sequence:
#
# PCOD8011070 Si02
#       8
#     2   2   2   2   2   2   2   2
#     4  11  23  43  68 105 136 177 234 282 348 409
#     4  11  22  41  67 102 138 176 235 279 344 414
#     4  10  23  43  74  97 140 191 223 286 351 401
#     4  12  28  44  71 105 133 181 239 286 339 420
#     4  10  21  39  61  97 135 174 223 272 339 414
#     4  11  23  45  68  99 138 181 231 279 349 402
#     4  10  21  38  66  95 139 182 210 286 342 396
#     4  11  24  49  71  99 142 185 233 283 346 411
#
# _framework density 22.190536999999999
#
# number of rings (size 3 to 8) (size 9 to 14) (size 15 to 20)
#    0.000    1.250    2.500    4.125    3.500    3.000 
#    0.000    8.125    0.000    0.000    0.000    0.000 
#    0.000    0.000    0.000    0.000    0.000    0.000 
#
# Total GULP energy -198215.728364 kJ/mol
# GULP energy per Si atom -12388.483023 kJ/mol
# Density = 2.214003 g / cm^3
# Si number density = 22.190537 Si / 1000 Ang^3
#
#
#
# Elastic Constant Matrix: (Units=GPa)
#
#
# Indices 1 2 3 4 5 6 
#
# 1 83.7917 34.1639 38.4769 6.2820 0.5156 12.9199
# 2 34.1639 116.2834 38.0108 5.0605 6.1441 18.6555
# 3 38.4769 38.0108 114.8288 18.1794 -3.9591 15.7242
# 4 6.2820 5.0605 18.1794 31.4367 8.5842 -1.7788
# 5 0.5156 6.1441 -3.9591 8.5842 25.1582 3.3576
# 6 12.9199 18.6555 15.7242 -1.7788 3.3576 40.5067
#
#
#
# Elastic Compliance Matrix: (Units=1/GPa)
#
#
# Indices 1 2 3 4 5 6 
#
# 1 0.015201 -0.002894 -0.003739 -0.000611 0.000297 -0.002116
# 2 -0.002894 0.010824 -0.002469 0.000896 -0.002901 -0.002824
# 3 -0.003739 -0.002469 0.012722 -0.008012 0.005875 -0.003448
# 4 -0.000611 0.000896 -0.008012 0.041226 -0.016342 0.006057
# 5 0.000297 -0.002901 0.005875 -0.016342 0.047714 -0.005712
# 6 -0.002116 -0.002824 -0.003448 0.006057 -0.005712 0.028741
#
#
# Mechanical properties :
#
#
# Convention : Reuss Voigt Hill
#
# Bulk Modulus (GPa) = 48.67469 59.57857 54.12663
# Shear Modulus (GPa) = 27.55148 33.03715 30.29432
#
# Velocity S-wave (km/s) = 3.52744 3.86268 3.69886
# Velocity P-wave (km/s) = 6.21071 6.84110 6.53351
#
# Compressibility (1/GPa) = 0.02054456
#
# Stress axis : x y z
#
# Youngs Moduli (GPa) = 65.78368 92.38627 78.60541
#
# Poissons Ratio (x) = 0.26733 0.29392
# Poissons Ratio (y) = 0.19035 0.19404
# Poissons Ratio (z) = 0.24598 0.22806
#
# Static dielectric constant tensor:
#      x y z
#    x 3.953790 0.135090 0.390820 
#    y 0.135090 4.136190 0.587520 
#    z 0.390820 0.587520 3.468390 
# 
# 
# High freq. dielectric constant tensor:
#      x y z
#    x 1.882060 0.010210 -0.004380 
#    y 0.010210 1.873050 0.026280 
#    z -0.004380 0.026280 1.864590 
# 
# From -- ./inp_files/316091.got.cif
#   From: 2010.06.25/outbox.cif.g09.slc.cpg/sg2_159_cif.got.tgz:316091.got - 2010.06.27 13:26:56.
