data_PCOD8011958
_publ_section_title
;
Structure prediction by ZEFSAII (Michael W. Deem and Ramdas Pophale) SiO2 
 PCOD8011958
Probable space group: P -1
;
_chemical_formula_sum "Si O2"
_cell_formula_units_Z 14
_cell_length_a 23.738003
_cell_length_b 23.707384
_cell_length_c 8.519838
_cell_angle_alpha 39.969025
_cell_angle_beta 40.964900
_cell_angle_gamma 12.481751
_cell_volume 664.863290
_symmetry_space_group_name_H-M "P -1"
_symmetry_group_IT_number 2
_symmetry_cell_setting 'triclinic'
loop_
_space_group_symop_operation_xyz
x,y,z
-x,-y,-z
loop_
_atom_site_type_symbol
_atom_site_label
_atom_site_fract_x
_atom_site_fract_y
_atom_site_fract_z
Si Si1 0.761920 0.287047 0.331274
Si Si2 0.338254 0.879236 0.333151
Si Si3 0.505231 0.857303 0.261409
Si Si4 0.707784 0.815360 0.748287
Si Si5 0.831899 0.403920 0.092224
Si Si6 0.238512 0.373047 0.476546
Si Si7 0.751474 0.230311 0.140390
O O1 0.500000 0.500000 0.500000
O O2 0.799068 0.350993 0.166040
O O3 0.762211 0.286179 0.144592
O O4 0.000000 0.000000 0.500000
O O5 0.358051 0.915899 0.373545
O O6 0.620709 0.605657 0.243487
O O7 0.254779 0.862214 0.587205
O O8 0.121114 0.129438 0.141656
O O9 0.700481 0.639030 0.457243
O O10 0.291513 0.131258 0.200814
O O11 0.663331 0.755526 0.007812
O O12 0.978264 0.565871 0.621717
O O13 0.475158 0.077921 0.567356
O O14 0.789110 0.529805 0.807841
O O15 0.500000 0.500000 0.000000
O O16 0.000000 0.000000 0.000000
#
# Coordination Sequence:
#
# PCOD8011958 Si02
#       7
#     2   2   2   2   2   2   2
#     4  12  23  46  68  88 130 180 203 252 328 394
#     4  12  26  43  62  96 131 163 207 269 322 364
#     4   9  23  39  69  87 130 163 212 261 315 365
#     4   9  20  39  67  91 122 166 215 251 318 373
#     4  12  25  43  63  94 131 167 210 253 322 389
#     4  10  21  39  65  92 120 166 216 252 301 390
#     4  12  26  43  67  98 125 162 221 270 310 374
#
# _framework density 21.056961000000001
#
# number of rings (size 3 to 8) (size 9 to 14) (size 15 to 20)
#    0.857    0.286    2.857    3.000    4.000    1.143 
#    0.000    4.286    0.000    0.000    0.000    0.000 
#    0.000    0.000    0.000    0.000    0.000    0.000 
#
# Total GULP energy -173597.164279 kJ/mol
# GULP energy per Si atom -12399.797449 kJ/mol
# Density = 2.100903 g / cm^3
# Si number density = 21.056961 Si / 1000 Ang^3
#
#
#
# Elastic Constant Matrix: (Units=GPa)
#
#
# Indices 1 2 3 4 5 6 
#
# 1 60.0217 21.9648 0.0320 -0.0968 8.4189 1.6104
# 2 21.9648 122.0808 17.7028 2.4930 16.3611 -15.8281
# 3 0.0320 17.7028 98.0688 -5.9508 11.0379 -6.8775
# 4 -0.0968 2.4930 -5.9508 43.2295 -5.8427 6.3023
# 5 8.4189 16.3611 11.0379 -5.8427 27.7004 -0.3254
# 6 1.6104 -15.8281 -6.8775 6.3023 -0.3254 24.6041
#
#
#
# Elastic Compliance Matrix: (Units=1/GPa)
#
#
# Indices 1 2 3 4 5 6 
#
# 1 0.018531 -0.003353 0.000834 0.000290 -0.003961 -0.003264
# 2 -0.003353 0.010661 -0.000958 -0.002555 -0.005348 0.007394
# 3 0.000834 -0.000958 0.011004 0.000730 -0.003893 0.002167
# 4 0.000290 -0.002555 0.000730 0.025394 0.006394 -0.007879
# 5 -0.003961 -0.005348 -0.003893 0.006394 0.043300 -0.005334
# 6 -0.003264 0.007394 0.002167 -0.007879 -0.005334 0.048167
#
#
# Mechanical properties :
#
#
# Convention : Reuss Voigt Hill
#
# Bulk Modulus (GPa) = 30.08317 39.95227 35.01772
# Shear Modulus (GPa) = 28.55641 35.13824 31.84733
#
# Velocity S-wave (km/s) = 3.68659 4.08943 3.89323
# Velocity P-wave (km/s) = 5.69551 6.42748 6.07254
#
# Compressibility (1/GPa) = 0.03324118
#
# Stress axis : x y z
#
# Youngs Moduli (GPa) = 53.96385 93.79928 90.87626
#
# Poissons Ratio (x) = 0.31453 -0.07577
# Poissons Ratio (y) = 0.18095 0.08705
# Poissons Ratio (z) = -0.04499 0.08985
#
# Static dielectric constant tensor:
#      x y z
#    x 3.712660 -0.029220 0.124730 
#    y -0.029220 3.855600 -0.082200 
#    z 0.124730 -0.082200 3.755060 
# 
# 
# High freq. dielectric constant tensor:
#      x y z
#    x 1.819160 -0.007090 0.001710 
#    y -0.007090 1.835290 -0.001850 
#    z 0.001710 -0.001850 1.828090 
# 
# From -- ./inp_files/357944.got.cif
#   From: 2010.06.25/outbox.cif.g09.slc.cpg/sg2_179_cif.got.tgz:357944.got - 2010.06.27 13:26:56.
