data_PCOD8011491
_publ_section_title
;
Structure prediction by ZEFSAII (Michael W. Deem and Ramdas Pophale) SiO2 
 PCOD8011491
Probable space group: P -1
;
_chemical_formula_sum "Si O2"
_cell_formula_units_Z 14
_cell_length_a 9.061861
_cell_length_b 25.905534
_cell_length_c 8.428881
_cell_angle_alpha 128.336055
_cell_angle_beta 54.849486
_cell_angle_gamma 153.488281
_cell_volume 691.602528
_symmetry_space_group_name_H-M "P -1"
_symmetry_group_IT_number 2
_symmetry_cell_setting 'triclinic'
loop_
_space_group_symop_operation_xyz
x,y,z
-x,-y,-z
loop_
_atom_site_type_symbol
_atom_site_label
_atom_site_fract_x
_atom_site_fract_y
_atom_site_fract_z
Si Si1 0.306971 0.028530 0.283187
Si Si2 0.307686 0.764423 0.033511
Si Si3 0.992251 0.181719 0.074360
Si Si4 0.714218 0.771143 0.699095
Si Si5 0.336653 0.386324 0.717058
Si Si6 0.250578 0.368797 0.082390
Si Si7 0.890667 0.005633 0.318895
O O1 0.667585 0.125657 0.182378
O O2 0.336606 0.052038 0.496564
O O3 0.178924 0.046423 0.280519
O O4 0.059433 0.890796 0.161807
O O5 0.658621 0.905276 0.131035
O O6 0.036916 0.695443 0.210564
O O7 0.388062 0.712403 0.843931
O O8 0.140177 0.742301 0.934687
O O9 0.063801 0.168752 0.169524
O O10 0.280986 0.319292 0.097087
O O11 0.623011 0.670670 0.503569
O O12 0.932760 0.875017 0.629101
O O13 0.588307 0.515247 0.724542
O O14 0.451058 0.411436 0.878042
#
# Coordination Sequence:
#
# PCOD8011491 Si02
#       7
#     2   2   2   2   2   2   2
#     4  10  23  37  57  87 126 152 191 237 298 354
#     4  10  21  39  62  87 119 152 198 244 285 347
#     4  11  22  36  59  92 116 157 193 239 297 347
#     4  12  23  36  65  91 117 155 197 239 296 349
#     4   9  22  42  63  83 115 161 199 238 292 346
#     4   9  21  43  61  81 123 155 196 247 286 345
#     4  11  22  39  57  89 122 154 191 242 292 354
#
# _framework density 20.242842
#
# number of rings (size 3 to 8) (size 9 to 14) (size 15 to 20)
#    0.857    0.857    1.429    3.000    4.000    2.286 
#    0.000    0.714    0.000    0.000    0.000    0.000 
#    0.000    0.000    0.000    0.000    0.000    0.000 
#
# Total GULP energy -173435.197960 kJ/mol
# GULP energy per Si atom -12388.228426 kJ/mol
# Density = 2.019677 g / cm^3
# Si number density = 20.242842 Si / 1000 Ang^3
#
#
#
# Elastic Constant Matrix: (Units=GPa)
#
#
# Indices 1 2 3 4 5 6 
#
# 1 72.8244 32.9457 17.8732 -3.6887 2.0833 -12.8927
# 2 32.9457 89.3565 28.6133 34.3493 8.0625 -33.6072
# 3 17.8732 28.6133 111.2293 37.4030 -9.5107 -11.5611
# 4 -3.6887 34.3493 37.4030 45.7292 10.0907 -18.8616
# 5 2.0833 8.0625 -9.5107 10.0907 27.7617 -3.3558
# 6 -12.8927 -33.6072 -11.5611 -18.8616 -3.3558 38.0689
#
#
#
# Elastic Compliance Matrix: (Units=1/GPa)
#
#
# Indices 1 2 3 4 5 6 
#
# 1 0.022872 -0.011233 -0.007850 0.020485 -0.007998 0.004890
# 2 -0.011233 0.025187 0.002779 -0.018339 0.002403 0.010401
# 3 -0.007850 0.002779 0.017539 -0.021848 0.013183 -0.004542
# 4 0.020485 -0.018339 -0.021848 0.067190 -0.026295 0.015085
# 5 -0.007998 0.002403 0.013183 -0.026295 0.049361 -0.005260
# 6 0.004890 0.010401 -0.004542 0.015085 -0.005260 0.042737
#
#
# Mechanical properties :
#
#
# Convention : Reuss Voigt Hill
#
# Bulk Modulus (GPa) = 30.31128 48.03052 39.17090
# Shear Modulus (GPa) = 18.62264 35.24383 26.93323
#
# Velocity S-wave (km/s) = 3.03638 4.17712 3.65157
# Velocity P-wave (km/s) = 5.22486 6.85880 6.09681
#
# Compressibility (1/GPa) = 0.03299102
#
# Stress axis : x y z
#
# Youngs Moduli (GPa) = 43.72140 39.70242 57.01587
#
# Poissons Ratio (x) = 0.44598 0.44755
# Poissons Ratio (y) = 0.49113 -0.15844
# Poissons Ratio (z) = 0.34319 -0.11033
#
# Static dielectric constant tensor:
#      x y z
#    x 3.593540 0.012160 -0.106700 
#    y 0.012160 3.376570 0.107500 
#    z -0.106700 0.107500 3.754470 
# 
# 
# High freq. dielectric constant tensor:
#      x y z
#    x 1.783250 -0.005930 -0.004310 
#    y -0.005930 1.774100 0.005850 
#    z -0.004310 0.005850 1.792630 
# 
# From -- ./inp_files/225542.got.cif
#   From: 2010.06.25/outbox.cif.g09.slc.cpg/sg2_113_cif.got.tgz:225542.got - 2010.06.27 13:26:56.
