data_PCOD8011121
_publ_section_title
;
Structure prediction by ZEFSAII (Michael W. Deem and Ramdas Pophale) SiO2 
 PCOD8011121
Probable space group: P -1
;
_chemical_formula_sum "Si O2"
_cell_formula_units_Z 16
_cell_length_a 19.853245
_cell_length_b 13.209222
_cell_length_c 11.339065
_cell_angle_alpha 119.889849
_cell_angle_beta 134.257618
_cell_angle_gamma 24.170293
_cell_volume 768.844148
_symmetry_space_group_name_H-M "P -1"
_symmetry_group_IT_number 2
_symmetry_cell_setting 'triclinic'
loop_
_space_group_symop_operation_xyz
x,y,z
-x,-y,-z
loop_
_atom_site_type_symbol
_atom_site_label
_atom_site_fract_x
_atom_site_fract_y
_atom_site_fract_z
Si Si1 0.934211 0.639099 0.382862
Si Si2 0.763789 0.687149 0.642818
Si Si3 0.799431 0.454490 0.738614
Si Si4 0.864450 0.141764 0.233180
Si Si5 0.228192 0.924480 0.527236
Si Si6 0.508303 0.486686 0.190200
Si Si7 0.334539 0.860211 0.372011
Si Si8 0.958538 0.423818 0.122636
O O1 0.158017 0.429163 0.463301
O O2 0.000000 0.500000 0.500000
O O3 0.788931 0.916676 0.393889
O O4 0.807853 0.686579 0.168842
O O5 0.856199 0.480532 0.719508
O O6 0.872670 0.688340 0.818141
O O7 0.500000 0.000000 0.500000
O O8 0.540197 0.713493 0.565076
O O9 0.817138 0.496169 0.911777
O O10 0.966294 0.155938 0.759658
O O11 0.736654 0.266202 0.272990
O O12 0.002328 0.106743 0.387620
O O13 0.672534 0.372359 0.032639
O O14 0.426054 0.670729 0.712909
O O15 0.300175 0.813545 0.415933
O O16 0.388602 0.733909 0.242985
O O17 0.104490 0.189628 0.262242
#
# Coordination Sequence:
#
# PCOD8011121 Si02
#       8
#     2   2   2   2   2   2   2   2
#     4  10  22  43  65  92 134 168 208 260 323 381
#     4  10  21  38  67  95 122 171 214 260 312 382
#     4  12  22  42  66  98 127 173 215 267 322 376
#     4  11  26  41  68  95 134 165 214 274 320 382
#     4  12  24  44  67  95 130 175 211 264 328 381
#     4  11  25  44  62 104 126 168 219 265 324 382
#     4  12  24  41  69  94 133 166 219 266 319 388
#     4  10  23  42  65  95 131 168 212 269 311 383
#
# _framework density 20.810459000000002
#
# number of rings (size 3 to 8) (size 9 to 14) (size 15 to 20)
#    0.750    0.250    5.000    1.875    1.750    1.500 
#    0.000    1.875    0.000    0.000    0.000    0.000 
#    0.000    0.000    0.000    0.000    0.000    0.000 
#
# Total GULP energy -198289.264167 kJ/mol
# GULP energy per Si atom -12393.079010 kJ/mol
# Density = 2.076309 g / cm^3
# Si number density = 20.810459 Si / 1000 Ang^3
#
#
#
# Elastic Constant Matrix: (Units=GPa)
#
#
# Indices 1 2 3 4 5 6 
#
# 1 100.1146 14.7357 29.4640 0.6172 -28.3330 9.4705
# 2 14.7357 77.5198 25.9077 24.3183 -6.7136 12.0185
# 3 29.4640 25.9077 73.4038 3.2530 -12.6034 3.0056
# 4 0.6172 24.3183 3.2530 29.7632 2.5889 -7.5484
# 5 -28.3330 -6.7136 -12.6034 2.5889 21.5420 2.1279
# 6 9.4705 12.0185 3.0056 -7.5484 2.1279 36.0058
#
#
#
# Elastic Compliance Matrix: (Units=1/GPa)
#
#
# Indices 1 2 3 4 5 6 
#
# 1 0.018504 0.003500 -0.003694 -0.007226 0.024997 -0.008719
# 2 0.003500 0.025964 -0.006498 -0.025605 0.013474 -0.015209
# 3 -0.003694 -0.006498 0.017605 0.003810 0.002731 0.002308
# 4 -0.007226 -0.025605 0.003810 0.062731 -0.025241 0.024772
# 5 0.024997 0.013474 0.002731 -0.025241 0.090294 -0.021928
# 6 -0.008719 -0.015209 0.002308 0.024772 -0.021928 0.041440
#
#
# Mechanical properties :
#
#
# Convention : Reuss Voigt Hill
#
# Bulk Modulus (GPa) = 20.53810 43.47256 32.00533
# Shear Modulus (GPa) = 17.47333 29.52426 23.49879
#
# Velocity S-wave (km/s) = 2.90080 3.77068 3.36398
# Velocity P-wave (km/s) = 4.59457 6.31605 5.52280
#
# Compressibility (1/GPa) = 0.04869000
#
# Stress axis : x y z
#
# Youngs Moduli (GPa) = 54.04235 38.51545 56.80230
#
# Poissons Ratio (x) = -0.13482 0.20981
# Poissons Ratio (y) = -0.18917 0.36910
# Poissons Ratio (z) = 0.19962 0.25027
#
# Static dielectric constant tensor:
#      x y z
#    x 3.908050 -0.005550 -0.152860 
#    y -0.005550 3.882460 0.148780 
#    z -0.152860 0.148780 3.666800 
# 
# 
# High freq. dielectric constant tensor:
#      x y z
#    x 1.823560 0.003990 -0.014700 
#    y 0.003990 1.816150 0.007470 
#    z -0.014700 0.007470 1.805280 
# 
# From -- ./inp_files/464690.got.cif
#   From: 2010.06.25/outbox.cif.g09.slc.cpg/sg2_233_cif.got.tgz:464690.got - 2010.06.27 13:26:56.
