data_PCOD8011680
_publ_section_title
;
Structure prediction by ZEFSAII (Michael W. Deem and Ramdas Pophale) SiO2 
 PCOD8011680
Probable space group: P -1
;
_chemical_formula_sum "Si O2"
_cell_formula_units_Z 14
_cell_length_a 19.469951
_cell_length_b 8.820808
_cell_length_c 12.249636
_cell_angle_alpha 118.966817
_cell_angle_beta 27.539416
_cell_angle_gamma 132.815576
_cell_volume 668.679256
_symmetry_space_group_name_H-M "P -1"
_symmetry_group_IT_number 2
_symmetry_cell_setting 'triclinic'
loop_
_space_group_symop_operation_xyz
x,y,z
-x,-y,-z
loop_
_atom_site_type_symbol
_atom_site_label
_atom_site_fract_x
_atom_site_fract_y
_atom_site_fract_z
Si Si1 0.907466 0.587793 0.778758
Si Si2 0.282895 0.867635 0.225385
Si Si3 0.456227 0.046331 0.692988
Si Si4 0.210988 0.197109 0.370280
Si Si5 0.165588 0.571146 0.947023
Si Si6 0.209397 0.188811 0.130637
Si Si7 0.796714 0.491884 0.372407
O O1 0.799557 0.331551 0.813018
O O2 0.806546 0.666913 0.882000
O O3 0.133608 0.750095 0.494991
O O4 0.887834 0.601934 0.942115
O O5 0.285463 0.057328 0.232872
O O6 0.500000 0.000000 0.000000
O O7 0.659283 0.241196 0.526578
O O8 0.500000 0.000000 0.500000
O O9 0.338978 0.811100 0.836368
O O10 0.343864 0.144804 0.871603
O O11 0.281172 0.310382 0.190490
O O12 0.284630 0.385288 0.423302
O O13 0.986623 0.044810 0.646730
O O14 0.211528 0.501236 0.746167
O O15 0.003728 0.595755 0.159139
#
# Coordination Sequence:
#
# PCOD8011680 Si02
#       7
#     2   2   2   2   2   2   2
#     4  10  23  40  62  88 127 163 194 257 319 350
#     4  10  23  40  61  93 125 158 204 252 310 370
#     4  10  21  39  64  89 120 161 209 250 299 366
#     4  10  21  39  66  88 121 162 204 254 303 368
#     4  10  21  42  61  87 127 159 206 256 301 369
#     4  10  21  39  63  92 122 159 204 252 308 367
#     4  10  22  37  67  89 115 166 213 246 304 364
#
# _framework density 20.936793999999999
#
# number of rings (size 3 to 8) (size 9 to 14) (size 15 to 20)
#    0.000    2.000    1.429    0.857    8.000    2.857 
#    0.000    5.714    3.143    0.000    0.000    0.000 
#    0.000    0.000    0.000    0.000    0.000    0.000 
#
# Total GULP energy -173444.011315 kJ/mol
# GULP energy per Si atom -12388.857951 kJ/mol
# Density = 2.088914 g / cm^3
# Si number density = 20.936794 Si / 1000 Ang^3
#
#
#
# Elastic Constant Matrix: (Units=GPa)
#
#
# Indices 1 2 3 4 5 6 
#
# 1 126.6010 50.0926 53.5168 5.0003 31.3155 -13.1334
# 2 50.0926 101.3691 40.6583 8.9099 16.3785 4.7220
# 3 53.5168 40.6583 107.9981 9.8333 8.5229 -0.2993
# 4 5.0003 8.9099 9.8333 42.4090 3.6284 -3.3460
# 5 31.3155 16.3785 8.5229 3.6284 26.3595 -7.6531
# 6 -13.1334 4.7220 -0.2993 -3.3460 -7.6531 22.6665
#
#
#
# Elastic Compliance Matrix: (Units=1/GPa)
#
#
# Indices 1 2 3 4 5 6 
#
# 1 0.015288 -0.003788 -0.005288 0.001746 -0.012731 0.005536
# 2 -0.003788 0.014273 -0.002919 -0.001999 -0.005263 -0.007279
# 3 -0.005288 -0.002919 0.012870 -0.002180 0.003856 -0.001306
# 4 0.001746 -0.001999 -0.002180 0.024835 -0.002300 0.004289
# 5 -0.012731 -0.005263 0.003856 -0.002300 0.059309 0.013456
# 6 0.005536 -0.007279 -0.001306 0.004289 0.013456 0.054001
#
#
# Mechanical properties :
#
#
# Convention : Reuss Voigt Hill
#
# Bulk Modulus (GPa) = 54.23214 69.38930 61.81072
# Shear Modulus (GPa) = 23.72916 31.06702 27.39809
#
# Velocity S-wave (km/s) = 3.37021 3.85625 3.62140
# Velocity P-wave (km/s) = 6.41120 7.28298 6.86095
#
# Compressibility (1/GPa) = 0.01843925
#
# Stress axis : x y z
#
# Youngs Moduli (GPa) = 65.41240 70.06451 77.70260
#
# Poissons Ratio (x) = 0.26538 0.41093
# Poissons Ratio (y) = 0.24776 0.22683
# Poissons Ratio (z) = 0.34593 0.20453
#
# Static dielectric constant tensor:
#      x y z
#    x 3.863190 0.995850 -0.349340 
#    y 0.995850 6.448010 -1.667340 
#    z -0.349340 -1.667340 4.872460 
# 
# 
# High freq. dielectric constant tensor:
#      x y z
#    x 1.793900 0.009250 0.012020 
#    y 0.009250 1.823250 -0.008990 
#    z 0.012020 -0.008990 1.834380 
# 
# From -- ./inp_files/428588.got.cif
#   From: 2010.06.25/outbox.cif.g09.slc.cpg/sg2_215_cif.got.tgz:428588.got - 2010.06.27 13:26:56.
