data_PCOD8011214
_publ_section_title
;
Structure prediction by ZEFSAII (Michael W. Deem and Ramdas Pophale) SiO2 
 PCOD8011214
Probable space group: P -1
;
_chemical_formula_sum "Si O2"
_cell_formula_units_Z 16
_cell_length_a 23.719782
_cell_length_b 8.590331
_cell_length_c 20.688796
_cell_angle_alpha 33.240294
_cell_angle_beta 20.190337
_cell_angle_gamma 33.239263
_cell_volume 767.534693
_symmetry_space_group_name_H-M "P -1"
_symmetry_group_IT_number 2
_symmetry_cell_setting 'triclinic'
loop_
_space_group_symop_operation_xyz
x,y,z
-x,-y,-z
loop_
_atom_site_type_symbol
_atom_site_label
_atom_site_fract_x
_atom_site_fract_y
_atom_site_fract_z
Si Si1 0.112178 0.673613 0.500575
Si Si2 0.345124 0.436547 0.653080
Si Si3 0.536410 0.285732 0.831455
Si Si4 0.308786 0.706417 0.464976
Si Si5 0.915905 0.622408 0.246522
Si Si6 0.065642 0.830224 0.899852
Si Si7 0.232305 0.861750 0.976081
Si Si8 0.957889 0.699134 0.412609
O O1 0.303626 0.654987 0.322657
O O2 0.006007 0.553515 0.711723
O O3 0.115364 0.480334 0.500059
O O4 0.000000 0.000000 0.500000
O O5 0.500000 0.500000 0.500000
O O6 0.383516 0.490672 0.518615
O O7 0.172515 0.674517 0.778122
O O8 0.327561 0.113656 0.801262
O O9 0.558351 0.216258 0.754662
O O10 0.374559 0.563177 0.914363
O O11 0.500000 0.000000 0.000000
O O12 0.235590 0.503918 0.566991
O O13 0.184083 0.006156 0.519959
O O14 0.843941 0.963649 0.227924
O O15 0.042031 0.586755 0.061752
O O16 0.884275 0.025582 0.000644
O O17 0.121126 0.798336 0.177809
O O18 0.000000 0.500000 0.500000
#
# Coordination Sequence:
#
# PCOD8011214 Si02
#       8
#     2   2   2   2   2   2   2   2
#     4  11  23  44  72  97 137 177 229 285 339 406
#     4  12  27  43  66 104 142 180 228 282 347 416
#     4  11  27  47  67 104 138 179 236 284 341 410
#     4  11  23  43  69  95 143 173 228 283 343 402
#     4  10  21  38  71 100 124 176 227 272 340 405
#     4  11  22  43  70  97 137 172 229 277 342 412
#     4  12  24  44  75  96 142 181 225 288 348 406
#     4  12  24  45  73 100 131 187 233 283 346 406
#
# _framework density 20.845963000000001
#
# number of rings (size 3 to 8) (size 9 to 14) (size 15 to 20)
#    0.000    0.750    3.750    4.125    5.250    2.500 
#    2.250    1.250    0.000    0.000    0.000    0.000 
#    0.000    0.000    0.000    0.000    0.000    0.000 
#
# Total GULP energy -198274.901132 kJ/mol
# GULP energy per Si atom -12392.181321 kJ/mol
# Density = 2.079852 g / cm^3
# Si number density = 20.845963 Si / 1000 Ang^3
#
#
#
# Elastic Constant Matrix: (Units=GPa)
#
#
# Indices 1 2 3 4 5 6 
#
# 1 137.4994 50.3493 68.3645 -11.2729 21.5394 1.3342
# 2 50.3493 143.1325 73.5472 3.6941 4.1294 -1.3938
# 3 68.3645 73.5472 133.3154 -18.7277 27.3296 3.1946
# 4 -11.2729 3.6941 -18.7277 38.2502 -2.5123 3.4589
# 5 21.5394 4.1294 27.3296 -2.5123 49.5153 -9.2832
# 6 1.3342 -1.3938 3.1946 3.4589 -9.2832 29.3026
#
#
#
# Elastic Compliance Matrix: (Units=1/GPa)
#
#
# Indices 1 2 3 4 5 6 
#
# 1 0.010177 -0.001739 -0.003533 0.001375 -0.002469 -0.001105
# 2 -0.001739 0.011166 -0.006855 -0.004977 0.003956 0.003198
# 3 -0.003533 -0.006855 0.015698 0.007291 -0.007122 -0.004994
# 4 0.001375 -0.004977 0.007291 0.030889 -0.003751 -0.005929
# 5 -0.002469 0.003956 -0.007122 -0.003751 0.026542 0.009929
# 6 -0.001105 0.003198 -0.004994 -0.005929 0.009929 0.038719
#
#
# Mechanical properties :
#
#
# Convention : Reuss Voigt Hill
#
# Bulk Modulus (GPa) = 78.20861 88.71883 83.46372
# Shear Modulus (GPa) = 30.91990 38.19271 34.55631
#
# Velocity S-wave (km/s) = 3.85548 4.28499 4.07590
# Velocity P-wave (km/s) = 7.57750 8.19348 7.89151
#
# Compressibility (1/GPa) = 0.01278632
#
# Stress axis : x y z
#
# Youngs Moduli (GPa) = 98.26430 89.55630 63.70045
#
# Poissons Ratio (x) = 0.15577 0.22507
# Poissons Ratio (y) = 0.17091 0.43666
# Poissons Ratio (z) = 0.34719 0.61390
#
# Static dielectric constant tensor:
#      x y z
#    x 4.305290 -0.055840 0.575920 
#    y -0.055840 3.734810 -0.161020 
#    z 0.575920 -0.161020 4.250390 
# 
# 
# High freq. dielectric constant tensor:
#      x y z
#    x 1.830230 0.005590 0.016080 
#    y 0.005590 1.816860 -0.024090 
#    z 0.016080 -0.024090 1.824600 
# 
# From -- ./inp_files/544291.got.cif
#   From: 2010.06.25/outbox.cif.g09.slc.cpg/sg2_273_cif.got.tgz:544291.got - 2010.06.27 13:26:56.
