data_PCOD8011504
_publ_section_title
;
Structure prediction by ZEFSAII (Michael W. Deem and Ramdas Pophale) SiO2 
 PCOD8011504
Probable space group: P -1
;
_chemical_formula_sum "Si O2"
_cell_formula_units_Z 12
_cell_length_a 7.876134
_cell_length_b 8.732911
_cell_length_c 11.965278
_cell_angle_alpha 64.757090
_cell_angle_beta 110.265513
_cell_angle_gamma 131.693397
_cell_volume 553.454183
_symmetry_space_group_name_H-M "P -1"
_symmetry_group_IT_number 2
_symmetry_cell_setting 'triclinic'
loop_
_space_group_symop_operation_xyz
x,y,z
-x,-y,-z
loop_
_atom_site_type_symbol
_atom_site_label
_atom_site_fract_x
_atom_site_fract_y
_atom_site_fract_z
Si Si1 0.898505 0.434564 0.874009
Si Si2 0.013681 0.233585 0.631884
Si Si3 0.898893 0.370112 0.363854
Si Si4 0.563149 0.634288 0.185356
Si Si5 0.347116 0.020434 0.044704
Si Si6 0.429519 0.186699 0.249844
O O1 0.652392 0.380591 0.819484
O O2 0.058485 0.618227 0.763169
O O3 0.878822 0.221567 0.909279
O O4 0.000000 0.500000 0.000000
O O5 0.974075 0.388598 0.638344
O O6 0.265345 0.302854 0.691801
O O7 0.993845 0.260570 0.485878
O O8 0.819095 0.990360 0.700134
O O9 0.625256 0.223643 0.364745
O O10 0.469775 0.410438 0.177212
O O11 0.708498 0.827881 0.068660
O O12 0.468186 0.123293 0.158094
O O13 0.500000 0.000000 0.000000
#
# Coordination Sequence:
#
# PCOD8011504 Si02
#       6
#     2   2   2   2   2   2
#     4  11  23  42  66  91 125 168 206 257 311 368
#     4  10  22  40  64  92 126 165 206 255 305 369
#     4  10  21  41  65  92 123 166 212 247 306 375
#     4  10  24  39  62  95 128 159 208 255 314 363
#     4  10  21  39  62  88 125 164 203 255 307 364
#     4  11  21  41  64  94 124 164 206 257 309 367
#
# _framework density 21.682013000000001
#
# number of rings (size 3 to 8) (size 9 to 14) (size 15 to 20)
#    0.000    1.667    1.667    3.000    2.333    2.667 
#    0.000    0.833    0.000    0.000    0.000    0.000 
#    0.000    0.000    0.000    0.000    0.000    0.000 
#
# Total GULP energy -148729.312698 kJ/mol
# GULP energy per Si atom -12394.109391 kJ/mol
# Density = 2.163266 g / cm^3
# Si number density = 21.682013 Si / 1000 Ang^3
#
#
#
# Elastic Constant Matrix: (Units=GPa)
#
#
# Indices 1 2 3 4 5 6 
#
# 1 62.2635 37.5369 43.5794 -4.3581 11.1203 12.6189
# 2 37.5369 141.0452 62.0195 -7.4135 10.1045 -1.0774
# 3 43.5794 62.0195 159.5320 -5.2802 6.9527 5.4129
# 4 -4.3581 -7.4135 -5.2802 27.9852 1.6888 3.5531
# 5 11.1203 10.1045 6.9527 1.6888 37.4333 3.8242
# 6 12.6189 -1.0774 5.4129 3.5531 3.8242 30.6372
#
#
#
# Elastic Compliance Matrix: (Units=1/GPa)
#
#
# Indices 1 2 3 4 5 6 
#
# 1 0.024648 -0.004152 -0.004493 0.003350 -0.004566 -0.009323
# 2 -0.004152 0.009477 -0.002547 0.001135 -0.001159 0.002506
# 3 -0.004493 -0.002547 0.008467 0.000173 0.000422 0.000192
# 4 0.003350 0.001135 0.000173 0.037423 -0.002470 -0.005402
# 5 -0.004566 -0.001159 0.000422 -0.002470 0.028571 -0.001515
# 6 -0.009323 0.002506 0.000192 -0.005402 -0.001515 0.037350
#
#
# Mechanical properties :
#
#
# Convention : Reuss Voigt Hill
#
# Bulk Modulus (GPa) = 49.48629 72.12358 60.80493
# Shear Modulus (GPa) = 28.56255 33.85815 31.21035
#
# Velocity S-wave (km/s) = 3.63345 3.95597 3.79814
# Velocity P-wave (km/s) = 6.36206 7.36225 6.88035
#
# Compressibility (1/GPa) = 0.02020762
#
# Stress axis : x y z
#
# Youngs Moduli (GPa) = 40.57136 105.52216 118.11214
#
# Poissons Ratio (x) = 0.43815 0.53064
# Poissons Ratio (y) = 0.16846 0.30081
# Poissons Ratio (z) = 0.18227 0.26875
#
# Static dielectric constant tensor:
#      x y z
#    x 3.478380 0.006350 0.110230 
#    y 0.006350 4.351920 -0.331310 
#    z 0.110230 -0.331310 4.179010 
# 
# 
# High freq. dielectric constant tensor:
#      x y z
#    x 1.817340 0.006550 0.009580 
#    y 0.006550 1.867620 -0.004840 
#    z 0.009580 -0.004840 1.859280 
# 
# From -- ./inp_files/58900.got.cif
#   From: 2010.06.25/outbox.cif.g09.slc.cpg/sg2_30_cif.got.tgz:58900.got - 2010.06.27 13:26:56.
