data_PCOD8011885
_publ_section_title
;
Structure prediction by ZEFSAII (Michael W. Deem and Ramdas Pophale) SiO2 
 PCOD8011885
Probable space group: P -1
;
_chemical_formula_sum "Si O2"
_cell_formula_units_Z 16
_cell_length_a 6.203462
_cell_length_b 21.959641
_cell_length_c 9.090604
_cell_angle_alpha 48.112322
_cell_angle_beta 54.227057
_cell_angle_gamma 82.454463
_cell_volume 675.734684
_symmetry_space_group_name_H-M "P -1"
_symmetry_group_IT_number 2
_symmetry_cell_setting 'triclinic'
loop_
_space_group_symop_operation_xyz
x,y,z
-x,-y,-z
loop_
_atom_site_type_symbol
_atom_site_label
_atom_site_fract_x
_atom_site_fract_y
_atom_site_fract_z
Si Si1 0.236676 0.403118 0.236242
Si Si2 0.149233 0.532688 0.543196
Si Si3 0.815992 0.620621 0.049203
Si Si4 0.429826 0.036320 0.642425
Si Si5 0.451016 0.125316 0.100190
Si Si6 0.992334 0.795396 0.864303
Si Si7 0.899915 0.766087 0.274586
Si Si8 0.781808 0.933616 0.027180
O O1 0.309114 0.324199 0.406465
O O2 0.956203 0.399773 0.441961
O O3 0.500000 0.500000 0.000000
O O4 0.166587 0.384001 0.124501
O O5 0.491785 0.589804 0.291029
O O6 0.055196 0.444406 0.825972
O O7 0.000000 0.500000 0.500000
O O8 0.005458 0.724166 0.856154
O O9 0.675771 0.134224 0.338975
O O10 0.394607 0.034727 0.836786
O O11 0.543122 0.959866 0.672348
O O12 0.109682 0.013327 0.737252
O O13 0.191460 0.151989 0.214023
O O14 0.404190 0.094209 0.000623
O O15 0.764184 0.210645 0.853165
O O16 0.844682 0.745378 0.155637
O O17 0.820304 0.847814 0.220022
#
# Coordination Sequence:
#
# PCOD8011885 Si02
#       8
#     2   2   2   2   2   2   2   2
#     4  12  25  46  72 100 134 183 225 276 344 403
#     4  11  23  47  71  99 137 171 225 284 336 402
#     4  11  26  44  70 102 134 180 225 276 343 405
#     4  10  21  39  64  97 131 174 222 271 329 395
#     4  10  21  41  66  91 132 176 219 273 332 393
#     4  11  24  41  64  99 134 173 222 278 333 394
#     4  10  24  43  63  94 139 168 223 283 327 394
#     4   9  21  41  63  96 132 175 218 277 325 398
#
# _framework density 23.677931999999998
#
# number of rings (size 3 to 8) (size 9 to 14) (size 15 to 20)
#    0.000    1.500    1.250    2.625    3.500    6.500 
#    6.750    0.000    0.000    0.000    0.000    0.000 
#    0.000    0.000    0.000    0.000    0.000    0.000 
#
# Total GULP energy -198447.966557 kJ/mol
# GULP energy per Si atom -12402.997910 kJ/mol
# Density = 2.362404 g / cm^3
# Si number density = 23.677932 Si / 1000 Ang^3
#
#
#
# Elastic Constant Matrix: (Units=GPa)
#
#
# Indices 1 2 3 4 5 6 
#
# 1 71.5847 17.6026 21.6918 -12.0072 11.7645 5.1139
# 2 17.6026 129.3488 29.6494 -4.4226 4.8937 12.9118
# 3 21.6918 29.6494 104.1280 -19.5114 11.9719 0.8878
# 4 -12.0072 -4.4226 -19.5114 45.6542 3.3126 0.5345
# 5 11.7645 4.8937 11.9719 3.3126 34.7473 2.3179
# 6 5.1139 12.9118 0.8878 0.5345 2.3179 41.5589
#
#
#
# Elastic Compliance Matrix: (Units=1/GPa)
#
#
# Indices 1 2 3 4 5 6 
#
# 1 0.016394 -0.001385 -0.001713 0.003827 -0.005042 -0.001318
# 2 -0.001385 0.008663 -0.002276 -0.000487 0.000245 -0.002480
# 3 -0.001713 -0.002276 0.011903 0.004675 -0.003700 0.000810
# 4 0.003827 -0.000487 0.004675 0.025245 -0.005214 -0.000453
# 5 -0.005042 0.000245 -0.003700 -0.005214 0.032298 -0.001111
# 6 -0.001318 -0.002480 0.000810 -0.000453 -0.001111 0.025045
#
#
# Mechanical properties :
#
#
# Convention : Reuss Voigt Hill
#
# Bulk Modulus (GPa) = 38.15145 49.21655 43.68400
# Shear Modulus (GPa) = 35.96255 40.13327 38.04791
#
# Velocity S-wave (km/s) = 3.90143 4.12146 4.01296
# Velocity P-wave (km/s) = 6.03677 6.59390 6.32148
#
# Compressibility (1/GPa) = 0.02621133
#
# Stress axis : x y z
#
# Youngs Moduli (GPa) = 60.99878 115.43413 84.01182
#
# Poissons Ratio (x) = 0.15990 0.14389
# Poissons Ratio (y) = 0.08449 0.19124
# Poissons Ratio (z) = 0.10447 0.26277
#
# Static dielectric constant tensor:
#      x y z
#    x 4.276210 -0.054210 0.023820 
#    y -0.054210 4.400560 -0.075740 
#    z 0.023820 -0.075740 4.090200 
# 
# 
# High freq. dielectric constant tensor:
#      x y z
#    x 1.940630 0.006250 0.001820 
#    y 0.006250 1.951270 -0.001470 
#    z 0.001820 -0.001470 1.929720 
# 
# From -- ./inp_files/142532.got.cif
#   From: 2010.06.25/outbox.cif.g09.slc.cpg/sg2_72_cif.got.tgz:142532.got - 2010.06.27 13:26:56.
