data_PCOD8011194
_publ_section_title
;
Structure prediction by ZEFSAII (Michael W. Deem and Ramdas Pophale) SiO2 
 PCOD8011194
Probable space group: P -1
;
_chemical_formula_sum "Si O2"
_cell_formula_units_Z 16
_cell_length_a 12.072764
_cell_length_b 15.937525
_cell_length_c 11.933439
_cell_angle_alpha 45.480071
_cell_angle_beta 55.761991
_cell_angle_gamma 27.531342
_cell_volume 744.466150
_symmetry_space_group_name_H-M "P -1"
_symmetry_group_IT_number 2
_symmetry_cell_setting 'triclinic'
loop_
_space_group_symop_operation_xyz
x,y,z
-x,-y,-z
loop_
_atom_site_type_symbol
_atom_site_label
_atom_site_fract_x
_atom_site_fract_y
_atom_site_fract_z
Si Si1 0.919035 0.625399 0.813589
Si Si2 0.088185 0.011021 0.785432
Si Si3 0.815392 0.191046 0.294234
Si Si4 0.120526 0.549803 0.317224
Si Si5 0.290784 0.668502 0.138763
Si Si6 0.773351 0.985788 0.646628
Si Si7 0.770328 0.634801 0.339978
Si Si8 0.473250 0.151054 0.337361
O O1 0.685444 0.726674 0.801552
O O2 0.129127 0.470442 0.742764
O O3 0.848587 0.813722 0.697045
O O4 0.000000 0.500000 0.000000
O O5 0.059310 0.944606 0.761948
O O6 0.252183 0.005494 0.682041
O O7 0.228859 0.838838 0.963561
O O8 0.814392 0.250945 0.749699
O O9 0.576709 0.443347 0.177611
O O10 0.738007 0.130210 0.460184
O O11 0.002721 0.147274 0.277081
O O12 0.151673 0.663304 0.160480
O O13 0.130353 0.527127 0.468454
O O14 0.347920 0.312546 0.358790
O O15 0.868332 0.690901 0.272946
O O16 0.522564 0.146705 0.705621
O O17 0.500000 0.000000 0.500000
#
# Coordination Sequence:
#
# PCOD8011194 Si02
#       8
#     2   2   2   2   2   2   2   2
#     4  11  27  43  64  99 140 180 218 283 350 410
#     4  11  25  41  67  99 132 175 223 289 344 393
#     4  11  24  43  67  91 136 174 229 276 322 415
#     4  10  21  38  70 100 130 170 230 292 334 386
#     4  11  24  41  65 101 130 171 224 280 348 390
#     4  11  25  43  65  96 130 186 223 262 342 412
#     4  10  22  42  65  99 131 176 227 284 334 404
#     4  11  23  41  72 103 134 174 232 289 337 404
#
# _framework density 21.491910000000001
#
# number of rings (size 3 to 8) (size 9 to 14) (size 15 to 20)
#    0.000    1.250    2.500    1.875   10.500    2.500 
#    2.250    2.500    0.000    0.000    0.000    0.000 
#    0.000    0.000    0.000    0.000    0.000    0.000 
#
# Total GULP energy -198276.968533 kJ/mol
# GULP energy per Si atom -12392.310533 kJ/mol
# Density = 2.144299 g / cm^3
# Si number density = 21.491910 Si / 1000 Ang^3
#
#
#
# Elastic Constant Matrix: (Units=GPa)
#
#
# Indices 1 2 3 4 5 6 
#
# 1 81.5559 53.7023 23.8264 8.3322 -0.8719 7.9904
# 2 53.7023 306.4286 88.2807 3.7208 42.3135 -11.5018
# 3 23.8264 88.2807 81.0728 4.8697 16.6953 -6.4194
# 4 8.3322 3.7208 4.8697 30.1422 4.3953 2.7006
# 5 -0.8719 42.3135 16.6953 4.3953 46.2088 -4.6648
# 6 7.9904 -11.5018 -6.4194 2.7006 -4.6648 37.8218
#
#
#
# Elastic Compliance Matrix: (Units=1/GPa)
#
#
# Indices 1 2 3 4 5 6 
#
# 1 0.015486 -0.002559 -0.002569 -0.003727 0.003536 -0.003784
# 2 -0.002559 0.005521 -0.004540 0.001183 -0.003482 0.000935
# 3 -0.002569 -0.004540 0.018777 -0.001623 -0.002301 0.002181
# 4 -0.003727 0.001183 -0.001623 0.035116 -0.004124 -0.002144
# 5 0.003536 -0.003482 -0.002301 -0.004124 0.026255 0.001336
# 6 -0.003784 0.000935 0.002181 -0.002144 0.001336 0.028212
#
#
# Mechanical properties :
#
#
# Convention : Reuss Voigt Hill
#
# Bulk Modulus (GPa) = 48.90157 88.96401 68.93279
# Shear Modulus (GPa) = 32.15034 43.05109 37.60071
#
# Velocity S-wave (km/s) = 3.87192 4.48049 4.18727
# Velocity P-wave (km/s) = 6.54155 8.26138 7.45125
#
# Compressibility (1/GPa) = 0.02044924
#
# Stress axis : x y z
#
# Youngs Moduli (GPa) = 64.57341 181.11143 53.25563
#
# Poissons Ratio (x) = 0.46347 0.13679
# Poissons Ratio (y) = 0.16525 0.24179
# Poissons Ratio (z) = 0.16586 0.82229
#
# Static dielectric constant tensor:
#      x y z
#    x 3.992120 -0.462960 -0.247670 
#    y -0.462960 4.233180 0.274760 
#    z -0.247670 0.274760 3.943480 
# 
# 
# High freq. dielectric constant tensor:
#      x y z
#    x 1.850570 0.004350 -0.016480 
#    y 0.004350 1.858530 0.005160 
#    z -0.016480 0.005160 1.828470 
# 
# From -- ./inp_files/432564.got.cif
#   From: 2010.06.25/outbox.cif.g09.slc.cpg/sg2_217_cif.got.tgz:432564.got - 2010.06.27 13:26:56.
