data_PCOD8011805
_publ_section_title
;
Structure prediction by ZEFSAII (Michael W. Deem and Ramdas Pophale) SiO2 
 PCOD8011805
Probable space group: P -1
;
_chemical_formula_sum "Si O2"
_cell_formula_units_Z 16
_cell_length_a 14.504302
_cell_length_b 22.413748
_cell_length_c 6.809753
_cell_angle_alpha 74.356162
_cell_angle_beta 106.504773
_cell_angle_gamma 159.338249
_cell_volume 748.913234
_symmetry_space_group_name_H-M "P -1"
_symmetry_group_IT_number 2
_symmetry_cell_setting 'triclinic'
loop_
_space_group_symop_operation_xyz
x,y,z
-x,-y,-z
loop_
_atom_site_type_symbol
_atom_site_label
_atom_site_fract_x
_atom_site_fract_y
_atom_site_fract_z
Si Si1 0.271713 0.948398 0.886346
Si Si2 0.642711 0.263258 0.620568
Si Si3 0.499412 0.363114 0.487589
Si Si4 0.009599 0.414197 0.427732
Si Si5 0.716383 0.672868 0.889807
Si Si6 0.281873 0.223221 0.878591
Si Si7 0.276558 0.129943 0.294142
Si Si8 0.612939 0.091760 0.283799
O O1 0.254379 0.888084 0.755303
O O2 0.980643 0.796488 0.886506
O O3 0.458394 0.118753 0.795199
O O4 0.374086 0.975738 0.117549
O O5 0.816403 0.422269 0.686247
O O6 0.462482 0.182534 0.406030
O O7 0.840257 0.331188 0.589117
O O8 0.790508 0.520635 0.445079
O O9 0.408273 0.374592 0.342417
O O10 0.510518 0.371705 0.725483
O O11 0.302632 0.193332 0.433645
O O12 0.822324 0.273261 0.272625
O O13 0.500000 0.500000 0.000000
O O14 0.772354 0.757509 0.011359
O O15 0.351267 0.202390 0.059632
O O16 0.027340 0.069510 0.721679
O O17 0.500000 0.000000 0.500000
#
# Coordination Sequence:
#
# PCOD8011805 Si02
#       8
#     2   2   2   2   2   2   2   2
#     4  11  26  45  70  97 130 175 224 268 327 391
#     4  10  21  44  68 102 131 166 221 280 318 389
#     4  10  22  42  62  93 132 168 210 268 329 387
#     4  10  23  42  68  98 135 173 211 275 328 383
#     4  11  27  42  63  96 131 169 224 277 310 389
#     4  10  21  39  64  91 126 178 207 262 338 379
#     4   9  20  39  64  93 131 162 215 271 324 387
#     4  11  25  46  69  96 134 180 215 268 330 393
#
# _framework density 21.364291000000001
#
# number of rings (size 3 to 8) (size 9 to 14) (size 15 to 20)
#    0.000    1.750    1.250    1.125    5.250    7.000 
#    6.750    0.000    0.000    0.000    0.000    0.000 
#    0.000    0.000    0.000    0.000    0.000    0.000 
#
# Total GULP energy -198356.127000 kJ/mol
# GULP energy per Si atom -12397.257937 kJ/mol
# Density = 2.131567 g / cm^3
# Si number density = 21.364291 Si / 1000 Ang^3
#
#
#
# Elastic Constant Matrix: (Units=GPa)
#
#
# Indices 1 2 3 4 5 6 
#
# 1 122.8700 60.1861 59.9263 -6.6240 6.1778 25.3000
# 2 60.1861 113.6605 42.5374 -15.6702 0.6230 8.6201
# 3 59.9263 42.5374 127.7128 -14.4496 4.4984 13.8585
# 4 -6.6240 -15.6702 -14.4496 33.2889 -4.5330 -2.3188
# 5 6.1778 0.6230 4.4984 -4.5330 29.1416 4.9846
# 6 25.3000 8.6201 13.8585 -2.3188 4.9846 44.8868
#
#
#
# Elastic Compliance Matrix: (Units=1/GPa)
#
#
# Indices 1 2 3 4 5 6 
#
# 1 0.014171 -0.005785 -0.004341 -0.002393 -0.001646 -0.005477
# 2 -0.005785 0.012866 -0.001233 0.004682 0.001660 0.001228
# 3 -0.004341 -0.001233 0.010686 0.003145 -0.000139 -0.000438
# 4 -0.002393 0.004682 0.003145 0.033870 0.005077 0.000665
# 5 -0.001646 0.001660 -0.000139 0.005077 0.035967 -0.003080
# 6 -0.005477 0.001228 -0.000438 0.000665 -0.003080 0.025641
#
#
# Mechanical properties :
#
#
# Convention : Reuss Voigt Hill
#
# Bulk Modulus (GPa) = 66.64367 76.61588 71.62978
# Shear Modulus (GPa) = 31.07127 34.90303 32.98715
#
# Velocity S-wave (km/s) = 3.81774 4.04630 3.93368
# Velocity P-wave (km/s) = 7.12005 7.60063 7.36426
#
# Compressibility (1/GPa) = 0.01500518
#
# Stress axis : x y z
#
# Youngs Moduli (GPa) = 70.56637 77.72434 93.58127
#
# Poissons Ratio (x) = 0.44962 0.40625
# Poissons Ratio (y) = 0.40821 0.11538
# Poissons Ratio (z) = 0.30634 0.09583
#
# Static dielectric constant tensor:
#      x y z
#    x 3.863550 -0.156490 0.061040 
#    y -0.156490 4.041070 0.179790 
#    z 0.061040 0.179790 3.835050 
# 
# 
# High freq. dielectric constant tensor:
#      x y z
#    x 1.845130 0.004280 0.001210 
#    y 0.004280 1.840970 0.003680 
#    z 0.001210 0.003680 1.829060 
# 
# From -- ./inp_files/101092.got.cif
#   From: 2010.06.25/outbox.cif.g09.slc.cpg/sg2_51_cif.got.tgz:101092.got - 2010.06.27 13:26:56.
