data_PCOD8011589
_publ_section_title
;
Structure prediction by ZEFSAII (Michael W. Deem and Ramdas Pophale) SiO2 
 PCOD8011589
Probable space group: P -1
;
_chemical_formula_sum "Si O2"
_cell_formula_units_Z 16
_cell_length_a 14.788632
_cell_length_b 9.774190
_cell_length_c 11.883163
_cell_angle_alpha 65.860635
_cell_angle_beta 121.266163
_cell_angle_gamma 64.339982
_cell_volume 752.719962
_symmetry_space_group_name_H-M "P -1"
_symmetry_group_IT_number 2
_symmetry_cell_setting 'triclinic'
loop_
_space_group_symop_operation_xyz
x,y,z
-x,-y,-z
loop_
_atom_site_type_symbol
_atom_site_label
_atom_site_fract_x
_atom_site_fract_y
_atom_site_fract_z
Si Si1 0.303532 0.374383 0.065537
Si Si2 0.055530 0.277963 0.662615
Si Si3 0.808097 0.359282 0.861074
Si Si4 0.009876 0.166757 0.461727
Si Si5 0.440158 0.736365 0.871342
Si Si6 0.518486 0.148233 0.927334
Si Si7 0.124644 0.056775 0.999285
Si Si8 0.523199 0.155460 0.677660
O O1 0.214231 0.528374 0.073906
O O2 0.474752 0.286925 0.177260
O O3 0.388877 0.108220 0.209352
O O4 0.134710 0.580220 0.797694
O O5 0.961196 0.261330 0.528500
O O6 0.000609 0.302239 0.747625
O O7 0.000000 0.500000 0.500000
O O8 0.278271 0.016599 0.898199
O O9 0.637289 0.610215 0.589362
O O10 0.004051 0.179565 0.992593
O O11 0.816986 0.169306 0.945542
O O12 0.213618 0.007160 0.626889
O O13 0.000000 0.000000 0.500000
O O14 0.500000 0.500000 0.000000
O O15 0.555886 0.674947 0.071937
O O16 0.428702 0.269637 0.704162
O O17 0.500000 0.000000 0.000000
O O18 0.314135 0.914232 0.208109
#
# Coordination Sequence:
#
# PCOD8011589 Si02
#       8
#     2   2   2   2   2   2   2   2
#     4  12  25  42  65  99 135 173 227 272 332 399
#     4  10  22  37  66  97 127 163 210 274 329 392
#     4  11  26  45  67  92 133 183 225 273 324 396
#     4  11  22  39  62  95 135 172 211 269 338 391
#     4  11  24  40  64 100 136 172 214 271 339 400
#     4  10  21  39  62  98 128 162 215 266 332 398
#     4  10  24  46  65  96 131 170 231 272 329 398
#     4  11  24  43  69  94 130 174 225 277 329 397
#
# _framework density 21.256245
#
# number of rings (size 3 to 8) (size 9 to 14) (size 15 to 20)
#    0.000    1.250    2.500    3.000    5.250    2.500 
#    4.500    0.000    0.000    0.000    0.000    0.000 
#    0.000    0.000    0.000    0.000    0.000    0.000 
#
# Total GULP energy -198256.493907 kJ/mol
# GULP energy per Si atom -12391.030869 kJ/mol
# Density = 2.120786 g / cm^3
# Si number density = 21.256245 Si / 1000 Ang^3
#
#
#
# Elastic Constant Matrix: (Units=GPa)
#
#
# Indices 1 2 3 4 5 6 
#
# 1 101.5376 35.7599 18.5116 6.6782 -2.1258 8.8704
# 2 35.7599 121.8895 9.9944 10.5307 -9.0968 5.6652
# 3 18.5116 9.9944 94.3720 4.0834 -4.4263 -3.0786
# 4 6.6782 10.5307 4.0834 33.0751 8.3853 -7.9848
# 5 -2.1258 -9.0968 -4.4263 8.3853 30.4952 2.6549
# 6 8.8704 5.6652 -3.0786 -7.9848 2.6549 38.3263
#
#
#
# Elastic Compliance Matrix: (Units=1/GPa)
#
#
# Indices 1 2 3 4 5 6 
#
# 1 0.011620 -0.002911 -0.001957 -0.001983 0.000452 -0.002861
# 2 -0.002911 0.009798 -0.000171 -0.003968 0.003950 -0.001889
# 3 -0.001957 -0.000171 0.011157 -0.001095 0.001643 0.001033
# 4 -0.001983 -0.003968 -0.001095 0.037574 -0.012654 0.009662
# 5 0.000452 0.003950 0.001643 -0.012654 0.038228 -0.005841
# 6 -0.002861 -0.001889 0.001033 0.009662 -0.005841 0.029534
#
#
# Mechanical properties :
#
#
# Convention : Reuss Voigt Hill
#
# Bulk Modulus (GPa) = 44.45296 49.59233 47.02265
# Shear Modulus (GPa) = 32.15690 37.28153 34.71922
#
# Velocity S-wave (km/s) = 3.89372 4.19251 4.04588
# Velocity P-wave (km/s) = 6.41662 6.84234 6.63290
#
# Compressibility (1/GPa) = 0.02249569
#
# Stress axis : x y z
#
# Youngs Moduli (GPa) = 86.05600 102.06641 89.63314
#
# Poissons Ratio (x) = 0.29708 0.17545
# Poissons Ratio (y) = 0.25048 0.01535
# Poissons Ratio (z) = 0.16845 0.01748
#
# Static dielectric constant tensor:
#      x y z
#    x 4.466290 -0.238530 0.183320 
#    y -0.238530 4.252910 0.238640 
#    z 0.183320 0.238640 4.248140 
# 
# 
# High freq. dielectric constant tensor:
#      x y z
#    x 1.847030 0.005390 0.005240 
#    y 0.005390 1.840780 0.008200 
#    z 0.005240 0.008200 1.835730 
# 
# From -- ./inp_files/332059.got.cif
#   From: 2010.06.25/outbox.cif.g09.slc.cpg/sg2_167_cif.got.tgz:332059.got - 2010.06.27 13:26:56.
