data_PCOD8011648
_publ_section_title
;
Structure prediction by ZEFSAII (Michael W. Deem and Ramdas Pophale) SiO2 
 PCOD8011648
Probable space group: P -1
;
_chemical_formula_sum "Si O2"
_cell_formula_units_Z 16
_cell_length_a 11.305639
_cell_length_b 13.856513
_cell_length_c 9.277642
_cell_angle_alpha 109.817497
_cell_angle_beta 37.155544
_cell_angle_gamma 94.215928
_cell_volume 774.786857
_symmetry_space_group_name_H-M "P -1"
_symmetry_group_IT_number 2
_symmetry_cell_setting 'triclinic'
loop_
_space_group_symop_operation_xyz
x,y,z
-x,-y,-z
loop_
_atom_site_type_symbol
_atom_site_label
_atom_site_fract_x
_atom_site_fract_y
_atom_site_fract_z
Si Si1 0.054036 0.634420 0.233965
Si Si2 0.486321 0.531664 0.864239
Si Si3 0.279288 0.331447 0.210296
Si Si4 0.030957 0.038348 0.831332
Si Si5 0.199639 0.225523 0.695422
Si Si6 0.598233 0.098641 0.786811
Si Si7 0.250642 0.396726 0.950017
Si Si8 0.385777 0.930117 0.912984
O O1 0.896157 0.697321 0.546164
O O2 0.988474 0.698777 0.181396
O O3 0.278337 0.633535 0.071825
O O4 0.066047 0.507970 0.136377
O O5 0.471333 0.423655 0.740486
O O6 0.500000 0.500000 0.000000
O O7 0.674539 0.577408 0.683557
O O8 0.196347 0.377650 0.157618
O O9 0.486936 0.226840 0.934466
O O10 0.119870 0.137465 0.805592
O O11 0.197446 0.939795 0.532046
O O12 0.806770 0.078648 0.993865
O O13 0.000000 0.000000 0.000000
O O14 0.404656 0.172903 0.372713
O O15 0.263954 0.294194 0.789865
O O16 0.432885 0.039000 0.877170
O O17 0.674497 0.068413 0.860671
#
# Coordination Sequence:
#
# PCOD8011648 Si02
#       8
#     2   2   2   2   2   2   2   2
#     4  10  21  39  63  90 131 167 211 255 304 376
#     4   8  20  37  58  90 128 159 211 258 291 369
#     4  11  20  39  66  95 121 173 208 259 311 370
#     4  11  27  44  64  95 128 163 214 267 319 387
#     4  11  23  43  64  93 132 170 208 257 325 373
#     4  10  23  41  69  93 122 164 214 259 324 369
#     4   9  22  39  60  92 135 165 206 258 305 374
#     4  10  23  44  64  94 126 160 213 270 309 382
#
# _framework density 20.650839000000001
#
# number of rings (size 3 to 8) (size 9 to 14) (size 15 to 20)
#    0.750    1.250    1.250    1.125    5.250    2.000 
#    2.250    0.625    0.000    0.000    0.000    0.000 
#    0.000    0.000    0.000    0.000    0.000    0.000 
#
# Total GULP energy -198214.375687 kJ/mol
# GULP energy per Si atom -12388.398480 kJ/mol
# Density = 2.060384 g / cm^3
# Si number density = 20.650839 Si / 1000 Ang^3
#
#
#
# Elastic Constant Matrix: (Units=GPa)
#
#
# Indices 1 2 3 4 5 6 
#
# 1 101.4698 30.7540 33.1675 -0.2136 8.3510 7.9027
# 2 30.7540 85.6145 30.1173 2.6820 11.9772 -4.1246
# 3 33.1675 30.1173 79.2374 -11.7899 12.1855 2.4048
# 4 -0.2136 2.6820 -11.7899 26.9233 -1.8800 7.7812
# 5 8.3510 11.9772 12.1855 -1.8800 26.4856 2.5293
# 6 7.9027 -4.1246 2.4048 7.7812 2.5293 28.4369
#
#
#
# Elastic Compliance Matrix: (Units=1/GPa)
#
#
# Indices 1 2 3 4 5 6 
#
# 1 0.012383 -0.003200 -0.003847 -0.000292 -0.000377 -0.003467
# 2 -0.003200 0.015661 -0.004893 -0.005663 -0.004754 0.005547
# 3 -0.003847 -0.004893 0.018153 0.009085 -0.003965 -0.003309
# 4 -0.000292 -0.005663 0.009085 0.046059 0.003117 -0.014389
# 5 -0.000377 -0.004754 -0.003965 0.003117 0.042537 -0.004886
# 6 -0.003467 0.005547 -0.003309 -0.014389 -0.004886 0.041585
#
#
# Mechanical properties :
#
#
# Convention : Reuss Voigt Hill
#
# Bulk Modulus (GPa) = 44.81151 50.48880 47.65016
# Shear Modulus (GPa) = 24.07366 27.85470 25.96418
#
# Velocity S-wave (km/s) = 3.41801 3.67664 3.54968
# Velocity P-wave (km/s) = 6.10932 6.52115 6.31859
#
# Compressibility (1/GPa) = 0.02231570
#
# Stress axis : x y z
#
# Youngs Moduli (GPa) = 80.75616 63.85457 55.08881
#
# Poissons Ratio (x) = 0.20432 0.21195
# Poissons Ratio (y) = 0.25841 0.26955
# Poissons Ratio (z) = 0.31070 0.31244
#
# Static dielectric constant tensor:
#      x y z
#    x 3.838990 0.194540 -0.094440 
#    y 0.194540 3.868910 0.016170 
#    z -0.094440 0.016170 3.517470 
# 
# 
# High freq. dielectric constant tensor:
#      x y z
#    x 1.812260 -0.002330 -0.005410 
#    y -0.002330 1.813810 0.002210 
#    z -0.005410 0.002210 1.785720 
# 
# From -- ./inp_files/52464.got.cif
#   From: 2010.06.25/outbox.cif.g09.slc.cpg/sg2_27_cif.got.tgz:52464.got - 2010.06.27 13:26:56.
