data_PCOD8011698
_publ_section_title
;
Structure prediction by ZEFSAII (Michael W. Deem and Ramdas Pophale) SiO2 
 PCOD8011698
Probable space group: P -1
;
_chemical_formula_sum "Si O2"
_cell_formula_units_Z 14
_cell_length_a 9.547353
_cell_length_b 20.791986
_cell_length_c 9.353837
_cell_angle_alpha 38.999634
_cell_angle_beta 139.143530
_cell_angle_gamma 142.924171
_cell_volume 657.430615
_symmetry_space_group_name_H-M "P -1"
_symmetry_group_IT_number 2
_symmetry_cell_setting 'triclinic'
loop_
_space_group_symop_operation_xyz
x,y,z
-x,-y,-z
loop_
_atom_site_type_symbol
_atom_site_label
_atom_site_fract_x
_atom_site_fract_y
_atom_site_fract_z
Si Si1 0.607402 0.243278 0.341055
Si Si2 0.959514 0.217507 0.320336
Si Si3 0.574319 0.856988 0.077850
Si Si4 0.482770 0.335812 0.820617
Si Si5 0.748952 0.062556 0.670079
Si Si6 0.773227 0.869845 0.503804
Si Si7 0.897035 0.590581 0.668833
O O1 0.723845 0.158796 0.578101
O O2 0.419713 0.207549 0.388357
O O3 0.861857 0.373324 0.308999
O O4 0.454285 0.241998 0.083717
O O5 0.965280 0.129868 0.601071
O O6 0.135421 0.218771 0.328544
O O7 0.032478 0.341357 0.239959
O O8 0.691039 0.161268 0.137905
O O9 0.575732 0.736478 0.248638
O O10 0.619956 0.886638 0.229527
O O11 0.785699 0.972625 0.953493
O O12 0.763214 0.450039 0.839674
O O13 0.289374 0.380998 0.613286
O O14 0.500000 0.000000 0.500000
O O15 0.000000 0.000000 0.500000
#
# Coordination Sequence:
#
# PCOD8011698 Si02
#       7
#     2   2   2   2   2   2   2
#     4  11  23  41  62  95 129 163 204 266 311 365
#     4  10  21  39  63  93 124 161 214 256 306 379
#     4  11  22  39  66  91 128 166 206 260 313 364
#     4  11  21  40  74  93 118 167 213 263 307 363
#     4   9  17  35  61  90 116 157 211 249 294 370
#     4  12  27  40  59  94 136 167 203 253 324 373
#     4  10  22  41  70  98 117 157 228 257 300 377
#
# _framework density 21.295023
#
# number of rings (size 3 to 8) (size 9 to 14) (size 15 to 20)
#    0.000    1.429    5.714    2.143    0.000    6.286 
#    0.000    1.429    0.000    0.000    0.000    0.000 
#    0.000    0.000    0.000    0.000    0.000    0.000 
#
# Total GULP energy -173442.450851 kJ/mol
# GULP energy per Si atom -12388.746489 kJ/mol
# Density = 2.124655 g / cm^3
# Si number density = 21.295023 Si / 1000 Ang^3
#
#
#
# Elastic Constant Matrix: (Units=GPa)
#
#
# Indices 1 2 3 4 5 6 
#
# 1 139.7979 54.9851 29.2849 -12.1414 -28.8313 16.8868
# 2 54.9851 130.8406 43.1700 -4.7554 -23.5081 3.5621
# 3 29.2849 43.1700 92.6247 -7.7574 -16.0399 -5.7305
# 4 -12.1414 -4.7554 -7.7574 31.7896 -1.9830 -0.4882
# 5 -28.8313 -23.5081 -16.0399 -1.9830 27.5503 -1.5790
# 6 16.8868 3.5621 -5.7305 -0.4882 -1.5790 30.2271
#
#
#
# Elastic Compliance Matrix: (Units=1/GPa)
#
#
# Indices 1 2 3 4 5 6 
#
# 1 0.011230 -0.002513 -0.000792 0.004204 0.009129 -0.005583
# 2 -0.002513 0.010630 -0.003399 0.000075 0.004452 -0.000259
# 3 -0.000792 -0.003399 0.013947 0.002951 0.004821 0.003786
# 4 0.004204 0.000075 0.002951 0.034318 0.008606 -0.000794
# 5 0.009129 0.004452 0.004821 0.008606 0.052973 -0.001805
# 6 -0.005583 -0.000259 0.003786 -0.000794 -0.001805 0.036843
#
#
# Mechanical properties :
#
#
# Convention : Reuss Voigt Hill
#
# Bulk Modulus (GPa) = 44.64278 68.68256 56.66267
# Shear Modulus (GPa) = 27.65275 33.63496 30.64385
#
# Velocity S-wave (km/s) = 3.60746 3.97857 3.79755
# Velocity P-wave (km/s) = 6.19363 7.30946 6.77456
#
# Compressibility (1/GPa) = 0.02240004
#
# Stress axis : x y z
#
# Youngs Moduli (GPa) = 89.05013 94.07290 71.70081
#
# Poissons Ratio (x) = 0.23640 0.05676
# Poissons Ratio (y) = 0.22378 0.24368
# Poissons Ratio (z) = 0.07050 0.31972
#
# Static dielectric constant tensor:
#      x y z
#    x 3.710850 0.218590 0.020490 
#    y 0.218590 4.125520 -0.059530 
#    z 0.020490 -0.059530 3.965090 
# 
# 
# High freq. dielectric constant tensor:
#      x y z
#    x 1.810880 0.018900 0.021720 
#    y 0.018900 1.844970 0.007720 
#    z 0.021720 0.007720 1.843130 
# 
# From -- ./inp_files/221757.got.cif
#   From: 2010.06.25/outbox.cif.g09.slc.cpg/sg2_111_cif.got.tgz:221757.got - 2010.06.27 13:26:56.
