data_PCOD8011496
_publ_section_title
;
Structure prediction by ZEFSAII (Michael W. Deem and Ramdas Pophale) SiO2 
 PCOD8011496
Probable space group: P -1
;
_chemical_formula_sum "Si O2"
_cell_formula_units_Z 16
_cell_length_a 14.162688
_cell_length_b 13.537302
_cell_length_c 14.942888
_cell_angle_alpha 28.830353
_cell_angle_beta 141.326325
_cell_angle_gamma 147.286987
_cell_volume 736.082097
_symmetry_space_group_name_H-M "P -1"
_symmetry_group_IT_number 2
_symmetry_cell_setting 'triclinic'
loop_
_space_group_symop_operation_xyz
x,y,z
-x,-y,-z
loop_
_atom_site_type_symbol
_atom_site_label
_atom_site_fract_x
_atom_site_fract_y
_atom_site_fract_z
Si Si1 0.663252 0.479710 0.609659
Si Si2 0.792947 0.322976 0.189876
Si Si3 0.515224 0.606467 0.710153
Si Si4 0.169493 0.233591 0.050181
Si Si5 0.990153 0.924116 0.451667
Si Si6 0.221439 0.439460 0.174557
Si Si7 0.787271 0.842228 0.056131
Si Si8 0.579424 0.088729 0.716878
O O1 0.500000 0.500000 0.500000
O O2 0.766807 0.488392 0.770131
O O3 0.609082 0.236033 0.713077
O O4 0.790188 0.705404 0.458965
O O5 0.878505 0.568068 0.114784
O O6 0.878218 0.168501 0.399387
O O7 0.587546 0.175904 0.180354
O O8 0.815123 0.384691 0.050918
O O9 0.595462 0.541004 0.736234
O O10 0.451318 0.785261 0.490405
O O11 0.669276 0.740398 0.791849
O O12 0.341671 0.365000 0.806973
O O13 0.231482 0.278154 0.958236
O O14 0.990999 0.971248 0.138862
O O15 0.057981 0.164458 0.252754
O O16 0.000000 0.000000 0.500000
O O17 0.741461 0.051440 0.846693
#
# Coordination Sequence:
#
# PCOD8011496 Si02
#       8
#     2   2   2   2   2   2   2   2
#     4  11  22  39  60  93 129 170 212 266 312 380
#     4  11  22  42  64  93 126 172 211 265 324 385
#     4  11  22  43  67  98 130 173 211 273 325 388
#     4  10  24  46  69  92 139 165 217 270 330 387
#     4  10  21  39  62  87 128 165 214 268 313 376
#     4  10  21  41  62  90 126 170 215 258 324 373
#     4  11  24  47  66 101 126 172 217 273 323 393
#     4  12  23  39  68  95 134 169 221 265 327 383
#
# _framework density 21.736705000000001
#
# number of rings (size 3 to 8) (size 9 to 14) (size 15 to 20)
#    0.000    1.250    5.000    1.875    0.000    5.000 
#    2.250    1.250    0.000    0.000    0.000    0.000 
#    0.000    0.000    0.000    0.000    0.000    0.000 
#
# Total GULP energy -198388.653592 kJ/mol
# GULP energy per Si atom -12399.290849 kJ/mol
# Density = 2.168723 g / cm^3
# Si number density = 21.736705 Si / 1000 Ang^3
#
#
#
# Elastic Constant Matrix: (Units=GPa)
#
#
# Indices 1 2 3 4 5 6 
#
# 1 77.4151 32.9541 13.0446 -1.8913 -4.8239 -4.7719
# 2 32.9541 107.1826 32.7162 -9.9567 -15.3568 4.5744
# 3 13.0446 32.7162 93.7986 -9.1301 -5.8887 0.5312
# 4 -1.8913 -9.9567 -9.1301 24.7781 8.5964 -9.1939
# 5 -4.8239 -15.3568 -5.8887 8.5964 28.8179 -5.1359
# 6 -4.7719 4.5744 0.5312 -9.1939 -5.1359 46.7121
#
#
#
# Elastic Compliance Matrix: (Units=1/GPa)
#
#
# Indices 1 2 3 4 5 6 
#
# 1 0.015074 -0.004520 -0.000530 -0.000279 0.000443 0.001982
# 2 -0.004520 0.012577 -0.003309 0.001565 0.004654 -0.000836
# 3 -0.000530 -0.003309 0.012210 0.003515 -0.000264 0.000794
# 4 -0.000279 0.001565 0.003515 0.049387 -0.011764 0.008205
# 5 0.000443 0.004654 -0.000264 -0.011764 0.041029 0.001788
# 6 0.001982 -0.000836 0.000794 0.008205 0.001788 0.023495
#
#
# Mechanical properties :
#
#
# Convention : Reuss Voigt Hill
#
# Bulk Modulus (GPa) = 43.21015 48.42513 45.81764
# Shear Modulus (GPa) = 28.05769 33.37370 30.71570
#
# Velocity S-wave (km/s) = 3.59666 3.92262 3.76317
# Velocity P-wave (km/s) = 6.09672 6.54541 6.32504
#
# Compressibility (1/GPa) = 0.02314271
#
# Stress axis : x y z
#
# Youngs Moduli (GPa) = 66.34086 79.50774 81.89885
#
# Poissons Ratio (x) = 0.35935 0.04344
# Poissons Ratio (y) = 0.29984 0.27101
# Poissons Ratio (z) = 0.03519 0.26310
#
# Static dielectric constant tensor:
#      x y z
#    x 3.859190 0.044860 -0.103150 
#    y 0.044860 4.136810 -0.133210 
#    z -0.103150 -0.133210 3.773310 
# 
# 
# High freq. dielectric constant tensor:
#      x y z
#    x 1.857560 0.009560 -0.004290 
#    y 0.009560 1.863330 -0.011510 
#    z -0.004290 -0.011510 1.839740 
# 
# From -- ./inp_files/533620.got.cif
#   From: 2010.06.25/outbox.cif.g09.slc.cpg/sg2_267_cif.got.tgz:533620.got - 2010.06.27 13:26:56.
