data_PCOD8011329
_publ_section_title
;
Structure prediction by ZEFSAII (Michael W. Deem and Ramdas Pophale) SiO2 
 PCOD8011329
Probable space group: P -1
;
_chemical_formula_sum "Si O2"
_cell_formula_units_Z 16
_cell_length_a 5.272292
_cell_length_b 5.075427
_cell_length_c 27.224292
_cell_angle_alpha 101.116476
_cell_angle_beta 109.262922
_cell_angle_gamma 60.690572
_cell_volume 599.244287
_symmetry_space_group_name_H-M "P -1"
_symmetry_group_IT_number 2
_symmetry_cell_setting 'triclinic'
loop_
_space_group_symop_operation_xyz
x,y,z
-x,-y,-z
loop_
_atom_site_type_symbol
_atom_site_label
_atom_site_fract_x
_atom_site_fract_y
_atom_site_fract_z
Si Si1 0.471609 0.906820 0.598823
Si Si2 0.668305 0.245136 0.903256
Si Si3 0.623102 0.061819 0.060187
Si Si4 0.849953 0.833977 0.796600
Si Si5 0.831294 0.535432 0.693494
Si Si6 0.519709 0.376997 0.184740
Si Si7 0.463221 0.320759 0.711712
Si Si8 0.928365 0.433167 0.439079
O O1 0.606288 0.855067 0.662451
O O2 0.313562 0.259188 0.590341
O O3 0.753367 0.721578 0.574600
O O4 0.222231 0.789491 0.574673
O O5 0.551767 0.582077 0.928154
O O6 0.633190 0.292558 0.841881
O O7 0.459856 0.106327 0.907232
O O8 0.021366 0.046979 0.929388
O O9 0.500000 0.000000 0.000000
O O10 0.953959 0.537521 0.756878
O O11 0.705394 0.779715 0.836072
O O12 0.164975 0.841066 0.831299
O O13 0.628998 0.064662 0.752103
O O14 0.654969 0.331803 0.676947
O O15 0.135753 0.361523 0.673922
O O16 0.594363 0.383276 0.247503
O O17 0.000000 0.500000 0.500000
#
# Coordination Sequence:
#
# PCOD8011329 Si02
#       8
#     2   2   2   2   2   2   2   2
#     4  12  26  44  74 104 138 181 232 283 338 425
#     4  12  26  44  74 102 138 181 234 287 342 429
#     4  12  26  47  71 103 140 182 229 294 358 413
#     4  10  21  39  60  85 131 167 217 272 330 395
#     4  10  23  37  58  94 122 174 218 270 330 393
#     4  10  23  37  60  94 122 174 222 272 334 395
#     4  10  21  39  60  85 131 167 217 272 330 395
#     4  12  26  49  73 105 140 182 227 292 354 409
#
# _framework density 26.700299000000001
#
# number of rings (size 3 to 8) (size 9 to 14) (size 15 to 20)
#    0.000    1.000    0.000    6.000    7.000    0.000 
#    0.000    0.000    0.000    0.000    0.000    0.000 
#    0.000    0.000    0.000    0.000    0.000    0.000 
#
# Total GULP energy -198310.125725 kJ/mol
# GULP energy per Si atom -12394.382858 kJ/mol
# Density = 2.663953 g / cm^3
# Si number density = 26.700299 Si / 1000 Ang^3
#
#
#
# Elastic Constant Matrix: (Units=GPa)
#
#
# Indices 1 2 3 4 5 6 
#
# 1 231.9771 35.0452 23.7065 -30.0351 14.0547 10.9113
# 2 35.0452 81.7846 -8.0912 -19.0488 0.0299 -5.5965
# 3 23.7065 -8.0912 100.0821 7.2494 -7.2620 -15.6518
# 4 -30.0351 -19.0488 7.2494 41.0947 0.6877 5.0236
# 5 14.0547 0.0299 -7.2620 0.6877 30.3000 -16.1582
# 6 10.9113 -5.5965 -15.6518 5.0236 -16.1582 28.5265
#
#
#
# Elastic Compliance Matrix: (Units=1/GPa)
#
#
# Indices 1 2 3 4 5 6 
#
# 1 0.008230 -0.003506 -0.006555 0.007890 -0.014713 -0.017156
# 2 -0.003506 0.015457 0.004267 0.002347 0.008512 0.011123
# 3 -0.006555 0.004267 0.018688 -0.009948 0.022820 0.028276
# 4 0.007890 0.002347 -0.009948 0.036505 -0.020887 -0.026275
# 5 -0.014713 0.008512 0.022820 -0.020887 0.083522 0.070806
# 6 -0.017156 0.011123 0.028276 -0.026275 0.070806 0.104047
#
#
# Mechanical properties :
#
#
# Convention : Reuss Voigt Hill
#
# Bulk Modulus (GPa) = 32.48142 57.24053 44.86098
# Shear Modulus (GPa) = 17.34311 44.19644 30.76978
#
# Velocity S-wave (km/s) = 2.55139 4.07293 3.39840
# Velocity P-wave (km/s) = 4.56848 6.60326 5.67777
#
# Compressibility (1/GPa) = 0.03078683
#
# Stress axis : x y z
#
# Youngs Moduli (GPa) = 121.50346 64.69753 53.51056
#
# Poissons Ratio (x) = 0.22684 0.35076
# Poissons Ratio (y) = 0.42601 -0.22834
# Poissons Ratio (z) = 0.79646 -0.27608
#
# Static dielectric constant tensor:
#      x y z
#    x 4.614030 -0.492490 -0.375650 
#    y -0.492490 5.251670 1.029670 
#    z -0.375650 1.029670 6.911320 
# 
# 
# High freq. dielectric constant tensor:
#      x y z
#    x 2.104260 -0.003390 -0.002870 
#    y -0.003390 2.090710 0.013170 
#    z -0.002870 0.013170 2.080810 
# 
# From -- ./inp_files/621614.got.cif
#   From: 2010.06.25/outbox.cif.g09.slc.cpg/sg2_311_cif.got.tgz:621614.got - 2010.06.27 13:26:56.
