data_PCOD8011387
_publ_section_title
;
Structure prediction by ZEFSAII (Michael W. Deem and Ramdas Pophale) SiO2 
 PCOD8011387
Probable space group: P -1
;
_chemical_formula_sum "Si O2"
_cell_formula_units_Z 16
_cell_length_a 10.001650
_cell_length_b 19.212624
_cell_length_c 5.209337
_cell_angle_alpha 52.757538
_cell_angle_beta 84.232774
_cell_angle_gamma 84.102781
_cell_volume 791.744664
_symmetry_space_group_name_H-M "P -1"
_symmetry_group_IT_number 2
_symmetry_cell_setting 'triclinic'
loop_
_space_group_symop_operation_xyz
x,y,z
-x,-y,-z
loop_
_atom_site_type_symbol
_atom_site_label
_atom_site_fract_x
_atom_site_fract_y
_atom_site_fract_z
Si Si1 0.103650 0.020315 0.642327
Si Si2 0.945964 0.152963 0.658211
Si Si3 0.593705 0.579140 0.341000
Si Si4 0.113523 0.303127 0.474088
Si Si5 0.348322 0.837010 0.422586
Si Si6 0.420260 0.308020 0.408960
Si Si7 0.101620 0.417909 0.710663
Si Si8 0.626184 0.054550 0.324069
O O1 0.065898 0.120332 0.514538
O O2 0.250647 0.016684 0.495734
O O3 0.000000 0.000000 0.500000
O O4 0.098070 0.940029 0.020109
O O5 0.805248 0.196660 0.475660
O O6 0.015639 0.222066 0.671957
O O7 0.500000 0.500000 0.500000
O O8 0.549034 0.639040 0.457221
O O9 0.749293 0.546007 0.417718
O O10 0.574217 0.630439 0.970125
O O11 0.271109 0.269113 0.529119
O O12 0.075603 0.350261 0.640999
O O13 0.080664 0.368776 0.095182
O O14 0.459663 0.763408 0.488490
O O15 0.374188 0.868841 0.635724
O O16 0.367427 0.911452 0.042789
O O17 0.000000 0.500000 0.500000
O O18 0.500000 0.000000 0.500000
#
# Coordination Sequence:
#
# PCOD8011387 Si02
#       8
#     2   2   2   2   2   2   2   2
#     4  10  21  40  59  83 122 155 200 253 290 350
#     4  10  23  38  59  88 118 158 200 245 300 345
#     4  10  21  39  61  86 116 154 191 232 295 348
#     4  10  23  38  61  88 118 157 194 237 297 350
#     4  11  23  40  58  85 120 149 197 249 284 348
#     4  10  22  39  57  88 119 150 193 243 283 348
#     4  10  22  40  60  89 121 148 195 242 286 355
#     4  11  24  39  59  86 113 156 201 240 295 346
#
# _framework density 20.208535999999999
#
# number of rings (size 3 to 8) (size 9 to 14) (size 15 to 20)
#    0.000    1.750    1.250    1.875    3.500    3.000 
#    0.000    0.000    0.000    0.000    0.000    0.000 
#    0.000    0.000    0.000    0.000    0.000    0.000 
#
# Total GULP energy -198250.779094 kJ/mol
# GULP energy per Si atom -12390.673693 kJ/mol
# Density = 2.016254 g / cm^3
# Si number density = 20.208536 Si / 1000 Ang^3
#
#
#
# Elastic Constant Matrix: (Units=GPa)
#
#
# Indices 1 2 3 4 5 6 
#
# 1 162.3958 67.5552 29.0248 -25.0725 8.4122 -6.0795
# 2 67.5552 103.7596 27.3766 2.0692 4.5510 6.9575
# 3 29.0248 27.3766 46.4916 9.0930 8.7844 -1.0674
# 4 -25.0725 2.0692 9.0930 35.2784 1.3026 1.9217
# 5 8.4122 4.5510 8.7844 1.3026 34.4578 -8.9279
# 6 -6.0795 6.9575 -1.0674 1.9217 -8.9279 46.8052
#
#
#
# Elastic Compliance Matrix: (Units=1/GPa)
#
#
# Indices 1 2 3 4 5 6 
#
# 1 0.011247 -0.006275 -0.005061 0.009588 -0.000527 0.001784
# 2 -0.006275 0.015130 -0.004261 -0.004086 -0.000001 -0.002994
# 3 -0.005061 -0.004261 0.030367 -0.010975 -0.005511 0.000068
# 4 0.009588 -0.004086 -0.010975 0.038249 -0.000464 -0.000056
# 5 -0.000527 -0.000001 -0.005511 -0.000464 0.032114 0.005951
# 6 0.001784 -0.002994 0.000068 -0.000056 0.005951 0.023181
#
#
# Mechanical properties :
#
#
# Convention : Reuss Voigt Hill
#
# Bulk Modulus (GPa) = 39.13971 62.28447 50.71209
# Shear Modulus (GPa) = 26.31583 35.88764 31.10174
#
# Velocity S-wave (km/s) = 3.61253 4.21867 3.92732
# Velocity P-wave (km/s) = 6.06717 7.39036 6.76121
#
# Compressibility (1/GPa) = 0.02554950
#
# Stress axis : x y z
#
# Youngs Moduli (GPa) = 88.91086 66.09504 32.92997
#
# Poissons Ratio (x) = 0.41475 0.16667
# Poissons Ratio (y) = 0.55792 0.14031
# Poissons Ratio (z) = 0.45001 0.28163
#
# Static dielectric constant tensor:
#      x y z
#    x 4.785660 -0.226070 -0.024930 
#    y -0.226070 3.725030 0.310480 
#    z -0.024930 0.310480 3.524260 
# 
# 
# High freq. dielectric constant tensor:
#      x y z
#    x 1.810630 -0.004390 0.007440 
#    y -0.004390 1.795930 0.017120 
#    z 0.007440 0.017120 1.777400 
# 
# From -- ./inp_files/37474.got.cif
#   From: 2010.06.25/outbox.cif.g09.slc.cpg/sg2_19_cif.got.tgz:37474.got - 2010.06.27 13:26:56.
