data_PCOD8011708
_publ_section_title
;
Structure prediction by ZEFSAII (Michael W. Deem and Ramdas Pophale) SiO2 
 PCOD8011708
Probable space group: P -1
;
_chemical_formula_sum "Si O2"
_cell_formula_units_Z 12
_cell_length_a 12.501767
_cell_length_b 8.703663
_cell_length_c 8.221009
_cell_angle_alpha 125.607653
_cell_angle_beta 62.372829
_cell_angle_gamma 85.914962
_cell_volume 567.472789
_symmetry_space_group_name_H-M "P -1"
_symmetry_group_IT_number 2
_symmetry_cell_setting 'triclinic'
loop_
_space_group_symop_operation_xyz
x,y,z
-x,-y,-z
loop_
_atom_site_type_symbol
_atom_site_label
_atom_site_fract_x
_atom_site_fract_y
_atom_site_fract_z
Si Si1 0.867300 0.094083 0.260017
Si Si2 0.423733 0.278892 0.113591
Si Si3 0.131213 0.510038 0.341439
Si Si4 0.428471 0.642030 0.479706
Si Si5 0.136300 0.326892 0.878670
Si Si6 0.415687 0.145867 0.399243
O O1 0.879650 0.255207 0.481900
O O2 0.736852 0.212274 0.303286
O O3 0.863571 0.897055 0.231962
O O4 0.000000 0.000000 0.000000
O O5 0.266961 0.335451 0.227621
O O6 0.452752 0.483077 0.211449
O O7 0.451825 0.197531 0.228236
O O8 0.525890 0.111186 0.804903
O O9 0.000000 0.500000 0.500000
O O10 0.152841 0.441651 0.097031
O O11 0.500000 0.500000 0.500000
O O12 0.497017 0.795722 0.494998
O O13 0.257552 0.277644 0.636023
O O14 0.000000 0.500000 0.000000
#
# Coordination Sequence:
#
# PCOD8011708 Si02
#       6
#     2   2   2   2   2   2
#     4  11  24  42  68  97 131 178 223 265 329 398
#     4   9  20  39  64  93 123 170 217 265 322 396
#     4  11  22  41  66  91 127 177 219 266 327 393
#     4   9  20  38  65  96 124 166 216 270 317 389
#     4  12  27  43  63  99 139 171 219 282 324 384
#     4  10  21  39  63  93 130 167 215 267 331 380
#
# _framework density 21.146387000000001
#
# number of rings (size 3 to 8) (size 9 to 14) (size 15 to 20)
#    0.000    1.667    1.667    2.000    4.667    4.667 
#    3.000    3.333    0.000    0.000    0.000    0.000 
#    0.000    0.000    0.000    0.000    0.000    0.000 
#
# Total GULP energy -148696.992842 kJ/mol
# GULP energy per Si atom -12391.416070 kJ/mol
# Density = 2.109826 g / cm^3
# Si number density = 21.146387 Si / 1000 Ang^3
#
#
#
# Elastic Constant Matrix: (Units=GPa)
#
#
# Indices 1 2 3 4 5 6 
#
# 1 152.3457 43.4382 82.0023 26.7071 -3.6667 16.8800
# 2 43.4382 58.2546 45.1179 21.0948 9.7299 8.8551
# 3 82.0023 45.1179 178.1093 22.9911 -2.5684 21.9606
# 4 26.7071 21.0948 22.9911 34.7608 3.5116 -1.6492
# 5 -3.6667 9.7299 -2.5684 3.5116 45.0007 9.2148
# 6 16.8800 8.8551 21.9606 -1.6492 9.2148 31.8687
#
#
#
# Elastic Compliance Matrix: (Units=1/GPa)
#
#
# Indices 1 2 3 4 5 6 
#
# 1 0.010356 -0.003997 -0.002763 -0.004127 0.002574 -0.003429
# 2 -0.003997 0.028292 -0.003674 -0.011239 -0.005313 -0.002258
# 3 -0.002763 -0.003674 0.008574 -0.001718 0.002032 -0.004101
# 4 -0.004127 -0.011239 -0.001718 0.040661 -0.003123 0.009500
# 5 0.002574 -0.005313 0.002032 -0.003123 0.025762 -0.008899
# 6 -0.003429 -0.002258 -0.004101 0.009500 -0.008899 0.039712
#
#
# Mechanical properties :
#
#
# Convention : Reuss Voigt Hill
#
# Bulk Modulus (GPa) = 37.94426 81.09184 59.51805
# Shear Modulus (GPa) = 27.32070 36.86945 32.09507
#
# Velocity S-wave (km/s) = 3.59831 4.18009 3.90007
# Velocity P-wave (km/s) = 5.93686 7.85676 6.96330
#
# Compressibility (1/GPa) = 0.02635444
#
# Stress axis : x y z
#
# Youngs Moduli (GPa) = 96.56137 35.34533 116.63063
#
# Poissons Ratio (x) = 0.14127 0.32225
# Poissons Ratio (y) = 0.38593 0.42853
# Poissons Ratio (z) = 0.26680 0.12987
#
# Static dielectric constant tensor:
#      x y z
#    x 4.888600 0.564190 0.345460 
#    y 0.564190 3.746610 0.622550 
#    z 0.345460 0.622550 4.408930 
# 
# 
# High freq. dielectric constant tensor:
#      x y z
#    x 1.850900 0.008810 0.005550 
#    y 0.008810 1.806150 0.027560 
#    z 0.005550 0.027560 1.844530 
# 
# From -- ./inp_files/160043.got.cif
#   From: 2010.06.25/outbox.cif.g09.slc.cpg/sg2_81_cif.got.tgz:160043.got - 2010.06.27 13:26:56.
