data_PCOD8011759
_publ_section_title
;
Structure prediction by ZEFSAII (Michael W. Deem and Ramdas Pophale) SiO2 
 PCOD8011759
Probable space group: P -1
;
_chemical_formula_sum "Si O2"
_cell_formula_units_Z 16
_cell_length_a 9.620299
_cell_length_b 5.267675
_cell_length_c 14.446329
_cell_angle_alpha 82.035258
_cell_angle_beta 112.654395
_cell_angle_gamma 83.995822
_cell_volume 659.018622
_symmetry_space_group_name_H-M "P -1"
_symmetry_group_IT_number 2
_symmetry_cell_setting 'triclinic'
loop_
_space_group_symop_operation_xyz
x,y,z
-x,-y,-z
loop_
_atom_site_type_symbol
_atom_site_label
_atom_site_fract_x
_atom_site_fract_y
_atom_site_fract_z
Si Si1 0.841726 0.232286 0.790288
Si Si2 0.497601 0.834727 0.626755
Si Si3 0.399423 0.277161 0.985145
Si Si4 0.723265 0.711733 0.842495
Si Si5 0.976533 0.817226 0.610625
Si Si6 0.697561 0.197863 0.578018
Si Si7 0.876489 0.640978 0.227307
Si Si8 0.797679 0.845391 0.396967
O O1 0.835934 0.439272 0.862337
O O2 0.719209 0.357595 0.670177
O O3 0.016177 0.169926 0.799142
O O4 0.801082 0.959563 0.826384
O O5 0.572010 0.688240 0.744560
O O6 0.408067 0.660975 0.541387
O O7 0.628031 0.939441 0.596886
O O8 0.378097 0.080013 0.622588
O O9 0.318790 0.265117 0.062909
O O10 0.500000 0.500000 0.000000
O O11 0.269548 0.362841 0.872339
O O12 0.500000 0.000000 0.000000
O O13 0.889949 0.679783 0.513922
O O14 0.012041 0.638660 0.720220
O O15 0.870676 0.090421 0.596543
O O16 0.134908 0.886001 0.609064
O O17 0.813882 0.697889 0.311819
#
# Coordination Sequence:
#
# PCOD8011759 Si02
#       8
#     2   2   2   2   2   2   2   2
#     4  11  24  43  72 101 139 181 234 293 348 426
#     4   9  19  36  65  93 139 185 223 287 344 416
#     4  12  30  51  75 104 140 183 238 298 357 424
#     4  11  25  47  68 103 141 182 237 291 348 410
#     4  10  21  40  65 100 142 181 234 289 346 427
#     4   9  18  39  63  99 135 180 232 276 349 415
#     4  12  25  41  73  97 138 187 238 291 364 413
#     4  10  21  39  64 101 142 181 234 284 355 421
#
# _framework density 24.278523
#
# number of rings (size 3 to 8) (size 9 to 14) (size 15 to 20)
#    0.000    1.500    1.250    3.375    3.500    2.500 
#    0.000    1.250    0.000    0.000    0.000    0.000 
#    0.000    0.000    0.000    0.000    0.000    0.000 
#
# Total GULP energy -198255.462966 kJ/mol
# GULP energy per Si atom -12390.966435 kJ/mol
# Density = 2.422326 g / cm^3
# Si number density = 24.278523 Si / 1000 Ang^3
#
#
#
# Elastic Constant Matrix: (Units=GPa)
#
#
# Indices 1 2 3 4 5 6 
#
# 1 98.6241 30.3913 46.7665 3.7897 -2.6689 5.7663
# 2 30.3913 102.2086 39.7698 15.0702 -6.6708 5.5489
# 3 46.7665 39.7698 172.6933 16.2045 4.2170 2.5756
# 4 3.7897 15.0702 16.2045 34.1745 -2.8695 -8.5344
# 5 -2.6689 -6.6708 4.2170 -2.8695 37.1570 11.3448
# 6 5.7663 5.5489 2.5756 -8.5344 11.3448 24.9472
#
#
#
# Elastic Compliance Matrix: (Units=1/GPa)
#
#
# Indices 1 2 3 4 5 6 
#
# 1 0.012412 -0.002411 -0.002856 0.000530 0.001615 -0.002591
# 2 -0.002411 0.012515 -0.001714 -0.005527 0.003535 -0.005548
# 3 -0.002856 -0.001714 0.007224 -0.002441 -0.001575 0.000177
# 4 0.000530 -0.005527 -0.002441 0.036311 -0.002416 0.014879
# 5 0.001615 0.003535 -0.001575 -0.002416 0.032761 -0.016722
# 6 -0.002591 -0.005548 0.000177 0.014879 -0.016722 0.054594
#
#
# Mechanical properties :
#
#
# Convention : Reuss Voigt Hill
#
# Bulk Modulus (GPa) = 54.98468 67.48678 61.23573
# Shear Modulus (GPa) = 28.43477 36.36231 32.39854
#
# Velocity S-wave (km/s) = 3.42598 3.87423 3.65698
# Velocity P-wave (km/s) = 6.19245 6.91882 6.56569
#
# Compressibility (1/GPa) = 0.01818688
#
# Stress axis : x y z
#
# Youngs Moduli (GPa) = 80.56824 79.90612 138.43291
#
# Poissons Ratio (x) = 0.19267 0.39542
# Poissons Ratio (y) = 0.19427 0.23727
# Poissons Ratio (z) = 0.23014 0.13696
#
# Static dielectric constant tensor:
#      x y z
#    x 4.414220 -0.059860 -0.044670 
#    y -0.059860 3.961130 0.220360 
#    z -0.044670 0.220360 4.708640 
# 
# 
# High freq. dielectric constant tensor:
#      x y z
#    x 1.981020 -0.005910 -0.005270 
#    y -0.005910 1.941830 0.018400 
#    z -0.005270 0.018400 1.963700 
# 
# From -- ./inp_files/488309.got.cif
#   From: 2010.06.25/outbox.cif.g09.slc.cpg/sg2_245_cif.got.tgz:488309.got - 2010.06.27 13:26:56.
