data_PCOD8011323
_publ_section_title
;
Structure prediction by ZEFSAII (Michael W. Deem and Ramdas Pophale) SiO2 
 PCOD8011323
Probable space group: P -1
;
_chemical_formula_sum "Si O2"
_cell_formula_units_Z 16
_cell_length_a 8.435942
_cell_length_b 6.661318
_cell_length_c 17.973405
_cell_angle_alpha 96.788136
_cell_angle_beta 128.435484
_cell_angle_gamma 86.206315
_cell_volume 785.566048
_symmetry_space_group_name_H-M "P -1"
_symmetry_group_IT_number 2
_symmetry_cell_setting 'triclinic'
loop_
_space_group_symop_operation_xyz
x,y,z
-x,-y,-z
loop_
_atom_site_type_symbol
_atom_site_label
_atom_site_fract_x
_atom_site_fract_y
_atom_site_fract_z
Si Si1 0.107921 0.306654 0.555571
Si Si2 0.447437 0.700034 0.255793
Si Si3 0.924162 0.024813 0.060435
Si Si4 0.796933 0.049142 0.538666
Si Si5 0.802240 0.635796 0.093010
Si Si6 0.157819 0.371179 0.219718
Si Si7 0.416183 0.706199 0.072141
Si Si8 0.353911 0.057253 0.355282
O O1 0.321721 0.351607 0.659080
O O2 0.000000 0.500000 0.500000
O O3 0.963191 0.215608 0.573021
O O4 0.137894 0.161941 0.487437
O O5 0.323372 0.497430 0.228250
O O6 0.418754 0.744588 0.162385
O O7 0.364433 0.893893 0.284626
O O8 0.091451 0.173175 0.147991
O O9 0.923216 0.817673 0.097118
O O10 0.699236 0.115805 0.996879
O O11 0.000000 0.000000 0.000000
O O12 0.578505 0.115406 0.448961
O O13 0.785308 0.035479 0.623942
O O14 0.644140 0.716825 0.109982
O O15 0.961208 0.507685 0.182542
O O16 0.693195 0.506236 0.990170
O O17 0.258697 0.276173 0.318320
#
# Coordination Sequence:
#
# PCOD8011323 Si02
#       8
#     2   2   2   2   2   2   2   2
#     4  10  21  39  62  88 118 153 189 237 294 343
#     4  11  23  37  58  86 115 150 197 242 285 343
#     4  11  21  37  61  83 115 156 190 235 291 343
#     4   9  21  40  60  85 118 153 192 234 289 354
#     4  10  22  39  58  84 118 154 193 237 291 346
#     4  11  22  36  57  86 114 148 195 239 285 342
#     4  10  22  39  57  84 118 152 193 239 287 346
#     4  10  21  39  60  85 117 152 193 241 287 342
#
# _framework density 20.36748
#
# number of rings (size 3 to 8) (size 9 to 14) (size 15 to 20)
#    0.000    1.750    0.000    4.125    0.000    6.000 
#    0.000    3.750    0.000    0.000    0.000    0.000 
#    0.000    0.000    0.000    0.000    0.000    0.000 
#
# Total GULP energy -198382.188696 kJ/mol
# GULP energy per Si atom -12398.886793 kJ/mol
# Density = 2.032112 g / cm^3
# Si number density = 20.367480 Si / 1000 Ang^3
#
#
#
# Elastic Constant Matrix: (Units=GPa)
#
#
# Indices 1 2 3 4 5 6 
#
# 1 130.1868 42.7998 43.5768 -8.9185 0.7844 6.0880
# 2 42.7998 103.2470 39.7244 -22.6326 8.8543 5.6087
# 3 43.5768 39.7244 81.2347 -20.9372 -1.6319 -0.3050
# 4 -8.9185 -22.6326 -20.9372 34.3433 -3.4035 7.4301
# 5 0.7844 8.8543 -1.6319 -3.4035 40.3834 1.4875
# 6 6.0880 5.6087 -0.3050 7.4301 1.4875 27.8359
#
#
#
# Elastic Compliance Matrix: (Units=1/GPa)
#
#
# Indices 1 2 3 4 5 6 
#
# 1 0.010021 -0.002740 -0.004459 -0.001636 0.000134 -0.001259
# 2 -0.002740 0.014233 -0.003748 0.007014 -0.002479 -0.004049
# 3 -0.004459 -0.003748 0.018656 0.008053 0.002353 -0.000340
# 4 -0.001636 0.007014 0.008053 0.041110 0.002729 -0.012086
# 5 0.000134 -0.002479 0.002353 0.002729 0.025688 -0.001605
# 6 -0.001259 -0.004049 -0.000340 -0.012086 -0.001605 0.040324
#
#
# Mechanical properties :
#
#
# Convention : Reuss Voigt Hill
#
# Bulk Modulus (GPa) = 47.58187 62.98559 55.28373
# Shear Modulus (GPa) = 27.94370 33.08370 30.51370
#
# Velocity S-wave (km/s) = 3.70804 4.03468 3.87480
# Velocity P-wave (km/s) = 6.46105 7.25924 6.87174
#
# Compressibility (1/GPa) = 0.02101641
#
# Stress axis : x y z
#
# Youngs Moduli (GPa) = 99.79363 70.25751 53.60152
#
# Poissons Ratio (x) = 0.19251 0.23902
# Poissons Ratio (y) = 0.27345 0.20087
# Poissons Ratio (z) = 0.44501 0.26329
#
# Static dielectric constant tensor:
#      x y z
#    x 3.805230 -0.143760 0.218040 
#    y -0.143760 3.889490 -0.216750 
#    z 0.218040 -0.216750 3.860710 
# 
# 
# High freq. dielectric constant tensor:
#      x y z
#    x 1.804150 -0.002410 0.015160 
#    y -0.002410 1.798900 -0.006700 
#    z 0.015160 -0.006700 1.801870 
# 
# From -- ./inp_files/37407.got.cif
#   From: 2010.06.25/outbox.cif.g09.slc.cpg/sg2_19_cif.got.tgz:37407.got - 2010.06.27 13:26:56.
