data_PCOD8011801
_publ_section_title
;
Structure prediction by ZEFSAII (Michael W. Deem and Ramdas Pophale) SiO2 
 PCOD8011801
Probable space group: P -1
;
_chemical_formula_sum "Si O2"
_cell_formula_units_Z 14
_cell_length_a 19.485878
_cell_length_b 11.722635
_cell_length_c 13.456683
_cell_angle_alpha 148.245437
_cell_angle_beta 23.088496
_cell_angle_gamma 148.123627
_cell_volume 600.041825
_symmetry_space_group_name_H-M "P -1"
_symmetry_group_IT_number 2
_symmetry_cell_setting 'triclinic'
loop_
_space_group_symop_operation_xyz
x,y,z
-x,-y,-z
loop_
_atom_site_type_symbol
_atom_site_label
_atom_site_fract_x
_atom_site_fract_y
_atom_site_fract_z
Si Si1 0.223647 0.742033 0.491860
Si Si2 0.541851 0.758825 0.602983
Si Si3 0.146710 0.280004 0.361008
Si Si4 0.223788 0.809736 0.310016
Si Si5 0.378968 0.944481 0.795361
Si Si6 0.071451 0.557674 0.836780
Si Si7 0.857971 0.657929 0.024981
O O1 0.239910 0.507370 0.340912
O O2 0.210333 0.723094 0.377217
O O3 0.034681 0.778181 0.809622
O O4 0.407296 0.937321 0.431653
O O5 0.500000 0.500000 0.500000
O O6 0.373064 0.801692 0.800572
O O7 0.607520 0.948440 0.743851
O O8 0.719286 0.807341 0.325295
O O9 0.101198 0.343534 0.580640
O O10 0.958980 0.140642 0.449553
O O11 0.281902 0.133807 0.084328
O O12 0.256323 0.605043 0.050529
O O13 0.268917 0.763478 0.725652
O O14 0.924013 0.644895 0.039947
O O15 0.000000 0.500000 0.000000
#
# Coordination Sequence:
#
# PCOD8011801 Si02
#       7
#     2   2   2   2   2   2   2
#     4   9  20  40  64  91 121 157 204 251 305 368
#     4  11  24  41  61  89 122 160 211 253 293 363
#     4  10  21  39  64  91 122 160 199 250 309 361
#     4   9  20  40  65  88 117 162 201 247 306 360
#     4  11  23  37  61  94 124 158 198 255 313 354
#     4  10  22  41  62  89 123 162 208 247 295 365
#     4  10  21  40  64  87 118 163 204 248 305 362
#
# _framework density 23.331707999999999
#
# number of rings (size 3 to 8) (size 9 to 14) (size 15 to 20)
#    0.000    2.286    0.000    3.857    0.000    8.000 
#    0.000   15.714    0.000    0.857    0.000    0.000 
#    0.000    0.000    0.000    0.000    0.000    0.000 
#
# Total GULP energy -173496.809331 kJ/mol
# GULP energy per Si atom -12392.629238 kJ/mol
# Density = 2.327860 g / cm^3
# Si number density = 23.331708 Si / 1000 Ang^3
#
#
#
# Elastic Constant Matrix: (Units=GPa)
#
#
# Indices 1 2 3 4 5 6 
#
# 1 141.0697 49.3238 38.7592 7.6236 4.7356 6.7971
# 2 49.3238 94.3920 8.9122 6.8886 8.5039 17.7558
# 3 38.7592 8.9122 72.0164 20.1605 -19.1675 7.7795
# 4 7.6236 6.8886 20.1605 19.0129 -5.5569 -2.7313
# 5 4.7356 8.5039 -19.1675 -5.5569 36.1497 7.6356
# 6 6.7971 17.7558 7.7795 -2.7313 7.6356 38.4931
#
#
#
# Elastic Compliance Matrix: (Units=1/GPa)
#
#
# Indices 1 2 3 4 5 6 
#
# 1 0.011068 -0.005699 -0.008479 0.005836 -0.004488 0.003692
# 2 -0.005699 0.015260 0.004481 -0.009160 -0.000284 -0.007532
# 3 -0.008479 0.004481 0.031055 -0.028573 0.014618 -0.011773
# 4 0.005836 -0.009160 -0.028573 0.084962 -0.004036 0.015799
# 5 -0.004488 -0.000284 0.014618 -0.004036 0.037509 -0.009757
# 6 0.003692 -0.007532 -0.011773 0.015799 -0.009757 0.034237
#
#
# Mechanical properties :
#
#
# Convention : Reuss Voigt Hill
#
# Bulk Modulus (GPa) = 26.32246 55.71872 41.02059
# Shear Modulus (GPa) = 20.31295 32.76332 26.53813
#
# Velocity S-wave (km/s) = 2.95382 3.75138 3.37624
# Velocity P-wave (km/s) = 4.78955 6.53428 5.72872
#
# Compressibility (1/GPa) = 0.03799037
#
# Stress axis : x y z
#
# Youngs Moduli (GPa) = 90.34832 65.53048 32.20043
#
# Poissons Ratio (x) = 0.37348 0.27302
# Poissons Ratio (y) = 0.51492 -0.14430
# Poissons Ratio (z) = 0.76603 -0.29366
#
# Static dielectric constant tensor:
#      x y z
#    x 4.328170 0.288670 -0.119160 
#    y 0.288670 4.451100 -0.054500 
#    z -0.119160 -0.054500 4.090840 
# 
# 
# High freq. dielectric constant tensor:
#      x y z
#    x 1.930000 0.010490 -0.009700 
#    y 0.010490 1.937340 0.002840 
#    z -0.009700 0.002840 1.908650 
# 
# From -- ./inp_files/464086.got.cif
#   From: 2010.06.25/outbox.cif.g09.slc.cpg/sg2_233_cif.got.tgz:464086.got - 2010.06.27 13:26:56.
