data_PCOD8011044
_publ_section_title
;
Structure prediction by ZEFSAII (Michael W. Deem and Ramdas Pophale) SiO2 
 PCOD8011044
Probable space group: P -1
;
_chemical_formula_sum "Si O2"
_cell_formula_units_Z 16
_cell_length_a 10.540176
_cell_length_b 12.420425
_cell_length_c 8.196738
_cell_angle_alpha 83.297839
_cell_angle_beta 76.330836
_cell_angle_gamma 134.173366
_cell_volume 684.175864
_symmetry_space_group_name_H-M "P -1"
_symmetry_group_IT_number 2
_symmetry_cell_setting 'triclinic'
loop_
_space_group_symop_operation_xyz
x,y,z
-x,-y,-z
loop_
_atom_site_type_symbol
_atom_site_label
_atom_site_fract_x
_atom_site_fract_y
_atom_site_fract_z
Si Si1 0.953696 0.098760 0.089291
Si Si2 0.091457 0.373054 0.198692
Si Si3 0.725736 0.752188 0.257256
Si Si4 0.453771 0.934992 0.265885
Si Si5 0.320471 0.408892 0.394930
Si Si6 0.684799 0.970462 0.910871
Si Si7 0.464725 0.661397 0.824432
Si Si8 0.284135 0.740176 0.677998
O O1 0.944241 0.197143 0.186527
O O2 0.816317 0.924826 0.254845
O O3 0.181355 0.209591 0.959863
O O4 0.886915 0.074362 0.925333
O O5 0.140666 0.352451 0.363206
O O6 0.956522 0.397944 0.238396
O O7 0.296763 0.514264 0.021189
O O8 0.488443 0.605618 0.334972
O O9 0.773313 0.689536 0.388639
O O10 0.365807 0.812341 0.461074
O O11 0.289766 0.910668 0.237551
O O12 0.632809 0.123364 0.238316
O O13 0.524515 0.894243 0.115445
O O14 0.419345 0.366325 0.284661
O O15 0.622551 0.827867 0.849813
O O16 0.351169 0.661288 0.721128
#
# Coordination Sequence:
#
# PCOD8011044 Si02
#       8
#     2   2   2   2   2   2   2   2
#     4  11  23  40  68  95 130 166 220 266 317 377
#     4  12  24  42  66  96 130 165 218 265 320 379
#     4  10  25  44  64  94 129 173 212 266 323 383
#     4   9  20  40  62  92 126 171 210 263 318 378
#     4  11  25  45  67  94 132 171 213 265 325 384
#     4  10  21  38  66  90 128 170 215 255 320 385
#     4  11  24  42  65  92 133 174 208 259 330 386
#     4  10  22  41  65  95 128 165 214 266 316 379
#
# _framework density 23.385798999999999
#
# number of rings (size 3 to 8) (size 9 to 14) (size 15 to 20)
#    0.000    1.500    2.500    1.500    7.000    1.500 
#    0.000    0.625    0.000    0.000    0.000    0.000 
#    0.000    0.000    0.000    0.000    0.000    0.000 
#
# Total GULP energy -198298.213065 kJ/mol
# GULP energy per Si atom -12393.638317 kJ/mol
# Density = 2.333257 g / cm^3
# Si number density = 23.385799 Si / 1000 Ang^3
#
#
#
# Elastic Constant Matrix: (Units=GPa)
#
#
# Indices 1 2 3 4 5 6 
#
# 1 55.5247 0.7483 12.5211 0.2102 20.1331 21.2944
# 2 0.7483 49.1674 21.7303 2.9337 9.3554 5.8213
# 3 12.5211 21.7303 82.9741 -3.0433 20.3009 4.4963
# 4 0.2102 2.9337 -3.0433 28.6757 6.5990 5.9027
# 5 20.1331 9.3554 20.3009 6.5990 37.8307 8.5920
# 6 21.2944 5.8213 4.4963 5.9027 8.5920 30.1456
#
#
#
# Elastic Compliance Matrix: (Units=1/GPa)
#
#
# Indices 1 2 3 4 5 6 
#
# 1 0.030641 0.004596 -0.001249 0.006322 -0.013386 -0.019768
# 2 0.004596 0.024332 -0.005858 -0.001077 -0.003821 -0.005772
# 3 -0.001249 -0.005858 0.015601 0.003700 -0.007130 0.000994
# 4 0.006322 -0.001077 0.003700 0.039590 -0.009769 -0.009777
# 5 -0.013386 -0.003821 -0.007130 -0.009769 0.039605 0.001882
# 6 -0.019768 -0.005772 0.000994 -0.009777 0.001882 0.049481
#
#
# Mechanical properties :
#
#
# Convention : Reuss Voigt Hill
#
# Bulk Modulus (GPa) = 15.25502 28.62949 21.94225
# Shear Modulus (GPa) = 22.11187 29.50817 25.81002
#
# Velocity S-wave (km/s) = 3.07828 3.55603 3.32575
# Velocity P-wave (km/s) = 4.37855 5.39716 4.91432
#
# Compressibility (1/GPa) = 0.06555221
#
# Stress axis : x y z
#
# Youngs Moduli (GPa) = 32.63596 41.09744 64.09925
#
# Poissons Ratio (x) = -0.18889 0.08008
# Poissons Ratio (y) = -0.15000 0.37549
# Poissons Ratio (z) = 0.04077 0.24075
#
# Static dielectric constant tensor:
#      x y z
#    x 4.377310 0.129070 0.250000 
#    y 0.129070 4.149520 0.096320 
#    z 0.250000 0.096320 4.101840 
# 
# 
# High freq. dielectric constant tensor:
#      x y z
#    x 1.930700 0.006800 0.012940 
#    y 0.006800 1.912690 0.003820 
#    z 0.012940 0.003820 1.925580 
# 
# From -- ./inp_files/272529.got.cif
#   From: 2010.06.25/outbox.cif.g09.slc.cpg/sg2_137_cif.got.tgz:272529.got - 2010.06.27 13:26:56.
