data_PCOD8011456
_publ_section_title
;
Structure prediction by ZEFSAII (Michael W. Deem and Ramdas Pophale) SiO2 
 PCOD8011456
Probable space group: P -1
;
_chemical_formula_sum "Si O2"
_cell_formula_units_Z 16
_cell_length_a 9.211629
_cell_length_b 8.977717
_cell_length_c 15.952087
_cell_angle_alpha 139.456354
_cell_angle_beta 80.938103
_cell_angle_gamma 113.247270
_cell_volume 765.176544
_symmetry_space_group_name_H-M "P -1"
_symmetry_group_IT_number 2
_symmetry_cell_setting 'triclinic'
loop_
_space_group_symop_operation_xyz
x,y,z
-x,-y,-z
loop_
_atom_site_type_symbol
_atom_site_label
_atom_site_fract_x
_atom_site_fract_y
_atom_site_fract_z
Si Si1 0.802691 0.404537 0.051224
Si Si2 0.743224 0.163717 0.607903
Si Si3 0.965978 0.460188 0.355336
Si Si4 0.474314 0.639040 0.384089
Si Si5 0.483065 0.255901 0.095655
Si Si6 0.143878 0.815747 0.211389
Si Si7 0.855110 0.081575 0.053329
Si Si8 0.801046 0.624256 0.579206
O O1 0.638492 0.433492 0.101966
O O2 0.844129 0.215587 0.025614
O O3 0.948480 0.684479 0.163443
O O4 0.777386 0.293571 0.912615
O O5 0.614648 0.274109 0.642961
O O6 0.803473 0.253970 0.734479
O O7 0.899265 0.273192 0.579040
O O8 0.654227 0.858291 0.478906
O O9 0.873315 0.267304 0.207836
O O10 0.831458 0.512216 0.441365
O O11 0.052721 0.330136 0.350350
O O12 0.489956 0.392914 0.242145
O O13 0.371268 0.572717 0.451131
O O14 0.500000 0.000000 0.000000
O O15 0.310357 0.178305 0.031573
O O16 0.208926 0.114708 0.324888
O O17 0.000000 0.000000 0.000000
#
# Coordination Sequence:
#
# PCOD8011456 Si02
#       8
#     2   2   2   2   2   2   2   2
#     4  10  23  39  58  94 130 162 213 261 314 382
#     4  10  22  40  66  90 124 167 210 263 316 390
#     4  10  21  39  61  93 120 166 218 250 314 378
#     4  10  22  43  64  91 128 166 211 264 324 372
#     4  10  22  38  62  92 126 163 209 268 313 373
#     4  11  22  39  63  89 129 169 210 260 324 372
#     4  11  20  38  69  89 123 169 215 255 316 384
#     4  10  22  38  60  91 127 163 208 269 308 378
#
# _framework density 20.910208000000001
#
# number of rings (size 3 to 8) (size 9 to 14) (size 15 to 20)
#    0.000    1.750    1.250    3.750    1.750    4.000 
#    0.000    0.625    0.000    0.000    0.000    0.000 
#    0.000    0.000    0.000    0.000    0.000    0.000 
#
# Total GULP energy -198428.191880 kJ/mol
# GULP energy per Si atom -12401.761992 kJ/mol
# Density = 2.086262 g / cm^3
# Si number density = 20.910208 Si / 1000 Ang^3
#
#
#
# Elastic Constant Matrix: (Units=GPa)
#
#
# Indices 1 2 3 4 5 6 
#
# 1 93.6702 35.0874 49.2265 -12.2535 -2.1509 28.8011
# 2 35.0874 93.2585 47.1447 -15.9200 -1.7855 15.9892
# 3 49.2265 47.1447 147.3009 -17.0500 2.0707 21.7365
# 4 -12.2535 -15.9200 -17.0500 34.9296 -0.2996 -2.3939
# 5 -2.1509 -1.7855 2.0707 -0.2996 22.8891 -3.0688
# 6 28.8011 15.9892 21.7365 -2.3939 -3.0688 40.5817
#
#
#
# Elastic Compliance Matrix: (Units=1/GPa)
#
#
# Indices 1 2 3 4 5 6 
#
# 1 0.016268 -0.002681 -0.003022 0.002418 0.000459 -0.008693
# 2 -0.002681 0.014230 -0.002940 0.003993 0.000932 -0.001823
# 3 -0.003022 -0.002940 0.009233 0.001981 -0.001543 -0.001642
# 4 0.002418 0.003993 0.001981 0.032102 0.000455 -0.002422
# 5 0.000459 0.000932 -0.001543 0.000455 0.044422 0.003519
# 6 -0.008693 -0.001823 -0.001642 -0.002422 0.003519 0.032532
#
#
# Mechanical properties :
#
#
# Convention : Reuss Voigt Hill
#
# Bulk Modulus (GPa) = 44.55514 66.34963 55.45238
# Shear Modulus (GPa) = 28.80915 33.19815 31.00365
#
# Velocity S-wave (km/s) = 3.71584 3.98886 3.85477
# Velocity P-wave (km/s) = 6.30587 7.28109 6.81096
#
# Compressibility (1/GPa) = 0.02244410
#
# Stress axis : x y z
#
# Youngs Moduli (GPa) = 61.47021 70.27411 108.30466
#
# Poissons Ratio (x) = 0.18839 0.32734
# Poissons Ratio (y) = 0.16479 0.31846
# Poissons Ratio (z) = 0.18579 0.20663
#
# Static dielectric constant tensor:
#      x y z
#    x 4.098820 0.414900 0.203170 
#    y 0.414900 3.982490 0.007410 
#    z 0.203170 0.007410 3.865200 
# 
# 
# High freq. dielectric constant tensor:
#      x y z
#    x 1.814140 0.015390 0.006930 
#    y 0.015390 1.816760 -0.002060 
#    z 0.006930 -0.002060 1.823510 
# 
# From -- ./inp_files/202028.got.cif
#   From: 2010.06.25/outbox.cif.g09.slc.cpg/sg2_102_cif.got.tgz:202028.got - 2010.06.27 13:26:56.
