data_PCOD8011972
_publ_section_title
;
Structure prediction by ZEFSAII (Michael W. Deem and Ramdas Pophale) SiO2 
 PCOD8011972
Probable space group: P -1
;
_chemical_formula_sum "Si O2"
_cell_formula_units_Z 16
_cell_length_a 8.515593
_cell_length_b 15.016255
_cell_length_c 11.925866
_cell_angle_alpha 104.941226
_cell_angle_beta 38.129312
_cell_angle_gamma 122.278834
_cell_volume 756.640148
_symmetry_space_group_name_H-M "P -1"
_symmetry_group_IT_number 2
_symmetry_cell_setting 'triclinic'
loop_
_space_group_symop_operation_xyz
x,y,z
-x,-y,-z
loop_
_atom_site_type_symbol
_atom_site_label
_atom_site_fract_x
_atom_site_fract_y
_atom_site_fract_z
Si Si1 0.683727 0.000240 0.003514
Si Si2 0.804573 0.627070 0.493620
Si Si3 0.144769 0.225923 0.294268
Si Si4 0.744724 0.250052 0.350937
Si Si5 0.751305 0.986023 0.412375
Si Si6 0.513487 0.225425 0.884116
Si Si7 0.948132 0.778117 0.022450
Si Si8 0.555902 0.625853 0.393619
O O1 0.013347 0.018503 0.803870
O O2 0.751785 0.101310 0.077273
O O3 0.500000 0.000000 0.000000
O O4 0.472888 0.882995 0.147276
O O5 0.721316 0.690830 0.649306
O O6 0.725604 0.644388 0.420233
O O7 0.613931 0.499230 0.595492
O O8 0.160344 0.672149 0.306719
O O9 0.904014 0.239952 0.367296
O O10 0.418827 0.251914 0.064941
O O11 0.967474 0.098895 0.399885
O O12 0.428823 0.131520 0.460726
O O13 0.695198 0.346203 0.437649
O O14 0.955245 0.285819 0.134248
O O15 0.500000 0.000000 0.500000
O O16 0.284970 0.203190 0.905381
O O17 0.807952 0.706263 0.188824
#
# Coordination Sequence:
#
# PCOD8011972 Si02
#       8
#     2   2   2   2   2   2   2   2
#     4  11  22  38  63  97 138 171 213 266 322 393
#     4  11  25  42  66  86 127 173 213 269 320 384
#     4   9  21  40  62  94 123 162 213 263 316 379
#     4  10  21  39  65  93 125 163 211 263 320 381
#     4   9  19  37  62  94 132 167 211 261 316 389
#     4  10  23  39  64  96 125 165 214 265 321 382
#     4  11  23  41  65  92 130 168 210 269 323 384
#     4  11  25  44  60  93 127 169 218 263 326 380
#
# _framework density 21.146115000000002
#
# number of rings (size 3 to 8) (size 9 to 14) (size 15 to 20)
#    0.000    1.750    1.250    2.625    3.500    6.000 
#    0.000    6.250    0.000    0.000    0.000    0.000 
#    0.000    0.000    0.000    0.000    0.000    0.000 
#
# Total GULP energy -198350.601922 kJ/mol
# GULP energy per Si atom -12396.912620 kJ/mol
# Density = 2.109799 g / cm^3
# Si number density = 21.146115 Si / 1000 Ang^3
#
#
#
# Elastic Constant Matrix: (Units=GPa)
#
#
# Indices 1 2 3 4 5 6 
#
# 1 45.6866 25.8717 12.4144 -9.5352 13.7052 5.2884
# 2 25.8717 134.7382 31.0512 -6.6154 27.4553 10.6562
# 3 12.4144 31.0512 60.6469 3.9087 7.0071 4.7254
# 4 -9.5352 -6.6154 3.9087 16.7783 3.6345 -0.7561
# 5 13.7052 27.4553 7.0071 3.6345 25.2805 0.9759
# 6 5.2884 10.6562 4.7254 -0.7561 0.9759 33.8706
#
#
#
# Elastic Compliance Matrix: (Units=1/GPa)
#
#
# Indices 1 2 3 4 5 6 
#
# 1 0.035976 0.000765 -0.006637 0.026941 -0.022225 -0.003690
# 2 0.000765 0.011703 -0.005034 0.008905 -0.012912 -0.002528
# 3 -0.006637 -0.005034 0.020647 -0.011690 0.005048 -0.000667
# 4 0.026941 0.008905 -0.011690 0.088323 -0.033640 -0.002436
# 5 -0.022225 -0.012912 0.005048 -0.033640 0.068907 0.004092
# 6 -0.003690 -0.002528 -0.000667 -0.002436 0.004092 0.030817
#
#
# Mechanical properties :
#
#
# Convention : Reuss Voigt Hill
#
# Bulk Modulus (GPa) = 21.49859 42.19404 31.84631
# Shear Modulus (GPa) = 17.02482 26.63484 21.82983
#
# Velocity S-wave (km/s) = 2.84051 3.55288 3.21648
# Velocity P-wave (km/s) = 4.57677 6.06857 5.37468
#
# Compressibility (1/GPa) = 0.04651468
#
# Stress axis : x y z
#
# Youngs Moduli (GPa) = 27.79655 85.44656 48.43358
#
# Poissons Ratio (x) = -0.06537 0.32145
# Poissons Ratio (y) = -0.02127 0.24380
# Poissons Ratio (z) = 0.18448 0.43011
#
# Static dielectric constant tensor:
#      x y z
#    x 3.677390 -0.044440 -0.056480 
#    y -0.044440 4.041040 -0.013350 
#    z -0.056480 -0.013350 3.818420 
# 
# 
# High freq. dielectric constant tensor:
#      x y z
#    x 1.816960 -0.001220 -0.003640 
#    y -0.001220 1.833080 0.004050 
#    z -0.003640 0.004050 1.828930 
# 
# From -- ./inp_files/315832.got.cif
#   From: 2010.06.25/outbox.cif.g09.slc.cpg/sg2_158_cif.got.tgz:315832.got - 2010.06.27 13:26:56.
