data_PCOD8011696
_publ_section_title
;
Structure prediction by ZEFSAII (Michael W. Deem and Ramdas Pophale) SiO2 
 PCOD8011696
Probable space group: P -1
;
_chemical_formula_sum "Si O2"
_cell_formula_units_Z 16
_cell_length_a 11.958917
_cell_length_b 9.574161
_cell_length_c 17.906643
_cell_angle_alpha 29.888233
_cell_angle_beta 54.488232
_cell_angle_gamma 48.262802
_cell_volume 762.330774
_symmetry_space_group_name_H-M "P -1"
_symmetry_group_IT_number 2
_symmetry_cell_setting 'triclinic'
loop_
_space_group_symop_operation_xyz
x,y,z
-x,-y,-z
loop_
_atom_site_type_symbol
_atom_site_label
_atom_site_fract_x
_atom_site_fract_y
_atom_site_fract_z
Si Si1 0.071744 0.885335 0.788582
Si Si2 0.395922 0.318104 0.139590
Si Si3 0.509672 0.705823 0.286510
Si Si4 0.473021 0.915968 0.430799
Si Si5 0.257127 0.828521 0.207314
Si Si6 0.726997 0.821121 0.480844
Si Si7 0.794235 0.663210 0.114009
Si Si8 0.936491 0.243513 0.978396
O O1 0.177357 0.552783 0.869973
O O2 0.120126 0.140785 0.614539
O O3 0.078573 0.902913 0.868107
O O4 0.902810 0.954200 0.795095
O O5 0.226067 0.510298 0.094170
O O6 0.463465 0.993426 0.223935
O O7 0.401482 0.223172 0.267762
O O8 0.500000 0.500000 0.000000
O O9 0.506640 0.404370 0.468840
O O10 0.396197 0.792869 0.220936
O O11 0.678992 0.616000 0.236305
O O12 0.635149 0.888541 0.407872
O O13 0.367996 0.933359 0.534572
O O14 0.244296 0.509358 0.343475
O O15 0.275334 0.983653 0.050783
O O16 0.948590 0.591113 0.132710
O O17 0.000000 0.000000 0.000000
#
# Coordination Sequence:
#
# PCOD8011696 Si02
#       8
#     2   2   2   2   2   2   2   2
#     4  11  21  41  65  93 126 166 209 262 316 368
#     4  12  25  41  67  91 125 169 212 252 317 380
#     4  11  22  42  63  94 126 166 209 256 318 373
#     4  10  23  40  62  92 129 162 208 261 309 373
#     4  10  22  35  64  93 125 158 211 258 305 372
#     4  10  21  39  63  93 123 161 211 260 311 365
#     4  11  22  40  65  93 127 166 210 261 312 369
#     4  11  25  42  61  95 132 164 207 262 314 377
#
# _framework density 20.988264000000001
#
# number of rings (size 3 to 8) (size 9 to 14) (size 15 to 20)
#    0.000    1.250    1.250    5.625    5.250    0.000 
#    0.000    0.625    0.000    0.000    0.000    0.000 
#    0.000    0.000    0.000    0.000    0.000    0.000 
#
# Total GULP energy -198353.933285 kJ/mol
# GULP energy per Si atom -12397.120830 kJ/mol
# Density = 2.094049 g / cm^3
# Si number density = 20.988264 Si / 1000 Ang^3
#
#
#
# Elastic Constant Matrix: (Units=GPa)
#
#
# Indices 1 2 3 4 5 6 
#
# 1 101.0481 25.8973 54.1255 8.6396 -3.7384 -14.9839
# 2 25.8973 96.1742 22.2317 -4.9963 -8.6564 4.1882
# 3 54.1255 22.2317 112.7391 -3.2548 -5.8737 -0.1784
# 4 8.6396 -4.9963 -3.2548 27.2843 -5.3328 -7.1973
# 5 -3.7384 -8.6564 -5.8737 -5.3328 33.0680 -5.6299
# 6 -14.9839 4.1882 -0.1784 -7.1973 -5.6299 38.0320
#
#
#
# Elastic Compliance Matrix: (Units=1/GPa)
#
#
# Indices 1 2 3 4 5 6 
#
# 1 0.015726 -0.003111 -0.007079 -0.004961 -0.000150 0.005544
# 2 -0.003111 0.011872 -0.000603 0.003267 0.002923 -0.001485
# 3 -0.007079 -0.000603 0.012564 0.003458 0.001528 -0.001783
# 4 -0.004961 0.003267 0.003458 0.042888 0.009044 0.007157
# 5 -0.000150 0.002923 0.001528 0.009044 0.033798 0.006341
# 6 0.005544 -0.001485 -0.001783 0.007157 0.006341 0.030926
#
#
# Mechanical properties :
#
#
# Convention : Reuss Voigt Hill
#
# Bulk Modulus (GPa) = 53.83188 57.16337 55.49762
# Shear Modulus (GPa) = 28.48136 33.52397 31.00266
#
# Velocity S-wave (km/s) = 3.68776 4.00092 3.84753
# Velocity P-wave (km/s) = 6.62095 6.97411 6.79982
#
# Compressibility (1/GPa) = 0.01857635
#
# Stress axis : x y z
#
# Youngs Moduli (GPa) = 63.58920 84.22863 79.59182
#
# Poissons Ratio (x) = 0.26203 0.56341
# Poissons Ratio (y) = 0.19782 0.04803
# Poissons Ratio (z) = 0.45013 0.05082
#
# Static dielectric constant tensor:
#      x y z
#    x 3.963850 -0.086170 -0.132840 
#    y -0.086170 3.800800 -0.115300 
#    z -0.132840 -0.115300 3.884590 
# 
# 
# High freq. dielectric constant tensor:
#      x y z
#    x 1.823920 -0.008910 -0.011210 
#    y -0.008910 1.822790 -0.008760 
#    z -0.011210 -0.008760 1.827350 
# 
# From -- ./inp_files/279200.got.cif
#   From: 2010.06.25/outbox.cif.g09.slc.cpg/sg2_140_cif.got.tgz:279200.got - 2010.06.27 13:26:56.
