data_PCOD8011298
_publ_section_title
;
Structure prediction by ZEFSAII (Michael W. Deem and Ramdas Pophale) SiO2 
 PCOD8011298
Probable space group: P -1
;
_chemical_formula_sum "Si O2"
_cell_formula_units_Z 16
_cell_length_a 7.196870
_cell_length_b 23.380930
_cell_length_c 20.805571
_cell_angle_alpha 160.036622
_cell_angle_beta 131.544107
_cell_angle_gamma 58.752468
_cell_volume 816.211339
_symmetry_space_group_name_H-M "P -1"
_symmetry_group_IT_number 2
_symmetry_cell_setting 'triclinic'
loop_
_space_group_symop_operation_xyz
x,y,z
-x,-y,-z
loop_
_atom_site_type_symbol
_atom_site_label
_atom_site_fract_x
_atom_site_fract_y
_atom_site_fract_z
Si Si1 0.799741 0.013823 0.567453
Si Si2 0.591597 0.222874 0.437781
Si Si3 0.595762 0.323204 0.683761
Si Si4 0.392100 0.370438 0.426385
Si Si5 0.157856 0.881034 0.934500
Si Si6 0.573623 0.776175 0.854297
Si Si7 0.023743 0.084090 0.363088
Si Si8 0.080245 0.261309 0.781258
O O1 0.993539 0.198684 0.769138
O O2 0.500000 0.000000 0.500000
O O3 0.948579 0.012451 0.666763
O O4 0.772121 0.848940 0.338513
O O5 0.568054 0.330332 0.608481
O O6 0.518074 0.320913 0.465410
O O7 0.888747 0.226164 0.498297
O O8 0.381065 0.007864 0.170918
O O9 0.315047 0.203700 0.527007
O O10 0.803948 0.230889 0.648599
O O11 0.704870 0.529472 0.952325
O O12 0.537915 0.587212 0.680588
O O13 0.427502 0.249259 0.248750
O O14 0.065184 0.309479 0.290388
O O15 0.319275 0.829305 0.861291
O O16 0.000000 0.000000 0.000000
O O17 0.850279 0.932037 0.110340
#
# Coordination Sequence:
#
# PCOD8011298 Si02
#       8
#     2   2   2   2   2   2   2   2
#     4  11  22  43  65  90 122 162 197 249 312 361
#     4  10  22  37  60  89 124 160 204 251 297 365
#     4  11  22  41  60  92 121 156 205 251 298 363
#     4  10  21  39  59  88 122 161 202 248 308 351
#     4   9  19  36  61  83 114 163 196 243 300 352
#     4  10  22  38  60  90 122 156 205 255 294 365
#     4  11  23  39  62  91 123 161 203 250 304 360
#     4  10  24  40  64  89 120 159 202 250 303 365
#
# _framework density 19.602765999999999
#
# number of rings (size 3 to 8) (size 9 to 14) (size 15 to 20)
#    0.000    1.750    2.500    1.125    1.750    8.000 
#    0.000    0.000    0.000    0.000    0.000    0.000 
#    0.000    0.000    0.000    0.000    0.000    0.000 
#
# Total GULP energy -198352.874505 kJ/mol
# GULP energy per Si atom -12397.054657 kJ/mol
# Density = 1.955815 g / cm^3
# Si number density = 19.602766 Si / 1000 Ang^3
#
#
#
# Elastic Constant Matrix: (Units=GPa)
#
#
# Indices 1 2 3 4 5 6 
#
# 1 135.8264 53.4916 57.1419 -8.0668 10.0228 -4.9541
# 2 53.4916 104.3006 22.3472 -6.0843 0.3287 12.2018
# 3 57.1419 22.3472 84.2600 -2.2378 12.0673 -0.6834
# 4 -8.0668 -6.0843 -2.2378 23.2396 1.1471 -0.2050
# 5 10.0228 0.3287 12.0673 1.1471 28.3238 -0.6365
# 6 -4.9541 12.2018 -0.6834 -0.2050 -0.6365 37.2926
#
#
#
# Elastic Compliance Matrix: (Units=1/GPa)
#
#
# Indices 1 2 3 4 5 6 
#
# 1 0.012735 -0.005282 -0.006925 0.002475 -0.001521 0.003281
# 2 -0.005282 0.012968 -0.000086 0.001432 0.001587 -0.004911
# 3 -0.006925 -0.000086 0.017270 -0.000528 -0.004900 -0.000662
# 4 0.002475 0.001432 -0.000528 0.044335 -0.002462 0.000052
# 5 -0.001521 0.001587 -0.004900 -0.002462 0.038009 -0.000176
# 6 0.003281 -0.004911 -0.000662 0.000052 -0.000176 0.028843
#
#
# Mechanical properties :
#
#
# Convention : Reuss Voigt Hill
#
# Bulk Modulus (GPa) = 54.39099 65.59428 59.99264
# Shear Modulus (GPa) = 27.04521 30.53162 28.78842
#
# Velocity S-wave (km/s) = 3.71841 3.95082 3.83638
# Velocity P-wave (km/s) = 6.80017 7.37200 7.09185
#
# Compressibility (1/GPa) = 0.01838540
#
# Stress axis : x y z
#
# Youngs Moduli (GPa) = 78.52478 77.11147 57.90499
#
# Poissons Ratio (x) = 0.40731 0.40100
# Poissons Ratio (y) = 0.41477 0.00500
# Poissons Ratio (z) = 0.54380 0.00666
#
# Static dielectric constant tensor:
#      x y z
#    x 3.792680 -0.070570 0.152330 
#    y -0.070570 3.546840 -0.038250 
#    z 0.152330 -0.038250 3.730660 
# 
# 
# High freq. dielectric constant tensor:
#      x y z
#    x 1.777630 -0.003030 0.002020 
#    y -0.003030 1.761210 -0.000570 
#    z 0.002020 -0.000570 1.765570 
# 
# From -- ./inp_files/48895.got.cif
#   From: 2010.06.25/outbox.cif.g09.slc.cpg/sg2_25_cif.got.tgz:48895.got - 2010.06.27 13:26:56.
