data_PCOD8011527
_publ_section_title
;
Structure prediction by ZEFSAII (Michael W. Deem and Ramdas Pophale) SiO2 
 PCOD8011527
Probable space group: P -1
;
_chemical_formula_sum "Si O2"
_cell_formula_units_Z 16
_cell_length_a 8.747431
_cell_length_b 25.727636
_cell_length_c 25.229265
_cell_angle_alpha 168.791703
_cell_angle_beta 137.688220
_cell_angle_gamma 43.424964
_cell_volume 742.916179
_symmetry_space_group_name_H-M "P -1"
_symmetry_group_IT_number 2
_symmetry_cell_setting 'triclinic'
loop_
_space_group_symop_operation_xyz
x,y,z
-x,-y,-z
loop_
_atom_site_type_symbol
_atom_site_label
_atom_site_fract_x
_atom_site_fract_y
_atom_site_fract_z
Si Si1 0.958927 0.166046 0.758304
Si Si2 0.747745 0.984078 0.898867
Si Si3 0.249413 0.657705 0.303541
Si Si4 0.821976 0.482113 0.666158
Si Si5 0.547053 0.166088 0.579093
Si Si6 0.252329 0.659823 0.011764
Si Si7 0.390204 0.018314 0.933310
Si Si8 0.537432 0.492404 0.307942
O O1 0.746529 0.069262 0.572451
O O2 0.885986 0.248578 0.880788
O O3 0.132002 0.917090 0.559578
O O4 0.070627 0.418824 0.010284
O O5 0.593488 0.989525 0.916041
O O6 0.726177 0.707823 0.586144
O O7 0.669287 0.211813 0.065286
O O8 0.000000 0.000000 0.000000
O O9 0.353760 0.739258 0.356236
O O10 0.450349 0.541919 0.275866
O O11 0.801009 0.200936 0.348996
O O12 0.680139 0.489343 0.691362
O O13 0.082437 0.545135 0.809104
O O14 0.729393 0.696319 0.815041
O O15 0.384563 0.913309 0.275548
O O16 0.420482 0.414680 0.823799
O O17 0.500000 0.000000 0.000000
#
# Coordination Sequence:
#
# PCOD8011527 Si02
#       8
#     2   2   2   2   2   2   2   2
#     4  12  24  43  72  91 127 184 226 259 325 409
#     4  10  21  39  62  90 121 156 204 257 316 375
#     4  12  24  43  68  96 131 172 227 267 327 388
#     4  10  21  39  65  87 122 169 211 253 309 387
#     4  12  26  43  62 102 138 165 214 292 332 366
#     4  12  24  43  66  96 135 171 223 269 330 385
#     4  10  21  39  62  91 120 158 208 256 311 384
#     4  10  21  39  65  88 120 166 213 253 304 390
#
# _framework density 21.536750000000001
#
# number of rings (size 3 to 8) (size 9 to 14) (size 15 to 20)
#    0.000    1.000    1.250    6.000    3.500    0.000 
#    6.750    0.000    0.000    0.000    0.000    0.000 
#    0.000    0.000    0.000    0.000    0.000    0.000 
#
# Total GULP energy -198477.239301 kJ/mol
# GULP energy per Si atom -12404.827456 kJ/mol
# Density = 2.148773 g / cm^3
# Si number density = 21.536750 Si / 1000 Ang^3
#
#
#
# Elastic Constant Matrix: (Units=GPa)
#
#
# Indices 1 2 3 4 5 6 
#
# 1 52.7545 43.5123 41.0763 -6.7871 5.8881 -0.8001
# 2 43.5123 125.8826 32.0187 -12.6628 8.4399 8.2564
# 3 41.0763 32.0187 126.8260 -5.7757 23.2625 -10.5399
# 4 -6.7871 -12.6628 -5.7757 39.5518 -8.7747 5.3690
# 5 5.8881 8.4399 23.2625 -8.7747 31.1067 -1.9245
# 6 -0.8001 8.2564 -10.5399 5.3690 -1.9245 30.7493
#
#
#
# Elastic Compliance Matrix: (Units=1/GPa)
#
#
# Indices 1 2 3 4 5 6 
#
# 1 0.033609 -0.009331 -0.009079 0.002238 0.003597 0.000102
# 2 -0.009331 0.011729 0.000032 0.002466 -0.000984 -0.003873
# 3 -0.009079 0.000032 0.012512 -0.002019 -0.007975 0.003897
# 4 0.002238 0.002466 -0.002019 0.028763 0.008171 -0.005807
# 5 0.003597 -0.000984 -0.007975 0.008171 0.039922 -0.001304
# 6 0.000102 -0.003873 0.003897 -0.005807 -0.001304 0.035832
#
#
# Mechanical properties :
#
#
# Convention : Reuss Voigt Hill
#
# Bulk Modulus (GPa) = 47.40593 59.85308 53.62951
# Shear Modulus (GPa) = 24.25365 32.87194 28.56279
#
# Velocity S-wave (km/s) = 3.35946 3.91105 3.64570
# Velocity P-wave (km/s) = 6.09158 6.94597 6.53276
#
# Compressibility (1/GPa) = 0.02109441
#
# Stress axis : x y z
#
# Youngs Moduli (GPa) = 29.75405 85.25769 79.92274
#
# Poissons Ratio (x) = 0.79551 0.72561
# Poissons Ratio (y) = 0.27762 -0.00253
# Poissons Ratio (z) = 0.27013 -0.00270
#
# Static dielectric constant tensor:
#      x y z
#    x 3.732330 -0.090820 0.143380 
#    y -0.090820 3.917640 -0.088300 
#    z 0.143380 -0.088300 3.983640 
# 
# 
# High freq. dielectric constant tensor:
#      x y z
#    x 1.827340 -0.001640 0.008820 
#    y -0.001640 1.858270 0.000200 
#    z 0.008820 0.000200 1.867830 
# 
# From -- ./inp_files/227991.got.cif
#   From: 2010.06.25/outbox.cif.g09.slc.cpg/sg2_114_cif.got.tgz:227991.got - 2010.06.27 13:26:56.
