data_PCOD8011347
_publ_section_title
;
Structure prediction by ZEFSAII (Michael W. Deem and Ramdas Pophale) SiO2 
 PCOD8011347
Probable space group: P -1
;
_chemical_formula_sum "Si O2"
_cell_formula_units_Z 14
_cell_length_a 8.055926
_cell_length_b 15.076268
_cell_length_c 7.789321
_cell_angle_alpha 48.465939
_cell_angle_beta 66.407516
_cell_angle_gamma 57.553960
_cell_volume 596.137163
_symmetry_space_group_name_H-M "P -1"
_symmetry_group_IT_number 2
_symmetry_cell_setting 'triclinic'
loop_
_space_group_symop_operation_xyz
x,y,z
-x,-y,-z
loop_
_atom_site_type_symbol
_atom_site_label
_atom_site_fract_x
_atom_site_fract_y
_atom_site_fract_z
Si Si1 0.627081 0.653205 0.548280
Si Si2 0.565184 0.767486 0.047873
Si Si3 0.805493 0.005176 0.979323
Si Si4 0.747749 0.122046 0.476859
Si Si5 0.617307 0.414560 0.716328
Si Si6 0.057504 0.259015 0.612596
Si Si7 0.125971 0.144685 0.356562
O O1 0.610149 0.699012 0.300773
O O2 0.455627 0.754255 0.606494
O O3 0.620343 0.511273 0.743776
O O4 0.836217 0.640863 0.555887
O O5 0.491703 0.679739 0.063660
O O6 0.391591 0.908624 0.947800
O O7 0.760256 0.776834 0.880076
O O8 0.817132 0.858921 0.159850
O O9 0.794169 0.056601 0.727761
O O10 0.000000 0.000000 0.000000
O O11 0.926963 0.166099 0.302159
O O12 0.743090 0.010963 0.490790
O O13 0.500000 0.500000 0.500000
O O14 0.834827 0.326653 0.676460
O O15 0.060252 0.200227 0.500223
#
# Coordination Sequence:
#
# PCOD8011347 Si02
#       7
#     2   2   2   2   2   2   2
#     4  10  22  41  63  85 114 161 206 237 278 356
#     4  10  21  39  60  88 119 157 194 239 300 344
#     4  11  19  37  61  87 117 154 199 240 281 352
#     4  10  22  41  58  87 125 157 189 238 304 349
#     4  10  21  41  64  82 116 160 204 241 281 349
#     4  12  22  38  63  92 117 152 201 244 293 347
#     4  11  22  37  58  91 124 153 186 245 309 346
#
# _framework density 23.484527
#
# number of rings (size 3 to 8) (size 9 to 14) (size 15 to 20)
#    0.000    1.429    2.857    3.857    0.000    4.571 
#    0.000    7.143    0.000    0.000    0.000    0.000 
#    0.000    0.000    0.000    0.000    0.000    0.000 
#
# Total GULP energy -173572.066004 kJ/mol
# GULP energy per Si atom -12398.004715 kJ/mol
# Density = 2.343107 g / cm^3
# Si number density = 23.484527 Si / 1000 Ang^3
#
#
#
# Elastic Constant Matrix: (Units=GPa)
#
#
# Indices 1 2 3 4 5 6 
#
# 1 99.6773 26.3383 28.0333 -12.0489 -42.0098 11.9318
# 2 26.3383 112.6849 27.7210 -22.5751 -21.1842 13.2780
# 3 28.0333 27.7210 46.1755 -11.9277 -30.8855 -11.6807
# 4 -12.0489 -22.5751 -11.9277 26.7088 3.5890 -8.8664
# 5 -42.0098 -21.1842 -30.8855 3.5890 49.8478 -6.1151
# 6 11.9318 13.2780 -11.6807 -8.8664 -6.1151 41.6074
#
#
#
# Elastic Compliance Matrix: (Units=1/GPa)
#
#
# Indices 1 2 3 4 5 6 
#
# 1 0.016456 -0.000109 -0.000607 0.004679 0.012868 -0.001967
# 2 -0.000109 0.012323 -0.007502 0.005450 -0.000499 -0.004920
# 3 -0.000607 -0.007502 0.073780 0.032587 0.044172 0.036717
# 4 0.004679 0.005450 0.032587 0.063068 0.024748 0.023144
# 5 0.012868 -0.000499 0.044172 0.024748 0.059081 0.022827
# 6 -0.001967 -0.004920 0.036717 0.023144 0.022827 0.044763
#
#
# Mechanical properties :
#
#
# Convention : Reuss Voigt Hill
#
# Bulk Modulus (GPa) = 11.61133 46.96921 29.29027
# Shear Modulus (GPa) = 15.89243 35.39581 25.64412
#
# Velocity S-wave (km/s) = 2.60420 3.88648 3.30806
# Velocity P-wave (km/s) = 3.74132 6.33901 5.20483
#
# Compressibility (1/GPa) = 0.08612280
#
# Stress axis : x y z
#
# Youngs Moduli (GPa) = 60.76736 81.14824 13.55381
#
# Poissons Ratio (x) = 0.00883 0.00823
# Poissons Ratio (y) = 0.00661 0.10169
# Poissons Ratio (z) = 0.03689 0.60880
#
# Static dielectric constant tensor:
#      x y z
#    x 4.361110 0.590870 -0.441510 
#    y 0.590870 4.234050 -0.587370 
#    z -0.441510 -0.587370 4.233330 
# 
# 
# High freq. dielectric constant tensor:
#      x y z
#    x 1.939490 0.007070 -0.025470 
#    y 0.007070 1.938350 -0.005160 
#    z -0.025470 -0.005160 1.901750 
# 
# From -- ./inp_files/199319.got.cif
#   From: 2010.06.25/outbox.cif.g09.slc.cpg/sg2_100_cif.got.tgz:199319.got - 2010.06.27 13:26:56.
