data_PCOD8011700
_publ_section_title
;
Structure prediction by ZEFSAII (Michael W. Deem and Ramdas Pophale) SiO2 
 PCOD8011700
Probable space group: P -1
;
_chemical_formula_sum "Si O2"
_cell_formula_units_Z 16
_cell_length_a 9.115012
_cell_length_b 16.236238
_cell_length_c 8.651515
_cell_angle_alpha 63.298888
_cell_angle_beta 115.939533
_cell_angle_gamma 71.132576
_cell_volume 784.128930
_symmetry_space_group_name_H-M "P -1"
_symmetry_group_IT_number 2
_symmetry_cell_setting 'triclinic'
loop_
_space_group_symop_operation_xyz
x,y,z
-x,-y,-z
loop_
_atom_site_type_symbol
_atom_site_label
_atom_site_fract_x
_atom_site_fract_y
_atom_site_fract_z
Si Si1 0.734852 0.929062 0.734231
Si Si2 0.603261 0.320890 0.284063
Si Si3 0.559453 0.718336 0.477169
Si Si4 0.188056 0.989102 0.018758
Si Si5 0.071749 0.471232 0.381296
Si Si6 0.098648 0.941893 0.433429
Si Si7 0.188450 0.581644 0.824357
Si Si8 0.912848 0.679012 0.897952
O O1 0.871092 0.791364 0.864912
O O2 0.500000 0.000000 0.500000
O O3 0.747898 0.940648 0.917057
O O4 0.835643 0.985385 0.669255
O O5 0.576923 0.306788 0.465601
O O6 0.687742 0.198983 0.336789
O O7 0.776530 0.337341 0.321205
O O8 0.383518 0.438797 0.011345
O O9 0.401335 0.849889 0.217812
O O10 0.675952 0.620283 0.472412
O O11 0.718362 0.711204 0.677892
O O12 0.000000 0.000000 0.000000
O O13 0.086905 0.046851 0.755164
O O14 0.000000 0.500000 0.500000
O O15 0.014965 0.389177 0.372612
O O16 0.950821 0.592740 0.124802
O O17 0.000000 0.000000 0.500000
O O18 0.128498 0.615916 0.949000
#
# Coordination Sequence:
#
# PCOD8011700 Si02
#       8
#     2   2   2   2   2   2   2   2
#     4  11  21  38  65  92 120 163 213 252 310 380
#     4  11  19  38  68  89 121 161 214 256 312 379
#     4  11  19  42  67  85 122 170 208 260 317 375
#     4  10  21  39  63  93 125 165 209 257 316 376
#     4  11  24  40  59  92 125 163 210 264 312 369
#     4  11  24  41  63  92 132 167 204 259 321 374
#     4  10  22  37  65  92 117 165 214 254 312 380
#     4  11  20  40  65  88 126 165 209 257 322 370
#
# _framework density 20.404810000000001
#
# number of rings (size 3 to 8) (size 9 to 14) (size 15 to 20)
#    0.000    1.250    6.250    1.500    0.000    2.000 
#    0.000    2.500    0.000    0.000    0.000    0.000 
#    0.000    0.000    0.000    0.000    0.000    0.000 
#
# Total GULP energy -198225.736432 kJ/mol
# GULP energy per Si atom -12389.108527 kJ/mol
# Density = 2.035837 g / cm^3
# Si number density = 20.404810 Si / 1000 Ang^3
#
#
#
# Elastic Constant Matrix: (Units=GPa)
#
#
# Indices 1 2 3 4 5 6 
#
# 1 112.1135 61.2725 33.1276 -2.0392 -13.7280 -12.0472
# 2 61.2725 148.7880 55.3855 -0.3092 -6.1456 -21.0642
# 3 33.1276 55.3855 80.4152 0.6589 7.3543 -12.6046
# 4 -2.0392 -0.3092 0.6589 39.7688 -0.9171 0.4607
# 5 -13.7280 -6.1456 7.3543 -0.9171 27.9112 -1.1533
# 6 -12.0472 -21.0642 -12.6046 0.4607 -1.1533 43.2652
#
#
#
# Elastic Compliance Matrix: (Units=1/GPa)
#
#
# Indices 1 2 3 4 5 6 
#
# 1 0.012763 -0.003672 -0.003160 0.000813 0.006370 0.001006
# 2 -0.003672 0.010833 -0.005736 0.000011 0.002200 0.002639
# 3 -0.003160 -0.005736 0.018641 -0.000711 -0.007688 0.001561
# 4 0.000813 0.000011 -0.000711 0.025234 0.001410 -0.000206
# 5 0.006370 0.002200 -0.007688 0.001410 0.041587 0.001698
# 6 0.001006 0.002639 0.001561 -0.000206 0.001698 0.025181
#
#
# Mechanical properties :
#
#
# Convention : Reuss Voigt Hill
#
# Bulk Modulus (GPa) = 58.47623 71.20978 64.84301
# Shear Modulus (GPa) = 30.28902 34.95779 32.62341
#
# Velocity S-wave (km/s) = 3.85698 4.14359 4.00285
# Velocity P-wave (km/s) = 6.96816 7.60702 7.29459
#
# Compressibility (1/GPa) = 0.01710097
#
# Stress axis : x y z
#
# Youngs Moduli (GPa) = 78.34980 92.31084 53.64423
#
# Poissons Ratio (x) = 0.33901 0.16951
# Poissons Ratio (y) = 0.28774 0.30769
# Poissons Ratio (z) = 0.24758 0.52948
#
# Static dielectric constant tensor:
#      x y z
#    x 4.102510 -0.198480 0.095620 
#    y -0.198480 4.155100 0.137430 
#    z 0.095620 0.137430 3.863540 
# 
# 
# High freq. dielectric constant tensor:
#      x y z
#    x 1.801420 -0.010920 0.005200 
#    y -0.010920 1.798380 -0.018800 
#    z 0.005200 -0.018800 1.784360 
# 
# From -- ./inp_files/206038.got.cif
#   From: 2010.06.25/outbox.cif.g09.slc.cpg/sg2_104_cif.got.tgz:206038.got - 2010.06.27 13:26:56.
