data_PCOD8011746
_publ_section_title
;
Structure prediction by ZEFSAII (Michael W. Deem and Ramdas Pophale) SiO2 
 PCOD8011746
Probable space group: P -1
;
_chemical_formula_sum "Si O2"
_cell_formula_units_Z 14
_cell_length_a 10.571784
_cell_length_b 11.263723
_cell_length_c 5.030698
_cell_angle_alpha 68.872419
_cell_angle_beta 96.850762
_cell_angle_gamma 77.741435
_cell_volume 533.287161
_symmetry_space_group_name_H-M "P -1"
_symmetry_group_IT_number 2
_symmetry_cell_setting 'triclinic'
loop_
_space_group_symop_operation_xyz
x,y,z
-x,-y,-z
loop_
_atom_site_type_symbol
_atom_site_label
_atom_site_fract_x
_atom_site_fract_y
_atom_site_fract_z
Si Si1 0.420573 0.211398 0.127137
Si Si2 0.832387 0.582268 0.783237
Si Si3 0.029013 0.363498 0.774914
Si Si4 0.817352 0.247237 0.645585
Si Si5 0.367940 0.472749 0.583430
Si Si6 0.273800 0.157808 0.654834
Si Si7 0.269491 0.879641 0.765963
O O1 0.358690 0.194782 0.409354
O O2 0.577185 0.147833 0.250085
O O3 0.393964 0.364307 0.910467
O O4 0.363925 0.127005 0.963843
O O5 0.927310 0.433345 0.940281
O O6 0.687793 0.575057 0.662992
O O7 0.850110 0.699387 0.461024
O O8 0.832146 0.666269 0.993326
O O9 0.969685 0.244042 0.757806
O O10 0.000000 0.500000 0.500000
O O11 0.736060 0.397256 0.427144
O O12 0.816231 0.153876 0.469272
O O13 0.745546 0.200196 0.911935
O O14 0.500000 0.500000 0.500000
O O15 0.212907 0.037283 0.677849
#
# Coordination Sequence:
#
# PCOD8011746 Si02
#       7
#     2   2   2   2   2   2   2
#     4  11  23  39  66  94 132 176 215 255 317 385
#     4   9  23  40  65  92 124 167 217 261 320 375
#     4  10  23  42  69  90 124 167 217 274 321 381
#     4  11  26  40  65  96 129 170 213 266 333 371
#     4  10  21  39  63  99 131 161 205 270 326 380
#     4  11  24  42  65  94 129 176 220 253 310 391
#     4  12  24  43  62  94 137 173 212 261 315 386
#
# _framework density 26.252272000000001
#
# number of rings (size 3 to 8) (size 9 to 14) (size 15 to 20)
#    0.000    1.429    1.429    2.571   14.000    1.714 
#    0.000    1.429    0.000    0.000    0.000    0.000 
#    0.000    0.000    0.000    0.000    0.000    0.000 
#
# Total GULP energy -173451.514144 kJ/mol
# GULP energy per Si atom -12389.393867 kJ/mol
# Density = 2.619252 g / cm^3
# Si number density = 26.252272 Si / 1000 Ang^3
#
#
#
# Elastic Constant Matrix: (Units=GPa)
#
#
# Indices 1 2 3 4 5 6 
#
# 1 93.3062 58.1373 23.8001 8.6237 -0.5607 13.1225
# 2 58.1373 193.6223 48.2154 14.6097 12.1227 27.1742
# 3 23.8001 48.2154 85.1582 29.4178 -3.8728 3.9860
# 4 8.6237 14.6097 29.4178 50.8820 4.3566 11.5553
# 5 -0.5607 12.1227 -3.8728 4.3566 35.2512 5.2609
# 6 13.1225 27.1742 3.9860 11.5553 5.2609 42.3748
#
#
#
# Elastic Compliance Matrix: (Units=1/GPa)
#
#
# Indices 1 2 3 4 5 6 
#
# 1 0.013605 -0.003485 -0.001658 -0.000023 0.001535 -0.002007
# 2 -0.003485 0.007759 -0.003975 0.001731 -0.002831 -0.003643
# 3 -0.001658 -0.003975 0.017972 -0.010139 0.004025 0.003637
# 4 -0.000023 0.001731 -0.010139 0.026955 -0.003996 -0.007004
# 5 0.001535 -0.002831 0.004025 -0.003996 0.030562 -0.001744
# 6 -0.002007 -0.003643 0.003637 -0.007004 -0.001744 0.028341
#
#
# Mechanical properties :
#
#
# Convention : Reuss Voigt Hill
#
# Bulk Modulus (GPa) = 47.39206 70.26581 58.82893
# Shear Modulus (GPa) = 33.23075 41.83051 37.53063
#
# Velocity S-wave (km/s) = 3.56170 3.99608 3.78513
# Velocity P-wave (km/s) = 5.91659 6.93651 6.44675
#
# Compressibility (1/GPa) = 0.02110058
#
# Stress axis : x y z
#
# Youngs Moduli (GPa) = 73.50090 128.88394 55.64178
#
# Poissons Ratio (x) = 0.44917 0.09224
# Poissons Ratio (y) = 0.25616 0.22118
# Poissons Ratio (z) = 0.12184 0.51232
#
# Static dielectric constant tensor:
#      x y z
#    x 1.420020 2.924050 0.961410 
#    y 2.924050 2.731210 -0.611210 
#    z 0.961410 -0.611210 4.989320 
# 
# 
# High freq. dielectric constant tensor:
#      x y z
#    x 2.068420 -0.000200 -0.007790 
#    y -0.000200 2.066380 0.019230 
#    z -0.007790 0.019230 2.063360 
# 
# From -- ./inp_files/65686.got.cif
#   From: 2010.06.25/outbox.cif.g09.slc.cpg/sg2_33_cif.got.tgz:65686.got - 2010.06.27 13:26:56.
