data_PCOD8011154
_publ_section_title
;
Structure prediction by ZEFSAII (Michael W. Deem and Ramdas Pophale) SiO2 
 PCOD8011154
Probable space group: P -1
;
_chemical_formula_sum "Si O2"
_cell_formula_units_Z 16
_cell_length_a 24.096781
_cell_length_b 12.477058
_cell_length_c 11.204454
_cell_angle_alpha 134.684264
_cell_angle_beta 43.234695
_cell_angle_gamma 161.611467
_cell_volume 726.833020
_symmetry_space_group_name_H-M "P -1"
_symmetry_group_IT_number 2
_symmetry_cell_setting 'triclinic'
loop_
_space_group_symop_operation_xyz
x,y,z
-x,-y,-z
loop_
_atom_site_type_symbol
_atom_site_label
_atom_site_fract_x
_atom_site_fract_y
_atom_site_fract_z
Si Si1 0.926992 0.235366 0.607861
Si Si2 0.817949 0.766337 0.541868
Si Si3 0.802355 0.464569 0.183438
Si Si4 0.695464 0.221854 0.619429
Si Si5 0.907776 0.272161 0.078616
Si Si6 0.519864 0.922503 0.016169
Si Si7 0.394332 0.182188 0.366063
Si Si8 0.416331 0.077161 0.693980
O O1 0.012283 0.519818 0.764169
O O2 0.086723 0.407351 0.428892
O O3 0.833133 0.966489 0.639717
O O4 0.798872 0.079146 0.581099
O O5 0.787928 0.618329 0.352448
O O6 0.635048 0.455801 0.668790
O O7 0.000000 0.000000 0.500000
O O8 0.718944 0.281746 0.043426
O O9 0.684928 0.184570 0.250047
O O10 0.018657 0.777530 0.083340
O O11 0.632082 0.282800 0.809403
O O12 0.624976 0.971029 0.618999
O O13 0.615470 0.065180 0.490427
O O14 0.687110 0.930374 0.155693
O O15 0.000000 0.500000 0.000000
O O16 0.503695 0.724433 0.835823
O O17 0.500000 0.000000 0.000000
O O18 0.500000 0.500000 0.500000
#
# Coordination Sequence:
#
# PCOD8011154 Si02
#       8
#     2   2   2   2   2   2   2   2
#     4  11  23  40  63  91 130 169 213 259 316 377
#     4  12  24  37  60  98 131 166 214 261 315 372
#     4  11  21  41  67  91 132 169 212 259 317 388
#     4  10  21  42  66  94 125 168 215 253 321 385
#     4   9  19  39  62  90 119 168 211 255 315 383
#     4  10  22  39  68  93 124 168 213 254 320 375
#     4  11  23  42  68  93 125 164 212 268 319 379
#     4  10  21  38  68  91 126 170 210 259 324 376
#
# _framework density 22.013309
#
# number of rings (size 3 to 8) (size 9 to 14) (size 15 to 20)
#    0.000    1.500    2.500    3.750    3.500    0.000 
#    0.000   10.000    2.750    0.000    0.000    0.000 
#    0.000    0.000    0.000    0.000    0.000    0.000 
#
# Total GULP energy -198223.737297 kJ/mol
# GULP energy per Si atom -12388.983581 kJ/mol
# Density = 2.196321 g / cm^3
# Si number density = 22.013309 Si / 1000 Ang^3
#
#
#
# Elastic Constant Matrix: (Units=GPa)
#
#
# Indices 1 2 3 4 5 6 
#
# 1 81.8048 21.7102 14.5027 -3.0736 5.6641 22.1238
# 2 21.7102 93.4035 39.8343 -20.6491 -9.2869 23.6478
# 3 14.5027 39.8343 108.5299 -18.3897 -7.9039 15.6829
# 4 -3.0736 -20.6491 -18.3897 37.8098 8.4308 -12.3052
# 5 5.6641 -9.2869 -7.9039 8.4308 37.0508 -4.3838
# 6 22.1238 23.6478 15.6829 -12.3052 -4.3838 37.0412
#
#
#
# Elastic Compliance Matrix: (Units=1/GPa)
#
#
# Indices 1 2 3 4 5 6 
#
# 1 0.015404 -0.001870 -0.000725 -0.002218 -0.003521 -0.008853
# 2 -0.001870 0.015191 -0.003708 0.004198 0.001707 -0.005415
# 3 -0.000725 -0.003708 0.011368 0.002958 0.000823 -0.000933
# 4 -0.002218 0.004198 0.002958 0.033654 -0.004687 0.008017
# 5 -0.003521 0.001707 0.000823 -0.004687 0.029506 0.002600
# 6 -0.008853 -0.005415 -0.000933 0.008017 0.002600 0.039107
#
#
# Mechanical properties :
#
#
# Convention : Reuss Voigt Hill
#
# Bulk Modulus (GPa) = 34.06361 48.42585 41.24473
# Shear Modulus (GPa) = 30.00839 36.22642 33.11740
#
# Velocity S-wave (km/s) = 3.69615 4.06107 3.88290
# Velocity P-wave (km/s) = 5.80716 6.63596 6.23534
#
# Compressibility (1/GPa) = 0.02935684
#
# Stress axis : x y z
#
# Youngs Moduli (GPa) = 64.91920 65.82929 87.96852
#
# Poissons Ratio (x) = 0.12312 0.06377
# Poissons Ratio (y) = 0.12142 0.32615
# Poissons Ratio (z) = 0.04706 0.24407
#
# Static dielectric constant tensor:
#      x y z
#    x 4.074610 0.391380 -0.060430 
#    y 0.391380 3.903770 -0.520330 
#    z -0.060430 -0.520330 4.778140 
# 
# 
# High freq. dielectric constant tensor:
#      x y z
#    x 1.873540 0.028040 -0.006970 
#    y 0.028040 1.830560 -0.022420 
#    z -0.006970 -0.022420 1.883790 
# 
# From -- ./inp_files/226330.got.cif
#   From: 2010.06.25/outbox.cif.g09.slc.cpg/sg2_114_cif.got.tgz:226330.got - 2010.06.27 13:26:56.
