data_PCOD8011096
_publ_section_title
;
Structure prediction by ZEFSAII (Michael W. Deem and Ramdas Pophale) SiO2 
 PCOD8011096
Probable space group: P -1
;
_chemical_formula_sum "Si O2"
_cell_formula_units_Z 16
_cell_length_a 14.955144
_cell_length_b 14.281576
_cell_length_c 8.961185
_cell_angle_alpha 138.594282
_cell_angle_beta 39.116907
_cell_angle_gamma 142.963890
_cell_volume 682.934257
_symmetry_space_group_name_H-M "P -1"
_symmetry_group_IT_number 2
_symmetry_cell_setting 'triclinic'
loop_
_space_group_symop_operation_xyz
x,y,z
-x,-y,-z
loop_
_atom_site_type_symbol
_atom_site_label
_atom_site_fract_x
_atom_site_fract_y
_atom_site_fract_z
Si Si1 0.587697 0.318864 0.710931
Si Si2 0.717121 0.675690 0.902119
Si Si3 0.955112 0.200959 0.037251
Si Si4 0.254175 0.180611 0.651013
Si Si5 0.911935 0.155655 0.378865
Si Si6 0.444213 0.766178 0.855860
Si Si7 0.815159 0.417189 0.811503
Si Si8 0.366710 0.897350 0.833167
O O1 0.662354 0.485834 0.713419
O O2 0.717348 0.342765 0.696329
O O3 0.555967 0.165080 0.466756
O O4 0.408931 0.278574 0.959222
O O5 0.904188 0.800282 0.756142
O O6 0.701617 0.686962 0.115794
O O7 0.092789 0.160365 0.752060
O O8 0.035047 0.398017 0.185401
O O9 0.889243 0.119036 0.187260
O O10 0.810172 0.131393 0.020804
O O11 0.405814 0.249169 0.421875
O O12 0.220377 0.007398 0.555733
O O13 0.890489 0.306653 0.633163
O O14 0.345290 0.799435 0.896317
O O15 0.311814 0.597271 0.910910
O O16 0.508767 0.908395 0.069318
#
# Coordination Sequence:
#
# PCOD8011096 Si02
#       8
#     2   2   2   2   2   2   2   2
#     4  11  21  40  70 100 131 170 226 282 327 396
#     4  10  21  38  67 102 130 168 220 282 342 378
#     4  11  23  42  71 103 130 175 229 284 333 391
#     4  11  23  45  66  94 142 180 217 271 344 405
#     4  11  21  39  69 100 134 169 220 287 332 387
#     4  11  27  45  62  97 144 188 212 270 341 413
#     4  12  24  42  71 105 136 171 229 280 336 395
#     4  11  23  45  67  94 141 179 229 271 331 404
#
# _framework density 23.428315000000001
#
# number of rings (size 3 to 8) (size 9 to 14) (size 15 to 20)
#    0.000    1.000    5.000    4.125    0.000    4.000 
#    0.000    2.500    0.000    0.000    0.000    0.000 
#    0.000    0.000    0.000    0.000    0.000    0.000 
#
# Total GULP energy -198431.899121 kJ/mol
# GULP energy per Si atom -12401.993695 kJ/mol
# Density = 2.337499 g / cm^3
# Si number density = 23.428315 Si / 1000 Ang^3
#
#
#
# Elastic Constant Matrix: (Units=GPa)
#
#
# Indices 1 2 3 4 5 6 
#
# 1 106.0725 19.8999 13.3930 1.3853 -22.4918 24.9424
# 2 19.8999 44.2473 15.2816 -6.1311 2.6061 4.1374
# 3 13.3930 15.2816 90.5653 -4.6390 -17.7778 -2.4706
# 4 1.3853 -6.1311 -4.6390 35.8797 -0.8466 -5.4103
# 5 -22.4918 2.6061 -17.7778 -0.8466 33.5518 -1.9340
# 6 24.9424 4.1374 -2.4706 -5.4103 -1.9340 23.3725
#
#
#
# Elastic Compliance Matrix: (Units=1/GPa)
#
#
# Indices 1 2 3 4 5 6 
#
# 1 0.017252 -0.007478 0.000219 -0.004234 0.011168 -0.017119
# 2 -0.007478 0.028805 -0.005375 0.004673 -0.009832 0.002581
# 3 0.000219 -0.005375 0.013654 0.001506 0.008020 0.003173
# 4 -0.004234 0.004673 0.001506 0.030642 -0.001004 0.010860
# 5 0.011168 -0.009832 0.008020 -0.001004 0.041928 -0.006093
# 6 -0.017119 0.002581 0.003173 0.010860 -0.006093 0.062943
#
#
# Mechanical properties :
#
#
# Convention : Reuss Voigt Hill
#
# Bulk Modulus (GPa) = 29.03305 37.55934 33.29620
# Shear Modulus (GPa) = 21.55432 31.38150 26.46791
#
# Velocity S-wave (km/s) = 3.03646 3.66385 3.36481
# Velocity P-wave (km/s) = 4.97118 5.82793 5.41652
#
# Compressibility (1/GPa) = 0.03444350
#
# Stress axis : x y z
#
# Youngs Moduli (GPa) = 57.96513 34.71624 73.23690
#
# Poissons Ratio (x) = 0.25961 -0.01604
# Poissons Ratio (y) = 0.43347 0.39362
# Poissons Ratio (z) = -0.01269 0.18659
#
# Static dielectric constant tensor:
#      x y z
#    x 4.337700 0.188920 -0.335860 
#    y 0.188920 4.083350 0.005650 
#    z -0.335860 0.005650 4.177030 
# 
# 
# High freq. dielectric constant tensor:
#      x y z
#    x 1.922110 0.013380 -0.031210 
#    y 0.013380 1.920650 0.001830 
#    z -0.031210 0.001830 1.920450 
# 
# From -- ./inp_files/316032.got.cif
#   From: 2010.06.25/outbox.cif.g09.slc.cpg/sg2_159_cif.got.tgz:316032.got - 2010.06.27 13:26:56.
