data_PCOD8011211
_publ_section_title
;
Structure prediction by ZEFSAII (Michael W. Deem and Ramdas Pophale) SiO2 
 PCOD8011211
Probable space group: P -1
;
_chemical_formula_sum "Si O2"
_cell_formula_units_Z 14
_cell_length_a 8.216714
_cell_length_b 16.143009
_cell_length_c 12.010065
_cell_angle_alpha 31.105515
_cell_angle_beta 49.188840
_cell_angle_gamma 40.373609
_cell_volume 533.104967
_symmetry_space_group_name_H-M "P -1"
_symmetry_group_IT_number 2
_symmetry_cell_setting 'triclinic'
loop_
_space_group_symop_operation_xyz
x,y,z
-x,-y,-z
loop_
_atom_site_type_symbol
_atom_site_label
_atom_site_fract_x
_atom_site_fract_y
_atom_site_fract_z
Si Si1 0.121134 0.089041 0.106397
Si Si2 0.143051 0.014797 0.812878
Si Si3 0.020144 0.569006 0.666197
Si Si4 0.378958 0.034684 0.391690
Si Si5 0.950103 0.337055 0.115271
Si Si6 0.612722 0.720850 0.320789
Si Si7 0.454907 0.355877 0.323126
O O1 0.070365 0.180848 0.143487
O O2 0.315275 0.864672 0.280911
O O3 0.236108 0.171265 0.873672
O O4 0.872950 0.107151 0.140803
O O5 0.047767 0.222227 0.566210
O O6 0.434514 0.930078 0.811152
O O7 0.000000 0.000000 0.000000
O O8 0.799194 0.528727 0.768468
O O9 0.287322 0.433954 0.643486
O O10 0.024795 0.497329 0.874308
O O11 0.097968 0.216571 0.298655
O O12 0.500000 0.000000 0.500000
O O13 0.375933 0.856159 0.552345
O O14 0.647338 0.432363 0.149511
O O15 0.666429 0.616999 0.532973
#
# Coordination Sequence:
#
# PCOD8011211 Si02
#       7
#     2   2   2   2   2   2   2
#     4  10  21  40  69  99 128 176 223 273 330 398
#     4  11  25  43  67  98 140 176 218 272 344 394
#     4  10  24  42  65 102 139 169 219 284 329 390
#     4  11  24  42  66  99 135 172 226 277 332 396
#     4  11  23  43  72  97 131 179 230 273 327 394
#     4  10  21  38  70  98 131 167 230 268 326 390
#     4  11  21  40  68  98 130 179 223 269 331 402
#
# _framework density 26.261243
#
# number of rings (size 3 to 8) (size 9 to 14) (size 15 to 20)
#    0.000    1.429    1.429    3.857    6.000    1.714 
#    0.000    5.714    0.000    0.000    0.000    0.000 
#    0.000    0.000    0.000    0.000    0.000    0.000 
#
# Total GULP energy -173476.880610 kJ/mol
# GULP energy per Si atom -12391.205758 kJ/mol
# Density = 2.620147 g / cm^3
# Si number density = 26.261243 Si / 1000 Ang^3
#
#
#
# Elastic Constant Matrix: (Units=GPa)
#
#
# Indices 1 2 3 4 5 6 
#
# 1 62.9026 -4.9451 17.2312 1.7142 -14.7292 -12.3334
# 2 -4.9451 68.7625 5.2109 2.1337 -3.8447 -15.2185
# 3 17.2312 5.2109 110.8693 20.3694 6.0406 -4.2903
# 4 1.7142 2.1337 20.3694 27.4708 0.7258 -0.5848
# 5 -14.7292 -3.8447 6.0406 0.7258 37.1454 0.0724
# 6 -12.3334 -15.2185 -4.2903 -0.5848 0.0724 33.4172
#
#
#
# Elastic Compliance Matrix: (Units=1/GPa)
#
#
# Indices 1 2 3 4 5 6 
#
# 1 0.021345 0.004403 -0.003893 0.001161 0.009512 0.009383
# 2 0.004403 0.017237 -0.001226 -0.000605 0.003723 0.009299
# 3 -0.003893 -0.001226 0.011303 -0.007969 -0.003352 -0.000676
# 4 0.001161 -0.000605 -0.007969 0.042260 0.000868 -0.000132
# 5 0.009512 0.003723 -0.003352 0.000868 0.031597 0.004723
# 6 0.009383 0.009299 -0.000676 -0.000132 0.004723 0.037523
#
#
# Mechanical properties :
#
#
# Convention : Reuss Voigt Hill
#
# Bulk Modulus (GPa) = 20.63891 30.83649 25.73770
# Shear Modulus (GPa) = 27.95647 34.60917 31.28282
#
# Velocity S-wave (km/s) = 3.26629 3.63420 3.45514
# Velocity P-wave (km/s) = 4.70117 5.42011 5.07339
#
# Compressibility (1/GPa) = 0.04845217
#
# Stress axis : x y z
#
# Youngs Moduli (GPa) = 46.84831 58.01384 88.47400
#
# Poissons Ratio (x) = -0.25541 0.34442
# Poissons Ratio (y) = -0.20625 0.10850
# Poissons Ratio (z) = 0.18237 0.07114
#
# Static dielectric constant tensor:
#      x y z
#    x 4.805460 -0.282930 -0.002240 
#    y -0.282930 4.859630 0.186440 
#    z -0.002240 0.186440 4.868110 
# 
# 
# High freq. dielectric constant tensor:
#      x y z
#    x 2.041600 -0.005240 -0.000770 
#    y -0.005240 2.055140 0.011970 
#    z -0.000770 0.011970 2.061390 
# 
# From -- ./inp_files/245625.got.cif
#   From: 2010.06.25/outbox.cif.g09.slc.cpg/sg2_123_cif.got.tgz:245625.got - 2010.06.27 13:26:56.
