data_PCOD8011207
_publ_section_title
;
Structure prediction by ZEFSAII (Michael W. Deem and Ramdas Pophale) SiO2 
 PCOD8011207
Probable space group: P -1
;
_chemical_formula_sum "Si O2"
_cell_formula_units_Z 16
_cell_length_a 20.673542
_cell_length_b 9.786426
_cell_length_c 10.052850
_cell_angle_alpha 122.047964
_cell_angle_beta 58.538996
_cell_angle_gamma 152.422966
_cell_volume 791.156939
_symmetry_space_group_name_H-M "P -1"
_symmetry_group_IT_number 2
_symmetry_cell_setting 'triclinic'
loop_
_space_group_symop_operation_xyz
x,y,z
-x,-y,-z
loop_
_atom_site_type_symbol
_atom_site_label
_atom_site_fract_x
_atom_site_fract_y
_atom_site_fract_z
Si Si1 0.125449 0.107342 0.937315
Si Si2 0.423590 0.379087 0.883642
Si Si3 0.577830 0.081899 0.594556
Si Si4 0.133147 0.590524 0.537361
Si Si5 0.409894 0.720951 0.047328
Si Si6 0.847240 0.039306 0.427587
Si Si7 0.444750 0.523438 0.462203
Si Si8 0.897882 0.260652 0.101102
O O1 0.182943 0.130162 0.752377
O O2 0.062154 0.850289 0.962086
O O3 0.244746 0.434987 0.042863
O O4 0.000000 0.000000 0.000000
O O5 0.483016 0.367802 0.702059
O O6 0.266585 0.041801 0.913251
O O7 0.500000 0.500000 0.000000
O O8 0.447713 0.602508 0.918217
O O9 0.740451 0.310496 0.520837
O O10 0.571637 0.209224 0.779276
O O11 0.500000 0.000000 0.500000
O O12 0.486950 0.775667 0.596702
O O13 0.176517 0.816455 0.512393
O O14 0.076483 0.563455 0.720605
O O15 0.998322 0.264124 0.444114
O O16 0.500000 0.000000 0.000000
O O17 0.723812 0.785401 0.535331
O O18 0.500000 0.500000 0.500000
O O19 0.000000 0.500000 0.000000
#
# Coordination Sequence:
#
# PCOD8011207 Si02
#       8
#     2   2   2   2   2   2   2   2
#     4  10  21  42  62  92 130 159 209 274 320 376
#     4  11  24  41  63  94 131 166 214 270 318 385
#     4  12  24  42  64  94 139 170 207 275 332 385
#     4  10  21  41  63  96 127 164 220 266 321 385
#     4  11  24  40  64  96 127 168 215 262 329 383
#     4  10  21  38  70  95 121 167 220 273 316 381
#     4  12  21  42  69  92 126 171 224 265 318 391
#     4  10  22  41  63  88 127 170 213 257 316 390
#
# _framework density 20.223547
#
# number of rings (size 3 to 8) (size 9 to 14) (size 15 to 20)
#    0.000    1.250    2.500    4.500    1.750    1.000 
#    2.250    0.625    0.000    0.000    0.000    0.000 
#    0.000    0.000    0.000    0.000    0.000    0.000 
#
# Total GULP energy -198311.747801 kJ/mol
# GULP energy per Si atom -12394.484238 kJ/mol
# Density = 2.017752 g / cm^3
# Si number density = 20.223547 Si / 1000 Ang^3
#
#
#
# Elastic Constant Matrix: (Units=GPa)
#
#
# Indices 1 2 3 4 5 6 
#
# 1 107.5380 51.3224 23.7671 -5.9376 12.0562 24.1143
# 2 51.3224 136.0252 61.7364 -11.4790 1.7077 2.2664
# 3 23.7671 61.7364 90.3789 2.4889 16.3657 8.8822
# 4 -5.9376 -11.4790 2.4889 37.8175 4.0860 2.6256
# 5 12.0562 1.7077 16.3657 4.0860 32.4445 -0.0304
# 6 24.1143 2.2664 8.8822 2.6256 -0.0304 27.5160
#
#
#
# Elastic Compliance Matrix: (Units=1/GPa)
#
#
# Indices 1 2 3 4 5 6 
#
# 1 0.016316 -0.007200 0.003440 0.002023 -0.007688 -0.015018
# 2 -0.007200 0.014740 -0.010274 0.002725 0.006747 0.008160
# 3 0.003440 -0.010274 0.019975 -0.002169 -0.010548 -0.008421
# 4 0.002023 0.002725 -0.002169 0.028374 -0.003378 -0.004009
# 5 -0.007688 0.006747 -0.010548 -0.003378 0.039079 0.009952
# 6 -0.015018 0.008160 -0.008421 -0.004009 0.009952 0.051943
#
#
# Mechanical properties :
#
#
# Convention : Reuss Voigt Hill
#
# Bulk Modulus (GPa) = 43.54737 67.51044 55.52891
# Shear Modulus (GPa) = 24.25408 32.69668 28.47538
#
# Velocity S-wave (km/s) = 3.46685 4.02526 3.75644
# Velocity P-wave (km/s) = 6.13230 7.42012 6.80674
#
# Compressibility (1/GPa) = 0.02296350
#
# Stress axis : x y z
#
# Youngs Moduli (GPa) = 61.28918 67.84109 50.06138
#
# Poissons Ratio (x) = 0.48844 -0.17219
# Poissons Ratio (y) = 0.44126 0.51434
# Poissons Ratio (z) = -0.21081 0.69701
#
# Static dielectric constant tensor:
#      x y z
#    x 3.686590 0.091140 0.026030 
#    y 0.091140 3.794850 0.215120 
#    z 0.026030 0.215120 3.562180 
# 
# 
# High freq. dielectric constant tensor:
#      x y z
#    x 1.786170 0.011030 -0.000320 
#    y 0.011030 1.796670 0.013110 
#    z -0.000320 0.013110 1.795910 
# 
# From -- ./inp_files/343759.got.cif
#   From: 2010.06.25/outbox.cif.g09.slc.cpg/sg2_172_cif.got.tgz:343759.got - 2010.06.27 13:26:56.
