data_PCOD8011338
_publ_section_title
;
Structure prediction by ZEFSAII (Michael W. Deem and Ramdas Pophale) SiO2 
 PCOD8011338
Probable space group: P -1
;
_chemical_formula_sum "Si O2"
_cell_formula_units_Z 12
_cell_length_a 18.063411
_cell_length_b 8.894756
_cell_length_c 9.121496
_cell_angle_alpha 90.443049
_cell_angle_beta 120.031707
_cell_angle_gamma 139.006369
_cell_volume 611.191544
_symmetry_space_group_name_H-M "P -1"
_symmetry_group_IT_number 2
_symmetry_cell_setting 'triclinic'
loop_
_space_group_symop_operation_xyz
x,y,z
-x,-y,-z
loop_
_atom_site_type_symbol
_atom_site_label
_atom_site_fract_x
_atom_site_fract_y
_atom_site_fract_z
Si Si1 0.854078 0.371534 0.270869
Si Si2 0.489166 0.633062 0.899005
Si Si3 0.844153 0.671488 0.765991
Si Si4 0.982566 0.625081 0.072094
Si Si5 0.159969 0.333211 0.586008
Si Si6 0.639600 0.630355 0.542887
O O1 0.914119 0.494905 0.166259
O O2 0.820705 0.473765 0.324028
O O3 0.000000 0.500000 0.500000
O O4 0.674094 0.002575 0.087828
O O5 0.336966 0.512785 0.800329
O O6 0.447470 0.501883 0.700568
O O7 0.500000 0.500000 0.000000
O O8 0.875975 0.705743 0.623392
O O9 0.666728 0.497410 0.618126
O O10 0.836465 0.497805 0.835706
O O11 0.000000 0.000000 0.000000
O O12 0.172247 0.996955 0.269352
O O13 0.000000 0.500000 0.000000
O O14 0.000000 0.000000 0.500000
O O15 0.500000 0.500000 0.500000
#
# Coordination Sequence:
#
# PCOD8011338 Si02
#       6
#     2   2   2   2   2   2
#     4  12  24  41  62  90 122 162 209 258 308 366
#     4  11  24  41  61  88 122 161 206 256 308 364
#     4   9  20  38  59  86 118 156 196 239 299 363
#     4  11  22  39  62  89 121 161 203 252 305 362
#     4  11  22  40  64  92 124 160 202 254 308 367
#     4  10  21  39  60  87 120 158 202 249 301 362
#
# _framework density 19.633779000000001
#
# number of rings (size 3 to 8) (size 9 to 14) (size 15 to 20)
#    0.000    1.333    0.000    7.500    0.000    5.333 
#    0.000    9.167    0.000    0.000    0.000    0.000 
#    0.000    0.000    0.000    0.000    0.000    0.000 
#
# Total GULP energy -148753.596572 kJ/mol
# GULP energy per Si atom -12396.133048 kJ/mol
# Density = 1.958909 g / cm^3
# Si number density = 19.633779 Si / 1000 Ang^3
#
#
#
# Elastic Constant Matrix: (Units=GPa)
#
#
# Indices 1 2 3 4 5 6 
#
# 1 207.4388 87.7002 88.2989 -24.2797 6.8019 -4.6721
# 2 87.7002 145.2672 82.0293 -13.8938 18.5028 -4.7567
# 3 88.2989 82.0293 146.0797 -17.4945 10.4739 -4.4338
# 4 -24.2797 -13.8938 -17.4945 49.9306 -4.3484 4.5878
# 5 6.8019 18.5028 10.4739 -4.3484 41.1363 2.2488
# 6 -4.6721 -4.7567 -4.4338 4.5878 2.2488 37.2780
#
#
#
# Elastic Compliance Matrix: (Units=1/GPa)
#
#
# Indices 1 2 3 4 5 6 
#
# 1 0.007371 -0.002877 -0.002679 0.001934 0.000965 -0.000058
# 2 -0.002877 0.011666 -0.004540 -0.000139 -0.003676 0.000827
# 3 -0.002679 -0.004540 0.011197 0.001311 -0.000242 0.000270
# 4 0.001934 -0.000139 0.001311 0.021771 0.001842 -0.002410
# 5 0.000965 -0.003676 -0.000242 0.001842 0.026179 -0.002183
# 6 -0.000058 0.000827 0.000270 -0.002410 -0.002183 0.027384
#
#
# Mechanical properties :
#
#
# Convention : Reuss Voigt Hill
#
# Bulk Modulus (GPa) = 99.58410 112.76028 106.17219
# Shear Modulus (GPa) = 38.72731 41.71946 40.22338
#
# Velocity S-wave (km/s) = 4.44608 4.61464 4.53115
# Velocity P-wave (km/s) = 8.78566 9.27091 9.03154
#
# Compressibility (1/GPa) = 0.01004176
#
# Stress axis : x y z
#
# Youngs Moduli (GPa) = 135.66963 85.71676 89.30869
#
# Poissons Ratio (x) = 0.24659 0.23928
# Poissons Ratio (y) = 0.39030 0.40548
# Poissons Ratio (z) = 0.36349 0.38917
#
# Static dielectric constant tensor:
#      x y z
#    x 4.012600 -0.209360 0.073500 
#    y -0.209360 4.293780 -0.976180 
#    z 0.073500 -0.976180 4.861620 
# 
# 
# High freq. dielectric constant tensor:
#      x y z
#    x 1.791240 -0.010470 -0.000450 
#    y -0.010470 1.762340 -0.011320 
#    z -0.000450 -0.011320 1.785420 
# 
# From -- ./inp_files/146345.got.cif
#   From: 2010.06.25/outbox.cif.g09.slc.cpg/sg2_74_cif.got.tgz:146345.got - 2010.06.27 13:26:56.
