data_PCOD8011027
_publ_section_title
;
Structure prediction by ZEFSAII (Michael W. Deem and Ramdas Pophale) SiO2 
 PCOD8011027
Probable space group: P -1
;
_chemical_formula_sum "Si O2"
_cell_formula_units_Z 14
_cell_length_a 14.906313
_cell_length_b 25.519806
_cell_length_c 14.877948
_cell_angle_alpha 22.430195
_cell_angle_beta 160.098018
_cell_angle_gamma 159.401849
_cell_volume 629.999996
_symmetry_space_group_name_H-M "P -1"
_symmetry_group_IT_number 2
_symmetry_cell_setting 'triclinic'
loop_
_space_group_symop_operation_xyz
x,y,z
-x,-y,-z
loop_
_atom_site_type_symbol
_atom_site_label
_atom_site_fract_x
_atom_site_fract_y
_atom_site_fract_z
Si Si1 0.728776 0.144690 0.259357
Si Si2 0.817318 0.816155 0.093213
Si Si3 0.365150 0.316062 0.677694
Si Si4 0.248334 0.191679 0.426568
Si Si5 0.362485 0.809660 0.536870
Si Si6 0.642437 0.389166 0.319407
Si Si7 0.669581 0.148497 0.992980
O O1 0.087313 0.218454 0.500578
O O2 0.545152 0.995372 0.388254
O O3 0.628418 0.273718 0.977838
O O4 0.650522 0.087664 0.172674
O O5 0.744994 0.714312 0.275889
O O6 0.014350 0.765275 0.297032
O O7 0.506958 0.779377 0.809364
O O8 0.000000 0.000000 0.000000
O O9 0.500000 0.500000 0.500000
O O10 0.448292 0.254220 0.425483
O O11 0.488826 0.242962 0.655730
O O12 0.000000 0.000000 0.500000
O O13 0.030492 0.266155 0.118691
O O14 0.388335 0.703835 0.652559
O O15 0.000000 0.500000 0.500000
O O16 0.500000 0.500000 0.000000
O O17 0.500000 0.000000 0.000000
#
# Coordination Sequence:
#
# PCOD8011027 Si02
#       7
#     2   2   2   2   2   2   2
#     4  12  23  44  74 103 134 188 236 281 352 423
#     4  12  23  46  75 102 134 177 244 296 337 428
#     4  12  27  47  67 104 144 175 225 304 359 405
#     4  10  21  42  67  92 135 181 230 277 331 403
#     4  12  24  44  77 102 134 192 239 277 355 424
#     4  12  27  48  68 106 153 184 231 298 359 417
#     4  10  21  38  66 102 132 171 230 288 324 398
#
# _framework density 22.222223
#
# number of rings (size 3 to 8) (size 9 to 14) (size 15 to 20)
#    0.000    0.571    2.857    6.000    0.000    4.571 
#   15.429    0.000    0.000    0.000    0.000    0.000 
#    0.000    0.000    0.000    0.000    0.000    0.000 
#
# Total GULP energy -173545.423053 kJ/mol
# GULP energy per Si atom -12396.101647 kJ/mol
# Density = 2.217164 g / cm^3
# Si number density = 22.222223 Si / 1000 Ang^3
#
#
#
# Elastic Constant Matrix: (Units=GPa)
#
#
# Indices 1 2 3 4 5 6 
#
# 1 116.5647 35.9119 47.7352 -1.6224 -14.8522 14.2924
# 2 35.9119 83.7461 47.4655 -3.5909 -11.9908 17.1728
# 3 47.7352 47.4655 159.5507 21.8370 -1.2029 2.9127
# 4 -1.6224 -3.5909 21.8370 51.0894 0.8705 1.8448
# 5 -14.8522 -11.9908 -1.2029 0.8705 49.8557 5.4840
# 6 14.2924 17.1728 2.9127 1.8448 5.4840 33.0151
#
#
#
# Elastic Compliance Matrix: (Units=1/GPa)
#
#
# Indices 1 2 3 4 5 6 
#
# 1 0.011319 -0.001707 -0.002995 0.001621 0.003344 -0.004394
# 2 -0.001707 0.018433 -0.005280 0.003756 0.004764 -0.009384
# 3 -0.002995 -0.005280 0.009266 -0.004527 -0.002284 0.003858
# 4 0.001621 0.003756 -0.004527 0.021935 0.001301 -0.003698
# 5 0.003344 0.004764 -0.002284 0.001301 0.022959 -0.007611
# 6 -0.004394 -0.009384 0.003858 -0.003698 -0.007611 0.038203
#
#
# Mechanical properties :
#
#
# Convention : Reuss Voigt Hill
#
# Bulk Modulus (GPa) = 52.48103 69.12073 60.80088
# Shear Modulus (GPa) = 33.68582 42.04198 37.86390
#
# Velocity S-wave (km/s) = 3.89763 4.35430 4.13228
# Velocity P-wave (km/s) = 6.62745 7.51344 7.08431
#
# Compressibility (1/GPa) = 0.01905450
#
# Stress axis : x y z
#
# Youngs Moduli (GPa) = 88.34906 54.25141 107.91687
#
# Poissons Ratio (x) = 0.09259 0.32322
# Poissons Ratio (y) = 0.15079 0.56978
# Poissons Ratio (z) = 0.26462 0.28644
#
# Static dielectric constant tensor:
#      x y z
#    x 4.021060 0.007480 -0.212690 
#    y 0.007480 3.769560 -0.401210 
#    z -0.212690 -0.401210 2.849840 
# 
# 
# High freq. dielectric constant tensor:
#      x y z
#    x 1.883780 0.011210 -0.001170 
#    y 0.011210 1.856720 0.019510 
#    z -0.001170 0.019510 1.905880 
# 
# From -- ./inp_files/535713.got.cif
#   From: 2010.06.25/outbox.cif.g09.slc.cpg/sg2_268_cif.got.tgz:535713.got - 2010.06.27 13:26:56.
