data_PCOD8011563
_publ_section_title
;
Structure prediction by ZEFSAII (Michael W. Deem and Ramdas Pophale) SiO2 
 PCOD8011563
Probable space group: P -1
;
_chemical_formula_sum "Si O2"
_cell_formula_units_Z 16
_cell_length_a 9.219727
_cell_length_b 14.448464
_cell_length_c 12.710372
_cell_angle_alpha 60.187777
_cell_angle_beta 116.047854
_cell_angle_gamma 156.959108
_cell_volume 574.140200
_symmetry_space_group_name_H-M "P -1"
_symmetry_group_IT_number 2
_symmetry_cell_setting 'triclinic'
loop_
_space_group_symop_operation_xyz
x,y,z
-x,-y,-z
loop_
_atom_site_type_symbol
_atom_site_label
_atom_site_fract_x
_atom_site_fract_y
_atom_site_fract_z
Si Si1 0.620043 0.411195 0.625407
Si Si2 0.103802 0.152541 0.803704
Si Si3 0.810581 0.101181 0.567697
Si Si4 0.896813 0.072494 0.026302
Si Si5 0.806792 0.572567 0.927608
Si Si6 0.422328 0.775680 0.453660
Si Si7 0.551607 0.018136 0.798914
Si Si8 0.147850 0.628400 0.148619
O O1 0.308829 0.262747 0.692049
O O2 0.423774 0.215109 0.589161
O O3 0.942120 0.527557 0.718407
O O4 0.798468 0.617873 0.506764
O O5 0.407669 0.365182 0.869954
O O6 0.815853 0.072856 0.711605
O O7 0.895989 0.919433 0.906421
O O8 0.500000 0.000000 0.500000
O O9 0.693165 0.929094 0.554668
O O10 0.103689 0.273292 0.057563
O O11 0.483034 0.791928 0.087221
O O12 0.824815 0.074745 0.880105
O O13 0.114687 0.735610 0.842034
O O14 0.802425 0.463203 0.061467
O O15 0.415032 0.896197 0.346109
O O16 0.000000 0.500000 0.500000
O O17 0.695122 0.176622 0.849969
#
# Coordination Sequence:
#
# PCOD8011563 Si02
#       8
#     2   2   2   2   2   2   2   2
#     4  10  21  39  62  93 116 150 202 246 289 344
#     4  11  23  35  61  94 121 149 197 247 298 350
#     4  12  26  43  58  82 118 163 205 245 291 358
#     4   8  16  32  53  90 125 148 183 245 294 351
#     4   9  16  32  55  91 128 153 176 240 307 347
#     4  11  22  40  63  82 112 167 205 238 289 344
#     4   8  15  30  58  88 118 152 198 233 288 353
#     4   7  14  29  56  89 124 149 185 231 294 361
#
# _framework density 27.867760000000001
#
# number of rings (size 3 to 8) (size 9 to 14) (size 15 to 20)
#    0.000    2.500    1.250    3.375    0.000    7.000 
#    0.000    0.000    0.000    3.750    0.000    0.000 
#    0.000    0.000    0.000    0.000    0.000    0.000 
#
# Total GULP energy -198244.225660 kJ/mol
# GULP energy per Si atom -12390.264104 kJ/mol
# Density = 2.780433 g / cm^3
# Si number density = 27.867760 Si / 1000 Ang^3
#
#
#
# Elastic Constant Matrix: (Units=GPa)
#
#
# Indices 1 2 3 4 5 6 
#
# 1 62.2216 23.9502 29.1363 21.4291 7.4134 -4.8829
# 2 23.9502 70.2035 57.7965 35.2205 14.3290 -13.3612
# 3 29.1363 57.7965 207.6337 30.1267 -5.7946 -16.8028
# 4 21.4291 35.2205 30.1267 42.0281 -6.9780 -1.9240
# 5 7.4134 14.3290 -5.7946 -6.9780 36.1120 11.0525
# 6 -4.8829 -13.3612 -16.8028 -1.9240 11.0525 46.3782
#
#
#
# Elastic Compliance Matrix: (Units=1/GPa)
#
#
# Indices 1 2 3 4 5 6 
#
# 1 0.022503 0.006474 -0.002383 -0.017023 -0.012594 0.005666
# 2 0.006474 0.058636 -0.009067 -0.052047 -0.042953 0.022366
# 3 -0.002383 -0.009067 0.007025 0.004806 0.006665 -0.001707
# 4 -0.017023 -0.052047 0.004806 0.079446 0.047316 -0.023025
# 5 -0.012594 -0.042953 0.006665 0.047316 0.065137 -0.024846
# 6 0.005666 0.022366 -0.001707 -0.023025 -0.024846 0.032949
#
#
# Mechanical properties :
#
#
# Convention : Reuss Voigt Hill
#
# Bulk Modulus (GPa) = 12.78587 62.42498 37.60542
# Shear Modulus (GPa) = 16.57167 40.18207 28.37687
#
# Velocity S-wave (km/s) = 2.44120 3.80133 3.19449
# Velocity P-wave (km/s) = 3.54174 6.45879 5.20864
#
# Compressibility (1/GPa) = 0.07821136
#
# Stress axis : x y z
#
# Youngs Moduli (GPa) = 44.43793 17.05446 142.34963
#
# Poissons Ratio (x) = -0.11040 0.33919
# Poissons Ratio (y) = -0.28767 1.29070
# Poissons Ratio (z) = 0.10589 0.15463
#
# Static dielectric constant tensor:
#      x y z
#    x 5.593110 0.439800 0.266380 
#    y 0.439800 3.430800 -0.397190 
#    z 0.266380 -0.397190 5.664410 
# 
# 
# High freq. dielectric constant tensor:
#      x y z
#    x 2.167220 -0.008430 -0.010150 
#    y -0.008430 2.104650 0.012240 
#    z -0.010150 0.012240 2.157940 
# 
# From -- ./inp_files/273292.got.cif
#   From: 2010.06.25/outbox.cif.g09.slc.cpg/sg2_137_cif.got.tgz:273292.got - 2010.06.27 13:26:56.
