data_PCOD8011219
_publ_section_title
;
Structure prediction by ZEFSAII (Michael W. Deem and Ramdas Pophale) SiO2 
 PCOD8011219
Probable space group: P -1
;
_chemical_formula_sum "Si O2"
_cell_formula_units_Z 16
_cell_length_a 9.093253
_cell_length_b 11.616964
_cell_length_c 14.839060
_cell_angle_alpha 26.734617
_cell_angle_beta 80.854181
_cell_angle_gamma 77.580949
_cell_volume 686.710513
_symmetry_space_group_name_H-M "P -1"
_symmetry_group_IT_number 2
_symmetry_cell_setting 'triclinic'
loop_
_space_group_symop_operation_xyz
x,y,z
-x,-y,-z
loop_
_atom_site_type_symbol
_atom_site_label
_atom_site_fract_x
_atom_site_fract_y
_atom_site_fract_z
Si Si1 0.613797 0.996503 0.225653
Si Si2 0.791316 0.495280 0.471072
Si Si3 0.935452 0.294612 0.776131
Si Si4 0.774439 0.200788 0.221872
Si Si5 0.654677 0.221096 0.523980
Si Si6 0.448907 0.503922 0.830869
Si Si7 0.070996 0.167533 0.301805
Si Si8 0.235477 0.355224 0.303489
O O1 0.725900 0.164603 0.148341
O O2 0.714601 0.780738 0.308159
O O3 0.507550 0.873830 0.391552
O O4 0.504588 0.194961 0.034092
O O5 0.840319 0.311412 0.680771
O O6 0.674037 0.366024 0.514448
O O7 0.934204 0.529097 0.371497
O O8 0.827301 0.414096 0.783546
O O9 0.000000 0.000000 0.000000
O O10 0.655692 0.427075 0.120221
O O11 0.940491 0.281446 0.162819
O O12 0.779656 0.923827 0.461759
O O13 0.648511 0.417369 0.303936
O O14 0.794741 0.994374 0.655793
O O15 0.588733 0.654525 0.724260
O O16 0.142860 0.391173 0.192084
O O17 0.000000 0.000000 0.500000
#
# Coordination Sequence:
#
# PCOD8011219 Si02
#       8
#     2   2   2   2   2   2   2   2
#     4  12  26  43  66  99 131 178 223 266 325 392
#     4  11  25  43  68  95 136 174 217 271 326 388
#     4  11  24  43  71 100 130 173 218 270 328 391
#     4  11  21  42  68  95 134 170 220 270 332 387
#     4  12  24  44  68  95 137 175 216 271 330 386
#     4  12  24  41  69  97 132 175 219 269 325 393
#     4  10  21  38  71  96 123 176 213 268 336 379
#     4  11  20  42  69  94 131 174 214 267 336 383
#
# _framework density 23.299482000000001
#
# number of rings (size 3 to 8) (size 9 to 14) (size 15 to 20)
#    0.000    0.750    5.000    4.125    1.750    1.500 
#    0.000    1.250    0.000    0.000    0.000    0.000 
#    0.000    0.000    0.000    0.000    0.000    0.000 
#
# Total GULP energy -198457.568556 kJ/mol
# GULP energy per Si atom -12403.598035 kJ/mol
# Density = 2.324645 g / cm^3
# Si number density = 23.299482 Si / 1000 Ang^3
#
#
#
# Elastic Constant Matrix: (Units=GPa)
#
#
# Indices 1 2 3 4 5 6 
#
# 1 116.2746 51.5376 12.6896 -1.4802 21.3843 14.9049
# 2 51.5376 122.0448 28.4491 -4.3626 20.5022 13.5597
# 3 12.6896 28.4491 73.2227 -13.3214 25.0013 13.6903
# 4 -1.4802 -4.3626 -13.3214 27.7168 1.1200 8.2395
# 5 21.3843 20.5022 25.0013 1.1200 31.7066 -1.7573
# 6 14.9049 13.5597 13.6903 8.2395 -1.7573 43.9469
#
#
#
# Elastic Compliance Matrix: (Units=1/GPa)
#
#
# Indices 1 2 3 4 5 6 
#
# 1 0.012429 -0.003858 0.004615 0.004367 -0.009996 -0.005681
# 2 -0.003858 0.011062 -0.001986 0.001256 -0.003132 -0.001847
# 3 0.004615 -0.001986 0.028642 0.019051 -0.025888 -0.014482
# 4 0.004367 0.001256 0.019051 0.052017 -0.021638 -0.018421
# 5 -0.009996 -0.003132 -0.025888 -0.021638 0.062535 0.018979
# 6 -0.005681 -0.001847 -0.014482 -0.018421 0.018979 0.033975
#
#
# Mechanical properties :
#
#
# Convention : Reuss Voigt Hill
#
# Bulk Modulus (GPa) = 20.13133 55.21051 37.67092
# Shear Modulus (GPa) = 22.76072 35.26511 29.01291
#
# Velocity S-wave (km/s) = 3.12889 3.89467 3.53259
# Velocity P-wave (km/s) = 4.65965 6.63114 5.73081
#
# Compressibility (1/GPa) = 0.04967381
#
# Stress axis : x y z
#
# Youngs Moduli (GPa) = 80.45827 90.40045 34.91402
#
# Poissons Ratio (x) = 0.34873 -0.16112
# Poissons Ratio (y) = 0.31038 0.06935
# Poissons Ratio (z) = -0.37128 0.17956
#
# Static dielectric constant tensor:
#      x y z
#    x 4.772820 0.247200 0.282970 
#    y 0.247200 4.255750 0.166650 
#    z 0.282970 0.166650 4.164130 
# 
# 
# High freq. dielectric constant tensor:
#      x y z
#    x 1.936190 -0.003260 0.010990 
#    y -0.003260 1.918290 0.001350 
#    z 0.010990 0.001350 1.923720 
# 
# From -- ./inp_files/499685.got.cif
#   From: 2010.06.25/outbox.cif.g09.slc.cpg/sg2_250_cif.got.tgz:499685.got - 2010.06.27 13:26:56.
