data_PCOD8011129
_publ_section_title
;
Structure prediction by ZEFSAII (Michael W. Deem and Ramdas Pophale) SiO2 
 PCOD8011129
Probable space group: P -1
;
_chemical_formula_sum "Si O2"
_cell_formula_units_Z 14
_cell_length_a 8.737803
_cell_length_b 9.401573
_cell_length_c 18.907137
_cell_angle_alpha 42.331149
_cell_angle_beta 117.855134
_cell_angle_gamma 83.983606
_cell_volume 605.117831
_symmetry_space_group_name_H-M "P -1"
_symmetry_group_IT_number 2
_symmetry_cell_setting 'triclinic'
loop_
_space_group_symop_operation_xyz
x,y,z
-x,-y,-z
loop_
_atom_site_type_symbol
_atom_site_label
_atom_site_fract_x
_atom_site_fract_y
_atom_site_fract_z
Si Si1 0.038870 0.999622 0.425700
Si Si2 0.169801 0.234137 0.571859
Si Si3 0.147064 0.456253 0.747405
Si Si4 0.526282 0.181754 0.485987
Si Si5 0.656812 0.140282 0.920177
Si Si6 0.140628 0.893141 0.164153
Si Si7 0.733794 0.877741 0.791776
O O1 0.939470 0.337159 0.275931
O O2 0.871181 0.982752 0.350916
O O3 0.000000 0.000000 0.500000
O O4 0.335492 0.748770 0.550921
O O5 0.000000 0.500000 0.500000
O O6 0.079440 0.390824 0.415721
O O7 0.480856 0.002584 0.729971
O O8 0.339116 0.442884 0.748213
O O9 0.284304 0.123556 0.926430
O O10 0.245631 0.552344 0.307947
O O11 0.500000 0.000000 0.500000
O O12 0.688819 0.952965 0.672135
O O13 0.745169 0.052672 0.890369
O O14 0.820941 0.177676 0.980518
O O15 0.219389 0.927379 0.241783
O O16 0.000000 0.500000 0.000000
#
# Coordination Sequence:
#
# PCOD8011129 Si02
#       7
#     2   2   2   2   2   2   2
#     4  10  21  38  67  96 130 174 236 275 333 409
#     4  11  23  45  70  95 141 191 233 283 353 425
#     4  10  21  40  65  98 131 177 230 281 341 411
#     4  12  25  45  75 102 141 189 237 281 358 431
#     4  10  22  38  70  98 134 173 233 286 340 409
#     4  11  24  43  69  96 141 182 230 280 356 411
#     4  12  29  45  70 107 149 179 236 297 356 410
#
# _framework density 23.135988999999999
#
# number of rings (size 3 to 8) (size 9 to 14) (size 15 to 20)
#    0.000    1.143    0.000    7.286    8.000    1.143 
#    0.000    0.714    0.000    0.000    0.000    0.000 
#    0.000    0.000    0.000    0.000    0.000    0.000 
#
# Total GULP energy -173458.771398 kJ/mol
# GULP energy per Si atom -12389.912243 kJ/mol
# Density = 2.308333 g / cm^3
# Si number density = 23.135989 Si / 1000 Ang^3
#
#
#
# Elastic Constant Matrix: (Units=GPa)
#
#
# Indices 1 2 3 4 5 6 
#
# 1 102.8180 26.7152 28.7080 2.0260 19.8296 -2.6170
# 2 26.7152 161.3877 35.3111 11.3696 9.4464 21.9442
# 3 28.7080 35.3111 88.7638 9.9196 18.4979 -5.6253
# 4 2.0260 11.3696 9.9196 31.5776 -5.5282 2.4214
# 5 19.8296 9.4464 18.4979 -5.5282 47.2657 3.9543
# 6 -2.6170 21.9442 -5.6253 2.4214 3.9543 34.2254
#
#
#
# Elastic Compliance Matrix: (Units=1/GPa)
#
#
# Indices 1 2 3 4 5 6 
#
# 1 0.011515 -0.001437 -0.002178 -0.000366 -0.003895 0.001919
# 2 -0.001437 0.007921 -0.003009 -0.001291 0.000519 -0.005652
# 3 -0.002178 -0.003009 0.015179 -0.004898 -0.005436 0.005232
# 4 -0.000366 -0.001291 -0.004898 0.035120 0.006709 -0.003265
# 5 -0.003895 0.000519 -0.005436 0.006709 0.026018 -0.005005
# 6 0.001919 -0.005652 0.005232 -0.003265 -0.005005 0.034658
#
#
# Mechanical properties :
#
#
# Convention : Reuss Voigt Hill
#
# Bulk Modulus (GPa) = 46.79990 59.38202 53.09096
# Shear Modulus (GPa) = 33.16078 40.09609 36.62844
#
# Velocity S-wave (km/s) = 3.79000 4.16752 3.98324
# Velocity P-wave (km/s) = 6.27887 6.99142 6.64470
#
# Compressibility (1/GPa) = 0.02136757
#
# Stress axis : x y z
#
# Youngs Moduli (GPa) = 86.84613 126.24004 65.88057
#
# Poissons Ratio (x) = 0.18137 0.14351
# Poissons Ratio (y) = 0.12477 0.19821
# Poissons Ratio (z) = 0.18918 0.37982
#
# Static dielectric constant tensor:
#      x y z
#    x 4.582320 0.165390 0.193160 
#    y 0.165390 4.665770 -0.443410 
#    z 0.193160 -0.443410 4.378020 
# 
# 
# High freq. dielectric constant tensor:
#      x y z
#    x 1.943990 0.006730 0.008990 
#    y 0.006730 1.909160 -0.012320 
#    z 0.008990 -0.012320 1.912930 
# 
# From -- ./inp_files/157611.got.cif
#   From: 2010.06.25/outbox.cif.g09.slc.cpg/sg2_79_cif.got.tgz:157611.got - 2010.06.27 13:26:56.
