data_PCOD8011138
_publ_section_title
;
Structure prediction by ZEFSAII (Michael W. Deem and Ramdas Pophale) SiO2 
 PCOD8011138
Probable space group: P -1
;
_chemical_formula_sum "Si O2"
_cell_formula_units_Z 16
_cell_length_a 15.912564
_cell_length_b 9.665205
_cell_length_c 10.939609
_cell_angle_alpha 60.874379
_cell_angle_beta 67.189494
_cell_angle_gamma 119.300743
_cell_volume 730.671741
_symmetry_space_group_name_H-M "P -1"
_symmetry_group_IT_number 2
_symmetry_cell_setting 'triclinic'
loop_
_space_group_symop_operation_xyz
x,y,z
-x,-y,-z
loop_
_atom_site_type_symbol
_atom_site_label
_atom_site_fract_x
_atom_site_fract_y
_atom_site_fract_z
Si Si1 0.667738 0.340374 0.790238
Si Si2 0.942117 0.625109 0.922710
Si Si3 0.307120 0.283467 0.502177
Si Si4 0.664984 0.713986 0.039069
Si Si5 0.138241 0.069677 0.932528
Si Si6 0.815344 0.691200 0.792977
Si Si7 0.061050 0.515057 0.765248
Si Si8 0.178451 0.735990 0.353940
O O1 0.677583 0.517579 0.638731
O O2 0.697286 0.422513 0.881053
O O3 0.805523 0.421911 0.628587
O O4 0.500000 0.000000 0.000000
O O5 0.836513 0.615190 0.933941
O O6 0.935565 0.470915 0.897810
O O7 0.857411 0.449200 0.175628
O O8 0.139389 0.955885 0.685523
O O9 0.467000 0.410011 0.316982
O O10 0.290326 0.276919 0.660222
O O11 0.776334 0.781829 0.047701
O O12 0.714451 0.701551 0.888012
O O13 0.695329 0.947851 0.909018
O O14 0.000000 0.000000 0.000000
O O15 0.048716 0.770757 0.123986
O O16 0.000000 0.000000 0.500000
O O17 0.193588 0.772306 0.478520
O O18 0.000000 0.500000 0.500000
#
# Coordination Sequence:
#
# PCOD8011138 Si02
#       8
#     2   2   2   2   2   2   2   2
#     4  12  26  45  64 101 142 180 221 292 353 410
#     4  10  22  42  67  96 136 180 234 289 346 415
#     4  11  24  43  67  99 142 182 228 286 363 412
#     4  12  25  42  68 103 137 181 228 291 353 413
#     4  11  23  43  72  99 136 182 238 284 344 423
#     4  12  25  43  69  98 137 183 239 287 340 422
#     4  10  21  38  67  99 128 175 233 291 332 401
#     4  12  23  39  68 101 134 177 239 283 340 418
#
# _framework density 21.897656999999999
#
# number of rings (size 3 to 8) (size 9 to 14) (size 15 to 20)
#    0.000    0.750    3.750    4.875    0.000    1.500 
#    0.000    0.000    0.000    9.000    0.000    0.000 
#    0.000    0.000    0.000    0.000    0.000    0.000 
#
# Total GULP energy -198272.746994 kJ/mol
# GULP energy per Si atom -12392.046687 kJ/mol
# Density = 2.184782 g / cm^3
# Si number density = 21.897657 Si / 1000 Ang^3
#
#
#
# Elastic Constant Matrix: (Units=GPa)
#
#
# Indices 1 2 3 4 5 6 
#
# 1 103.8617 39.7513 38.0124 4.0248 10.2350 -4.9381
# 2 39.7513 127.4072 35.7754 15.5553 -9.8727 -0.2951
# 3 38.0124 35.7754 94.8688 15.5322 -4.3398 5.8008
# 4 4.0248 15.5553 15.5322 39.3080 1.1220 -3.0474
# 5 10.2350 -9.8727 -4.3398 1.1220 34.2440 9.0683
# 6 -4.9381 -0.2951 5.8008 -3.0474 9.0683 36.5505
#
#
#
# Elastic Compliance Matrix: (Units=1/GPa)
#
#
# Indices 1 2 3 4 5 6 
#
# 1 0.013761 -0.003713 -0.005161 0.002664 -0.007155 0.004646
# 2 -0.003713 0.010169 -0.001515 -0.003289 0.004364 -0.001536
# 3 -0.005161 -0.001515 0.014481 -0.005065 0.004298 -0.004496
# 4 0.002664 -0.003289 -0.005065 0.028964 -0.004577 0.004688
# 5 -0.007155 0.004364 0.004298 -0.004577 0.036200 -0.010977
# 6 0.004646 -0.001536 -0.004496 0.004688 -0.010977 0.031802
#
#
# Mechanical properties :
#
#
# Convention : Reuss Voigt Hill
#
# Bulk Modulus (GPa) = 56.71334 61.46841 59.09087
# Shear Modulus (GPa) = 30.85775 36.19374 33.52574
#
# Velocity S-wave (km/s) = 3.75798 4.06995 3.91707
# Velocity P-wave (km/s) = 6.69219 7.08644 6.89213
#
# Compressibility (1/GPa) = 0.01763254
#
# Stress axis : x y z
#
# Youngs Moduli (GPa) = 72.66918 98.33886 69.05621
#
# Poissons Ratio (x) = 0.36515 0.35641
# Poissons Ratio (y) = 0.26983 0.10461
# Poissons Ratio (z) = 0.37505 0.14897
#
# Static dielectric constant tensor:
#      x y z
#    x 4.349240 -0.086100 0.271580 
#    y -0.086100 3.955600 0.225540 
#    z 0.271580 0.225540 3.821850 
# 
# 
# High freq. dielectric constant tensor:
#      x y z
#    x 1.869670 -0.009240 0.017950 
#    y -0.009240 1.872180 0.013650 
#    z 0.017950 0.013650 1.847400 
# 
# From -- ./inp_files/446945.got.cif
#   From: 2010.06.25/outbox.cif.g09.slc.cpg/sg2_224_cif.got.tgz:446945.got - 2010.06.27 13:26:56.
