data_PCOD8011375
_publ_section_title
;
Structure prediction by ZEFSAII (Michael W. Deem and Ramdas Pophale) SiO2 
 PCOD8011375
Probable space group: P -1
;
_chemical_formula_sum "Si O2"
_cell_formula_units_Z 16
_cell_length_a 14.126608
_cell_length_b 7.985428
_cell_length_c 10.845649
_cell_angle_alpha 68.812008
_cell_angle_beta 130.328953
_cell_angle_gamma 82.908197
_cell_volume 751.744266
_symmetry_space_group_name_H-M "P -1"
_symmetry_group_IT_number 2
_symmetry_cell_setting 'triclinic'
loop_
_space_group_symop_operation_xyz
x,y,z
-x,-y,-z
loop_
_atom_site_type_symbol
_atom_site_label
_atom_site_fract_x
_atom_site_fract_y
_atom_site_fract_z
Si Si1 0.676546 0.066592 0.179624
Si Si2 0.204153 0.666853 0.813014
Si Si3 0.509862 0.706112 0.459561
Si Si4 0.723739 0.684984 0.459312
Si Si5 0.675157 0.919013 0.951346
Si Si6 0.397704 0.471318 0.803826
Si Si7 0.973010 0.520660 0.325619
Si Si8 0.540897 0.692575 0.766601
O O1 0.813704 0.102817 0.264223
O O2 0.708059 0.909735 0.360350
O O3 0.548002 0.301235 0.041391
O O4 0.647022 0.970327 0.058647
O O5 0.268839 0.543841 0.771229
O O6 0.055959 0.663219 0.697823
O O7 0.312624 0.533596 0.050833
O O8 0.500000 0.500000 0.500000
O O9 0.660816 0.676817 0.541548
O O10 0.504537 0.781869 0.574368
O O11 0.368750 0.876433 0.220813
O O12 0.622134 0.650251 0.291570
O O13 0.889430 0.507486 0.626602
O O14 0.563483 0.846298 0.834337
O O15 0.840889 0.745444 0.116387
O O16 0.408995 0.665854 0.710118
O O17 0.000000 0.500000 0.500000
#
# Coordination Sequence:
#
# PCOD8011375 Si02
#       8
#     2   2   2   2   2   2   2   2
#     4  11  21  35  62  97 123 158 208 263 314 359
#     4  10  22  37  64  93 133 155 203 261 317 370
#     4  12  24  42  64  92 122 164 218 261 301 367
#     4  12  23  37  64  92 128 161 207 253 312 372
#     4  11  23  41  67  89 128 166 207 257 314 372
#     4  11  20  36  64  96 128 152 204 274 314 359
#     4  11  22  42  61  95 131 166 194 254 323 375
#     4  10  21  39  60  94 124 160 208 259 315 356
#
# _framework density 21.283833999999999
#
# number of rings (size 3 to 8) (size 9 to 14) (size 15 to 20)
#    0.000    1.000    5.000    3.750    5.250    0.500 
#    0.000    3.125    0.000    0.000    0.000    0.000 
#    0.000    0.000    0.000    0.000    0.000    0.000 
#
# Total GULP energy -198344.312248 kJ/mol
# GULP energy per Si atom -12396.519516 kJ/mol
# Density = 2.123539 g / cm^3
# Si number density = 21.283834 Si / 1000 Ang^3
#
#
#
# Elastic Constant Matrix: (Units=GPa)
#
#
# Indices 1 2 3 4 5 6 
#
# 1 110.3869 20.1596 46.4615 -8.6823 0.0227 6.3764
# 2 20.1596 92.2665 18.8449 -8.8041 -6.8580 22.3668
# 3 46.4615 18.8449 82.5423 -16.6561 -0.7243 8.1869
# 4 -8.6823 -8.8041 -16.6561 37.3942 -0.4033 -3.0692
# 5 0.0227 -6.8580 -0.7243 -0.4033 35.5215 0.3080
# 6 6.3764 22.3668 8.1869 -3.0692 0.3080 37.0555
#
#
#
# Elastic Compliance Matrix: (Units=1/GPa)
#
#
# Indices 1 2 3 4 5 6 
#
# 1 0.012033 -0.001410 -0.006566 -0.000451 -0.000421 0.000197
# 2 -0.001410 0.013591 -0.001180 0.001754 0.002686 -0.007577
# 3 -0.006566 -0.001180 0.017409 0.005829 0.000211 -0.001523
# 4 -0.000451 0.001754 0.005829 0.029670 0.000793 0.000182
# 5 -0.000421 0.002686 0.000211 0.000793 0.028700 -0.001769
# 6 0.000197 -0.007577 -0.001523 0.000182 -0.001769 0.031893
#
#
# Mechanical properties :
#
#
# Convention : Reuss Voigt Hill
#
# Bulk Modulus (GPa) = 40.45005 50.68086 45.56546
# Shear Modulus (GPa) = 31.27955 35.30957 33.29456
#
# Velocity S-wave (km/s) = 3.83775 4.07748 3.95943
# Velocity P-wave (km/s) = 6.21965 6.78465 6.50828
#
# Compressibility (1/GPa) = 0.02472185
#
# Stress axis : x y z
#
# Youngs Moduli (GPa) = 83.10303 73.57677 57.44063
#
# Poissons Ratio (x) = 0.10377 0.37713
# Poissons Ratio (y) = 0.11720 0.06778
# Poissons Ratio (z) = 0.54562 0.08683
#
# Static dielectric constant tensor:
#      x y z
#    x 3.741960 0.220420 -0.091360 
#    y 0.220420 4.020810 -0.029340 
#    z -0.091360 -0.029340 3.858490 
# 
# 
# High freq. dielectric constant tensor:
#      x y z
#    x 1.815610 0.016430 -0.003860 
#    y 0.016430 1.854800 0.002550 
#    z -0.003860 0.002550 1.810840 
# 
# From -- ./inp_files/444218.got.cif
#   From: 2010.06.25/outbox.cif.g09.slc.cpg/sg2_223_cif.got.tgz:444218.got - 2010.06.27 13:26:56.
