data_PCOD8011547
_publ_section_title
;
Structure prediction by ZEFSAII (Michael W. Deem and Ramdas Pophale) SiO2 
 PCOD8011547
Probable space group: P -1
;
_chemical_formula_sum "Si O2"
_cell_formula_units_Z 14
_cell_length_a 9.218413
_cell_length_b 11.901656
_cell_length_c 9.876133
_cell_angle_alpha 54.398469
_cell_angle_beta 134.935933
_cell_angle_gamma 123.713056
_cell_volume 603.879271
_symmetry_space_group_name_H-M "P -1"
_symmetry_group_IT_number 2
_symmetry_cell_setting 'triclinic'
loop_
_space_group_symop_operation_xyz
x,y,z
-x,-y,-z
loop_
_atom_site_type_symbol
_atom_site_label
_atom_site_fract_x
_atom_site_fract_y
_atom_site_fract_z
Si Si1 0.271736 0.682035 0.062847
Si Si2 0.075366 0.106309 0.849457
Si Si3 0.738001 0.019527 0.189737
Si Si4 0.410039 0.330208 0.061473
Si Si5 0.598532 0.772350 0.448325
Si Si6 0.635636 0.159459 0.497647
Si Si7 0.818332 0.604275 0.895724
O O1 0.476041 0.717074 0.268113
O O2 0.310275 0.565137 0.060592
O O3 0.064465 0.605054 0.066403
O O4 0.199591 0.812416 0.851208
O O5 0.121489 0.014601 0.817327
O O6 0.884168 0.175859 0.641226
O O7 0.284834 0.238576 0.917519
O O8 0.000000 0.000000 0.000000
O O9 0.753834 0.926714 0.400169
O O10 0.500000 0.000000 0.000000
O O11 0.594818 0.258150 0.278867
O O12 0.231087 0.301754 0.080298
O O13 0.500000 0.500000 0.000000
O O14 0.427156 0.785856 0.437990
O O15 0.743108 0.668917 0.662766
O O16 0.500000 0.000000 0.500000
#
# Coordination Sequence:
#
# PCOD8011547 Si02
#       7
#     2   2   2   2   2   2   2
#     4  10  21  39  62  91 124 168 207 258 326 386
#     4  12  23  45  72  96 138 179 219 276 333 395
#     4  10  23  39  67  97 127 168 219 268 324 379
#     4  11  26  42  68  98 135 170 224 278 328 395
#     4  10  22  41  62  93 128 162 214 273 318 383
#     4  11  24  43  70  97 129 181 227 266 340 400
#     4  10  22  41  62  91 125 171 209 257 331 390
#
# _framework density 23.183441999999999
#
# number of rings (size 3 to 8) (size 9 to 14) (size 15 to 20)
#    0.000    1.429    1.429    3.857    6.000    1.143 
#    5.143    0.000    0.000    0.000    0.000    0.000 
#    0.000    0.000    0.000    0.000    0.000    0.000 
#
# Total GULP energy -173508.432364 kJ/mol
# GULP energy per Si atom -12393.459455 kJ/mol
# Density = 2.313068 g / cm^3
# Si number density = 23.183442 Si / 1000 Ang^3
#
#
#
# Elastic Constant Matrix: (Units=GPa)
#
#
# Indices 1 2 3 4 5 6 
#
# 1 73.1713 -5.2259 22.9209 -5.2526 13.7594 -14.7644
# 2 -5.2259 121.3889 43.5623 -27.6531 0.4999 0.1696
# 3 22.9209 43.5623 106.8841 -23.6036 11.6810 -4.8015
# 4 -5.2526 -27.6531 -23.6036 38.3706 0.7344 1.8962
# 5 13.7594 0.4999 11.6810 0.7344 26.6031 -1.3544
# 6 -14.7644 0.1696 -4.8015 1.8962 -1.3544 36.9578
#
#
#
# Elastic Compliance Matrix: (Units=1/GPa)
#
#
# Indices 1 2 3 4 5 6 
#
# 1 0.017661 0.002393 -0.003222 0.001995 -0.007502 0.006249
# 2 0.002393 0.011029 -0.003677 0.006008 0.000010 0.000120
# 3 -0.003222 -0.003677 0.013118 0.005057 -0.004163 0.000022
# 4 0.001995 0.006008 0.005057 0.033881 -0.004325 -0.000470
# 5 -0.007502 0.000010 -0.004163 -0.004325 0.043329 -0.001728
# 6 0.006249 0.000120 0.000022 -0.000470 -0.001728 0.029517
#
#
# Mechanical properties :
#
#
# Convention : Reuss Voigt Hill
#
# Bulk Modulus (GPa) = 30.49000 47.10654 38.79827
# Shear Modulus (GPa) = 29.67705 36.39877 33.03791
#
# Velocity S-wave (km/s) = 3.58173 3.96666 3.77910
# Velocity P-wave (km/s) = 5.50320 6.42980 5.98446
#
# Compressibility (1/GPa) = 0.03279763
#
# Stress axis : x y z
#
# Youngs Moduli (GPa) = 56.62044 90.66936 76.22971
#
# Poissons Ratio (x) = -0.21699 0.24558
# Poissons Ratio (y) = -0.13550 0.28031
# Poissons Ratio (z) = 0.18241 0.33341
#
# Static dielectric constant tensor:
#      x y z
#    x 4.570150 0.787860 0.177380 
#    y 0.787860 8.131990 -0.327260 
#    z 0.177380 -0.327260 4.343320 
# 
# 
# High freq. dielectric constant tensor:
#      x y z
#    x 1.919480 -0.005400 0.014540 
#    y -0.005400 1.929630 -0.009200 
#    z 0.014540 -0.009200 1.906320 
# 
# From -- ./inp_files/185557.got.cif
#   From: 2010.06.25/outbox.cif.g09.slc.cpg/sg2_93_cif.got.tgz:185557.got - 2010.06.27 13:26:56.
