data_PCOD8011860
_publ_section_title
;
Structure prediction by ZEFSAII (Michael W. Deem and Ramdas Pophale) SiO2 
 PCOD8011860
Probable space group: P -1
;
_chemical_formula_sum "Si O2"
_cell_formula_units_Z 16
_cell_length_a 7.946139
_cell_length_b 11.447845
_cell_length_c 11.732704
_cell_angle_alpha 50.628161
_cell_angle_beta 111.616842
_cell_angle_gamma 106.880688
_cell_volume 764.637952
_symmetry_space_group_name_H-M "P -1"
_symmetry_group_IT_number 2
_symmetry_cell_setting 'triclinic'
loop_
_space_group_symop_operation_xyz
x,y,z
-x,-y,-z
loop_
_atom_site_type_symbol
_atom_site_label
_atom_site_fract_x
_atom_site_fract_y
_atom_site_fract_z
Si Si1 0.623876 0.362236 0.112809
Si Si2 0.811296 0.160279 0.691065
Si Si3 0.254486 0.425088 0.389459
Si Si4 0.182811 0.435811 0.112447
Si Si5 0.485866 0.732729 0.294424
Si Si6 0.152579 0.583662 0.639162
Si Si7 0.712104 0.828989 0.857862
Si Si8 0.214954 0.245960 0.821759
O O1 0.773512 0.371247 0.244823
O O2 0.507675 0.200700 0.187325
O O3 0.500000 0.500000 0.000000
O O4 0.701481 0.402706 0.981929
O O5 0.664628 0.161424 0.758080
O O6 0.771981 0.288696 0.510100
O O7 0.020265 0.178492 0.769489
O O8 0.775259 0.995965 0.724312
O O9 0.210237 0.371279 0.283952
O O10 0.370009 0.583919 0.315275
O O11 0.370544 0.299760 0.551218
O O12 0.066628 0.436296 0.404370
O O13 0.201369 0.296992 0.117552
O O14 0.000000 0.500000 0.000000
O O15 0.613780 0.805037 0.179041
O O16 0.228092 0.428787 0.710641
O O17 0.774692 0.817701 0.010121
#
# Coordination Sequence:
#
# PCOD8011860 Si02
#       8
#     2   2   2   2   2   2   2   2
#     4  10  21  39  64  95 124 176 222 267 324 391
#     4  12  27  44  64 103 141 177 219 275 352 388
#     4  11  21  40  64 104 130 166 238 277 325 386
#     4  11  21  41  70  96 126 173 228 272 321 403
#     4  11  25  38  69  99 130 177 223 285 321 399
#     4  12  21  42  70  95 137 178 223 281 325 399
#     4  11  26  45  65  99 140 177 214 281 343 397
#     4  12  22  47  70  97 135 176 234 273 328 404
#
# _framework density 20.924935999999999
#
# number of rings (size 3 to 8) (size 9 to 14) (size 15 to 20)
#    0.000    0.750    6.250    3.000    5.250    1.000 
#    2.250    0.625    0.000    0.000    0.000    0.000 
#    0.000    0.000    0.000    0.000    0.000    0.000 
#
# Total GULP energy -198212.972985 kJ/mol
# GULP energy per Si atom -12388.310812 kJ/mol
# Density = 2.087731 g / cm^3
# Si number density = 20.924936 Si / 1000 Ang^3
#
#
#
# Elastic Constant Matrix: (Units=GPa)
#
#
# Indices 1 2 3 4 5 6 
#
# 1 121.3913 22.9101 16.0116 -4.0979 -2.8328 -1.1277
# 2 22.9101 80.9901 25.4943 -8.3087 -4.9014 11.9407
# 3 16.0116 25.4943 63.7924 6.8632 -8.1863 2.9243
# 4 -4.0979 -8.3087 6.8632 32.1312 3.4191 -5.5118
# 5 -2.8328 -4.9014 -8.1863 3.4191 31.3001 8.4728
# 6 -1.1277 11.9407 2.9243 -5.5118 8.4728 33.1026
#
#
#
# Elastic Compliance Matrix: (Units=1/GPa)
#
#
# Indices 1 2 3 4 5 6 
#
# 1 0.008903 -0.002129 -0.001658 0.001263 -0.000522 0.001561
# 2 -0.002129 0.016075 -0.005873 0.004078 0.001728 -0.005115
# 3 -0.001658 -0.005873 0.020007 -0.006986 0.005546 -0.002288
# 4 0.001263 0.004078 -0.006986 0.035741 -0.006844 0.006892
# 5 -0.000522 0.001728 0.005546 -0.006844 0.037589 -0.011892
# 6 0.001561 -0.005115 -0.002288 0.006892 -0.011892 0.036501
#
#
# Mechanical properties :
#
#
# Convention : Reuss Voigt Hill
#
# Bulk Modulus (GPa) = 38.96164 43.88953 41.42559
# Shear Modulus (GPa) = 27.36858 32.75728 30.06293
#
# Velocity S-wave (km/s) = 3.62047 3.96089 3.79450
# Velocity P-wave (km/s) = 6.01142 6.47599 6.24803
#
# Compressibility (1/GPa) = 0.02566627
#
# Stress axis : x y z
#
# Youngs Moduli (GPa) = 112.31827 62.20798 49.98203
#
# Poissons Ratio (x) = 0.13243 0.08289
# Poissons Ratio (y) = 0.23910 0.29352
# Poissons Ratio (z) = 0.18626 0.36532
#
# Static dielectric constant tensor:
#      x y z
#    x 4.613120 0.539420 -0.011440 
#    y 0.539420 3.872410 0.126670 
#    z -0.011440 0.126670 3.768400 
# 
# 
# High freq. dielectric constant tensor:
#      x y z
#    x 1.841570 0.015120 -0.003410 
#    y 0.015120 1.798150 0.018150 
#    z -0.003410 0.018150 1.816660 
# 
# From -- ./inp_files/392181.got.cif
#   From: 2010.06.25/outbox.cif.g09.slc.cpg/sg2_197_cif.got.tgz:392181.got - 2010.06.27 13:26:56.
