data_PCOD8011246
_publ_section_title
;
Structure prediction by ZEFSAII (Michael W. Deem and Ramdas Pophale) SiO2 
 PCOD8011246
Probable space group: P -1
;
_chemical_formula_sum "Si O2"
_cell_formula_units_Z 16
_cell_length_a 14.806750
_cell_length_b 6.954608
_cell_length_c 15.804255
_cell_angle_alpha 52.922285
_cell_angle_beta 142.163922
_cell_angle_gamma 117.306823
_cell_volume 795.944814
_symmetry_space_group_name_H-M "P -1"
_symmetry_group_IT_number 2
_symmetry_cell_setting 'triclinic'
loop_
_space_group_symop_operation_xyz
x,y,z
-x,-y,-z
loop_
_atom_site_type_symbol
_atom_site_label
_atom_site_fract_x
_atom_site_fract_y
_atom_site_fract_z
Si Si1 0.602387 0.320184 0.826323
Si Si2 0.800472 0.906828 0.546278
Si Si3 0.366618 0.617556 0.973857
Si Si4 0.611207 0.475009 0.511211
Si Si5 0.959625 0.454919 0.224685
Si Si6 0.120394 0.384529 0.061920
Si Si7 0.459485 0.856607 0.815088
Si Si8 0.831632 0.128409 0.693370
O O1 0.454176 0.455336 0.647818
O O2 0.731664 0.476938 0.842273
O O3 0.587594 0.051157 0.848470
O O4 0.617544 0.280719 0.947640
O O5 0.736333 0.649352 0.587860
O O6 0.960614 0.815730 0.650553
O O7 0.696298 0.060970 0.364500
O O8 0.807487 0.056880 0.597529
O O9 0.196405 0.571331 0.835831
O O10 0.426097 0.811377 0.900949
O O11 0.471965 0.379628 0.115259
O O12 0.500000 0.500000 0.500000
O O13 0.684982 0.213623 0.614843
O O14 0.055438 0.654161 0.289464
O O15 0.921841 0.571876 0.076357
O O16 0.119082 0.101027 0.154201
O O17 0.000000 0.500000 0.000000
#
# Coordination Sequence:
#
# PCOD8011246 Si02
#       8
#     2   2   2   2   2   2   2   2
#     4  10  22  38  60  85 119 150 191 243 290 345
#     4  10  21  39  57  85 118 155 197 239 294 351
#     4  10  22  40  61  91 110 151 202 242 304 345
#     4  10  22  36  57  88 118 156 200 235 288 351
#     4  10  23  38  58  88 119 156 198 241 288 356
#     4  11  22  36  58  86 117 157 197 228 286 354
#     4  10  22  40  64  84 117 148 196 255 293 351
#     4  11  22  38  59  81 126 160 189 242 288 342
#
# _framework density 20.101897000000001
#
# number of rings (size 3 to 8) (size 9 to 14) (size 15 to 20)
#    0.000    1.750    1.250    2.250    3.500    6.500 
#    0.000    0.625    0.000    0.000    0.000    0.000 
#    0.000    0.000    0.000    0.000    0.000    0.000 
#
# Total GULP energy -198226.085497 kJ/mol
# GULP energy per Si atom -12389.130344 kJ/mol
# Density = 2.005614 g / cm^3
# Si number density = 20.101897 Si / 1000 Ang^3
#
#
#
# Elastic Constant Matrix: (Units=GPa)
#
#
# Indices 1 2 3 4 5 6 
#
# 1 64.1600 25.0894 19.8483 -6.6676 17.2909 -6.7368
# 2 25.0894 99.8686 45.5663 -1.8184 8.0054 -8.8940
# 3 19.8483 45.5663 101.0146 -11.1302 13.6625 -13.6681
# 4 -6.6676 -1.8184 -11.1302 39.9185 -6.3974 5.2250
# 5 17.2909 8.0054 13.6625 -6.3974 28.7925 1.1706
# 6 -6.7368 -8.8940 -13.6681 5.2250 1.1706 20.2809
#
#
#
# Elastic Compliance Matrix: (Units=1/GPa)
#
#
# Indices 1 2 3 4 5 6 
#
# 1 0.020858 -0.003805 0.000042 0.000713 -0.011564 0.005771
# 2 -0.003805 0.013478 -0.005417 -0.001599 0.000698 0.001367
# 3 0.000042 -0.005417 0.014188 0.001986 -0.005094 0.006982
# 4 0.000713 -0.001599 0.001986 0.027369 0.005419 -0.006490
# 5 -0.011564 0.000698 -0.005094 0.005419 0.045550 -0.010993
# 6 0.005771 0.001367 0.006982 -0.006490 -0.010993 0.058836
#
#
# Mechanical properties :
#
#
# Convention : Reuss Voigt Hill
#
# Bulk Modulus (GPa) = 33.15530 49.56125 41.35827
# Shear Modulus (GPa) = 23.95864 29.43433 26.69649
#
# Velocity S-wave (km/s) = 3.45608 3.83071 3.64821
# Velocity P-wave (km/s) = 5.69696 6.65390 6.19394
#
# Compressibility (1/GPa) = 0.03016109
#
# Stress axis : x y z
#
# Youngs Moduli (GPa) = 47.94410 74.19727 70.48425
#
# Poissons Ratio (x) = 0.28232 -0.00293
# Poissons Ratio (y) = 0.18243 0.38185
# Poissons Ratio (z) = -0.00200 0.40196
#
# Static dielectric constant tensor:
#      x y z
#    x 3.681150 0.075920 0.260020 
#    y 0.075920 3.591300 0.015500 
#    z 0.260020 0.015500 3.892980 
# 
# 
# High freq. dielectric constant tensor:
#      x y z
#    x 1.773420 -0.004580 0.006760 
#    y -0.004580 1.789300 0.001700 
#    z 0.006760 0.001700 1.799330 
# 
# From -- ./inp_files/39466.got.cif
#   From: 2010.06.25/outbox.cif.g09.slc.cpg/sg2_20_cif.got.tgz:39466.got - 2010.06.27 13:26:56.
