data_PCOD8011661
_publ_section_title
;
Structure prediction by ZEFSAII (Michael W. Deem and Ramdas Pophale) SiO2 
 PCOD8011661
Probable space group: P -1
;
_chemical_formula_sum "Si O2"
_cell_formula_units_Z 16
_cell_length_a 29.015491
_cell_length_b 5.115961
_cell_length_c 5.258729
_cell_angle_alpha 61.087401
_cell_angle_beta 81.945611
_cell_angle_gamma 63.185801
_cell_volume 606.799065
_symmetry_space_group_name_H-M "P -1"
_symmetry_group_IT_number 2
_symmetry_cell_setting 'triclinic'
loop_
_space_group_symop_operation_xyz
x,y,z
-x,-y,-z
loop_
_atom_site_type_symbol
_atom_site_label
_atom_site_fract_x
_atom_site_fract_y
_atom_site_fract_z
Si Si1 0.323337 0.752548 0.039968
Si Si2 0.113816 0.518243 0.421502
Si Si3 0.640870 0.684527 0.287399
Si Si4 0.216485 0.096778 0.334274
Si Si5 0.480142 0.891394 0.817649
Si Si6 0.132027 0.083539 0.035752
Si Si7 0.981221 0.389174 0.818433
Si Si8 0.235161 0.658369 0.945711
O O1 0.347435 0.514476 0.892016
O O2 0.262247 0.802580 0.071807
O O3 0.326525 0.098580 0.831401
O O4 0.349860 0.564967 0.365815
O O5 0.176895 0.333387 0.473823
O O6 0.094806 0.411501 0.747870
O O7 0.083094 0.445702 0.237521
O O8 0.096677 0.915829 0.256777
O O9 0.581459 0.946611 0.214647
O O10 0.251265 0.741870 0.613934
O O11 0.172523 0.123887 0.165470
O O12 0.255411 0.256757 0.145932
O O13 0.500000 0.000000 0.500000
O O14 0.500000 0.500000 0.000000
O O15 0.500000 0.000000 0.000000
O O16 0.172568 0.809275 0.932631
O O17 0.000000 0.500000 0.500000
O O18 0.000000 0.500000 0.000000
O O19 0.000000 0.000000 0.000000
#
# Coordination Sequence:
#
# PCOD8011661 Si02
#       8
#     2   2   2   2   2   2   2   2
#     4  12  27  45  71 100 148 185 229 286 341 427
#     4  10  23  39  63  94 126 170 217 282 332 393
#     4  12  26  46  69 106 140 187 233 283 356 411
#     4  10  21  39  63  91 125 165 228 272 330 395
#     4  12  25  45  74 103 138 182 234 298 347 411
#     4  10  21  39  64  92 125 166 225 272 330 395
#     4  12  28  49  73 105 140 184 229 282 350 427
#     4  10  23  38  61  94 124 178 221 271 332 395
#
# _framework density 26.367872999999999
#
# number of rings (size 3 to 8) (size 9 to 14) (size 15 to 20)
#    0.000    1.000    0.000    6.000    7.000    0.000 
#    0.000    0.000    0.000    0.000    0.000    0.000 
#    0.000    0.000    0.000    0.000    0.000    0.000 
#
# Total GULP energy -198297.975989 kJ/mol
# GULP energy per Si atom -12393.623499 kJ/mol
# Density = 2.630786 g / cm^3
# Si number density = 26.367873 Si / 1000 Ang^3
#
#
#
# Elastic Constant Matrix: (Units=GPa)
#
#
# Indices 1 2 3 4 5 6 
#
# 1 106.5555 15.3633 53.0546 -6.4531 -3.7256 5.7997
# 2 15.3633 77.2780 55.5902 0.3085 -23.0831 26.9313
# 3 53.0546 55.5902 243.2502 -19.9262 -24.0587 41.8040
# 4 -6.4531 0.3085 -19.9262 46.4549 17.7665 -5.4095
# 5 -3.7256 -23.0831 -24.0587 17.7665 45.7064 -6.5106
# 6 5.7997 26.9313 41.8040 -5.4095 -6.5106 63.6401
#
#
#
# Elastic Compliance Matrix: (Units=1/GPa)
#
#
# Indices 1 2 3 4 5 6 
#
# 1 0.010648 -0.001214 -0.002244 0.001104 -0.001215 0.000987
# 2 -0.001214 0.020460 -0.002844 -0.006163 0.010256 -0.006154
# 3 -0.002244 -0.002844 0.005821 0.001778 0.000437 -0.002220
# 4 0.001104 -0.006163 0.001778 0.027522 -0.012442 0.002406
# 5 -0.001215 0.010256 0.000437 -0.012442 0.031694 -0.002332
# 6 0.000987 -0.006154 -0.002220 0.002406 -0.002332 0.019652
#
#
# Mechanical properties :
#
#
# Convention : Reuss Voigt Hill
#
# Bulk Modulus (GPa) = 41.10985 75.01110 58.06047
# Shear Modulus (GPa) = 36.62768 51.36533 43.99650
#
# Velocity S-wave (km/s) = 3.73111 4.41843 4.08924
# Velocity P-wave (km/s) = 5.84691 7.38510 6.66056
#
# Compressibility (1/GPa) = 0.02432507
#
# Stress axis : x y z
#
# Youngs Moduli (GPa) = 93.91505 48.87512 171.79733
#
# Poissons Ratio (x) = 0.05932 0.38558
# Poissons Ratio (y) = 0.11398 0.48858
# Poissons Ratio (z) = 0.21078 0.13900
#
# Static dielectric constant tensor:
#      x y z
#    x 6.582940 -1.183800 -0.658400 
#    y -1.183800 5.777210 0.050250 
#    z -0.658400 0.050250 6.028350 
# 
# 
# High freq. dielectric constant tensor:
#      x y z
#    x 2.068260 -0.001840 -0.010720 
#    y -0.001840 2.076910 -0.001500 
#    z -0.010720 -0.001500 2.085570 
# 
# From -- ./inp_files/14594.got.cif
#   From: 2010.06.25/outbox.cif.g09.slc.cpg/sg2_8_cif.got.tgz:14594.got - 2010.06.27 13:26:56.
