data_PCOD8011605
_publ_section_title
;
Structure prediction by ZEFSAII (Michael W. Deem and Ramdas Pophale) SiO2 
 PCOD8011605
Probable space group: P -1
;
_chemical_formula_sum "Si O2"
_cell_formula_units_Z 16
_cell_length_a 8.850360
_cell_length_b 11.586031
_cell_length_c 9.869126
_cell_angle_alpha 55.946703
_cell_angle_beta 121.129118
_cell_angle_gamma 110.142934
_cell_volume 715.562632
_symmetry_space_group_name_H-M "P -1"
_symmetry_group_IT_number 2
_symmetry_cell_setting 'triclinic'
loop_
_space_group_symop_operation_xyz
x,y,z
-x,-y,-z
loop_
_atom_site_type_symbol
_atom_site_label
_atom_site_fract_x
_atom_site_fract_y
_atom_site_fract_z
Si Si1 0.036318 0.954009 0.808771
Si Si2 0.138773 0.783812 0.542939
Si Si3 0.766682 0.638645 0.524469
Si Si4 0.137284 0.603452 0.417732
Si Si5 0.339288 0.169875 0.874805
Si Si6 0.708384 0.222592 0.106684
Si Si7 0.146685 0.276103 0.960930
Si Si8 0.796374 0.531253 0.894669
O O1 0.109195 0.836549 0.821433
O O2 0.896916 0.879057 0.897578
O O3 0.205127 0.032336 0.909968
O O4 0.927427 0.062394 0.604674
O O5 0.217592 0.724019 0.478719
O O6 0.292521 0.789393 0.722743
O O7 0.977417 0.676977 0.587001
O O8 0.717236 0.490004 0.521555
O O9 0.663853 0.758541 0.323310
O O10 0.724547 0.618826 0.676988
O O11 0.000000 0.500000 0.500000
O O12 0.042800 0.674772 0.202518
O O13 0.537508 0.131173 0.027304
O O14 0.274919 0.275121 0.890807
O O15 0.686365 0.381441 0.948093
O O16 0.239826 0.380518 0.045880
O O17 0.000000 0.500000 0.000000
#
# Coordination Sequence:
#
# PCOD8011605 Si02
#       8
#     2   2   2   2   2   2   2   2
#     4  11  22  41  67  88 121 172 217 252 295 379
#     4  10  20  35  63  91 118 164 218 252 300 368
#     4  10  19  38  61  93 123 167 208 252 305 381
#     4  10  16  32  61  90 118 155 210 252 290 361
#     4  11  26  40  64  93 133 164 203 254 330 367
#     4  12  24  41  62  96 130 164 201 266 319 368
#     4  12  21  40  67  96 121 164 215 261 297 374
#     4  12  21  37  66  96 123 157 215 263 303 361
#
# _framework density 22.360026000000001
#
# number of rings (size 3 to 8) (size 9 to 14) (size 15 to 20)
#    0.000    1.000    7.500    1.875    0.000    2.000 
#    0.000    0.625    0.000    0.000    0.000    0.000 
#    0.000    0.000    0.000    0.000    0.000    0.000 
#
# Total GULP energy -198372.067616 kJ/mol
# GULP energy per Si atom -12398.254226 kJ/mol
# Density = 2.230913 g / cm^3
# Si number density = 22.360026 Si / 1000 Ang^3
#
#
#
# Elastic Constant Matrix: (Units=GPa)
#
#
# Indices 1 2 3 4 5 6 
#
# 1 20.7325 3.4357 18.2453 1.3019 -3.6441 -2.3843
# 2 3.4357 89.7954 41.0592 -0.3124 -13.2732 -8.5536
# 3 18.2453 41.0592 128.5495 11.0235 -15.3046 -1.3554
# 4 1.3019 -0.3124 11.0235 39.0588 -0.5809 -4.4828
# 5 -3.6441 -13.2732 -15.3046 -0.5809 29.8073 8.1933
# 6 -2.3843 -8.5536 -1.3554 -4.4828 8.1933 31.0290
#
#
#
# Elastic Compliance Matrix: (Units=1/GPa)
#
#
# Indices 1 2 3 4 5 6 
#
# 1 0.056167 0.002516 -0.008526 0.001066 0.002494 0.004132
# 2 0.002516 0.013909 -0.004516 0.001719 0.003337 0.003197
# 3 -0.008526 -0.004516 0.011068 -0.003142 0.003324 -0.002748
# 4 0.001066 0.001719 -0.003142 0.026986 -0.001486 0.004709
# 5 0.002494 0.003337 0.003324 -0.001486 0.039606 -0.009416
# 6 0.004132 0.003197 -0.002748 0.004709 -0.009416 0.036474
#
#
# Mechanical properties :
#
#
# Convention : Reuss Voigt Hill
#
# Bulk Modulus (GPa) = 16.64163 40.50642 28.57403
# Shear Modulus (GPa) = 22.19348 31.73482 26.96415
#
# Velocity S-wave (km/s) = 3.15390 3.77140 3.47639
# Velocity P-wave (km/s) = 4.55209 6.09258 5.37778
#
# Compressibility (1/GPa) = 0.06009025
#
# Stress axis : x y z
#
# Youngs Moduli (GPa) = 17.80414 71.89624 90.35234
#
# Poissons Ratio (x) = -0.18087 0.77037
# Poissons Ratio (y) = -0.04479 0.40803
# Poissons Ratio (z) = 0.15180 0.32468
#
# Static dielectric constant tensor:
#      x y z
#    x 3.593930 -0.291750 -0.246330 
#    y -0.291750 4.302120 0.039250 
#    z -0.246330 0.039250 4.128490 
# 
# 
# High freq. dielectric constant tensor:
#      x y z
#    x 1.828280 -0.017420 -0.017540 
#    y -0.017420 1.888170 0.000440 
#    z -0.017540 0.000440 1.888610 
# 
# From -- ./inp_files/185407.got.cif
#   From: 2010.06.25/outbox.cif.g09.slc.cpg/sg2_93_cif.got.tgz:185407.got - 2010.06.27 13:26:56.
