data_PCOD8011620
_publ_section_title
;
Structure prediction by ZEFSAII (Michael W. Deem and Ramdas Pophale) SiO2 
 PCOD8011620
Probable space group: P -1
;
_chemical_formula_sum "Si O2"
_cell_formula_units_Z 16
_cell_length_a 9.868419
_cell_length_b 6.730618
_cell_length_c 17.219313
_cell_angle_alpha 133.001230
_cell_angle_beta 52.611682
_cell_angle_gamma 125.313588
_cell_volume 637.594756
_symmetry_space_group_name_H-M "P -1"
_symmetry_group_IT_number 2
_symmetry_cell_setting 'triclinic'
loop_
_space_group_symop_operation_xyz
x,y,z
-x,-y,-z
loop_
_atom_site_type_symbol
_atom_site_label
_atom_site_fract_x
_atom_site_fract_y
_atom_site_fract_z
Si Si1 0.201262 0.669077 0.884191
Si Si2 0.025169 0.634383 0.786809
Si Si3 0.810540 0.361445 0.566513
Si Si4 0.682439 0.325083 0.770726
Si Si5 0.936573 0.090902 0.851522
Si Si6 0.741489 0.726058 0.426299
Si Si7 0.415614 0.316971 0.360922
Si Si8 0.441988 0.216421 0.131429
O O1 0.141526 0.803373 0.863669
O O2 0.416950 0.706356 0.823904
O O3 0.080947 0.343653 0.826948
O O4 0.143487 0.805100 0.016133
O O5 0.076104 0.357433 0.663969
O O6 0.811742 0.500880 0.840950
O O7 0.047660 0.872492 0.776239
O O8 0.808959 0.346791 0.656315
O O9 0.672672 0.534966 0.635335
O O10 0.000000 0.500000 0.500000
O O11 0.751152 0.034982 0.471707
O O12 0.536104 0.491038 0.846163
O O13 0.590489 0.006294 0.745184
O O14 0.767462 0.931431 0.812724
O O15 0.617822 0.498283 0.350270
O O16 0.683404 0.682252 0.523584
O O17 0.500000 0.000000 0.000000
#
# Coordination Sequence:
#
# PCOD8011620 Si02
#       8
#     2   2   2   2   2   2   2   2
#     4  10  21  39  63  88 122 166 203 252 315 367
#     4  11  22  37  59  92 119 155 206 255 305 366
#     4  11  22  39  63  87 122 166 207 255 316 372
#     4  10  23  39  62  92 124 162 211 258 309 374
#     4   9  21  41  61  88 125 161 204 255 308 371
#     4  10  23  38  57  92 120 161 206 259 305 370
#     4  10  22  41  60  83 127 161 205 257 308 372
#     4   9  20  40  63  91 126 160 204 257 306 369
#
# _framework density 25.094308000000002
#
# number of rings (size 3 to 8) (size 9 to 14) (size 15 to 20)
#    0.000    2.000    0.000    2.250    3.500    7.000 
#    0.000    0.000    0.000    9.000    0.000    0.000 
#    0.000    0.000    0.000    0.000    0.000    0.000 
#
# Total GULP energy -198287.566860 kJ/mol
# GULP energy per Si atom -12392.972929 kJ/mol
# Density = 2.503719 g / cm^3
# Si number density = 25.094308 Si / 1000 Ang^3
#
#
#
# Elastic Constant Matrix: (Units=GPa)
#
#
# Indices 1 2 3 4 5 6 
#
# 1 192.4614 54.0496 33.8810 8.3477 -0.6585 2.1761
# 2 54.0496 124.1229 29.6751 26.3513 -10.6114 11.4301
# 3 33.8810 29.6751 65.5947 32.1622 -12.0316 -4.5308
# 4 8.3477 26.3513 32.1622 41.9992 -0.2190 -3.2743
# 5 -0.6585 -10.6114 -12.0316 -0.2190 37.7566 7.8764
# 6 2.1761 11.4301 -4.5308 -3.2743 7.8764 32.2264
#
#
#
# Elastic Compliance Matrix: (Units=1/GPa)
#
#
# Indices 1 2 3 4 5 6 
#
# 1 0.006603 -0.002951 -0.004359 0.003939 -0.002278 0.000945
# 2 -0.002951 0.011775 0.000271 -0.007437 0.004510 -0.005797
# 3 -0.004359 0.000271 0.030007 -0.022245 0.009466 -0.000156
# 4 0.003939 -0.007437 -0.022245 0.045167 -0.010166 0.006318
# 5 -0.002278 0.004510 0.009466 -0.010166 0.032571 -0.009109
# 6 0.000945 -0.005797 -0.000156 0.006318 -0.009109 0.035869
#
#
# Mechanical properties :
#
#
# Convention : Reuss Voigt Hill
#
# Bulk Modulus (GPa) = 29.15026 68.59892 48.87459
# Shear Modulus (GPa) = 26.66575 40.03467 33.35021
#
# Velocity S-wave (km/s) = 3.26332 3.99854 3.64949
# Velocity P-wave (km/s) = 5.08336 6.97951 6.10549
#
# Compressibility (1/GPa) = 0.03430502
#
# Stress axis : x y z
#
# Youngs Moduli (GPa) = 151.45404 84.92439 33.32575
#
# Poissons Ratio (x) = 0.25061 0.14528
# Poissons Ratio (y) = 0.44693 -0.00901
# Poissons Ratio (z) = 0.66025 -0.02297
#
# Static dielectric constant tensor:
#      x y z
#    x 4.977760 0.105470 -0.010220 
#    y 0.105470 4.487220 0.361990 
#    z -0.010220 0.361990 4.524010 
# 
# 
# High freq. dielectric constant tensor:
#      x y z
#    x 2.018940 -0.001860 0.005400 
#    y -0.001860 1.990940 0.014150 
#    z 0.005400 0.014150 2.010130 
# 
# From -- ./inp_files/38463.got.cif
#   From: 2010.06.25/outbox.cif.g09.slc.cpg/sg2_20_cif.got.tgz:38463.got - 2010.06.27 13:26:56.
