data_PCOD8011568
_publ_section_title
;
Structure prediction by ZEFSAII (Michael W. Deem and Ramdas Pophale) SiO2 
 PCOD8011568
Probable space group: P -1
;
_chemical_formula_sum "Si O2"
_cell_formula_units_Z 16
_cell_length_a 8.577845
_cell_length_b 11.130293
_cell_length_c 8.818252
_cell_angle_alpha 64.062573
_cell_angle_beta 86.060576
_cell_angle_gamma 65.856125
_cell_volume 684.619757
_symmetry_space_group_name_H-M "P -1"
_symmetry_group_IT_number 2
_symmetry_cell_setting 'triclinic'
loop_
_space_group_symop_operation_xyz
x,y,z
-x,-y,-z
loop_
_atom_site_type_symbol
_atom_site_label
_atom_site_fract_x
_atom_site_fract_y
_atom_site_fract_z
Si Si1 0.799422 0.302322 0.427950
Si Si2 0.455955 0.963400 0.746249
Si Si3 0.942463 0.928949 0.259630
Si Si4 0.486021 0.219698 0.450443
Si Si5 0.026770 0.791439 0.012213
Si Si6 0.697363 0.742325 0.055181
Si Si7 0.794962 0.566456 0.451431
Si Si8 0.843583 0.457221 0.054750
O O1 0.631284 0.278985 0.414006
O O2 0.748381 0.431863 0.484955
O O3 0.879885 0.343755 0.253417
O O4 0.948346 0.148918 0.558443
O O5 0.526412 0.834075 0.687897
O O6 0.251021 0.050880 0.715920
O O7 0.531379 0.082762 0.638872
O O8 0.521648 0.886647 0.949042
O O9 0.943779 0.086344 0.153424
O O10 0.031948 0.820252 0.173205
O O11 0.303489 0.355085 0.431847
O O12 0.177352 0.628791 0.046801
O O13 0.849045 0.788638 0.971002
O O14 0.725514 0.693199 0.255605
O O15 0.685325 0.611091 0.025187
O O16 0.000000 0.500000 0.500000
O O17 0.000000 0.500000 0.000000
#
# Coordination Sequence:
#
# PCOD8011568 Si02
#       8
#     2   2   2   2   2   2   2   2
#     4  11  23  43  68  96 131 173 222 272 329 389
#     4  11  25  42  62  94 134 175 220 268 327 390
#     4  11  24  40  64  97 131 172 217 269 325 390
#     4  11  25  43  66  96 132 173 219 275 329 390
#     4  10  21  39  62  93 126 162 215 270 324 383
#     4  10  22  41  64  90 126 170 213 269 330 388
#     4  11  24  44  69  97 131 171 219 272 331 397
#     4   9  21  40  64  91 121 165 216 267 323 383
#
# _framework density 23.370636999999999
#
# number of rings (size 3 to 8) (size 9 to 14) (size 15 to 20)
#    0.000    1.500    0.000    4.125    0.000   16.000 
#    0.000    8.125    0.000    0.000    0.000    0.000 
#    0.000    0.000    0.000    0.000    0.000    0.000 
#
# Total GULP energy -198313.910340 kJ/mol
# GULP energy per Si atom -12394.619396 kJ/mol
# Density = 2.331744 g / cm^3
# Si number density = 23.370637 Si / 1000 Ang^3
#
#
#
# Elastic Constant Matrix: (Units=GPa)
#
#
# Indices 1 2 3 4 5 6 
#
# 1 99.4807 32.3454 40.7005 -10.6757 -15.5352 4.1225
# 2 32.3454 106.1179 23.9347 16.8268 -7.8975 21.6355
# 3 40.7005 23.9347 103.7883 -17.3013 -10.1259 -12.3679
# 4 -10.6757 16.8268 -17.3013 22.7841 -2.1093 -2.6333
# 5 -15.5352 -7.8975 -10.1259 -2.1093 36.1283 -11.4003
# 6 4.1225 21.6355 -12.3679 -2.6333 -11.4003 41.6572
#
#
#
# Elastic Compliance Matrix: (Units=1/GPa)
#
#
# Indices 1 2 3 4 5 6 
#
# 1 0.014775 -0.006460 -0.001195 0.011869 0.006590 0.004092
# 2 -0.006460 0.021262 -0.010121 -0.029196 -0.008192 -0.017496
# 3 -0.001195 -0.010121 0.019055 0.023918 0.008722 0.014931
# 4 0.011869 -0.029196 0.023918 0.094961 0.021363 0.032939
# 5 0.006590 -0.008192 0.008722 0.021363 0.038083 0.017965
# 6 0.004092 -0.017496 0.014931 0.032939 0.017965 0.044119
#
#
# Mechanical properties :
#
#
# Convention : Reuss Voigt Hill
#
# Bulk Modulus (GPa) = 51.17713 55.92757 53.55235
# Shear Modulus (GPa) = 18.22688 34.27434 26.25061
#
# Velocity S-wave (km/s) = 2.79571 3.83372 3.35510
# Velocity P-wave (km/s) = 5.68919 6.60145 6.16223
#
# Compressibility (1/GPa) = 0.01953998
#
# Stress axis : x y z
#
# Youngs Moduli (GPa) = 67.68266 47.03172 52.47975
#
# Poissons Ratio (x) = 0.30381 0.06272
# Poissons Ratio (y) = 0.43722 0.53116
# Poissons Ratio (z) = 0.08089 0.47602
#
# Static dielectric constant tensor:
#      x y z
#    x 3.885370 0.253270 -0.242880 
#    y 0.253270 4.850940 0.003720 
#    z -0.242880 0.003720 4.182490 
# 
# 
# High freq. dielectric constant tensor:
#      x y z
#    x 1.900510 0.017190 -0.018880 
#    y 0.017190 1.953080 -0.004810 
#    z -0.018880 -0.004810 1.923700 
# 
# From -- ./inp_files/185049.got.cif
#   From: 2010.06.25/outbox.cif.g09.slc.cpg/sg2_93_cif.got.tgz:185049.got - 2010.06.27 13:26:56.
