data_PCOD8011907
_publ_section_title
;
Structure prediction by ZEFSAII (Michael W. Deem and Ramdas Pophale) SiO2 
 PCOD8011907
Probable space group: P -1
;
_chemical_formula_sum "Si O2"
_cell_formula_units_Z 16
_cell_length_a 7.700728
_cell_length_b 16.740710
_cell_length_c 12.181409
_cell_angle_alpha 125.449498
_cell_angle_beta 56.124896
_cell_angle_gamma 146.139726
_cell_volume 702.769254
_symmetry_space_group_name_H-M "P -1"
_symmetry_group_IT_number 2
_symmetry_cell_setting 'triclinic'
loop_
_space_group_symop_operation_xyz
x,y,z
-x,-y,-z
loop_
_atom_site_type_symbol
_atom_site_label
_atom_site_fract_x
_atom_site_fract_y
_atom_site_fract_z
Si Si1 0.268852 0.865436 0.160749
Si Si2 0.952906 0.873862 0.459067
Si Si3 0.764725 0.346958 0.900413
Si Si4 0.866251 0.192228 0.225493
Si Si5 0.884635 0.562626 0.357764
Si Si6 0.276404 0.660669 0.485984
Si Si7 0.782257 0.735974 0.630911
Si Si8 0.725029 0.667282 0.015759
O O1 0.352583 0.779960 0.077933
O O2 0.192781 0.886046 0.323431
O O3 0.985228 0.782652 0.109000
O O4 0.589340 0.030255 0.138235
O O5 0.599646 0.715141 0.427761
O O6 0.967793 0.870504 0.584760
O O7 0.000000 0.000000 0.500000
O O8 0.473469 0.303630 0.915089
O O9 0.998941 0.375112 0.755333
O O10 0.000000 0.500000 0.000000
O O11 0.707711 0.230268 0.369402
O O12 0.052649 0.193565 0.252766
O O13 0.104421 0.306930 0.136140
O O14 0.787812 0.626253 0.504437
O O15 0.599262 0.380529 0.317191
O O16 0.205935 0.640495 0.365697
O O17 0.000000 0.500000 0.500000
O O18 0.500000 0.500000 0.000000
#
# Coordination Sequence:
#
# PCOD8011907 Si02
#       8
#     2   2   2   2   2   2   2   2
#     4  12  27  49  73 103 154 183 240 306 355 439
#     4  12  24  44  70 110 143 184 234 289 378 430
#     4  12  25  45  73 106 138 194 241 297 358 418
#     4  11  27  48  67 105 144 191 240 293 370 422
#     4  10  21  39  65 103 137 178 233 297 350 410
#     4  11  23  39  70 103 141 184 234 295 355 427
#     4  10  22  40  71  98 144 180 229 296 353 431
#     4  12  28  48  76 104 140 194 252 299 349 435
#
# _framework density 22.767074999999998
#
# number of rings (size 3 to 8) (size 9 to 14) (size 15 to 20)
#    0.000    0.750    5.000    1.875    3.500    3.000 
#    2.250    0.000    0.000    0.000    0.000    0.000 
#    0.000    0.000    0.000    0.000    0.000    0.000 
#
# Total GULP energy -198312.209875 kJ/mol
# GULP energy per Si atom -12394.513117 kJ/mol
# Density = 2.271526 g / cm^3
# Si number density = 22.767075 Si / 1000 Ang^3
#
#
#
# Elastic Constant Matrix: (Units=GPa)
#
#
# Indices 1 2 3 4 5 6 
#
# 1 123.7595 45.0306 20.9546 7.3865 14.5335 1.7286
# 2 45.0306 134.9630 23.3401 6.7191 14.8579 -0.3978
# 3 20.9546 23.3401 59.8408 -3.2248 20.9950 7.0200
# 4 7.3865 6.7191 -3.2248 39.5525 -2.6612 1.6210
# 5 14.5335 14.8579 20.9950 -2.6612 36.5684 -0.4541
# 6 1.7286 -0.3978 7.0200 1.6210 -0.4541 42.5720
#
#
#
# Elastic Compliance Matrix: (Units=1/GPa)
#
#
# Indices 1 2 3 4 5 6 
#
# 1 0.009655 -0.002628 -0.001779 -0.001624 -0.001868 -0.000081
# 2 -0.002628 0.008887 -0.002197 -0.001316 -0.001394 0.000587
# 3 -0.001779 -0.002197 0.022739 0.001954 -0.011362 -0.003894
# 4 -0.001624 -0.001316 0.001954 0.026151 0.001946 -0.001244
# 5 -0.001868 -0.001394 -0.011362 0.001946 0.035347 0.002239
# 6 -0.000081 0.000587 -0.003894 -0.001244 0.002239 0.024212
#
#
# Mechanical properties :
#
#
# Convention : Reuss Voigt Hill
#
# Bulk Modulus (GPa) = 35.61994 55.24597 45.43295
# Shear Modulus (GPa) = 33.43263 39.02113 36.22688
#
# Velocity S-wave (km/s) = 3.83621 4.14445 3.99331
# Velocity P-wave (km/s) = 5.94149 6.87171 6.42346
#
# Compressibility (1/GPa) = 0.02807417
#
# Stress axis : x y z
#
# Youngs Moduli (GPa) = 103.57582 112.52772 43.97719
#
# Poissons Ratio (x) = 0.29567 0.07823
# Poissons Ratio (y) = 0.27215 0.09661
# Poissons Ratio (z) = 0.18424 0.24721
#
# Static dielectric constant tensor:
#      x y z
#    x 4.036940 0.066130 -0.011250 
#    y 0.066130 3.909670 -0.008660 
#    z -0.011250 -0.008660 3.376660 
# 
# 
# High freq. dielectric constant tensor:
#      x y z
#    x 1.904400 0.005130 0.011580 
#    y 0.005130 1.906130 -0.009580 
#    z 0.011580 -0.009580 1.885650 
# 
# From -- ./inp_files/403190.got.cif
#   From: 2010.06.25/outbox.cif.g09.slc.cpg/sg2_202_cif.got.tgz:403190.got - 2010.06.27 13:26:56.
