data_PCOD8011896
_publ_section_title
;
Structure prediction by ZEFSAII (Michael W. Deem and Ramdas Pophale) SiO2 
 PCOD8011896
Probable space group: P -1
;
_chemical_formula_sum "Si O2"
_cell_formula_units_Z 16
_cell_length_a 5.081198
_cell_length_b 5.918706
_cell_length_c 25.353331
_cell_angle_alpha 91.154632
_cell_angle_beta 118.507239
_cell_angle_gamma 81.036268
_cell_volume 660.558583
_symmetry_space_group_name_H-M "P -1"
_symmetry_group_IT_number 2
_symmetry_cell_setting 'triclinic'
loop_
_space_group_symop_operation_xyz
x,y,z
-x,-y,-z
loop_
_atom_site_type_symbol
_atom_site_label
_atom_site_fract_x
_atom_site_fract_y
_atom_site_fract_z
Si Si1 0.621299 0.505561 0.874171
Si Si2 0.387755 0.080702 0.310731
Si Si3 0.745809 0.727969 0.077618
Si Si4 0.870416 0.637046 0.358065
Si Si5 0.749225 0.300576 0.260344
Si Si6 0.733307 0.851814 0.964006
Si Si7 0.732907 0.282184 0.425103
Si Si8 0.761064 0.145733 0.535247
O O1 0.422467 0.429662 0.902201
O O2 0.397891 0.596163 0.806611
O O3 0.794096 0.702605 0.915923
O O4 0.889763 0.310666 0.876225
O O5 0.503357 0.205983 0.271825
O O6 0.425823 0.231798 0.367526
O O7 0.024165 0.092295 0.271628
O O8 0.561953 0.822044 0.328064
O O9 0.595058 0.990213 0.075053
O O10 0.710520 0.684617 0.011126
O O11 0.890424 0.500695 0.304744
O O12 0.865162 0.476853 0.407830
O O13 0.186161 0.739959 0.401284
O O14 0.000000 0.000000 0.000000
O O15 0.706259 0.343529 0.485136
O O16 0.929204 0.029385 0.440875
O O17 0.500000 0.000000 0.500000
#
# Coordination Sequence:
#
# PCOD8011896 Si02
#       8
#     2   2   2   2   2   2   2   2
#     4  12  26  43  73  97 141 180 229 281 329 403
#     4  10  24  45  69  94 138 170 230 288 332 393
#     4  11  25  43  70 106 137 182 226 274 342 400
#     4  10  23  44  71  93 132 183 217 276 345 404
#     4  11  26  48  66 102 132 180 234 277 333 399
#     4  11  25  43  70 106 144 177 222 280 341 398
#     4   9  21  40  62  98 129 170 221 271 342 407
#     4  10  21  39  65 100 132 163 219 282 335 407
#
# _framework density 24.221924000000001
#
# number of rings (size 3 to 8) (size 9 to 14) (size 15 to 20)
#    0.000    1.500    1.250    1.875    8.750    4.500 
#    9.000    0.000    0.000    0.000    0.000    0.000 
#    0.000    0.000    0.000    0.000    0.000    0.000 
#
# Total GULP energy -198230.110124 kJ/mol
# GULP energy per Si atom -12389.381883 kJ/mol
# Density = 2.416679 g / cm^3
# Si number density = 24.221924 Si / 1000 Ang^3
#
#
#
# Elastic Constant Matrix: (Units=GPa)
#
#
# Indices 1 2 3 4 5 6 
#
# 1 100.7398 21.4525 56.5844 -6.7373 10.0296 -9.0105
# 2 21.4525 66.6766 62.7860 -8.7377 -2.8737 6.8195
# 3 56.5844 62.7860 163.3567 -18.9206 -3.2729 6.1266
# 4 -6.7373 -8.7377 -18.9206 34.0889 -7.6173 7.5517
# 5 10.0296 -2.8737 -3.2729 -7.6173 32.1325 -9.0619
# 6 -9.0105 6.8195 6.1266 7.5517 -9.0619 30.0889
#
#
#
# Elastic Compliance Matrix: (Units=1/GPa)
#
#
# Indices 1 2 3 4 5 6 
#
# 1 0.013486 -0.000604 -0.004934 -0.002120 -0.003997 0.004508
# 2 -0.000604 0.024060 -0.008583 0.002411 0.000842 -0.004238
# 3 -0.004934 -0.008583 0.011774 0.004402 0.002360 -0.002324
# 4 -0.002120 0.002411 0.004402 0.035554 0.007269 -0.008812
# 5 -0.003997 0.000842 0.002360 0.007269 0.036463 0.007289
# 6 0.004508 -0.004238 -0.002324 -0.008812 0.007289 0.040425
#
#
# Mechanical properties :
#
#
# Convention : Reuss Voigt Hill
#
# Bulk Modulus (GPa) = 47.44403 68.04654 57.74529
# Shear Modulus (GPa) = 25.37686 31.92539 28.65113
#
# Velocity S-wave (km/s) = 3.24030 3.63442 3.44300
# Velocity P-wave (km/s) = 5.79907 6.76505 6.30060
#
# Compressibility (1/GPa) = 0.02107747
#
# Stress axis : x y z
#
# Youngs Moduli (GPa) = 74.15155 41.56252 84.93470
#
# Poissons Ratio (x) = 0.02511 0.41905
# Poissons Ratio (y) = 0.04480 0.72901
# Poissons Ratio (z) = 0.36585 0.35674
#
# Static dielectric constant tensor:
#      x y z
#    x 4.253870 -0.165590 0.123350 
#    y -0.165590 4.315070 -0.225430 
#    z 0.123350 -0.225430 4.915850 
# 
# 
# High freq. dielectric constant tensor:
#      x y z
#    x 1.954590 -0.010100 0.004730 
#    y -0.010100 1.958560 -0.021930 
#    z 0.004730 -0.021930 1.965410 
# 
# From -- ./inp_files/614717.got.cif
#   From: 2010.06.25/outbox.cif.g09.slc.cpg/sg2_308_cif.got.tgz:614717.got - 2010.06.27 13:26:56.
