data_PCOD8011287
_publ_section_title
;
Structure prediction by ZEFSAII (Michael W. Deem and Ramdas Pophale) SiO2 
 PCOD8011287
Probable space group: P -1
;
_chemical_formula_sum "Si O2"
_cell_formula_units_Z 16
_cell_length_a 7.955714
_cell_length_b 8.759930
_cell_length_c 15.620121
_cell_angle_alpha 95.786058
_cell_angle_beta 122.059627
_cell_angle_gamma 61.658815
_cell_volume 795.142314
_symmetry_space_group_name_H-M "P -1"
_symmetry_group_IT_number 2
_symmetry_cell_setting 'triclinic'
loop_
_space_group_symop_operation_xyz
x,y,z
-x,-y,-z
loop_
_atom_site_type_symbol
_atom_site_label
_atom_site_fract_x
_atom_site_fract_y
_atom_site_fract_z
Si Si1 0.138726 0.148089 0.589660
Si Si2 0.892765 0.881538 0.935107
Si Si3 0.212350 0.792846 0.630868
Si Si4 0.408866 0.845860 0.265319
Si Si5 0.997253 0.923796 0.280506
Si Si6 0.374512 0.527409 0.198832
Si Si7 0.141053 0.236386 0.901496
Si Si8 0.295779 0.497831 0.989016
O O1 0.342315 0.192597 0.640431
O O2 0.961762 0.251035 0.470425
O O3 0.997563 0.199792 0.645066
O O4 0.248619 0.935257 0.593714
O O5 0.702960 0.982506 0.816865
O O6 0.785549 0.848112 0.989182
O O7 0.074112 0.692378 0.933956
O O8 0.000000 0.000000 0.000000
O O9 0.453995 0.616756 0.696372
O O10 0.108763 0.875041 0.701599
O O11 0.245321 0.868119 0.303578
O O12 0.447450 0.676177 0.211208
O O13 0.817214 0.918423 0.163087
O O14 0.363110 0.439925 0.102117
O O15 0.124405 0.621297 0.176764
O O16 0.269493 0.345830 0.924311
O O17 0.500000 0.500000 0.000000
#
# Coordination Sequence:
#
# PCOD8011287 Si02
#       8
#     2   2   2   2   2   2   2   2
#     4   9  22  40  64  85 118 153 202 251 307 344
#     4  11  20  40  58  85 124 160 193 238 298 355
#     4   9  21  42  61  86 119 152 197 261 295 351
#     4  11  22  38  64  87 119 164 193 243 297 362
#     4   9  20  39  62  86 117 151 208 233 301 358
#     4  10  21  39  59  84 121 157 194 242 303 341
#     4  10  22  39  59  85 125 158 195 244 294 364
#     4  11  25  35  57  91 123 154 199 241 292 357
#
# _framework density 20.122183
#
# number of rings (size 3 to 8) (size 9 to 14) (size 15 to 20)
#    0.750    1.250    3.750    1.500    7.000    1.000 
#    0.000    4.375    0.000    0.000    0.000    0.000 
#    0.000    0.000    0.000    0.000    0.000    0.000 
#
# Total GULP energy -198241.759763 kJ/mol
# GULP energy per Si atom -12390.109985 kJ/mol
# Density = 2.007638 g / cm^3
# Si number density = 20.122183 Si / 1000 Ang^3
#
#
#
# Elastic Constant Matrix: (Units=GPa)
#
#
# Indices 1 2 3 4 5 6 
#
# 1 90.6441 23.9859 40.7824 14.8115 7.7433 12.8450
# 2 23.9859 44.5354 41.1440 1.8696 -3.4653 10.8658
# 3 40.7824 41.1440 121.4604 0.2182 13.1019 2.8713
# 4 14.8115 1.8696 0.2182 38.2909 3.8944 1.3971
# 5 7.7433 -3.4653 13.1019 3.8944 28.1649 13.1632
# 6 12.8450 10.8658 2.8713 1.3971 13.1632 21.6856
#
#
#
# Elastic Compliance Matrix: (Units=1/GPa)
#
#
# Indices 1 2 3 4 5 6 
#
# 1 0.015616 -0.000745 -0.005119 -0.005965 0.003453 -0.009911
# 2 -0.000745 0.063219 -0.024834 -0.005334 0.046312 -0.055715
# 3 -0.005119 -0.024834 0.020357 0.004574 -0.024550 0.027387
# 4 -0.005965 -0.005334 0.004574 0.029292 -0.009674 0.009585
# 5 0.003453 0.046312 -0.024550 -0.009674 0.087954 -0.074764
# 6 -0.009911 -0.055715 0.027387 0.009585 -0.074764 0.121038
#
#
# Mechanical properties :
#
#
# Convention : Reuss Voigt Hill
#
# Bulk Modulus (GPa) = 26.45702 52.05161 39.25432
# Shear Modulus (GPa) = 12.15158 27.67679 19.91419
#
# Velocity S-wave (km/s) = 2.46008 3.71271 3.14930
# Velocity P-wave (km/s) = 4.60935 6.65604 5.72490
#
# Compressibility (1/GPa) = 0.03779714
#
# Stress axis : x y z
#
# Youngs Moduli (GPa) = 64.03577 15.81811 49.12395
#
# Poissons Ratio (x) = 0.01178 0.25144
# Poissons Ratio (y) = 0.04769 1.21994
# Poissons Ratio (z) = 0.32777 0.39282
#
# Static dielectric constant tensor:
#      x y z
#    x 3.489150 -0.092270 -0.088500 
#    y -0.092270 3.979640 0.338060 
#    z -0.088500 0.338060 3.871760 
# 
# 
# High freq. dielectric constant tensor:
#      x y z
#    x 1.767380 0.006420 0.006840 
#    y 0.006420 1.776600 0.013430 
#    z 0.006840 0.013430 1.782040 
# 
# From -- ./inp_files/210894.got.cif
#   From: 2010.06.25/outbox.cif.g09.slc.cpg/sg2_106_cif.got.tgz:210894.got - 2010.06.27 13:26:56.
