data_PCOD8011973
_publ_section_title
;
Structure prediction by ZEFSAII (Michael W. Deem and Ramdas Pophale) SiO2 
 PCOD8011973
Probable space group: P -1
;
_chemical_formula_sum "Si O2"
_cell_formula_units_Z 16
_cell_length_a 11.698688
_cell_length_b 8.685294
_cell_length_c 19.910401
_cell_angle_alpha 31.712007
_cell_angle_beta 137.891306
_cell_angle_gamma 132.458119
_cell_volume 707.492101
_symmetry_space_group_name_H-M "P -1"
_symmetry_group_IT_number 2
_symmetry_cell_setting 'triclinic'
loop_
_space_group_symop_operation_xyz
x,y,z
-x,-y,-z
loop_
_atom_site_type_symbol
_atom_site_label
_atom_site_fract_x
_atom_site_fract_y
_atom_site_fract_z
Si Si1 0.823899 0.442301 0.984213
Si Si2 0.717414 0.924032 0.439558
Si Si3 0.340618 0.337991 0.294195
Si Si4 0.702887 0.235641 0.452229
Si Si5 0.779586 0.893899 0.262483
Si Si6 0.044273 0.753405 0.680748
Si Si7 0.168130 0.221697 0.002553
Si Si8 0.462226 0.851063 0.237651
O O1 0.682958 0.504568 0.845217
O O2 0.822137 0.685903 0.950184
O O3 0.000000 0.500000 0.000000
O O4 0.790028 0.109524 0.122047
O O5 0.562374 0.791282 0.372788
O O6 0.837292 0.673207 0.609103
O O7 0.648282 0.104211 0.404001
O O8 0.859717 0.154238 0.380343
O O9 0.535915 0.280953 0.404621
O O10 0.326335 0.566059 0.265137
O O11 0.218010 0.027685 0.372740
O O12 0.811392 0.561957 0.376508
O O13 0.597451 0.922310 0.209307
O O14 0.931355 0.989977 0.346428
O O15 0.145697 0.493604 0.845064
O O16 0.348535 0.115373 0.100143
O O17 0.000000 0.000000 0.000000
#
# Coordination Sequence:
#
# PCOD8011973 Si02
#       8
#     2   2   2   2   2   2   2   2
#     4  11  24  42  65  93 135 172 213 268 331 388
#     4  10  21  39  65  93 125 170 214 273 323 384
#     4  10  23  42  60  97 131 164 218 273 319 390
#     4  10  22  39  65  93 127 168 220 267 327 381
#     4   9  22  43  67  96 127 174 218 274 323 393
#     4   9  22  42  60  95 131 159 220 271 325 383
#     4  11  24  42  65  98 130 172 214 272 330 389
#     4  10  22  42  69  96 129 172 223 271 327 386
#
# _framework density 22.615093000000002
#
# number of rings (size 3 to 8) (size 9 to 14) (size 15 to 20)
#    0.000    2.000    0.000    1.500    5.250   10.500 
#   11.250    0.000    0.000    0.000    0.000    0.000 
#    0.000    0.000    0.000    0.000    0.000    0.000 
#
# Total GULP energy -198223.270850 kJ/mol
# GULP energy per Si atom -12388.954428 kJ/mol
# Density = 2.256362 g / cm^3
# Si number density = 22.615093 Si / 1000 Ang^3
#
#
#
# Elastic Constant Matrix: (Units=GPa)
#
#
# Indices 1 2 3 4 5 6 
#
# 1 92.9214 17.0789 46.1168 -9.6710 -6.8767 -16.0818
# 2 17.0789 106.9941 76.7409 -6.5373 -9.7912 -17.9637
# 3 46.1168 76.7409 147.5059 3.8514 -8.5188 -13.8672
# 4 -9.6710 -6.5373 3.8514 38.1372 5.0445 0.7283
# 5 -6.8767 -9.7912 -8.5188 5.0445 40.8844 -0.3469
# 6 -16.0818 -17.9637 -13.8672 0.7283 -0.3469 33.1058
#
#
#
# Elastic Compliance Matrix: (Units=1/GPa)
#
#
# Indices 1 2 3 4 5 6 
#
# 1 0.014697 0.003246 -0.005708 0.004531 0.001556 0.006426
# 2 0.003246 0.017072 -0.009229 0.004253 0.002245 0.006905
# 3 -0.005708 -0.009229 0.013287 -0.004346 0.000116 -0.002118
# 4 0.004531 0.004253 -0.004346 0.028852 -0.002668 0.002026
# 5 0.001556 0.002245 0.000116 -0.002668 0.025632 0.002350
# 6 0.006426 0.006905 -0.002118 0.002026 0.002350 0.036167
#
#
# Mechanical properties :
#
#
# Convention : Reuss Voigt Hill
#
# Bulk Modulus (GPa) = 46.13848 69.69939 57.91894
# Shear Modulus (GPa) = 30.06363 36.25780 33.16072
#
# Velocity S-wave (km/s) = 3.65000 4.00841 3.83340
# Velocity P-wave (km/s) = 6.18136 7.23256 6.72752
#
# Compressibility (1/GPa) = 0.02167388
#
# Stress axis : x y z
#
# Youngs Moduli (GPa) = 68.04093 58.57458 75.26390
#
# Poissons Ratio (x) = -0.19015 0.42962
# Poissons Ratio (y) = -0.22088 0.69462
# Poissons Ratio (z) = 0.38839 0.54059
#
# Static dielectric constant tensor:
#      x y z
#    x 4.022760 -0.066710 0.069370 
#    y -0.066710 3.943520 0.158830 
#    z 0.069370 0.158830 3.682450 
# 
# 
# High freq. dielectric constant tensor:
#      x y z
#    x 1.903340 -0.003840 -0.001120 
#    y -0.003840 1.882650 -0.000920 
#    z -0.001120 -0.000920 1.897990 
# 
# From -- ./inp_files/593926.got.cif
#   From: 2010.06.25/outbox.cif.g09.slc.cpg/sg2_297_cif.got.tgz:593926.got - 2010.06.27 13:26:56.
