data_PCOD8011035
_publ_section_title
;
Structure prediction by ZEFSAII (Michael W. Deem and Ramdas Pophale) SiO2 
 PCOD8011035
Probable space group: P -1
;
_chemical_formula_sum "Si O2"
_cell_formula_units_Z 14
_cell_length_a 8.040946
_cell_length_b 11.267418
_cell_length_c 9.223966
_cell_angle_alpha 84.133518
_cell_angle_beta 105.450425
_cell_angle_gamma 49.847639
_cell_volume 571.503329
_symmetry_space_group_name_H-M "P -1"
_symmetry_group_IT_number 2
_symmetry_cell_setting 'triclinic'
loop_
_space_group_symop_operation_xyz
x,y,z
-x,-y,-z
loop_
_atom_site_type_symbol
_atom_site_label
_atom_site_fract_x
_atom_site_fract_y
_atom_site_fract_z
Si Si1 0.332245 0.050741 0.161411
Si Si2 0.644852 0.191820 0.645910
Si Si3 0.489142 0.809322 0.682505
Si Si4 0.855020 0.450167 0.493900
Si Si5 0.965564 0.237909 0.808643
Si Si6 0.370108 0.473336 0.080529
Si Si7 0.986564 0.654300 0.759648
O O1 0.533493 0.056725 0.244530
O O2 0.105588 0.180151 0.202624
O O3 0.430993 0.871474 0.244828
O O4 0.229067 0.108679 0.965632
O O5 0.689969 0.110256 0.507161
O O6 0.428735 0.393353 0.559575
O O7 0.890160 0.139997 0.757048
O O8 0.451513 0.713443 0.789173
O O9 0.760258 0.672273 0.688773
O O10 0.989769 0.307089 0.663721
O O11 0.885223 0.368177 0.356739
O O12 0.000000 0.500000 0.500000
O O13 0.752218 0.392545 0.837708
O O14 0.500000 0.500000 0.000000
O O15 0.173622 0.498983 0.932201
#
# Coordination Sequence:
#
# PCOD8011035 Si02
#       7
#     2   2   2   2   2   2   2
#     4   9  23  44  66  85 130 174 206 247 321 378
#     4  12  22  40  68  93 128 163 210 262 317 363
#     4  10  21  38  66  88 123 166 211 251 308 370
#     4  12  22  38  67  97 127 161 213 262 309 369
#     4  11  24  41  65  94 128 166 206 265 317 363
#     4  11  21  37  63  96 123 161 214 263 303 369
#     4   9  21  38  64  87 125 163 212 243 312 368
#
# _framework density 24.496797000000001
#
# number of rings (size 3 to 8) (size 9 to 14) (size 15 to 20)
#    0.857    0.571    2.857    2.571    4.000    0.000 
#    0.000    1.429   12.571    0.000    0.000    0.000 
#    0.000    0.000    0.000    0.000    0.000    0.000 
#
# Total GULP energy -173522.403386 kJ/mol
# GULP energy per Si atom -12394.457385 kJ/mol
# Density = 2.444104 g / cm^3
# Si number density = 24.496797 Si / 1000 Ang^3
#
#
#
# Elastic Constant Matrix: (Units=GPa)
#
#
# Indices 1 2 3 4 5 6 
#
# 1 63.7736 9.3992 22.4595 4.3459 -3.0995 36.4313
# 2 9.3992 39.2669 33.5844 0.6130 0.5066 24.9998
# 3 22.4595 33.5844 177.7678 3.5005 -5.6304 31.2973
# 4 4.3459 0.6130 3.5005 39.8347 14.9212 -4.4009
# 5 -3.0995 0.5066 -5.6304 14.9212 48.8418 0.9882
# 6 36.4313 24.9998 31.2973 -4.4009 0.9882 39.2470
#
#
#
# Elastic Compliance Matrix: (Units=1/GPa)
#
#
# Indices 1 2 3 4 5 6 
#
# 1 0.057402 0.036567 0.000579 -0.019776 0.010981 -0.079533
# 2 0.036567 0.068928 -0.003516 -0.016133 0.007688 -0.077049
# 3 0.000579 -0.003516 0.007019 -0.001628 0.001463 -0.004115
# 4 -0.019776 -0.016133 -0.001628 0.036343 -0.013073 0.034337
# 5 0.010981 0.007688 0.001463 -0.013073 0.025625 -0.018368
# 6 -0.079533 -0.077049 -0.004115 0.034337 -0.018368 0.155979
#
#
# Mechanical properties :
#
#
# Convention : Reuss Voigt Hill
#
# Bulk Modulus (GPa) = 4.98480 45.74383 25.36431
# Shear Modulus (GPa) = 14.24882 39.94240 27.09561
#
# Velocity S-wave (km/s) = 2.41438 4.04234 3.32940
# Velocity P-wave (km/s) = 3.13235 6.36407 5.01562
#
# Compressibility (1/GPa) = 0.20060971
#
# Stress axis : x y z
#
# Youngs Moduli (GPa) = 17.42088 14.50799 142.46590
#
# Poissons Ratio (x) = -0.53052 -0.08246
# Poissons Ratio (y) = -0.63704 0.50088
# Poissons Ratio (z) = -0.01008 0.05101
#
# Static dielectric constant tensor:
#      x y z
#    x 4.021440 0.071440 0.155440 
#    y 0.071440 4.155310 0.382890 
#    z 0.155440 0.382890 4.958030 
# 
# 
# High freq. dielectric constant tensor:
#      x y z
#    x 1.950860 0.014450 0.004670 
#    y 0.014450 1.946150 0.014250 
#    z 0.004670 0.014250 1.995070 
# 
# From -- ./inp_files/176460.got.cif
#   From: 2010.06.25/outbox.cif.g09.slc.cpg/sg2_89_cif.got.tgz:176460.got - 2010.06.27 13:26:56.
