data_PCOD8011296
_publ_section_title
;
Structure prediction by ZEFSAII (Michael W. Deem and Ramdas Pophale) SiO2 
 PCOD8011296
Probable space group: P -1
;
_chemical_formula_sum "Si O2"
_cell_formula_units_Z 16
_cell_length_a 15.782960
_cell_length_b 11.416747
_cell_length_c 6.873848
_cell_angle_alpha 116.545217
_cell_angle_beta 48.693636
_cell_angle_gamma 95.092473
_cell_volume 792.175916
_symmetry_space_group_name_H-M "P -1"
_symmetry_group_IT_number 2
_symmetry_cell_setting 'triclinic'
loop_
_space_group_symop_operation_xyz
x,y,z
-x,-y,-z
loop_
_atom_site_type_symbol
_atom_site_label
_atom_site_fract_x
_atom_site_fract_y
_atom_site_fract_z
Si Si1 0.117460 0.046300 0.873968
Si Si2 0.819369 0.763927 0.388374
Si Si3 0.544805 0.842539 0.866285
Si Si4 0.352842 0.799894 0.417478
Si Si5 0.443578 0.693768 0.601781
Si Si6 0.060946 0.297165 0.431251
Si Si7 0.154900 0.467709 0.130396
Si Si8 0.363797 0.567342 0.964909
O O1 0.147460 0.113783 0.681733
O O2 0.232211 0.919562 0.652458
O O3 0.097885 0.153145 0.158282
O O4 0.000000 0.000000 0.000000
O O5 0.682160 0.804768 0.690425
O O6 0.902106 0.731529 0.425087
O O7 0.853097 0.626977 0.108056
O O8 0.534128 0.756678 0.626243
O O9 0.467290 0.816213 0.143762
O O10 0.500000 0.000000 0.000000
O O11 0.378403 0.796510 0.606428
O O12 0.334506 0.655353 0.272737
O O13 0.348593 0.676149 0.891050
O O14 0.504972 0.541842 0.306575
O O15 0.118325 0.407722 0.338386
O O16 0.920518 0.374137 0.683819
O O17 0.285415 0.468608 0.977693
#
# Coordination Sequence:
#
# PCOD8011296 Si02
#       8
#     2   2   2   2   2   2   2   2
#     4  11  25  43  60  90 124 155 204 249 294 363
#     4  11  23  41  64  91 121 158 201 248 303 355
#     4  11  23  40  61  91 126 155 198 250 296 359
#     4  11  24  38  63  89 121 165 200 241 302 357
#     4  10  23  39  59  90 122 158 201 243 297 356
#     4  10  24  39  65  90 117 160 204 245 301 353
#     4  10  21  42  62  91 122 153 203 254 292 352
#     4  10  21  39  59  87 124 156 196 250 293 354
#
# _framework density 20.197533
#
# number of rings (size 3 to 8) (size 9 to 14) (size 15 to 20)
#    0.000    1.500    2.500    1.500    3.500    3.000 
#    0.000    0.000    0.000    0.000    0.000    0.000 
#    0.000    0.000    0.000    0.000    0.000    0.000 
#
# Total GULP energy -198391.858054 kJ/mol
# GULP energy per Si atom -12399.491128 kJ/mol
# Density = 2.015156 g / cm^3
# Si number density = 20.197533 Si / 1000 Ang^3
#
#
#
# Elastic Constant Matrix: (Units=GPa)
#
#
# Indices 1 2 3 4 5 6 
#
# 1 71.9861 35.3412 15.3246 -23.1090 -4.5864 -2.6486
# 2 35.3412 83.6810 20.3118 -0.6849 -2.7059 -1.6754
# 3 15.3246 20.3118 62.8609 0.7664 -14.8229 -4.9323
# 4 -23.1090 -0.6849 0.7664 36.6289 -0.9081 1.5139
# 5 -4.5864 -2.7059 -14.8229 -0.9081 32.1323 -3.6471
# 6 -2.6486 -1.6754 -4.9323 1.5139 -3.6471 35.3777
#
#
#
# Elastic Compliance Matrix: (Units=1/GPa)
#
#
# Indices 1 2 3 4 5 6 
#
# 1 0.023969 -0.009316 -0.002508 0.015026 0.001968 0.000564
# 2 -0.009316 0.016618 -0.003463 -0.005523 -0.001722 -0.000335
# 3 -0.002508 -0.003463 0.020039 -0.001987 0.008930 0.003448
# 4 0.015026 -0.005523 -0.001987 0.036795 0.001711 -0.000812
# 5 0.001968 -0.001722 0.008930 0.001711 0.035986 0.004947
# 6 0.000564 -0.000335 0.003448 -0.000812 0.004947 0.029318
#
#
# Mechanical properties :
#
#
# Convention : Reuss Voigt Hill
#
# Bulk Modulus (GPa) = 33.27700 40.05371 36.66536
# Shear Modulus (GPa) = 24.59216 30.66447 27.62832
#
# Velocity S-wave (km/s) = 3.49317 3.90067 3.70253
# Velocity P-wave (km/s) = 5.72549 6.33727 6.03913
#
# Compressibility (1/GPa) = 0.03005078
#
# Stress axis : x y z
#
# Youngs Moduli (GPa) = 41.72078 60.17651 49.90268
#
# Poissons Ratio (x) = 0.56062 0.12515
# Poissons Ratio (y) = 0.38868 0.17283
# Poissons Ratio (z) = 0.10463 0.20842
#
# Static dielectric constant tensor:
#      x y z
#    x 11.868250 4.576670 -13.823140 
#    y 4.576670 6.197290 -7.421650 
#    z -13.823140 -7.421650 26.602110 
# 
# 
# High freq. dielectric constant tensor:
#      x y z
#    x 1.782580 0.002150 -0.000190 
#    y 0.002150 1.797380 0.008450 
#    z -0.000190 0.008450 1.796290 
# 
# From -- ./inp_files/81107.got.cif
#   From: 2010.06.25/outbox.cif.g09.slc.cpg/sg2_41_cif.got.tgz:81107.got - 2010.06.27 13:26:56.
