data_PCOD8011575
_publ_section_title
;
Structure prediction by ZEFSAII (Michael W. Deem and Ramdas Pophale) SiO2 
 PCOD8011575
Probable space group: P -1
;
_chemical_formula_sum "Si O2"
_cell_formula_units_Z 16
_cell_length_a 7.648958
_cell_length_b 6.402822
_cell_length_c 17.360152
_cell_angle_alpha 63.496650
_cell_angle_beta 77.344054
_cell_angle_gamma 64.140214
_cell_volume 684.356423
_symmetry_space_group_name_H-M "P -1"
_symmetry_group_IT_number 2
_symmetry_cell_setting 'triclinic'
loop_
_space_group_symop_operation_xyz
x,y,z
-x,-y,-z
loop_
_atom_site_type_symbol
_atom_site_label
_atom_site_fract_x
_atom_site_fract_y
_atom_site_fract_z
Si Si1 0.175806 0.057173 0.710431
Si Si2 0.604389 0.691990 0.728149
Si Si3 0.451064 0.900743 0.943369
Si Si4 0.573191 0.695105 0.556617
Si Si5 0.225895 0.537671 0.570196
Si Si6 0.964411 0.807129 0.675736
Si Si7 0.118886 0.295517 0.827302
Si Si8 0.736235 0.444750 0.909275
O O1 0.374944 0.816486 0.741755
O O2 0.024479 0.029372 0.666991
O O3 0.256789 0.266625 0.644846
O O4 0.069391 0.133686 0.790673
O O5 0.649500 0.603766 0.650031
O O6 0.675361 0.462989 0.821244
O O7 0.736292 0.861954 0.701052
O O8 0.644163 0.726392 0.907871
O O9 0.335659 0.141232 0.861813
O O10 0.321373 0.741977 0.001676
O O11 0.500000 0.000000 0.000000
O O12 0.389674 0.627427 0.569655
O O13 0.753067 0.513172 0.515658
O O14 0.500000 0.000000 0.500000
O O15 0.022246 0.749635 0.588086
O O16 0.102605 0.564000 0.751479
O O17 0.969821 0.339344 0.905622
#
# Coordination Sequence:
#
# PCOD8011575 Si02
#       8
#     2   2   2   2   2   2   2   2
#     4  11  21  43  67  91 136 171 214 276 322 386
#     4  11  22  42  66  90 129 170 216 272 325 389
#     4  11  24  39  67  96 126 171 213 265 331 394
#     4  11  21  39  67  91 129 175 216 276 328 390
#     4  10  21  39  62  94 127 172 219 261 342 378
#     4  10  23  40  64  99 127 172 223 269 325 392
#     4  10  23  42  65  94 132 173 214 271 329 384
#     4  10  24  43  60  96 130 162 223 265 323 399
#
# _framework density 23.379629999999999
#
# number of rings (size 3 to 8) (size 9 to 14) (size 15 to 20)
#    0.000    1.500    3.750    0.375    1.750    3.000 
#    6.750    2.500    0.000    0.000    0.000    0.000 
#    0.000    0.000    0.000    0.000    0.000    0.000 
#
# Total GULP energy -198223.019439 kJ/mol
# GULP energy per Si atom -12388.938715 kJ/mol
# Density = 2.332642 g / cm^3
# Si number density = 23.379630 Si / 1000 Ang^3
#
#
#
# Elastic Constant Matrix: (Units=GPa)
#
#
# Indices 1 2 3 4 5 6 
#
# 1 66.7818 37.1789 4.3199 11.7830 -14.0030 0.1983
# 2 37.1789 90.6188 30.9644 25.1625 0.2124 7.5193
# 3 4.3199 30.9644 90.9619 24.4995 2.9348 0.9236
# 4 11.7830 25.1625 24.4995 38.9612 -1.9799 -7.4328
# 5 -14.0030 0.2124 2.9348 -1.9799 38.4827 7.3506
# 6 0.1983 7.5193 0.9236 -7.4328 7.3506 33.6796
#
#
#
# Elastic Compliance Matrix: (Units=1/GPa)
#
#
# Indices 1 2 3 4 5 6 
#
# 1 0.021964 -0.009336 0.002351 -0.001732 0.007813 -0.000197
# 2 -0.009336 0.018823 -0.003617 -0.008201 -0.002638 -0.005282
# 3 0.002351 -0.003617 0.014164 -0.007525 -0.000367 -0.001175
# 4 -0.001732 -0.008201 -0.007525 0.038217 -0.000049 0.010492
# 5 0.007813 -0.002638 -0.000367 -0.000049 0.030016 -0.006009
# 6 -0.000197 -0.005282 -0.001175 0.010492 -0.006009 0.034531
#
#
# Mechanical properties :
#
#
# Convention : Reuss Voigt Hill
#
# Bulk Modulus (GPa) = 29.63105 43.69877 36.66491
# Shear Modulus (GPa) = 26.29269 33.95131 30.12200
#
# Velocity S-wave (km/s) = 3.35714 3.81488 3.59330
# Velocity P-wave (km/s) = 5.26579 6.17543 5.73866
#
# Compressibility (1/GPa) = 0.03374838
#
# Stress axis : x y z
#
# Youngs Moduli (GPa) = 45.52919 53.12682 70.60397
#
# Poissons Ratio (x) = 0.49598 -0.16602
# Poissons Ratio (y) = 0.42505 0.25535
# Poissons Ratio (z) = -0.10706 0.19214
#
# Static dielectric constant tensor:
#      x y z
#    x 4.015500 -0.049180 -0.330670 
#    y -0.049180 4.315420 0.660100 
#    z -0.330670 0.660100 3.890410 
# 
# 
# High freq. dielectric constant tensor:
#      x y z
#    x 1.912870 -0.006730 -0.013670 
#    y -0.006730 1.921680 0.017900 
#    z -0.013670 0.017900 1.929660 
# 
# From -- ./inp_files/552450.got.cif
#   From: 2010.06.25/outbox.cif.g09.slc.cpg/sg2_277_cif.got.tgz:552450.got - 2010.06.27 13:26:56.
