data_PCOD8011586
_publ_section_title
;
Structure prediction by ZEFSAII (Michael W. Deem and Ramdas Pophale) SiO2 
 PCOD8011586
Probable space group: P -1
;
_chemical_formula_sum "Si O2"
_cell_formula_units_Z 16
_cell_length_a 12.770430
_cell_length_b 18.979308
_cell_length_c 9.473570
_cell_angle_alpha 39.219561
_cell_angle_beta 145.302468
_cell_angle_gamma 145.701631
_cell_volume 703.119549
_symmetry_space_group_name_H-M "P -1"
_symmetry_group_IT_number 2
_symmetry_cell_setting 'triclinic'
loop_
_space_group_symop_operation_xyz
x,y,z
-x,-y,-z
loop_
_atom_site_type_symbol
_atom_site_label
_atom_site_fract_x
_atom_site_fract_y
_atom_site_fract_z
Si Si1 0.798947 0.984381 0.152984
Si Si2 0.451330 0.339415 0.066065
Si Si3 0.653197 0.275593 0.898490
Si Si4 0.270080 0.930641 0.781126
Si Si5 0.812605 0.358117 0.243577
Si Si6 0.847338 0.962314 0.748021
Si Si7 0.253654 0.907716 0.333494
Si Si8 0.708764 0.467301 0.433300
O O1 0.576594 0.845437 0.118859
O O2 0.877119 0.048224 0.298115
O O3 0.967325 0.964689 0.280181
O O4 0.777659 0.091260 0.870152
O O5 0.598937 0.339789 0.104956
O O6 0.257883 0.193098 0.115975
O O7 0.611124 0.404159 0.273524
O O8 0.342328 0.419374 0.769693
O O9 0.599080 0.355321 0.603684
O O10 0.801129 0.221230 0.084035
O O11 0.786112 0.370635 0.028249
O O12 0.314012 0.003287 0.564823
O O13 0.500000 0.000000 0.000000
O O14 0.837330 0.235683 0.490008
O O15 0.035460 0.480931 0.358037
O O16 0.886027 0.033980 0.835923
O O17 0.500000 0.000000 0.500000
#
# Coordination Sequence:
#
# PCOD8011586 Si02
#       8
#     2   2   2   2   2   2   2   2
#     4  11  23  37  66 104 133 174 213 277 351 388
#     4  11  25  47  70  99 137 174 233 287 325 398
#     4  11  23  45  65  97 141 175 225 275 330 414
#     4  10  21  39  62  96 131 174 212 269 336 396
#     4  12  24  45  72  98 135 186 224 276 342 401
#     4  12  22  42  68 102 136 164 220 283 343 399
#     4  12  21  40  67  98 134 165 214 277 344 394
#     4  11  27  47  67  97 136 188 232 270 329 405
#
# _framework density 22.755732999999999
#
# number of rings (size 3 to 8) (size 9 to 14) (size 15 to 20)
#    0.000    0.750    3.750    4.500    1.750    1.500 
#    6.750    0.000    0.000    0.000    0.000    0.000 
#    0.000    0.000    0.000    0.000    0.000    0.000 
#
# Total GULP energy -198333.223914 kJ/mol
# GULP energy per Si atom -12395.826495 kJ/mol
# Density = 2.270394 g / cm^3
# Si number density = 22.755733 Si / 1000 Ang^3
#
#
#
# Elastic Constant Matrix: (Units=GPa)
#
#
# Indices 1 2 3 4 5 6 
#
# 1 128.6772 38.0357 27.1863 -6.3774 -1.4635 -6.8059
# 2 38.0357 86.6097 24.0375 -1.3508 0.3922 -6.9072
# 3 27.1863 24.0375 91.9268 -29.6913 -20.9159 -8.2562
# 4 -6.3774 -1.3508 -29.6913 38.4979 -3.8316 2.6014
# 5 -1.4635 0.3922 -20.9159 -3.8316 43.2448 7.7760
# 6 -6.8059 -6.9072 -8.2562 2.6014 7.7760 34.4375
#
#
#
# Elastic Compliance Matrix: (Units=1/GPa)
#
#
# Indices 1 2 3 4 5 6 
#
# 1 0.009236 -0.003420 -0.002049 -0.000311 -0.000830 0.000859
# 2 -0.003420 0.014458 -0.004639 -0.004105 -0.003242 0.002154
# 3 -0.002049 -0.004639 0.020637 0.016570 0.011463 -0.000228
# 4 -0.000311 -0.004105 0.016570 0.039939 0.012057 -0.002652
# 5 -0.000830 -0.003242 0.011463 0.012057 0.030805 -0.005932
# 6 0.000859 0.002154 -0.000228 -0.002652 -0.005932 0.031125
#
#
# Mechanical properties :
#
#
# Convention : Reuss Voigt Hill
#
# Bulk Modulus (GPa) = 41.46956 53.97030 47.71993
# Shear Modulus (GPa) = 28.66078 37.76633 33.21355
#
# Velocity S-wave (km/s) = 3.55279 4.07829 3.82457
# Velocity P-wave (km/s) = 5.92394 6.77830 6.36547
#
# Compressibility (1/GPa) = 0.02411407
#
# Stress axis : x y z
#
# Youngs Moduli (GPa) = 108.27443 69.16614 48.45623
#
# Poissons Ratio (x) = 0.23654 0.09930
# Poissons Ratio (y) = 0.37028 0.22480
# Poissons Ratio (z) = 0.22188 0.32088
#
# Static dielectric constant tensor:
#      x y z
#    x 5.095290 -0.534700 0.133900 
#    y -0.534700 4.713220 -0.327290 
#    z 0.133900 -0.327290 5.072100 
# 
# 
# High freq. dielectric constant tensor:
#      x y z
#    x 1.908820 -0.006590 -0.002050 
#    y -0.006590 1.881490 0.013790 
#    z -0.002050 0.013790 1.931790 
# 
# From -- ./inp_files/278890.got.cif
#   From: 2010.06.25/outbox.cif.g09.slc.cpg/sg2_140_cif.got.tgz:278890.got - 2010.06.27 13:26:56.
