data_PCOD8011995
_publ_section_title
;
Structure prediction by ZEFSAII (Michael W. Deem and Ramdas Pophale) SiO2 
 PCOD8011995
Probable space group: P -1
;
_chemical_formula_sum "Si O2"
_cell_formula_units_Z 14
_cell_length_a 19.450283
_cell_length_b 9.504157
_cell_length_c 10.908872
_cell_angle_alpha 112.244822
_cell_angle_beta 33.453704
_cell_angle_gamma 135.440149
_cell_volume 647.178509
_symmetry_space_group_name_H-M "P -1"
_symmetry_group_IT_number 2
_symmetry_cell_setting 'triclinic'
loop_
_space_group_symop_operation_xyz
x,y,z
-x,-y,-z
loop_
_atom_site_type_symbol
_atom_site_label
_atom_site_fract_x
_atom_site_fract_y
_atom_site_fract_z
Si Si1 0.457670 0.692822 0.921670
Si Si2 0.791460 0.122361 0.403102
Si Si3 0.655893 0.756703 0.285665
Si Si4 0.218863 0.544427 0.458546
Si Si5 0.909440 0.731433 0.824565
Si Si6 0.101900 0.938726 0.356300
Si Si7 0.500736 0.378836 0.782887
O O1 0.519419 0.578263 0.823156
O O2 0.641307 0.960830 0.686202
O O3 0.378019 0.698058 0.162982
O O4 0.289018 0.538093 0.016603
O O5 0.802042 0.306864 0.406282
O O6 0.007110 0.274156 0.181355
O O7 0.723753 0.959355 0.335156
O O8 0.500000 0.500000 0.500000
O O9 0.551238 0.727084 0.311249
O O10 0.852841 0.850610 0.984317
O O11 0.293175 0.501419 0.441259
O O12 0.005084 0.290239 0.642696
O O13 0.076737 0.883921 0.520034
O O14 0.000000 0.000000 0.500000
O O15 0.333032 0.163634 0.056439
#
# Coordination Sequence:
#
# PCOD8011995 Si02
#       7
#     2   2   2   2   2   2   2
#     4  10  21  39  65  95 122 161 208 251 308 365
#     4  12  24  40  62  95 128 163 203 253 314 364
#     4  11  22  43  64  90 119 168 215 247 297 372
#     4  11  25  38  63  98 127 159 201 258 320 357
#     4  10  22  39  67  91 120 163 206 257 299 364
#     4  11  21  40  66  96 122 155 210 255 307 362
#     4  11  22  41  68  90 124 164 209 255 297 368
#
# _framework density 21.632361
#
# number of rings (size 3 to 8) (size 9 to 14) (size 15 to 20)
#    0.000    1.143    7.143    2.143    2.000    4.000 
#    2.571    0.714    0.000    0.000    0.000    0.000 
#    0.000    0.000    0.000    0.000    0.000    0.000 
#
# Total GULP energy -173626.943605 kJ/mol
# GULP energy per Si atom -12401.924543 kJ/mol
# Density = 2.158312 g / cm^3
# Si number density = 21.632361 Si / 1000 Ang^3
#
#
#
# Elastic Constant Matrix: (Units=GPa)
#
#
# Indices 1 2 3 4 5 6 
#
# 1 86.3202 36.1293 18.0933 15.9852 -10.1536 12.9010
# 2 36.1293 128.9716 8.7986 15.9148 -5.3136 3.7306
# 3 18.0933 8.7986 25.3291 -3.6387 7.0220 -3.9408
# 4 15.9852 15.9148 -3.6387 27.9415 -1.3207 9.0509
# 5 -10.1536 -5.3136 7.0220 -1.3207 21.2316 1.1897
# 6 12.9010 3.7306 -3.9408 9.0509 1.1897 26.1746
#
#
#
# Elastic Compliance Matrix: (Units=1/GPa)
#
#
# Indices 1 2 3 4 5 6 
#
# 1 0.023947 -0.002554 -0.024966 -0.010573 0.019108 -0.012410
# 2 -0.002554 0.009188 -0.002240 -0.004331 0.001491 0.001042
# 3 -0.024966 -0.002240 0.073827 0.017109 -0.036946 0.019503
# 4 -0.010573 -0.004331 0.017109 0.048756 -0.008313 -0.008077
# 5 0.019108 0.001491 -0.036946 -0.008313 0.069179 -0.015463
# 6 -0.012410 0.001042 0.019503 -0.008077 -0.015463 0.050606
#
#
# Mechanical properties :
#
#
# Convention : Reuss Voigt Hill
#
# Bulk Modulus (GPa) = 21.07886 40.74036 30.90961
# Shear Modulus (GPa) = 14.25161 26.90950 20.58056
#
# Velocity S-wave (km/s) = 2.56951 3.53079 3.08779
# Velocity P-wave (km/s) = 4.30912 5.95784 5.19925
#
# Compressibility (1/GPa) = 0.04744090
#
# Stress axis : x y z
#
# Youngs Moduli (GPa) = 41.75834 108.84115 13.54517
#
# Poissons Ratio (x) = 0.27801 0.33817
# Poissons Ratio (y) = 0.10666 0.03035
# Poissons Ratio (z) = 1.04254 0.24384
#
# Static dielectric constant tensor:
#      x y z
#    x 3.976340 0.172030 0.103870 
#    y 0.172030 3.852580 -0.126860 
#    z 0.103870 -0.126860 4.287780 
# 
# 
# High freq. dielectric constant tensor:
#      x y z
#    x 1.854180 0.018980 -0.005350 
#    y 0.018980 1.837150 -0.005740 
#    z -0.005350 -0.005740 1.837330 
# 
# From -- ./inp_files/282365.got.cif
#   From: 2010.06.25/outbox.cif.g09.slc.cpg/sg2_142_cif.got.tgz:282365.got - 2010.06.27 13:26:56.
