data_PCOD8011470
_publ_section_title
;
Structure prediction by ZEFSAII (Michael W. Deem and Ramdas Pophale) SiO2 
 PCOD8011470
Probable space group: P -1
;
_chemical_formula_sum "Si O2"
_cell_formula_units_Z 16
_cell_length_a 6.043334
_cell_length_b 11.686126
_cell_length_c 20.278979
_cell_angle_alpha 40.407386
_cell_angle_beta 61.329271
_cell_angle_gamma 51.546660
_cell_volume 726.954088
_symmetry_space_group_name_H-M "P -1"
_symmetry_group_IT_number 2
_symmetry_cell_setting 'triclinic'
loop_
_space_group_symop_operation_xyz
x,y,z
-x,-y,-z
loop_
_atom_site_type_symbol
_atom_site_label
_atom_site_fract_x
_atom_site_fract_y
_atom_site_fract_z
Si Si1 0.119772 0.908956 0.779505
Si Si2 0.166738 0.127772 0.915153
Si Si3 0.205360 0.545898 0.843095
Si Si4 0.282539 0.181262 0.294025
Si Si5 0.234415 0.484895 0.272833
Si Si6 0.761976 0.838572 0.959284
Si Si7 0.103194 0.491587 0.563676
Si Si8 0.278414 0.826195 0.388898
O O1 0.214596 0.701512 0.823216
O O2 0.405650 0.930747 0.734142
O O3 0.007449 0.891155 0.875667
O O4 0.875064 0.085139 0.697130
O O5 0.011382 0.330872 0.809477
O O6 0.472788 0.995657 0.897354
O O7 0.235430 0.174280 0.957217
O O8 0.000000 0.000000 0.000000
O O9 0.482194 0.485353 0.783290
O O10 0.922109 0.633242 0.801904
O O11 0.209071 0.377962 0.965735
O O12 0.280350 0.273419 0.326438
O O13 0.193103 0.001494 0.380060
O O14 0.144423 0.495158 0.357580
O O15 0.165085 0.673404 0.496316
O O16 0.386024 0.287586 0.622117
O O17 0.000000 0.500000 0.500000
#
# Coordination Sequence:
#
# PCOD8011470 Si02
#       8
#     2   2   2   2   2   2   2   2
#     4  10  22  39  66  90 131 168 208 265 310 374
#     4  11  23  38  60  92 131 170 214 257 318 377
#     4  10  21  39  61  95 127 168 216 252 317 380
#     4  10  22  43  64  93 134 171 216 261 325 374
#     4  11  23  43  66  93 133 171 207 275 321 382
#     4  11  22  38  60  94 128 171 217 255 307 380
#     4  11  25  44  71  98 126 162 216 267 332 389
#     4  10  23  45  66  99 126 163 220 263 321 394
#
# _framework density 22.009641999999999
#
# number of rings (size 3 to 8) (size 9 to 14) (size 15 to 20)
#    0.000    1.500    2.500    1.875    0.000    7.000 
#    0.000    8.750    0.000    0.000    0.000    0.000 
#    0.000    0.000    0.000    0.000    0.000    0.000 
#
# Total GULP energy -198289.971715 kJ/mol
# GULP energy per Si atom -12393.123232 kJ/mol
# Density = 2.195955 g / cm^3
# Si number density = 22.009642 Si / 1000 Ang^3
#
#
#
# Elastic Constant Matrix: (Units=GPa)
#
#
# Indices 1 2 3 4 5 6 
#
# 1 97.5268 36.7382 32.1732 -2.3932 10.8201 -22.8622
# 2 36.7382 88.2467 54.8420 -6.8047 7.8645 -18.9803
# 3 32.1732 54.8420 93.9316 -7.8089 6.5747 -9.3396
# 4 -2.3932 -6.8047 -7.8089 39.1893 1.0293 -3.4376
# 5 10.8201 7.8645 6.5747 1.0293 28.8795 -9.3800
# 6 -22.8622 -18.9803 -9.3396 -3.4376 -9.3800 40.2018
#
#
#
# Elastic Compliance Matrix: (Units=1/GPa)
#
#
# Indices 1 2 3 4 5 6 
#
# 1 0.013586 -0.002876 -0.002260 0.000408 -0.002053 0.005399
# 2 -0.002876 0.020153 -0.010046 0.001824 -0.000364 0.005617
# 3 -0.002260 -0.010046 0.017264 0.001398 -0.001097 -0.002154
# 4 0.000408 0.001824 0.001398 0.026465 -0.000774 0.003500
# 5 -0.002053 -0.000364 -0.001097 -0.000774 0.038122 0.007234
# 6 0.005399 0.005617 -0.002154 0.003500 0.007234 0.032083
#
#
# Mechanical properties :
#
#
# Convention : Reuss Voigt Hill
#
# Bulk Modulus (GPa) = 48.44915 58.57913 53.51414
# Shear Modulus (GPa) = 27.03911 32.05090 29.54501
#
# Velocity S-wave (km/s) = 3.50882 3.82019 3.66781
# Velocity P-wave (km/s) = 6.20292 6.79201 6.50414
#
# Compressibility (1/GPa) = 0.02064020
#
# Stress axis : x y z
#
# Youngs Moduli (GPa) = 73.60565 49.61918 57.92311
#
# Poissons Ratio (x) = 0.14270 0.13090
# Poissons Ratio (y) = 0.21168 0.58189
# Poissons Ratio (z) = 0.16634 0.49847
#
# Static dielectric constant tensor:
#      x y z
#    x 4.291350 -0.077680 -0.343920 
#    y -0.077680 4.286570 -0.356280 
#    z -0.343920 -0.356280 4.032400 
# 
# 
# High freq. dielectric constant tensor:
#      x y z
#    x 1.872100 -0.006870 -0.009840 
#    y -0.006870 1.872240 -0.025570 
#    z -0.009840 -0.025570 1.852540 
# 
# From -- ./inp_files/93079.got.cif
#   From: 2010.06.25/outbox.cif.g09.slc.cpg/sg2_47_cif.got.tgz:93079.got - 2010.06.27 13:26:56.
