data_PCOD8011966
_publ_section_title
;
Structure prediction by ZEFSAII (Michael W. Deem and Ramdas Pophale) SiO2 
 PCOD8011966
Probable space group: P -1
;
_chemical_formula_sum "Si O2"
_cell_formula_units_Z 14
_cell_length_a 6.517081
_cell_length_b 15.936560
_cell_length_c 15.121426
_cell_angle_alpha 152.005346
_cell_angle_beta 102.694131
_cell_angle_gamma 89.997744
_cell_volume 651.435828
_symmetry_space_group_name_H-M "P -1"
_symmetry_group_IT_number 2
_symmetry_cell_setting 'triclinic'
loop_
_space_group_symop_operation_xyz
x,y,z
-x,-y,-z
loop_
_atom_site_type_symbol
_atom_site_label
_atom_site_fract_x
_atom_site_fract_y
_atom_site_fract_z
Si Si1 0.869828 0.871422 0.743725
Si Si2 0.363246 0.133263 0.099125
Si Si3 0.807995 0.205304 0.965913
Si Si4 0.392071 0.107850 0.713954
Si Si5 0.901649 0.684652 0.068593
Si Si6 0.326930 0.728032 0.270773
Si Si7 0.191575 0.546226 0.637873
O O1 0.739413 0.826780 0.783302
O O2 0.836726 0.656864 0.506459
O O3 0.755207 0.976058 0.765228
O O4 0.143521 0.018125 0.908153
O O5 0.545026 0.340118 0.267570
O O6 0.500000 0.000000 0.000000
O O7 0.859441 0.319866 0.170049
O O8 0.590233 0.215828 0.905816
O O9 0.033576 0.306872 0.020161
O O10 0.168081 0.136845 0.750732
O O11 0.451330 0.196189 0.702269
O O12 0.347144 0.879509 0.492544
O O13 0.113164 0.707403 0.171031
O O14 0.692598 0.472493 0.872181
O O15 0.000000 0.500000 0.500000
#
# Coordination Sequence:
#
# PCOD8011966 Si02
#       7
#     2   2   2   2   2   2   2
#     4  11  24  42  65  92 126 167 214 273 327 375
#     4  11  21  44  69  89 120 164 225 273 316 392
#     4  11  26  40  56  99 130 157 218 261 314 387
#     4  10  21  40  63  90 129 163 201 258 313 373
#     4  10  21  39  65  92 128 161 204 259 308 378
#     4   9  20  40  66  94 118 165 212 242 311 388
#     4  12  24  45  68  91 125 178 221 265 327 381
#
# _framework density 21.49099
#
# number of rings (size 3 to 8) (size 9 to 14) (size 15 to 20)
#    0.000    1.429    2.857    2.143    2.000    2.286 
#    2.571    2.857    0.000    0.000    0.000    0.000 
#    0.000    0.000    0.000    0.000    0.000    0.000 
#
# Total GULP energy -173600.289497 kJ/mol
# GULP energy per Si atom -12400.020678 kJ/mol
# Density = 2.144208 g / cm^3
# Si number density = 21.490990 Si / 1000 Ang^3
#
#
#
# Elastic Constant Matrix: (Units=GPa)
#
#
# Indices 1 2 3 4 5 6 
#
# 1 90.8696 24.8588 26.0519 0.8456 -7.1240 16.4629
# 2 24.8588 87.9743 39.7769 8.0077 -4.7090 8.5439
# 3 26.0519 39.7769 103.3330 8.2200 -5.5082 10.4293
# 4 0.8456 8.0077 8.2200 34.3242 6.2439 -5.0791
# 5 -7.1240 -4.7090 -5.5082 6.2439 33.0398 11.0697
# 6 16.4629 8.5439 10.4293 -5.0791 11.0697 25.2844
#
#
#
# Elastic Compliance Matrix: (Units=1/GPa)
#
#
# Indices 1 2 3 4 5 6 
#
# 1 0.014641 -0.001776 -0.001157 -0.002815 0.007342 -0.012235
# 2 -0.001776 0.014714 -0.004374 -0.003480 0.002989 -0.004018
# 3 -0.001157 -0.004374 0.012652 -0.003425 0.003651 -0.005274
# 4 -0.002815 -0.003480 -0.003425 0.036156 -0.014557 0.018058
# 5 0.007342 0.002989 0.003651 -0.014557 0.045774 -0.030260
# 6 -0.012235 -0.004018 -0.005274 0.018058 -0.030260 0.067925
#
#
# Mechanical properties :
#
#
# Convention : Reuss Voigt Hill
#
# Bulk Modulus (GPa) = 36.50793 51.50579 44.00686
# Shear Modulus (GPa) = 23.19024 31.29563 27.24293
#
# Velocity S-wave (km/s) = 3.28848 3.82019 3.56426
# Velocity P-wave (km/s) = 5.60743 6.59369 6.12045
#
# Compressibility (1/GPa) = 0.02739131
#
# Stress axis : x y z
#
# Youngs Moduli (GPa) = 68.30146 67.96399 79.03637
#
# Poissons Ratio (x) = 0.12073 0.09146
# Poissons Ratio (y) = 0.12133 0.34573
# Poissons Ratio (z) = 0.07904 0.29730
#
# Static dielectric constant tensor:
#      x y z
#    x 4.020060 0.175350 0.054870 
#    y 0.175350 3.880000 0.255880 
#    z 0.054870 0.255880 3.985010 
# 
# 
# High freq. dielectric constant tensor:
#      x y z
#    x 1.847820 0.003600 -0.006470 
#    y 0.003600 1.835290 0.011020 
#    z -0.006470 0.011020 1.842480 
# 
# From -- ./inp_files/97871.got.cif
#   From: 2010.06.25/outbox.cif.g09.slc.cpg/sg2_49_cif.got.tgz:97871.got - 2010.06.27 13:26:56.
