data_PCOD8011310
_publ_section_title
;
Structure prediction by ZEFSAII (Michael W. Deem and Ramdas Pophale) SiO2 
 PCOD8011310
Probable space group: P -1
;
_chemical_formula_sum "Si O2"
_cell_formula_units_Z 16
_cell_length_a 14.589289
_cell_length_b 10.366816
_cell_length_c 19.496742
_cell_angle_alpha 146.696621
_cell_angle_beta 29.228220
_cell_angle_gamma 128.954955
_cell_volume 732.752524
_symmetry_space_group_name_H-M "P -1"
_symmetry_group_IT_number 2
_symmetry_cell_setting 'triclinic'
loop_
_space_group_symop_operation_xyz
x,y,z
-x,-y,-z
loop_
_atom_site_type_symbol
_atom_site_label
_atom_site_fract_x
_atom_site_fract_y
_atom_site_fract_z
Si Si1 0.193632 0.392534 0.871787
Si Si2 0.719312 0.386574 0.843162
Si Si3 0.194531 0.914945 0.108080
Si Si4 0.444081 0.729530 0.512533
Si Si5 0.048871 0.991899 0.827958
Si Si6 0.304278 0.072086 0.887498
Si Si7 0.537595 0.799076 0.734119
Si Si8 0.872051 0.916123 0.626267
O O1 0.385732 0.226668 0.625859
O O2 0.138265 0.215111 0.883878
O O3 0.231440 0.631264 0.985603
O O4 0.000000 0.500000 0.000000
O O5 0.889878 0.203771 0.598991
O O6 0.742694 0.204858 0.813135
O O7 0.500000 0.500000 0.000000
O O8 0.772308 0.626166 0.939604
O O9 0.018785 0.009124 0.206838
O O10 0.136171 0.099023 0.292891
O O11 0.397329 0.925899 0.947532
O O12 0.517782 0.438975 0.361204
O O13 0.247896 0.744983 0.602649
O O14 0.393113 0.926057 0.695067
O O15 0.875569 0.010794 0.004059
O O16 0.483633 0.993624 0.792054
O O17 0.767732 0.738428 0.579931
#
# Coordination Sequence:
#
# PCOD8011310 Si02
#       8
#     2   2   2   2   2   2   2   2
#     4   9  20  39  58  90 131 162 214 260 312 391
#     4  11  25  45  64  97 129 168 223 267 309 394
#     4   9  21  40  65  90 126 174 207 263 326 378
#     4  11  22  38  65  97 129 171 208 266 332 378
#     4  10  21  39  59  95 129 160 216 267 307 393
#     4  11  23  42  66  93 132 169 213 268 327 382
#     4  10  21  42  64  96 130 162 219 267 316 392
#     4  11  23  44  68  91 133 173 210 269 325 373
#
# _framework density 21.835477000000001
#
# number of rings (size 3 to 8) (size 9 to 14) (size 15 to 20)
#    0.000    1.750    1.250    3.000    1.750    2.000 
#    6.750    3.125    0.000    0.000    0.000    0.000 
#    0.000    0.000    0.000    0.000    0.000    0.000 
#
# Total GULP energy -198275.564379 kJ/mol
# GULP energy per Si atom -12392.222774 kJ/mol
# Density = 2.178578 g / cm^3
# Si number density = 21.835477 Si / 1000 Ang^3
#
#
#
# Elastic Constant Matrix: (Units=GPa)
#
#
# Indices 1 2 3 4 5 6 
#
# 1 83.7713 15.8885 48.4920 -11.8511 0.0709 9.4268
# 2 15.8885 91.4405 24.0399 2.1861 5.6982 8.1812
# 3 48.4920 24.0399 109.2528 -13.6655 -2.4674 5.5041
# 4 -11.8511 2.1861 -13.6655 38.4475 8.3682 -7.9642
# 5 0.0709 5.6982 -2.4674 8.3682 34.7465 -2.3276
# 6 9.4268 8.1812 5.5041 -7.9642 -2.3276 16.5813
#
#
#
# Elastic Compliance Matrix: (Units=1/GPa)
#
#
# Indices 1 2 3 4 5 6 
#
# 1 0.017021 -0.000521 -0.006924 0.001760 -0.001297 -0.006458
# 2 -0.000521 0.012482 -0.002568 -0.002710 -0.002017 -0.006595
# 3 -0.006924 -0.002568 0.013061 0.002978 0.000807 0.002412
# 4 0.001760 -0.002710 0.002978 0.031963 -0.006118 0.013842
# 5 -0.001297 -0.002017 0.000807 -0.006118 0.030835 0.002855
# 6 -0.006458 -0.006595 0.002412 0.013842 0.002855 0.073483
#
#
# Mechanical properties :
#
#
# Convention : Reuss Voigt Hill
#
# Bulk Modulus (GPa) = 44.36783 51.25615 47.81199
# Shear Modulus (GPa) = 24.22678 31.02467 27.62573
#
# Velocity S-wave (km/s) = 3.33455 3.77349 3.56079
# Velocity P-wave (km/s) = 5.93202 6.52000 6.23295
#
# Compressibility (1/GPa) = 0.02253885
#
# Stress axis : x y z
#
# Youngs Moduli (GPa) = 58.75151 80.11426 76.56659
#
# Poissons Ratio (x) = 0.04170 0.53015
# Poissons Ratio (y) = 0.03058 0.19661
# Poissons Ratio (z) = 0.40680 0.20572
#
# Static dielectric constant tensor:
#      x y z
#    x 3.740240 -0.136400 -0.322710 
#    y -0.136400 4.282770 0.128280 
#    z -0.322710 0.128280 3.920610 
# 
# 
# High freq. dielectric constant tensor:
#      x y z
#    x 1.845230 -0.002890 -0.019240 
#    y -0.002890 1.871110 -0.002570 
#    z -0.019240 -0.002570 1.851680 
# 
# From -- ./inp_files/598025.got.cif
#   From: 2010.06.25/outbox.cif.g09.slc.cpg/sg2_300_cif.got.tgz:598025.got - 2010.06.27 13:26:56.
