data_PCOD8011638
_publ_section_title
;
Structure prediction by ZEFSAII (Michael W. Deem and Ramdas Pophale) SiO2 
 PCOD8011638
Probable space group: P -1
;
_chemical_formula_sum "Si O2"
_cell_formula_units_Z 16
_cell_length_a 6.865907
_cell_length_b 8.689639
_cell_length_c 18.995341
_cell_angle_alpha 48.649265
_cell_angle_beta 118.292628
_cell_angle_gamma 98.139171
_cell_volume 723.444815
_symmetry_space_group_name_H-M "P -1"
_symmetry_group_IT_number 2
_symmetry_cell_setting 'triclinic'
loop_
_space_group_symop_operation_xyz
x,y,z
-x,-y,-z
loop_
_atom_site_type_symbol
_atom_site_label
_atom_site_fract_x
_atom_site_fract_y
_atom_site_fract_z
Si Si1 0.772877 0.609406 0.885333
Si Si2 0.398460 0.111764 0.845935
Si Si3 0.106858 0.227554 0.519097
Si Si4 0.887286 0.357850 0.683016
Si Si5 0.930026 0.564811 0.770503
Si Si6 0.447752 0.328625 0.929027
Si Si7 0.233680 0.018506 0.458220
Si Si8 0.452546 0.901136 0.277053
O O1 0.578903 0.506453 0.912171
O O2 0.792927 0.562649 0.819454
O O3 0.694993 0.859303 0.809756
O O4 0.000000 0.500000 0.000000
O O5 0.491751 0.237058 0.885239
O O6 0.522685 0.157605 0.783045
O O7 0.124471 0.179654 0.776916
O O8 0.466609 0.860004 0.944362
O O9 0.090067 0.471254 0.423965
O O10 0.191781 0.074137 0.515178
O O11 0.290529 0.145402 0.636183
O O12 0.855810 0.193923 0.508307
O O13 0.684009 0.249649 0.661755
O O14 0.827750 0.461665 0.718614
O O15 0.186244 0.435789 0.867787
O O16 0.916353 0.806023 0.673011
O O17 0.500000 0.000000 0.500000
#
# Coordination Sequence:
#
# PCOD8011638 Si02
#       8
#     2   2   2   2   2   2   2   2
#     4  12  25  38  61  93 124 158 202 254 312 362
#     4  10  23  41  64  88 120 164 208 252 306 363
#     4  10  23  39  60  92 123 159 204 250 305 363
#     4  10  23  42  63  89 124 165 208 249 300 367
#     4  10  22  41  65  87 117 163 205 246 302 366
#     4  10  22  43  63  86 121 162 207 254 299 365
#     4  10  21  39  63  90 122 160 203 250 302 365
#     4  12  24  39  62  94 129 160 200 257 309 361
#
# _framework density 22.116406999999999
#
# number of rings (size 3 to 8) (size 9 to 14) (size 15 to 20)
#    0.000    1.500    0.000    4.125    0.000   12.500 
#    0.000    5.000    0.000    0.000    0.000    0.000 
#    0.000    0.000    0.000    0.000    0.000    0.000 
#
# Total GULP energy -198401.978194 kJ/mol
# GULP energy per Si atom -12400.123637 kJ/mol
# Density = 2.206607 g / cm^3
# Si number density = 22.116407 Si / 1000 Ang^3
#
#
#
# Elastic Constant Matrix: (Units=GPa)
#
#
# Indices 1 2 3 4 5 6 
#
# 1 101.2726 42.1218 37.0694 -11.7358 -3.7725 26.6556
# 2 42.1218 65.8554 37.9348 -18.0148 -0.1603 29.8501
# 3 37.0694 37.9348 123.8495 -6.7671 -0.9255 8.7079
# 4 -11.7358 -18.0148 -6.7671 27.2146 2.1147 -5.6499
# 5 -3.7725 -0.1603 -0.9255 2.1147 29.7440 1.5712
# 6 26.6556 29.8501 8.7079 -5.6499 1.5712 48.8418
#
#
#
# Elastic Compliance Matrix: (Units=1/GPa)
#
#
# Indices 1 2 3 4 5 6 
#
# 1 0.014288 -0.006039 -0.002113 0.000725 0.001858 -0.003706
# 2 -0.006039 0.033361 -0.006606 0.014986 -0.001110 -0.014146
# 3 -0.002113 -0.006606 0.010400 -0.002055 0.000002 0.003098
# 4 0.000725 0.014986 -0.002055 0.045911 -0.002956 -0.003782
# 5 0.001858 -0.001110 0.000002 -0.002956 0.034154 -0.001777
# 6 -0.003706 -0.014146 0.003098 -0.003782 -0.001777 0.030210
#
#
# Mechanical properties :
#
#
# Convention : Reuss Voigt Hill
#
# Bulk Modulus (GPa) = 35.04573 58.35884 46.70228
# Shear Modulus (GPa) = 24.11365 32.75017 28.43191
#
# Velocity S-wave (km/s) = 3.30556 3.85230 3.58936
# Velocity P-wave (km/s) = 5.51810 6.79937 6.19196
#
# Compressibility (1/GPa) = 0.02853415
#
# Stress axis : x y z
#
# Youngs Moduli (GPa) = 69.98754 29.97474 96.15469
#
# Poissons Ratio (x) = 0.18102 0.20315
# Poissons Ratio (y) = 0.42267 0.63517
# Poissons Ratio (z) = 0.14787 0.19801
#
# Static dielectric constant tensor:
#      x y z
#    x 6.400740 4.568020 -1.376500 
#    y 4.568020 12.797460 -2.536750 
#    z -1.376500 -2.536750 4.773010 
# 
# 
# High freq. dielectric constant tensor:
#      x y z
#    x 1.873290 0.001870 -0.003540 
#    y 0.001870 1.869370 -0.001970 
#    z -0.003540 -0.001970 1.881300 
# 
# From -- ./inp_files/288991.got.cif
#   From: 2010.06.25/outbox.cif.g09.slc.cpg/sg2_145_cif.got.tgz:288991.got - 2010.06.27 13:26:56.
