data_PCOD8011166
_publ_section_title
;
Structure prediction by ZEFSAII (Michael W. Deem and Ramdas Pophale) SiO2 
 PCOD8011166
Probable space group: P -1
;
_chemical_formula_sum "Si O2"
_cell_formula_units_Z 16
_cell_length_a 14.047001
_cell_length_b 10.148174
_cell_length_c 9.740015
_cell_angle_alpha 36.414104
_cell_angle_beta 101.294296
_cell_angle_gamma 109.192357
_cell_volume 772.532507
_symmetry_space_group_name_H-M "P -1"
_symmetry_group_IT_number 2
_symmetry_cell_setting 'triclinic'
loop_
_space_group_symop_operation_xyz
x,y,z
-x,-y,-z
loop_
_atom_site_type_symbol
_atom_site_label
_atom_site_fract_x
_atom_site_fract_y
_atom_site_fract_z
Si Si1 0.365565 0.318901 0.503767
Si Si2 0.791591 0.588798 0.803775
Si Si3 0.209374 0.875823 0.927152
Si Si4 0.750623 0.139857 0.742602
Si Si5 0.138833 0.166265 0.111946
Si Si6 0.095765 0.416258 0.638144
Si Si7 0.552294 0.193514 0.740741
Si Si8 0.065587 0.129825 0.609301
O O1 0.301665 0.313665 0.350529
O O2 0.471507 0.258574 0.561697
O O3 0.383139 0.571063 0.364316
O O4 0.299319 0.117978 0.752218
O O5 0.808700 0.635302 0.930760
O O6 0.896227 0.714369 0.645661
O O7 0.760190 0.314431 0.997319
O O8 0.106711 0.904714 0.806930
O O9 0.194070 0.801554 0.143280
O O10 0.805055 0.370230 0.478038
O O11 0.629452 0.097888 0.751732
O O12 0.772660 0.919152 0.862179
O O13 0.075869 0.260049 0.900867
O O14 0.056824 0.952363 0.345847
O O15 0.118837 0.270994 0.639539
O O16 0.000000 0.500000 0.500000
O O17 0.500000 0.000000 0.000000
#
# Coordination Sequence:
#
# PCOD8011166 Si02
#       8
#     2   2   2   2   2   2   2   2
#     4  10  21  38  68  97 125 156 215 262 317 376
#     4  11  24  42  62  93 132 172 211 268 322 380
#     4  11  20  39  66  90 126 167 214 260 314 375
#     4  12  22  39  65  97 126 170 213 267 317 381
#     4  12  27  39  61  95 134 168 215 268 327 374
#     4  12  23  40  64  92 129 170 218 264 317 373
#     4  11  21  38  70 105 123 159 218 272 312 375
#     4  11  22  40  64  90 123 177 224 259 307 390
#
# _framework density 20.711103000000001
#
# number of rings (size 3 to 8) (size 9 to 14) (size 15 to 20)
#    0.000    0.750    6.250    2.250    0.000    2.500 
#    0.000    0.625    0.000    3.750    0.000    0.000 
#    0.000    0.000    0.000    0.000    0.000    0.000 
#
# Total GULP energy -198387.032143 kJ/mol
# GULP energy per Si atom -12399.189509 kJ/mol
# Density = 2.066396 g / cm^3
# Si number density = 20.711103 Si / 1000 Ang^3
#
#
#
# Elastic Constant Matrix: (Units=GPa)
#
#
# Indices 1 2 3 4 5 6 
#
# 1 141.9714 32.4778 37.6138 -3.3023 6.6870 -14.8717
# 2 32.4778 122.0946 39.7502 0.3874 4.8940 -13.5492
# 3 37.6138 39.7502 84.8135 -14.4839 -1.3604 -5.5277
# 4 -3.3023 0.3874 -14.4839 28.2772 5.6894 1.9661
# 5 6.6870 4.8940 -1.3604 5.6894 33.8303 -5.9082
# 6 -14.8717 -13.5492 -5.5277 1.9661 -5.9082 20.4519
#
#
#
# Elastic Compliance Matrix: (Units=1/GPa)
#
#
# Indices 1 2 3 4 5 6 
#
# 1 0.008597 -0.000623 -0.003373 -0.000896 -0.000757 0.004794
# 2 -0.000623 0.010554 -0.004835 -0.003050 -0.000127 0.005489
# 3 -0.003373 -0.004835 0.016870 0.008375 0.000320 -0.001809
# 4 -0.000896 -0.003050 0.008375 0.041479 -0.007149 -0.006462
# 5 -0.000757 -0.000127 0.000320 -0.007149 0.032612 0.009561
# 6 0.004794 0.005489 -0.001809 -0.006462 0.009561 0.058912
#
#
# Mechanical properties :
#
#
# Convention : Reuss Voigt Hill
#
# Bulk Modulus (GPa) = 54.47351 63.17367 58.82359
# Shear Modulus (GPa) = 25.93271 32.44773 29.19022
#
# Velocity S-wave (km/s) = 3.54236 3.96243 3.75827
# Velocity P-wave (km/s) = 6.56428 7.17656 6.87724
#
# Compressibility (1/GPa) = 0.01835755
#
# Stress axis : x y z
#
# Youngs Moduli (GPa) = 116.31989 94.74862 59.27621
#
# Poissons Ratio (x) = 0.05907 0.19995
# Poissons Ratio (y) = 0.07252 0.28662
# Poissons Ratio (z) = 0.39237 0.45814
#
# Static dielectric constant tensor:
#      x y z
#    x 3.866980 -0.084660 0.121830 
#    y -0.084660 3.492150 -0.214970 
#    z 0.121830 -0.214970 3.820480 
# 
# 
# High freq. dielectric constant tensor:
#      x y z
#    x 1.811290 -0.003780 0.008150 
#    y -0.003780 1.780220 -0.020180 
#    z 0.008150 -0.020180 1.815950 
# 
# From -- ./inp_files/37961.got.cif
#   From: 2010.06.25/outbox.cif.g09.slc.cpg/sg2_19_cif.got.tgz:37961.got - 2010.06.27 13:26:56.
