data_PCOD8011130
_publ_section_title
;
Structure prediction by ZEFSAII (Michael W. Deem and Ramdas Pophale) SiO2 
 PCOD8011130
Probable space group: P -1
;
_chemical_formula_sum "Si O2"
_cell_formula_units_Z 16
_cell_length_a 16.581634
_cell_length_b 9.434896
_cell_length_c 11.996336
_cell_angle_alpha 57.467603
_cell_angle_beta 142.783480
_cell_angle_gamma 138.220714
_cell_volume 748.935643
_symmetry_space_group_name_H-M "P -1"
_symmetry_group_IT_number 2
_symmetry_cell_setting 'triclinic'
loop_
_space_group_symop_operation_xyz
x,y,z
-x,-y,-z
loop_
_atom_site_type_symbol
_atom_site_label
_atom_site_fract_x
_atom_site_fract_y
_atom_site_fract_z
Si Si1 0.224421 0.816045 0.923798
Si Si2 0.702214 0.683190 0.510446
Si Si3 0.665340 0.581533 0.265865
Si Si4 0.094250 0.529396 0.705767
Si Si5 0.444262 0.708828 0.919824
Si Si6 0.633189 0.426311 0.758499
Si Si7 0.116291 0.205414 0.964528
Si Si8 0.088046 0.028125 0.784645
O O1 0.100533 0.688560 0.733565
O O2 0.117173 0.851695 0.872935
O O3 0.274959 0.681032 0.093270
O O4 0.401848 0.044336 0.994798
O O5 0.700550 0.583333 0.433581
O O6 0.657679 0.506885 0.625768
O O7 0.566053 0.729597 0.356830
O O8 0.888368 0.911872 0.630433
O O9 0.623715 0.368944 0.250295
O O10 0.831318 0.799421 0.299509
O O11 0.498955 0.567076 0.078916
O O12 0.293520 0.651177 0.855922
O O13 0.018254 0.299806 0.775251
O O14 0.000000 0.500000 0.500000
O O15 0.719147 0.623599 0.854295
O O16 0.178317 0.150638 0.947693
O O17 0.000000 0.000000 0.000000
#
# Coordination Sequence:
#
# PCOD8011130 Si02
#       8
#     2   2   2   2   2   2   2   2
#     4  10  24  42  64  96 128 174 214 266 338 388
#     4  11  23  40  68  93 132 165 224 267 324 389
#     4  10  21  38  67  97 122 166 216 279 314 386
#     4  11  24  41  64  98 137 169 219 274 330 388
#     4  10  21  40  63  89 131 171 211 260 334 389
#     4  10  24  45  65  93 131 181 213 262 332 404
#     4  11  22  45  67  93 132 182 219 257 330 414
#     4  11  23  40  70  98 123 169 224 273 324 386
#
# _framework density 21.363651999999998
#
# number of rings (size 3 to 8) (size 9 to 14) (size 15 to 20)
#    0.000    1.500    2.500    2.250    5.250    4.500 
#    0.000    0.625    0.000    0.000    0.000    0.000 
#    0.000    0.000    0.000    0.000    0.000    0.000 
#
# Total GULP energy -198325.929502 kJ/mol
# GULP energy per Si atom -12395.370594 kJ/mol
# Density = 2.131503 g / cm^3
# Si number density = 21.363652 Si / 1000 Ang^3
#
#
#
# Elastic Constant Matrix: (Units=GPa)
#
#
# Indices 1 2 3 4 5 6 
#
# 1 130.7224 56.5231 45.6588 3.5160 -17.2073 -5.6534
# 2 56.5231 105.9960 50.6396 6.6105 -10.7379 -11.3409
# 3 45.6588 50.6396 91.1211 2.7026 -4.4564 4.8029
# 4 3.5160 6.6105 2.7026 25.7093 5.3392 -2.8542
# 5 -17.2073 -10.7379 -4.4564 5.3392 45.7006 6.8174
# 6 -5.6534 -11.3409 4.8029 -2.8542 6.8174 43.4325
#
#
#
# Elastic Compliance Matrix: (Units=1/GPa)
#
#
# Indices 1 2 3 4 5 6 
#
# 1 0.010846 -0.003944 -0.003091 -0.000724 0.002908 0.000220
# 2 -0.003944 0.015418 -0.006663 -0.002542 0.001204 0.003893
# 3 -0.003091 -0.006663 0.016399 0.000101 -0.000566 -0.003860
# 4 -0.000724 -0.002542 0.000101 0.041229 -0.006109 0.002899
# 5 0.002908 0.001204 -0.000566 -0.006109 0.024437 -0.003482
# 6 0.000220 0.003893 -0.003860 0.002899 -0.003482 0.025233
#
#
# Mechanical properties :
#
#
# Convention : Reuss Voigt Hill
#
# Bulk Modulus (GPa) = 65.49978 70.38694 67.94336
# Shear Modulus (GPa) = 30.11184 34.63635 32.37410
#
# Velocity S-wave (km/s) = 3.75839 4.03087 3.89701
# Velocity P-wave (km/s) = 7.03989 7.39476 7.21950
#
# Compressibility (1/GPa) = 0.01526723
#
# Stress axis : x y z
#
# Youngs Moduli (GPa) = 92.19571 64.86017 60.97988
#
# Poissons Ratio (x) = 0.25581 0.18849
# Poissons Ratio (y) = 0.36362 0.40630
# Poissons Ratio (z) = 0.28498 0.43216
#
# Static dielectric constant tensor:
#      x y z
#    x 4.148980 -0.196370 -0.100640 
#    y -0.196370 3.972090 0.176590 
#    z -0.100640 0.176590 4.001100 
# 
# 
# High freq. dielectric constant tensor:
#      x y z
#    x 1.848500 -0.006540 -0.008950 
#    y -0.006540 1.825350 0.019700 
#    z -0.008950 0.019700 1.836980 
# 
# From -- ./inp_files/262102.got.cif
#   From: 2010.06.25/outbox.cif.g09.slc.cpg/sg2_132_cif.got.tgz:262102.got - 2010.06.27 13:26:56.
