data_PCOD8011760
_publ_section_title
;
Structure prediction by ZEFSAII (Michael W. Deem and Ramdas Pophale) SiO2 
 PCOD8011760
Probable space group: P -1
;
_chemical_formula_sum "Si O2"
_cell_formula_units_Z 14
_cell_length_a 13.331217
_cell_length_b 20.135344
_cell_length_c 13.039733
_cell_angle_alpha 150.193805
_cell_angle_beta 146.565866
_cell_angle_gamma 23.421421
_cell_volume 678.457521
_symmetry_space_group_name_H-M "P -1"
_symmetry_group_IT_number 2
_symmetry_cell_setting 'triclinic'
loop_
_space_group_symop_operation_xyz
x,y,z
-x,-y,-z
loop_
_atom_site_type_symbol
_atom_site_label
_atom_site_fract_x
_atom_site_fract_y
_atom_site_fract_z
Si Si1 0.799272 0.349972 0.640199
Si Si2 0.577990 0.673201 0.742236
Si Si3 0.445847 0.214721 0.756183
Si Si4 0.195820 0.973888 0.368261
Si Si5 0.995539 0.365748 0.025940
Si Si6 0.644841 0.911100 0.666743
Si Si7 0.118496 0.107790 0.967300
O O1 0.687153 0.549448 0.773698
O O2 0.571508 0.365713 0.500270
O O3 0.986675 0.277311 0.798959
O O4 0.953284 0.199195 0.475804
O O5 0.391432 0.892449 0.903813
O O6 0.812741 0.608998 0.790122
O O7 0.721305 0.093310 0.770136
O O8 0.267247 0.207943 0.523776
O O9 0.499446 0.122747 0.790140
O O10 0.293617 0.431781 0.929870
O O11 0.439614 0.917863 0.557854
O O12 0.121580 0.869432 0.214084
O O13 0.093462 0.228768 0.020201
O O14 0.877206 0.820856 0.822098
#
# Coordination Sequence:
#
# PCOD8011760 Si02
#       7
#     2   2   2   2   2   2   2
#     4  10  21  39  64  83 113 146 197 236 282 318
#     4  10  22  38  59  88 111 150 194 235 273 342
#     4   9  21  40  61  83 112 148 198 230 289 319
#     4   9  20  39  59  85 112 150 187 240 274 341
#     4  12  23  37  58  89 117 153 181 236 283 348
#     4   9  19  40  59  82 112 148 189 242 272 332
#     4  11  23  36  59  86 119 151 188 223 297 334
#
# _framework density 20.635041999999999
#
# number of rings (size 3 to 8) (size 9 to 14) (size 15 to 20)
#    0.857    1.143    0.000    3.429    0.000    5.143 
#    2.571    0.000    0.000    0.000    0.000    0.000 
#    0.000    0.000    0.000    0.000    0.000    0.000 
#
# Total GULP energy -173464.185016 kJ/mol
# GULP energy per Si atom -12390.298930 kJ/mol
# Density = 2.058808 g / cm^3
# Si number density = 20.635042 Si / 1000 Ang^3
#
#
#
# Elastic Constant Matrix: (Units=GPa)
#
#
# Indices 1 2 3 4 5 6 
#
# 1 121.0189 55.5036 56.8402 -8.9416 16.1041 7.2581
# 2 55.5036 72.7754 43.5945 -8.0393 1.6714 11.3741
# 3 56.8402 43.5945 71.7151 -4.6166 8.5054 7.8994
# 4 -8.9416 -8.0393 -4.6166 21.7664 -3.7167 -6.4199
# 5 16.1041 1.6714 8.5054 -3.7167 30.4471 1.3123
# 6 7.2581 11.3741 7.8994 -6.4199 1.3123 38.8500
#
#
#
# Elastic Compliance Matrix: (Units=1/GPa)
#
#
# Indices 1 2 3 4 5 6 
#
# 1 0.016116 -0.007740 -0.007403 0.001543 -0.005895 0.001215
# 2 -0.007740 0.026619 -0.010074 0.004454 0.006153 -0.003771
# 3 -0.007403 -0.010074 0.026305 -0.002079 -0.003079 -0.001256
# 4 0.001543 0.004454 -0.002079 0.050781 0.005416 0.007039
# 5 -0.005895 0.006153 -0.003079 0.005416 0.037164 -0.000434
# 6 0.001215 -0.003771 -0.001256 0.007039 -0.000434 0.028050
#
#
# Mechanical properties :
#
#
# Convention : Reuss Voigt Hill
#
# Bulk Modulus (GPa) = 53.74978 64.15401 58.95189
# Shear Modulus (GPa) = 20.68915 25.51746 23.10330
#
# Velocity S-wave (km/s) = 3.16986 3.52036 3.34969
# Velocity P-wave (km/s) = 6.28504 6.90516 6.60238
#
# Compressibility (1/GPa) = 0.01860473
#
# Stress axis : x y z
#
# Youngs Moduli (GPa) = 62.05006 37.56733 38.01507
#
# Poissons Ratio (x) = 0.29079 0.28144
# Poissons Ratio (y) = 0.48029 0.38296
# Poissons Ratio (z) = 0.45938 0.37845
#
# Static dielectric constant tensor:
#      x y z
#    x 3.592480 -0.127190 0.167970 
#    y -0.127190 3.434190 0.013240 
#    z 0.167970 0.013240 3.668280 
# 
# 
# High freq. dielectric constant tensor:
#      x y z
#    x 1.797190 -0.006170 0.013650 
#    y -0.006170 1.781740 0.003700 
#    z 0.013650 0.003700 1.807160 
# 
# From -- ./inp_files/326359.got.cif
#   From: 2010.06.25/outbox.cif.g09.slc.cpg/sg2_164_cif.got.tgz:326359.got - 2010.06.27 13:26:56.
