data_PCOD8011587
_publ_section_title
;
Structure prediction by ZEFSAII (Michael W. Deem and Ramdas Pophale) SiO2 
 PCOD8011587
Probable space group: P -1
;
_chemical_formula_sum "Si O2"
_cell_formula_units_Z 16
_cell_length_a 14.356415
_cell_length_b 8.848974
_cell_length_c 13.986302
_cell_angle_alpha 42.270064
_cell_angle_beta 139.443679
_cell_angle_gamma 138.733199
_cell_volume 700.389653
_symmetry_space_group_name_H-M "P -1"
_symmetry_group_IT_number 2
_symmetry_cell_setting 'triclinic'
loop_
_space_group_symop_operation_xyz
x,y,z
-x,-y,-z
loop_
_atom_site_type_symbol
_atom_site_label
_atom_site_fract_x
_atom_site_fract_y
_atom_site_fract_z
Si Si1 0.385500 0.933156 0.533048
Si Si2 0.494940 0.789228 0.165497
Si Si3 0.545823 0.513327 0.168341
Si Si4 0.774299 0.769685 0.477532
Si Si5 0.965900 0.721899 0.489177
Si Si6 0.737619 0.846661 0.002994
Si Si7 0.020378 0.754032 0.301185
Si Si8 0.637351 0.263155 0.716406
O O1 0.361145 0.660754 0.675907
O O2 0.212085 0.922631 0.377970
O O3 0.500000 0.000000 0.500000
O O4 0.466571 0.130784 0.589986
O O5 0.489684 0.556677 0.209313
O O6 0.650067 0.883538 0.309404
O O7 0.360410 0.715575 0.176033
O O8 0.500000 0.000000 0.000000
O O9 0.665224 0.773668 0.088768
O O10 0.379072 0.384230 0.043388
O O11 0.805356 0.669396 0.446326
O O12 0.723011 0.544160 0.616780
O O13 0.921484 0.994464 0.532971
O O14 0.020141 0.507093 0.663522
O O15 0.937377 0.689308 0.370106
O O16 0.920230 0.886639 0.111218
O O17 0.736145 0.103475 0.845589
#
# Coordination Sequence:
#
# PCOD8011587 Si02
#       8
#     2   2   2   2   2   2   2   2
#     4  11  23  42  71  99 134 176 227 281 342 406
#     4  12  23  37  67  99 133 177 230 273 331 402
#     4  10  21  39  62  96 134 180 225 276 333 399
#     4  11  24  44  66  96 136 176 222 277 342 407
#     4  10  23  40  69  96 130 175 222 277 340 409
#     4  10  22  40  66  96 136 175 227 279 331 401
#     4  11  21  40  70 100 127 175 230 277 332 403
#     4  11  24  44  68 100 140 178 223 280 342 406
#
# _framework density 22.844425000000001
#
# number of rings (size 3 to 8) (size 9 to 14) (size 15 to 20)
#    0.000    1.250    1.250    5.625    1.750    1.000 
#    0.000    7.500    5.500    0.000    0.000    0.000 
#    0.000    0.000    0.000    0.000    0.000    0.000 
#
# Total GULP energy -198270.003314 kJ/mol
# GULP energy per Si atom -12391.875207 kJ/mol
# Density = 2.279243 g / cm^3
# Si number density = 22.844425 Si / 1000 Ang^3
#
#
#
# Elastic Constant Matrix: (Units=GPa)
#
#
# Indices 1 2 3 4 5 6 
#
# 1 104.2266 38.8132 33.8213 2.2632 -3.2060 2.4315
# 2 38.8132 90.5497 37.7661 -8.7676 9.0072 3.0178
# 3 33.8213 37.7661 134.6427 -3.8068 23.5492 27.2282
# 4 2.2632 -8.7676 -3.8068 31.4371 9.1978 1.6967
# 5 -3.2060 9.0072 23.5492 9.1978 44.1377 1.4702
# 6 2.4315 3.0178 27.2282 1.6967 1.4702 32.8222
#
#
#
# Elastic Compliance Matrix: (Units=1/GPa)
#
#
# Indices 1 2 3 4 5 6 
#
# 1 0.012637 -0.005038 -0.003059 -0.004072 0.004358 0.002080
# 2 -0.005038 0.014999 -0.002403 0.005159 -0.003249 0.000866
# 3 -0.003059 -0.002403 0.012012 0.003426 -0.006541 -0.009401
# 4 -0.004072 0.005159 0.003426 0.037361 -0.010813 -0.004462
# 5 0.004358 -0.003249 -0.006541 -0.010813 0.029224 0.004652
# 6 0.002080 0.000866 -0.009401 -0.004462 0.004652 0.038054
#
#
# Mechanical properties :
#
#
# Convention : Reuss Voigt Hill
#
# Bulk Modulus (GPa) = 53.62537 61.13557 57.38047
# Shear Modulus (GPa) = 29.15400 36.28064 32.71732
#
# Velocity S-wave (km/s) = 3.57627 3.98950 3.78852
# Velocity P-wave (km/s) = 6.37009 6.93118 6.65655
#
# Compressibility (1/GPa) = 0.01864789
#
# Stress axis : x y z
#
# Youngs Moduli (GPa) = 79.13109 66.67093 83.25354
#
# Poissons Ratio (x) = 0.33589 0.25469
# Poissons Ratio (y) = 0.39866 0.20003
# Poissons Ratio (z) = 0.24208 0.16019
#
# Static dielectric constant tensor:
#      x y z
#    x 4.437850 -0.264420 0.137300 
#    y -0.264420 3.960120 -0.034240 
#    z 0.137300 -0.034240 4.193090 
# 
# 
# High freq. dielectric constant tensor:
#      x y z
#    x 1.910320 -0.014440 0.004290 
#    y -0.014440 1.887870 -0.001960 
#    z 0.004290 -0.001960 1.898470 
# 
# From -- ./inp_files/529310.got.cif
#   From: 2010.06.25/outbox.cif.g09.slc.cpg/sg2_265_cif.got.tgz:529310.got - 2010.06.27 13:26:56.
