data_PCOD8011110
_publ_section_title
;
Structure prediction by ZEFSAII (Michael W. Deem and Ramdas Pophale) SiO2 
 PCOD8011110
Probable space group: P -1
;
_chemical_formula_sum "Si O2"
_cell_formula_units_Z 16
_cell_length_a 26.071131
_cell_length_b 11.702799
_cell_length_c 9.343746
_cell_angle_alpha 133.158695
_cell_angle_beta 35.627834
_cell_angle_gamma 151.948286
_cell_volume 775.159551
_symmetry_space_group_name_H-M "P -1"
_symmetry_group_IT_number 2
_symmetry_cell_setting 'triclinic'
loop_
_space_group_symop_operation_xyz
x,y,z
-x,-y,-z
loop_
_atom_site_type_symbol
_atom_site_label
_atom_site_fract_x
_atom_site_fract_y
_atom_site_fract_z
Si Si1 0.850238 0.473592 0.047481
Si Si2 0.871025 0.292635 0.368055
Si Si3 0.118155 0.186677 0.572687
Si Si4 0.421183 0.829966 0.169288
Si Si5 0.346472 0.239313 0.092727
Si Si6 0.720572 0.100127 0.270181
Si Si7 0.879285 0.655899 0.595785
Si Si8 0.686171 0.052372 0.852573
O O1 0.840816 0.647448 0.244341
O O2 0.814169 0.326938 0.144931
O O3 0.751267 0.295872 0.987701
O O4 0.006075 0.644473 0.796990
O O5 0.813965 0.148536 0.223265
O O6 0.924570 0.541952 0.433134
O O7 0.748259 0.117607 0.610756
O O8 0.244766 0.244930 0.299897
O O9 0.088539 0.261731 0.571556
O O10 0.975394 0.899310 0.684118
O O11 0.385538 0.925096 0.436548
O O12 0.285198 0.551212 0.184706
O O13 0.500000 0.000000 0.000000
O O14 0.521249 0.848885 0.043411
O O15 0.284094 0.058830 0.213937
O O16 0.500000 0.500000 0.000000
O O17 0.356093 0.143493 0.847995
#
# Coordination Sequence:
#
# PCOD8011110 Si02
#       8
#     2   2   2   2   2   2   2   2
#     4  11  23  38  69  97 129 170 220 268 322 392
#     4  11  21  43  65  99 124 168 224 268 324 375
#     4  11  23  40  62 100 130 168 214 269 327 374
#     4  11  20  41  68  98 122 164 223 273 319 373
#     4  11  26  43  64  94 139 174 214 264 332 394
#     4  10  22  39  69  94 123 172 223 269 305 399
#     4  10  21  38  67  91 131 161 215 276 314 369
#     4  11  24  42  67  93 134 171 213 273 326 392
#
# _framework density 20.640912
#
# number of rings (size 3 to 8) (size 9 to 14) (size 15 to 20)
#    0.000    1.250    5.000    3.000    5.250    1.000 
#    0.000    4.375    0.000    0.000    0.000    0.000 
#    0.000    0.000    0.000    0.000    0.000    0.000 
#
# Total GULP energy -198382.595441 kJ/mol
# GULP energy per Si atom -12398.912215 kJ/mol
# Density = 2.059393 g / cm^3
# Si number density = 20.640912 Si / 1000 Ang^3
#
#
#
# Elastic Constant Matrix: (Units=GPa)
#
#
# Indices 1 2 3 4 5 6 
#
# 1 60.6773 24.4916 23.8254 0.2295 3.4414 9.0648
# 2 24.4916 139.8809 47.7290 4.5885 7.5862 27.0819
# 3 23.8254 47.7290 101.4148 -5.1953 -6.6398 10.6873
# 4 0.2295 4.5885 -5.1953 33.1054 5.3746 -2.3959
# 5 3.4414 7.5862 -6.6398 5.3746 35.4486 -1.3476
# 6 9.0648 27.0819 10.6873 -2.3959 -1.3476 36.5245
#
#
#
# Elastic Compliance Matrix: (Units=1/GPa)
#
#
# Indices 1 2 3 4 5 6 
#
# 1 0.019035 -0.001416 -0.003688 -0.000339 -0.002287 -0.002702
# 2 -0.001416 0.010228 -0.004106 -0.002060 -0.002746 -0.006267
# 3 -0.003688 -0.004106 0.012941 0.002112 0.003357 0.000435
# 4 -0.000339 -0.002060 0.002112 0.031658 -0.003819 0.002929
# 5 -0.002287 -0.002746 0.003357 -0.003819 0.030322 0.002490
# 6 -0.002702 -0.006267 0.000435 0.002929 0.002490 0.032853
#
#
# Mechanical properties :
#
#
# Convention : Reuss Voigt Hill
#
# Bulk Modulus (GPa) = 42.04417 54.89608 48.47013
# Shear Modulus (GPa) = 30.60276 34.74418 32.67347
#
# Velocity S-wave (km/s) = 3.85467 4.10722 3.98294
# Velocity P-wave (km/s) = 6.34230 7.01041 6.68471
#
# Compressibility (1/GPa) = 0.02378451
#
# Stress axis : x y z
#
# Youngs Moduli (GPa) = 52.53515 97.77398 77.27271
#
# Poissons Ratio (x) = 0.13848 0.28496
# Poissons Ratio (y) = 0.07441 0.31725
# Poissons Ratio (z) = 0.19373 0.40142
#
# Static dielectric constant tensor:
#      x y z
#    x 3.808260 0.191930 -0.044590 
#    y 0.191930 4.010260 0.118700 
#    z -0.044590 0.118700 3.827000 
# 
# 
# High freq. dielectric constant tensor:
#      x y z
#    x 1.807960 0.010800 -0.004120 
#    y 0.010800 1.809950 -0.004680 
#    z -0.004120 -0.004680 1.796220 
# 
# From -- ./inp_files/279521.got.cif
#   From: 2010.06.25/outbox.cif.g09.slc.cpg/sg2_140_cif.got.tgz:279521.got - 2010.06.27 13:26:56.
