data_PCOD8011540
_publ_section_title
;
Structure prediction by ZEFSAII (Michael W. Deem and Ramdas Pophale) SiO2 
 PCOD8011540
Probable space group: P -1
;
_chemical_formula_sum "Si O2"
_cell_formula_units_Z 16
_cell_length_a 9.102619
_cell_length_b 9.374046
_cell_length_c 11.371040
_cell_angle_alpha 59.473544
_cell_angle_beta 105.155653
_cell_angle_gamma 114.152042
_cell_volume 760.848678
_symmetry_space_group_name_H-M "P -1"
_symmetry_group_IT_number 2
_symmetry_cell_setting 'triclinic'
loop_
_space_group_symop_operation_xyz
x,y,z
-x,-y,-z
loop_
_atom_site_type_symbol
_atom_site_label
_atom_site_fract_x
_atom_site_fract_y
_atom_site_fract_z
Si Si1 0.814192 0.500624 0.786981
Si Si2 0.600583 0.314224 0.609423
Si Si3 0.996875 0.183990 0.469890
Si Si4 0.291197 0.329629 0.631376
Si Si5 0.329348 0.949929 0.421524
Si Si6 0.064097 0.810946 0.015735
Si Si7 0.769925 0.811799 0.075017
Si Si8 0.763972 0.752142 0.843606
O O1 0.676360 0.392102 0.716040
O O2 0.725612 0.565983 0.847369
O O3 0.943976 0.665485 0.679934
O O4 0.896958 0.367970 0.913286
O O5 0.406915 0.252228 0.609910
O O6 0.654882 0.460992 0.458189
O O7 0.660320 0.155169 0.650776
O O8 0.109712 0.236252 0.587333
O O9 0.814787 0.167021 0.475945
O O10 0.000000 0.000000 0.500000
O O11 0.317450 0.302232 0.785737
O O12 0.294050 0.124482 0.305336
O O13 0.500000 0.000000 0.500000
O O14 0.953166 0.804494 0.111029
O O15 0.959166 0.827409 0.872016
O O16 0.221589 0.985456 0.986421
O O17 0.680475 0.735886 0.963384
#
# Coordination Sequence:
#
# PCOD8011540 Si02
#       8
#     2   2   2   2   2   2   2   2
#     4  11  22  39  66  97 133 167 221 266 331 378
#     4  10  25  40  67  93 138 165 214 277 328 374
#     4  11  23  38  68  97 129 169 220 274 320 390
#     4  10  22  43  65  97 128 176 218 267 325 386
#     4  12  25  42  66  98 132 167 216 273 332 384
#     4   9  20  37  62  95 126 172 212 269 314 384
#     4   9  20  37  67  87 130 168 222 257 323 384
#     4  10  21  39  62  90 131 167 212 266 321 385
#
# _framework density 21.029147999999999
#
# number of rings (size 3 to 8) (size 9 to 14) (size 15 to 20)
#    0.750    1.000    1.250    2.625    7.000    1.000 
#    0.000    3.125    2.750    0.000    0.000    0.000 
#    0.000    0.000    0.000    0.000    0.000    0.000 
#
# Total GULP energy -198316.287694 kJ/mol
# GULP energy per Si atom -12394.767981 kJ/mol
# Density = 2.098129 g / cm^3
# Si number density = 21.029148 Si / 1000 Ang^3
#
#
#
# Elastic Constant Matrix: (Units=GPa)
#
#
# Indices 1 2 3 4 5 6 
#
# 1 101.4348 52.7664 38.2431 -5.8498 12.1467 -2.0658
# 2 52.7664 121.7328 46.9815 11.0781 3.3367 -22.3758
# 3 38.2431 46.9815 115.4616 5.1383 10.3116 -4.2479
# 4 -5.8498 11.0781 5.1383 26.5918 -9.4090 4.8632
# 5 12.1467 3.3367 10.3116 -9.4090 30.7844 -7.5624
# 6 -2.0658 -22.3758 -4.2479 4.8632 -7.5624 41.0184
#
#
#
# Elastic Compliance Matrix: (Units=1/GPa)
#
#
# Indices 1 2 3 4 5 6 
#
# 1 0.015043 -0.006974 -0.002266 0.006210 -0.003676 -0.004695
# 2 -0.006974 0.014727 -0.003181 -0.007960 0.001913 0.008649
# 3 -0.002266 -0.003181 0.011079 -0.002340 -0.003448 -0.001060
# 4 0.006210 -0.007960 -0.002340 0.048441 0.012089 -0.007786
# 5 -0.003676 0.001913 -0.003448 0.012089 0.040167 0.006473
# 6 -0.004695 0.008649 -0.001060 -0.007786 0.006473 0.030868
#
#
# Mechanical properties :
#
#
# Convention : Reuss Voigt Hill
#
# Bulk Modulus (GPa) = 62.46864 68.29014 65.37939
# Shear Modulus (GPa) = 26.24639 33.05480 29.65060
#
# Velocity S-wave (km/s) = 3.53667 3.96897 3.75904
# Velocity P-wave (km/s) = 6.81525 7.31766 7.07092
#
# Compressibility (1/GPa) = 0.01600803
#
# Stress axis : x y z
#
# Youngs Moduli (GPa) = 66.47518 67.90281 90.26259
#
# Poissons Ratio (x) = 0.47353 0.20452
# Poissons Ratio (y) = 0.46357 0.28713
# Poissons Ratio (z) = 0.15062 0.21600
#
# Static dielectric constant tensor:
#      x y z
#    x 3.779170 -0.182200 0.065270 
#    y -0.182200 3.780840 0.027040 
#    z 0.065270 0.027040 3.657470 
# 
# 
# High freq. dielectric constant tensor:
#      x y z
#    x 1.806600 -0.014930 0.006360 
#    y -0.014930 1.827180 0.007350 
#    z 0.006360 0.007350 1.815060 
# 
# From -- ./inp_files/381375.got.cif
#   From: 2010.06.25/outbox.cif.g09.slc.cpg/sg2_191_cif.got.tgz:381375.got - 2010.06.27 13:26:56.
