data_PCOD8011814
_publ_section_title
;
Structure prediction by ZEFSAII (Michael W. Deem and Ramdas Pophale) SiO2 
 PCOD8011814
Probable space group: P -1
;
_chemical_formula_sum "Si O2"
_cell_formula_units_Z 14
_cell_length_a 7.552019
_cell_length_b 24.839361
_cell_length_c 4.987046
_cell_angle_alpha 56.886502
_cell_angle_beta 109.464917
_cell_angle_gamma 135.366957
_cell_volume 548.052050
_symmetry_space_group_name_H-M "P -1"
_symmetry_group_IT_number 2
_symmetry_cell_setting 'triclinic'
loop_
_space_group_symop_operation_xyz
x,y,z
-x,-y,-z
loop_
_atom_site_type_symbol
_atom_site_label
_atom_site_fract_x
_atom_site_fract_y
_atom_site_fract_z
Si Si1 0.540117 0.913503 0.946671
Si Si2 0.098204 0.887048 0.565833
Si Si3 0.831245 0.730129 0.507722
Si Si4 0.492918 0.663376 0.018822
Si Si5 0.762974 0.524391 0.590225
Si Si6 0.036355 0.637843 0.918141
Si Si7 0.249812 0.098511 0.400291
O O1 0.257749 0.876728 0.869475
O O2 0.593319 0.866711 0.893604
O O3 0.741160 0.015985 0.717600
O O4 0.568682 0.893825 0.312367
O O5 0.012948 0.830439 0.410121
O O6 0.842773 0.851730 0.690390
O O7 0.730207 0.717661 0.191567
O O8 0.994577 0.703053 0.668272
O O9 0.594988 0.671888 0.750625
O O10 0.285575 0.561391 0.265691
O O11 0.337388 0.694652 0.871231
O O12 0.500000 0.500000 0.500000
O O13 0.868700 0.556461 0.855154
O O14 0.964868 0.601881 0.280881
O O15 0.000000 0.000000 0.500000
#
# Coordination Sequence:
#
# PCOD8011814 Si02
#       7
#     2   2   2   2   2   2   2
#     4  10  23  42  66  95 121 164 220 261 312 375
#     4  10  24  41  66  92 128 168 209 264 319 373
#     4  12  26  42  61  95 133 167 208 261 319 380
#     4  12  26  43  66  94 128 171 212 257 316 371
#     4  12  21  43  72  92 127 166 214 262 306 363
#     4  12  24  43  66  95 129 167 211 259 312 373
#     4  10  21  39  64  92 122 155 208 264 310 370
#
# _framework density 25.545020000000001
#
# number of rings (size 3 to 8) (size 9 to 14) (size 15 to 20)
#    0.000    0.857    2.857    4.714    0.000   13.143 
#    0.000    0.000    0.000    0.000    0.000    0.000 
#    0.000    0.000    0.000    0.000    0.000    0.000 
#
# Total GULP energy -173703.040176 kJ/mol
# GULP energy per Si atom -12407.360013 kJ/mol
# Density = 2.548688 g / cm^3
# Si number density = 25.545020 Si / 1000 Ang^3
#
#
#
# Elastic Constant Matrix: (Units=GPa)
#
#
# Indices 1 2 3 4 5 6 
#
# 1 159.4723 27.4308 22.1385 5.5094 32.3365 3.3261
# 2 27.4308 84.0992 2.6649 11.1925 7.6499 -18.8052
# 3 22.1385 2.6649 52.2415 18.2849 6.1598 -2.2830
# 4 5.5094 11.1925 18.2849 24.8828 -8.4437 -1.5253
# 5 32.3365 7.6499 6.1598 -8.4437 36.9723 0.4753
# 6 3.3261 -18.8052 -2.2830 -1.5253 0.4753 42.2071
#
#
#
# Elastic Compliance Matrix: (Units=1/GPa)
#
#
# Indices 1 2 3 4 5 6 
#
# 1 0.008455 -0.002204 -0.002084 -0.001828 -0.006987 -0.001748
# 2 -0.002204 0.016102 0.005163 -0.011820 -0.005057 0.007257
# 3 -0.002084 0.005163 0.031050 -0.028176 -0.010896 0.003249
# 4 -0.001828 -0.011820 -0.028176 0.075165 0.025959 -0.004222
# 5 -0.006987 -0.005057 -0.010896 0.025959 0.041972 -0.001826
# 6 -0.001748 0.007257 0.003249 -0.004222 -0.001826 0.027107
#
#
# Mechanical properties :
#
#
# Convention : Reuss Voigt Hill
#
# Bulk Modulus (GPa) = 17.43437 44.47574 30.95505
# Shear Modulus (GPa) = 23.01818 37.05101 30.03460
#
# Velocity S-wave (km/s) = 3.00506 3.81257 3.43264
# Velocity P-wave (km/s) = 4.34515 6.06873 5.27777
#
# Compressibility (1/GPa) = 0.05735798
#
# Stress axis : x y z
#
# Youngs Moduli (GPa) = 118.26708 62.10516 32.20618
#
# Poissons Ratio (x) = 0.13688 0.06710
# Poissons Ratio (y) = 0.26066 -0.16628
# Poissons Ratio (z) = 0.24642 -0.32065
#
# Static dielectric constant tensor:
#      x y z
#    x 5.167440 -0.215170 0.210820 
#    y -0.215170 4.675620 0.128950 
#    z 0.210820 0.128950 4.419790 
# 
# 
# High freq. dielectric constant tensor:
#      x y z
#    x 2.039380 -0.003510 0.009640 
#    y -0.003510 2.026760 0.008510 
#    z 0.009640 0.008510 2.013050 
# 
# From -- ./inp_files/56113.got.cif
#   From: 2010.06.25/outbox.cif.g09.slc.cpg/sg2_29_cif.got.tgz:56113.got - 2010.06.27 13:26:56.
