data_PCOD8011258
_publ_section_title
;
Structure prediction by ZEFSAII (Michael W. Deem and Ramdas Pophale) SiO2 
 PCOD8011258
Probable space group: P -1
;
_chemical_formula_sum "Si O2"
_cell_formula_units_Z 16
_cell_length_a 8.979952
_cell_length_b 17.843068
_cell_length_c 16.679498
_cell_angle_alpha 156.223147
_cell_angle_beta 50.066767
_cell_angle_gamma 127.314841
_cell_volume 824.699872
_symmetry_space_group_name_H-M "P -1"
_symmetry_group_IT_number 2
_symmetry_cell_setting 'triclinic'
loop_
_space_group_symop_operation_xyz
x,y,z
-x,-y,-z
loop_
_atom_site_type_symbol
_atom_site_label
_atom_site_fract_x
_atom_site_fract_y
_atom_site_fract_z
Si Si1 0.791114 0.277889 0.831403
Si Si2 0.458953 0.147277 0.043776
Si Si3 0.246119 0.122624 0.255483
Si Si4 0.387002 0.160607 0.903701
Si Si5 0.881726 0.666025 0.105356
Si Si6 0.318116 0.529088 0.647522
Si Si7 0.983414 0.771580 0.995015
Si Si8 0.409120 0.046419 0.492416
O O1 0.576280 0.305260 0.970120
O O2 0.775477 0.100252 0.603542
O O3 0.940768 0.236745 0.810358
O O4 0.865037 0.450195 0.920776
O O5 0.296927 0.158542 0.179610
O O6 0.596380 0.340891 0.181524
O O7 0.354070 0.109977 0.958585
O O8 0.584841 0.972368 0.847995
O O9 0.222233 0.324411 0.504015
O O10 0.049050 0.990493 0.197305
O O11 0.196001 0.252316 0.027196
O O12 0.429498 0.975101 0.654778
O O13 0.922974 0.684928 0.016083
O O14 0.675607 0.750945 0.280436
O O15 0.500000 0.500000 0.500000
O O16 0.155867 0.652391 0.782229
O O17 0.500000 0.000000 0.500000
#
# Coordination Sequence:
#
# PCOD8011258 Si02
#       8
#     2   2   2   2   2   2   2   2
#     4   9  22  37  60  84 113 153 199 243 280 330
#     4   9  18  39  62  84 115 146 194 242 287 339
#     4   9  19  37  62  85 111 150 191 243 288 340
#     4  10  22  40  55  87 124 155 188 242 288 347
#     4  11  20  41  61  84 115 156 197 243 285 337
#     4   9  19  39  62  83 110 149 196 240 284 341
#     4  11  22  36  59  87 122 153 189 237 297 346
#     4  10  21  39  58  82 121 154 190 235 288 346
#
# _framework density 19.400998000000001
#
# number of rings (size 3 to 8) (size 9 to 14) (size 15 to 20)
#    0.750    1.500    1.250    2.625    0.000    3.500 
#    9.000    2.500    0.000    0.000    0.000    0.000 
#    0.000    0.000    0.000    0.000    0.000    0.000 
#
# Total GULP energy -198252.933816 kJ/mol
# GULP energy per Si atom -12390.808363 kJ/mol
# Density = 1.935684 g / cm^3
# Si number density = 19.400998 Si / 1000 Ang^3
#
#
#
# Elastic Constant Matrix: (Units=GPa)
#
#
# Indices 1 2 3 4 5 6 
#
# 1 104.3383 39.0125 25.7586 -6.3349 -19.0582 -28.2390
# 2 39.0125 84.9217 22.3230 -1.1174 1.3321 -22.3581
# 3 25.7586 22.3230 93.2847 3.6799 -8.6093 -7.5714
# 4 -6.3349 -1.1174 3.6799 28.3003 5.6836 5.7135
# 5 -19.0582 1.3321 -8.6093 5.6836 29.8229 -4.3013
# 6 -28.2390 -22.3581 -7.5714 5.7135 -4.3013 35.8834
#
#
#
# Elastic Compliance Matrix: (Units=1/GPa)
#
#
# Indices 1 2 3 4 5 6 
#
# 1 0.017159 -0.004536 -0.001455 -0.001139 0.012707 0.012075
# 2 -0.004536 0.016008 -0.002422 -0.000506 -0.003413 0.005565
# 3 -0.001455 -0.002422 0.012184 -0.002833 0.003346 0.000769
# 4 -0.001139 -0.000506 -0.002833 0.039395 -0.010376 -0.009326
# 5 0.012707 -0.003413 0.003346 -0.010376 0.047036 0.015869
# 6 0.012075 0.005565 0.000769 -0.009326 0.015869 0.044388
#
#
# Mechanical properties :
#
#
# Convention : Reuss Voigt Hill
#
# Bulk Modulus (GPa) = 35.05487 50.74813 42.90150
# Shear Modulus (GPa) = 24.69087 31.83135 28.26111
#
# Velocity S-wave (km/s) = 3.57131 4.05496 3.82079
# Velocity P-wave (km/s) = 5.92566 6.93814 6.45179
#
# Compressibility (1/GPa) = 0.02852670
#
# Stress axis : x y z
#
# Youngs Moduli (GPa) = 58.27753 62.46950 82.07359
#
# Poissons Ratio (x) = 0.28333 0.11943
# Poissons Ratio (y) = 0.26432 0.19875
# Poissons Ratio (z) = 0.08480 0.15128
#
# Static dielectric constant tensor:
#      x y z
#    x 3.564060 0.087120 0.040280 
#    y 0.087120 3.326520 0.082780 
#    z 0.040280 0.082780 3.681660 
# 
# 
# High freq. dielectric constant tensor:
#      x y z
#    x 1.753240 0.000420 -0.001580 
#    y 0.000420 1.736210 0.000430 
#    z -0.001580 0.000430 1.749540 
# 
# From -- ./inp_files/505704.got.cif
#   From: 2010.06.25/outbox.cif.g09.slc.cpg/sg2_253_cif.got.tgz:505704.got - 2010.06.27 13:26:56.
