data_PCOD8011811
_publ_section_title
;
Structure prediction by ZEFSAII (Michael W. Deem and Ramdas Pophale) SiO2 
 PCOD8011811
Probable space group: P -1
;
_chemical_formula_sum "Si O2"
_cell_formula_units_Z 16
_cell_length_a 13.834066
_cell_length_b 15.430438
_cell_length_c 10.318895
_cell_angle_alpha 104.017706
_cell_angle_beta 114.987849
_cell_angle_gamma 23.272132
_cell_volume 720.462836
_symmetry_space_group_name_H-M "P -1"
_symmetry_group_IT_number 2
_symmetry_cell_setting 'triclinic'
loop_
_space_group_symop_operation_xyz
x,y,z
-x,-y,-z
loop_
_atom_site_type_symbol
_atom_site_label
_atom_site_fract_x
_atom_site_fract_y
_atom_site_fract_z
Si Si1 0.346635 0.239530 0.604602
Si Si2 0.070166 0.827770 0.331085
Si Si3 0.882087 0.619306 0.113208
Si Si4 0.614482 0.221159 0.801009
Si Si5 0.194098 0.822942 0.866102
Si Si6 0.581663 0.874597 0.670918
Si Si7 0.390916 0.558959 0.662751
Si Si8 0.703909 0.946454 0.167612
O O1 0.457358 0.247553 0.726581
O O2 0.508308 0.097611 0.507295
O O3 0.000000 0.500000 0.500000
O O4 0.476587 0.058283 0.700224
O O5 0.110588 0.791555 0.497739
O O6 0.362093 0.584859 0.330696
O O7 0.868835 0.904680 0.202615
O O8 0.930076 0.027349 0.274040
O O9 0.925283 0.690913 0.194862
O O10 0.069007 0.411156 0.239342
O O11 0.000000 0.500000 0.000000
O O12 0.540449 0.870606 0.015816
O O13 0.444065 0.412609 0.667031
O O14 0.618406 0.260894 0.962188
O O15 0.947533 0.959507 0.851543
O O16 0.391986 0.597796 0.823131
O O17 0.437546 0.930972 0.725769
#
# Coordination Sequence:
#
# PCOD8011811 Si02
#       8
#     2   2   2   2   2   2   2   2
#     4  11  25  42  63  95 130 168 217 274 323 390
#     4  10  23  38  63  98 128 163 216 262 326 388
#     4   9  20  38  58  89 126 164 212 257 313 380
#     4  10  24  42  67  91 127 170 220 266 321 393
#     4  10  22  44  64  94 127 169 215 268 325 385
#     4  10  23  40  62  92 128 172 218 262 326 384
#     4  10  22  41  65  97 128 165 211 273 324 388
#     4  10  21  39  64  91 129 172 210 268 320 390
#
# _framework density 22.207947000000001
#
# number of rings (size 3 to 8) (size 9 to 14) (size 15 to 20)
#    0.000    2.000    0.000    1.500    5.250    7.000 
#    0.000    5.000    0.000    0.000    0.000    0.000 
#    0.000    0.000    0.000    0.000    0.000    0.000 
#
# Total GULP energy -198240.100399 kJ/mol
# GULP energy per Si atom -12390.006275 kJ/mol
# Density = 2.215740 g / cm^3
# Si number density = 22.207947 Si / 1000 Ang^3
#
#
#
# Elastic Constant Matrix: (Units=GPa)
#
#
# Indices 1 2 3 4 5 6 
#
# 1 83.5853 29.5371 32.6067 0.6135 20.9558 6.6664
# 2 29.5371 100.6730 25.3975 -5.6117 9.4788 12.8863
# 3 32.6067 25.3975 84.6702 7.8182 7.9032 0.0148
# 4 0.6135 -5.6117 7.8182 45.9873 0.9329 -12.7691
# 5 20.9558 9.4788 7.9032 0.9329 42.5804 3.0557
# 6 6.6664 12.8863 0.0148 -12.7691 3.0557 19.4503
#
#
#
# Elastic Compliance Matrix: (Units=1/GPa)
#
#
# Indices 1 2 3 4 5 6 
#
# 1 0.016739 -0.002647 -0.005004 -0.000473 -0.006475 -0.003273
# 2 -0.002647 0.012338 -0.002640 0.000000 -0.000438 -0.007196
# 3 -0.005004 -0.002640 0.014712 -0.002216 0.000227 0.001962
# 4 -0.000473 0.000000 -0.002216 0.027215 -0.001260 0.018229
# 5 -0.006475 -0.000438 0.000227 -0.001260 0.026937 -0.002550
# 6 -0.003273 -0.007196 0.001962 0.018229 -0.002550 0.069669
#
#
# Mechanical properties :
#
#
# Convention : Reuss Voigt Hill
#
# Bulk Modulus (GPa) = 43.08591 49.33456 46.21024
# Shear Modulus (GPa) = 25.51974 33.69606 29.60790
#
# Velocity S-wave (km/s) = 3.39355 3.89948 3.65528
# Velocity P-wave (km/s) = 5.89900 6.52209 6.21835
#
# Compressibility (1/GPa) = 0.02320944
#
# Stress axis : x y z
#
# Youngs Moduli (GPa) = 59.74129 81.05114 67.97018
#
# Poissons Ratio (x) = 0.21451 0.34010
# Poissons Ratio (y) = 0.15811 0.17941
# Poissons Ratio (z) = 0.29893 0.21394
#
# Static dielectric constant tensor:
#      x y z
#    x 3.751580 0.136290 -0.325210 
#    y 0.136290 4.361540 -0.485690 
#    z -0.325210 -0.485690 4.566580 
# 
# 
# High freq. dielectric constant tensor:
#      x y z
#    x 1.856090 0.004180 -0.020630 
#    y 0.004180 1.880520 0.000160 
#    z -0.020630 0.000160 1.881170 
# 
# From -- ./inp_files/428576.got.cif
#   From: 2010.06.25/outbox.cif.g09.slc.cpg/sg2_215_cif.got.tgz:428576.got - 2010.06.27 13:26:56.
