data_PCOD8011459
_publ_section_title
;
Structure prediction by ZEFSAII (Michael W. Deem and Ramdas Pophale) SiO2 
 PCOD8011459
Probable space group: P -1
;
_chemical_formula_sum "Si O2"
_cell_formula_units_Z 16
_cell_length_a 14.703505
_cell_length_b 14.379701
_cell_length_c 8.276811
_cell_angle_alpha 127.162795
_cell_angle_beta 54.589683
_cell_angle_gamma 147.862492
_cell_volume 732.281989
_symmetry_space_group_name_H-M "P -1"
_symmetry_group_IT_number 2
_symmetry_cell_setting 'triclinic'
loop_
_space_group_symop_operation_xyz
x,y,z
-x,-y,-z
loop_
_atom_site_type_symbol
_atom_site_label
_atom_site_fract_x
_atom_site_fract_y
_atom_site_fract_z
Si Si1 0.859682 0.401740 0.905118
Si Si2 0.514678 0.228517 0.217229
Si Si3 0.068364 0.184920 0.630279
Si Si4 0.540557 0.696037 0.984628
Si Si5 0.108909 0.967278 0.838848
Si Si6 0.596770 0.524566 0.577632
Si Si7 0.806050 0.104781 0.633420
Si Si8 0.848734 0.613611 0.936595
O O1 0.842767 0.262300 0.687878
O O2 0.913107 0.541204 0.865201
O O3 0.684116 0.294188 0.064232
O O4 0.000000 0.500000 0.000000
O O5 0.438483 0.229737 0.136669
O O6 0.551313 0.352273 0.451913
O O7 0.384553 0.039359 0.244849
O O8 0.198065 0.299063 0.467895
O O9 0.921057 0.163827 0.733146
O O10 0.162515 0.294843 0.816909
O O11 0.000000 0.000000 0.500000
O O12 0.551319 0.562767 0.824037
O O13 0.347265 0.564905 0.119059
O O14 0.702167 0.874311 0.106218
O O15 0.156588 0.968979 0.609681
O O16 0.988341 0.767209 0.823256
O O17 0.000000 0.000000 0.000000
O O18 0.500000 0.500000 0.500000
#
# Coordination Sequence:
#
# PCOD8011459 Si02
#       8
#     2   2   2   2   2   2   2   2
#     4  11  22  44  71 100 125 169 230 283 333 386
#     4  10  21  40  68  97 128 165 227 286 327 385
#     4  12  20  36  67  96 126 169 225 285 334 385
#     4  10  22  41  66  97 135 177 219 274 341 397
#     4  12  28  45  63 100 144 181 220 267 341 414
#     4  10  16  32  59  94 121 156 216 273 334 382
#     4  12  25  41  64  99 134 174 224 276 334 400
#     4  11  23  45  68  95 136 178 223 277 333 398
#
# _framework density 21.849506000000002
#
# number of rings (size 3 to 8) (size 9 to 14) (size 15 to 20)
#    0.000    1.000    5.000    4.875    1.750    1.000 
#    4.500    2.500    0.000    0.000    0.000    0.000 
#    0.000    0.000    0.000    0.000    0.000    0.000 
#
# Total GULP energy -198262.125494 kJ/mol
# GULP energy per Si atom -12391.382843 kJ/mol
# Density = 2.179978 g / cm^3
# Si number density = 21.849506 Si / 1000 Ang^3
#
#
#
# Elastic Constant Matrix: (Units=GPa)
#
#
# Indices 1 2 3 4 5 6 
#
# 1 85.3058 55.2166 23.3048 3.7545 -17.5137 7.1875
# 2 55.2166 135.1499 16.7133 4.5654 -0.3855 7.7909
# 3 23.3048 16.7133 72.7450 5.0547 -12.2450 3.7094
# 4 3.7545 4.5654 5.0547 35.1468 -6.0796 -7.3990
# 5 -17.5137 -0.3855 -12.2450 -6.0796 29.7298 7.9132
# 6 7.1875 7.7909 3.7094 -7.3990 7.9132 35.8305
#
#
#
# Elastic Compliance Matrix: (Units=1/GPa)
#
#
# Indices 1 2 3 4 5 6 
#
# 1 0.020233 -0.007663 -0.002456 0.000284 0.012133 -0.004759
# 2 -0.007663 0.010644 -0.000746 -0.001290 -0.004984 0.000134
# 3 -0.002456 -0.000746 0.015851 -0.001507 0.005428 -0.002496
# 4 0.000284 -0.001290 -0.001507 0.030765 0.004281 0.005787
# 5 0.012133 -0.004984 0.005428 0.004281 0.046859 -0.011377
# 6 -0.004759 0.000134 -0.002496 0.005787 -0.011377 0.032801
#
#
# Mechanical properties :
#
#
# Convention : Reuss Voigt Hill
#
# Bulk Modulus (GPa) = 40.00597 53.74111 46.87354
# Shear Modulus (GPa) = 26.70703 33.33914 30.02309
#
# Velocity S-wave (km/s) = 3.49996 3.91045 3.71089
# Velocity P-wave (km/s) = 5.88918 6.71106 6.31351
#
# Compressibility (1/GPa) = 0.02499627
#
# Stress axis : x y z
#
# Youngs Moduli (GPa) = 49.42327 93.94875 63.08877
#
# Poissons Ratio (x) = 0.71997 0.15495
# Poissons Ratio (y) = 0.37875 0.04709
# Poissons Ratio (z) = 0.12139 0.07013
#
# Static dielectric constant tensor:
#      x y z
#    x 4.154360 -0.008840 -0.362000 
#    y -0.008840 4.290160 0.250120 
#    z -0.362000 0.250120 3.963350 
# 
# 
# High freq. dielectric constant tensor:
#      x y z
#    x 1.846320 0.013120 -0.016110 
#    y 0.013120 1.877560 0.007770 
#    z -0.016110 0.007770 1.839350 
# 
# From -- ./inp_files/272747.got.cif
#   From: 2010.06.25/outbox.cif.g09.slc.cpg/sg2_137_cif.got.tgz:272747.got - 2010.06.27 13:26:56.
