data_PCOD8011102
_publ_section_title
;
Structure prediction by ZEFSAII (Michael W. Deem and Ramdas Pophale) SiO2 
 PCOD8011102
Probable space group: P -1
;
_chemical_formula_sum "Si O2"
_cell_formula_units_Z 10
_cell_length_a 5.185609
_cell_length_b 11.471280
_cell_length_c 8.708337
_cell_angle_alpha 113.040980
_cell_angle_beta 68.065694
_cell_angle_gamma 106.003407
_cell_volume 437.071067
_symmetry_space_group_name_H-M "P -1"
_symmetry_group_IT_number 2
_symmetry_cell_setting 'triclinic'
loop_
_space_group_symop_operation_xyz
x,y,z
-x,-y,-z
loop_
_atom_site_type_symbol
_atom_site_label
_atom_site_fract_x
_atom_site_fract_y
_atom_site_fract_z
Si Si1 0.934640 0.882802 0.069477
Si Si2 0.679160 0.079874 0.703567
Si Si3 0.402917 0.577430 0.422107
Si Si4 0.123084 0.326212 0.269145
Si Si5 0.203700 0.194965 0.482454
O O1 0.628186 0.880058 0.211130
O O2 0.174689 0.896918 0.151260
O O3 0.943645 0.748784 0.912582
O O4 0.000000 0.000000 0.000000
O O5 0.871756 0.165215 0.579403
O O6 0.651474 0.930873 0.585723
O O7 0.500000 0.500000 0.500000
O O8 0.309017 0.465533 0.258600
O O9 0.655785 0.689819 0.375297
O O10 0.150917 0.649176 0.566938
O O11 0.265838 0.238423 0.313777
#
# Coordination Sequence:
#
# PCOD8011102 Si02
#       5
#     2   2   2   2   2
#     4  12  24  41  62  95 127 161 203 257 308 365
#     4  11  26  39  64  96 128 161 199 255 317 358
#     4   9  20  38  64  89 115 164 215 250 294 368
#     4  10  21  38  67  87 121 164 213 248 302 365
#     4  10  22  40  63  89 126 163 205 250 302 375
#
# _framework density 22.879570999999999
#
# number of rings (size 3 to 8) (size 9 to 14) (size 15 to 20)
#    0.000    1.600    2.000    1.800    8.400    1.600 
#    0.000    2.000    0.000    0.000    0.000    0.000 
#    0.000    0.000    0.000    0.000    0.000    0.000 
#
# Total GULP energy -123945.473379 kJ/mol
# GULP energy per Si atom -12394.547338 kJ/mol
# Density = 2.282750 g / cm^3
# Si number density = 22.879571 Si / 1000 Ang^3
#
#
#
# Elastic Constant Matrix: (Units=GPa)
#
#
# Indices 1 2 3 4 5 6 
#
# 1 40.7554 21.1800 -6.4737 8.1910 1.4801 16.7677
# 2 21.1800 146.4040 43.7850 30.9904 5.8018 41.1894
# 3 -6.4737 43.7850 74.0631 23.7156 8.7199 15.8653
# 4 8.1910 30.9904 23.7156 35.4304 5.0318 9.7095
# 5 1.4801 5.8018 8.7199 5.0318 35.8214 4.7259
# 6 16.7677 41.1894 15.8653 9.7095 4.7259 35.5036
#
#
#
# Elastic Compliance Matrix: (Units=1/GPa)
#
#
# Indices 1 2 3 4 5 6 
#
# 1 0.036205 -0.001544 0.010900 -0.009468 -0.000253 -0.017555
# 2 -0.001544 0.012101 -0.003522 -0.005152 0.001066 -0.010468
# 3 0.010900 -0.003522 0.022252 -0.011933 -0.002646 -0.007390
# 4 -0.009468 -0.005152 -0.011933 0.041980 -0.002375 0.004618
# 5 -0.000253 0.001066 -0.002646 -0.002375 0.029149 -0.003166
# 6 -0.017555 -0.010468 -0.007390 0.004618 -0.003166 0.051063
#
#
# Mechanical properties :
#
#
# Convention : Reuss Voigt Hill
#
# Bulk Modulus (GPa) = 12.16172 42.02280 27.09226
# Shear Modulus (GPa) = 23.98181 34.86649 29.42415
#
# Velocity S-wave (km/s) = 3.24107 3.90797 3.59004
# Velocity P-wave (km/s) = 4.39694 6.22654 5.38994
#
# Compressibility (1/GPa) = 0.08222521
#
# Stress axis : x y z
#
# Youngs Moduli (GPa) = 27.62036 82.63997 44.93887
#
# Poissons Ratio (x) = 0.12762 -0.48982
# Poissons Ratio (y) = 0.04265 0.15827
# Poissons Ratio (z) = -0.30105 0.29106
#
# Static dielectric constant tensor:
#      x y z
#    x 4.040450 0.575460 0.099030 
#    y 0.575460 4.733930 0.449420 
#    z 0.099030 0.449420 3.949230 
# 
# 
# High freq. dielectric constant tensor:
#      x y z
#    x 1.912530 0.014440 0.005830 
#    y 0.014440 1.919260 0.023250 
#    z 0.005830 0.023250 1.867440 
# 
# From -- ./inp_files/17976.got.cif
#   From: 2010.06.25/outbox.cif.g09.slc.cpg/sg2_9_cif.got.tgz:17976.got - 2010.06.27 13:26:56.
