data_PCOD8011231
_publ_section_title
;
Structure prediction by ZEFSAII (Michael W. Deem and Ramdas Pophale) SiO2 
 PCOD8011231
Probable space group: P -1
;
_chemical_formula_sum "Si O2"
_cell_formula_units_Z 16
_cell_length_a 11.875515
_cell_length_b 13.814259
_cell_length_c 8.844875
_cell_angle_alpha 107.525895
_cell_angle_beta 140.548277
_cell_angle_gamma 64.854961
_cell_volume 833.722848
_symmetry_space_group_name_H-M "P -1"
_symmetry_group_IT_number 2
_symmetry_cell_setting 'triclinic'
loop_
_space_group_symop_operation_xyz
x,y,z
-x,-y,-z
loop_
_atom_site_type_symbol
_atom_site_label
_atom_site_fract_x
_atom_site_fract_y
_atom_site_fract_z
Si Si1 0.267576 0.175246 0.091883
Si Si2 0.001641 0.171681 0.308273
Si Si3 0.332444 0.194122 0.504812
Si Si4 0.077781 0.746258 0.423152
Si Si5 0.623510 0.628120 0.156494
Si Si6 0.300012 0.934277 0.034305
Si Si7 0.437334 0.797959 0.815617
Si Si8 0.230791 0.606453 0.777151
O O1 0.291436 0.223125 0.301100
O O2 0.454423 0.161855 0.183060
O O3 0.237495 0.061081 0.021463
O O4 0.077049 0.256228 0.861455
O O5 0.195818 0.131600 0.401394
O O6 0.028710 0.167434 0.517105
O O7 0.901271 0.296710 0.212850
O O8 0.876801 0.097206 0.103765
O O9 0.298380 0.304264 0.612541
O O10 0.539252 0.111428 0.696516
O O11 0.250048 0.779387 0.545469
O O12 0.168045 0.631160 0.546700
O O13 0.777737 0.510562 0.240152
O O14 0.581332 0.688126 0.980138
O O15 0.437126 0.612718 0.023579
O O16 0.376170 0.883473 0.927463
#
# Coordination Sequence:
#
# PCOD8011231 Si02
#       8
#     2   2   2   2   2   2   2   2
#     4  12  23  33  53  79 119 145 167 219 280 317
#     4   9  19  37  58  78 105 134 191 227 252 310
#     4  11  22  35  52  83 112 141 177 218 269 330
#     4   8  18  36  52  80 104 135 182 223 258 313
#     4   9  16  36  64  80 102 137 185 222 267 305
#     4  10  21  39  55  77 103 148 191 220 252 312
#     4   9  19  36  56  81 104 137 186 227 255 315
#     4   8  16  35  65  80  98 137 184 235 253 300
#
# _framework density 19.191030999999999
#
# number of rings (size 3 to 8) (size 9 to 14) (size 15 to 20)
#    0.750    1.750    2.500    2.250    0.000    5.000 
#    0.000    0.625    0.000    2.250    0.000    0.000 
#    0.000    0.000    0.000    0.000    0.000    0.000 
#
# Total GULP energy -198268.268822 kJ/mol
# GULP energy per Si atom -12391.766801 kJ/mol
# Density = 1.914735 g / cm^3
# Si number density = 19.191031 Si / 1000 Ang^3
#
#
#
# Elastic Constant Matrix: (Units=GPa)
#
#
# Indices 1 2 3 4 5 6 
#
# 1 71.9063 8.8986 51.6863 16.1414 4.5402 14.1399
# 2 8.8986 59.6230 -7.5861 -0.3316 3.3188 16.2259
# 3 51.6863 -7.5861 93.6343 2.3332 4.9547 9.7905
# 4 16.1414 -0.3316 2.3332 14.4806 3.4717 1.2499
# 5 4.5402 3.3188 4.9547 3.4717 20.4187 2.4175
# 6 14.1399 16.2259 9.7905 1.2499 2.4175 10.8197
#
#
#
# Elastic Compliance Matrix: (Units=1/GPa)
#
#
# Indices 1 2 3 4 5 6 
#
# 1 0.046463 0.000189 -0.020836 -0.046847 0.007199 -0.038347
# 2 0.000189 0.034301 0.008905 0.004668 -0.001473 -0.059956
# 3 -0.020836 0.008905 0.023556 0.021632 -0.005168 -0.008784
# 4 -0.046847 0.004668 0.021632 0.120298 -0.019005 0.024997
# 5 0.007199 -0.001473 -0.005168 -0.019005 0.053554 -0.012293
# 6 -0.038347 -0.059956 -0.008784 0.024997 -0.012293 0.240261
#
#
# Mechanical properties :
#
#
# Convention : Reuss Voigt Hill
#
# Bulk Modulus (GPa) = 12.37063 36.79570 24.58316
# Shear Modulus (GPa) = 8.78946 20.62145 14.70546
#
# Velocity S-wave (km/s) = 2.14241 3.28157 2.77116
# Velocity P-wave (km/s) = 3.54682 5.79424 4.80381
#
# Compressibility (1/GPa) = 0.08083662
#
# Stress axis : x y z
#
# Youngs Moduli (GPa) = 21.52245 29.15325 42.45209
#
# Poissons Ratio (x) = -0.00551 0.88455
# Poissons Ratio (y) = -0.00407 -0.37805
# Poissons Ratio (z) = 0.44845 -0.25962
#
# Static dielectric constant tensor:
#      x y z
#    x 3.211060 0.176460 0.184760 
#    y 0.176460 3.449430 -0.057050 
#    z 0.184760 -0.057050 3.506350 
# 
# 
# High freq. dielectric constant tensor:
#      x y z
#    x 1.721040 0.016220 0.026470 
#    y 0.016220 1.727780 -0.004730 
#    z 0.026470 -0.004730 1.746900 
# 
# From -- ./inp_files/270583.got.cif
#   From: 2010.06.25/outbox.cif.g09.slc.cpg/sg2_136_cif.got.tgz:270583.got - 2010.06.27 13:26:56.
