data_PCOD8011900
_publ_section_title
;
Structure prediction by ZEFSAII (Michael W. Deem and Ramdas Pophale) SiO2 
 PCOD8011900
Probable space group: P -1
;
_chemical_formula_sum "Si O2"
_cell_formula_units_Z 16
_cell_length_a 8.942718
_cell_length_b 8.791133
_cell_length_c 13.811396
_cell_angle_alpha 113.458363
_cell_angle_beta 76.771934
_cell_angle_gamma 58.349379
_cell_volume 702.188482
_symmetry_space_group_name_H-M "P -1"
_symmetry_group_IT_number 2
_symmetry_cell_setting 'triclinic'
loop_
_space_group_symop_operation_xyz
x,y,z
-x,-y,-z
loop_
_atom_site_type_symbol
_atom_site_label
_atom_site_fract_x
_atom_site_fract_y
_atom_site_fract_z
Si Si1 0.426266 0.447433 0.587141
Si Si2 0.329185 0.744169 0.135608
Si Si3 0.675353 0.008006 0.967146
Si Si4 0.598678 0.205246 0.227737
Si Si5 0.002507 0.736411 0.121667
Si Si6 0.569183 0.166701 0.659586
Si Si7 0.913501 0.462306 0.142159
Si Si8 0.244724 0.331395 0.447257
O O1 0.500000 0.500000 0.500000
O O2 0.329592 0.658766 0.727268
O O3 0.622509 0.209072 0.556523
O O4 0.261920 0.434946 0.565734
O O5 0.335058 0.910613 0.117896
O O6 0.103703 0.820450 0.179536
O O7 0.365171 0.757406 0.245804
O O8 0.500000 0.500000 0.000000
O O9 0.612261 0.186911 0.104836
O O10 0.916987 0.767964 0.880511
O O11 0.500000 0.000000 0.000000
O O12 0.370739 0.319028 0.334362
O O13 0.759450 0.954674 0.187782
O O14 0.011690 0.573109 0.149588
O O15 0.128411 0.591324 0.969317
O O16 0.314038 0.354323 0.727780
O O17 0.666522 0.914897 0.598698
O O18 0.000000 0.500000 0.500000
#
# Coordination Sequence:
#
# PCOD8011900 Si02
#       8
#     2   2   2   2   2   2   2   2
#     4  10  25  47  69  94 130 173 236 294 342 396
#     4  12  24  39  66 107 146 177 226 268 332 429
#     4  11  24  39  66 107 150 180 224 271 329 430
#     4  10  22  43  69  95 139 182 218 282 353 387
#     4  10  21  39  65 100 143 180 215 269 333 425
#     4  12  24  44  72  98 134 184 221 283 355 404
#     4  10  22  40  66  98 138 186 219 262 345 421
#     4  11  25  47  73  97 126 176 247 297 334 401
#
# _framework density 22.785905
#
# number of rings (size 3 to 8) (size 9 to 14) (size 15 to 20)
#    0.000    1.250    2.500    2.625    5.250    2.000 
#    0.000    3.750    0.000    0.000    0.000    0.000 
#    0.000    0.000    0.000    0.000    0.000    0.000 
#
# Total GULP energy -198322.298843 kJ/mol
# GULP energy per Si atom -12395.143678 kJ/mol
# Density = 2.273404 g / cm^3
# Si number density = 22.785905 Si / 1000 Ang^3
#
#
#
# Elastic Constant Matrix: (Units=GPa)
#
#
# Indices 1 2 3 4 5 6 
#
# 1 137.9208 47.1134 49.9959 -1.8501 18.9359 -8.0197
# 2 47.1134 135.4501 35.6635 -8.0637 8.8804 2.4818
# 3 49.9959 35.6635 80.1299 7.7718 12.3089 -8.7289
# 4 -1.8501 -8.0637 7.7718 41.2997 -2.7893 5.3359
# 5 18.9359 8.8804 12.3089 -2.7893 44.5418 4.6594
# 6 -8.0197 2.4818 -8.7289 5.3359 4.6594 31.1232
#
#
#
# Elastic Compliance Matrix: (Units=1/GPa)
#
#
# Indices 1 2 3 4 5 6 
#
# 1 0.010220 -0.002086 -0.004895 0.000563 -0.002723 0.001738
# 2 -0.002086 0.009194 -0.003429 0.002736 0.000462 -0.002771
# 3 -0.004895 -0.003429 0.018712 -0.005369 -0.003337 0.005680
# 4 0.000563 0.002736 -0.005369 0.026849 0.003075 -0.006642
# 5 -0.002723 0.000462 -0.003337 0.003075 0.025257 -0.005983
# 6 0.001738 -0.002771 0.005680 -0.006642 -0.005983 0.036427
#
#
# Mechanical properties :
#
#
# Convention : Reuss Voigt Hill
#
# Bulk Modulus (GPa) = 57.78177 68.78293 63.28235
# Shear Modulus (GPa) = 32.62677 38.10814 35.36745
#
# Velocity S-wave (km/s) = 3.78813 4.09399 3.94402
# Velocity P-wave (km/s) = 6.67434 7.25257 6.96946
#
# Compressibility (1/GPa) = 0.01730650
#
# Stress axis : x y z
#
# Youngs Moduli (GPa) = 97.84748 108.76121 53.44027
#
# Poissons Ratio (x) = 0.22684 0.26162
# Poissons Ratio (y) = 0.20407 0.18325
# Poissons Ratio (z) = 0.47901 0.37295
#
# Static dielectric constant tensor:
#      x y z
#    x 4.596380 0.131500 0.681170 
#    y 0.131500 4.523500 -0.082790 
#    z 0.681170 -0.082790 4.562010 
# 
# 
# High freq. dielectric constant tensor:
#      x y z
#    x 1.901250 0.008240 0.017470 
#    y 0.008240 1.914880 -0.001920 
#    z 0.017470 -0.001920 1.889160 
# 
# From -- ./inp_files/495589.got.cif
#   From: 2010.06.25/outbox.cif.g09.slc.cpg/sg2_248_cif.got.tgz:495589.got - 2010.06.27 13:26:56.
