data_PCOD8011911
_publ_section_title
;
Structure prediction by ZEFSAII (Michael W. Deem and Ramdas Pophale) SiO2 
 PCOD8011911
Probable space group: P -1
;
_chemical_formula_sum "Si O2"
_cell_formula_units_Z 12
_cell_length_a 14.776593
_cell_length_b 18.084232
_cell_length_c 5.166943
_cell_angle_alpha 81.534661
_cell_angle_beta 78.328538
_cell_angle_gamma 25.865189
_cell_volume 587.932524
_symmetry_space_group_name_H-M "P -1"
_symmetry_group_IT_number 2
_symmetry_cell_setting 'triclinic'
loop_
_space_group_symop_operation_xyz
x,y,z
-x,-y,-z
loop_
_atom_site_type_symbol
_atom_site_label
_atom_site_fract_x
_atom_site_fract_y
_atom_site_fract_z
Si Si1 0.907325 0.457596 0.358241
Si Si2 0.607946 0.888890 0.746943
Si Si3 0.384051 0.429051 0.818228
Si Si4 0.817713 0.192252 0.537244
Si Si5 0.709222 0.651603 0.883219
Si Si6 0.258357 0.663463 0.007401
O O1 0.764739 0.486615 0.381632
O O2 0.866670 0.525163 0.620467
O O3 0.151240 0.260451 0.308718
O O4 0.849030 0.558965 0.110840
O O5 0.575774 0.822508 0.813296
O O6 0.500000 0.000000 0.500000
O O7 0.500000 0.000000 0.000000
O O8 0.594632 0.314074 0.650446
O O9 0.239344 0.588750 0.998779
O O10 0.440921 0.312875 0.012599
O O11 0.816432 0.237692 0.250013
O O12 0.867872 0.213966 0.731826
O O13 0.000000 0.000000 0.500000
O O14 0.500000 0.500000 0.000000
#
# Coordination Sequence:
#
# PCOD8011911 Si02
#       6
#     2   2   2   2   2   2
#     4  10  22  40  66  85 119 162 209 239 296 366
#     4  12  24  42  62  93 128 156 196 251 318 355
#     4   9  23  38  67  86 120 158 222 236 295 356
#     4  11  23  40  61  91 126 161 195 256 311 350
#     4  10  22  40  66  84 122 162 209 244 292 369
#     4  10  21  39  65  83 120 166 204 242 297 370
#
# _framework density 20.410506000000002
#
# number of rings (size 3 to 8) (size 9 to 14) (size 15 to 20)
#    1.000    0.667    0.000    5.500    7.000    0.000 
#    3.000    0.000    0.000    0.000    0.000    0.000 
#    0.000    0.000    0.000    0.000    0.000    0.000 
#
# Total GULP energy -148679.260853 kJ/mol
# GULP energy per Si atom -12389.938404 kJ/mol
# Density = 2.036405 g / cm^3
# Si number density = 20.410506 Si / 1000 Ang^3
#
#
#
# Elastic Constant Matrix: (Units=GPa)
#
#
# Indices 1 2 3 4 5 6 
#
# 1 62.8801 27.4483 13.2776 -13.1382 -11.4800 9.2248
# 2 27.4483 127.7046 43.8290 -7.3582 5.0111 15.0264
# 3 13.2776 43.8290 127.9369 -12.3441 25.8533 -0.9066
# 4 -13.1382 -7.3582 -12.3441 44.8612 4.5139 3.1784
# 5 -11.4800 5.0111 25.8533 4.5139 19.6171 -3.2932
# 6 9.2248 15.0264 -0.9066 3.1784 -3.2932 21.9841
#
#
#
# Elastic Compliance Matrix: (Units=1/GPa)
#
#
# Indices 1 2 3 4 5 6 
#
# 1 0.023400 -0.003268 -0.004927 0.003397 0.019336 -0.005383
# 2 -0.003268 0.010329 -0.002757 0.000630 -0.002105 -0.006208
# 3 -0.004927 -0.002757 0.014003 0.004064 -0.021447 0.000729
# 4 0.003397 0.000630 0.004064 0.026087 -0.010718 -0.007066
# 5 0.019336 -0.002105 -0.021447 -0.010718 0.094939 0.008212
# 6 -0.005383 -0.006208 0.000729 -0.007066 0.008212 0.054271
#
#
# Mechanical properties :
#
#
# Convention : Reuss Voigt Hill
#
# Bulk Modulus (GPa) = 38.71783 54.18127 46.44955
# Shear Modulus (GPa) = 19.72056 32.89025 26.30541
#
# Velocity S-wave (km/s) = 3.11174 4.01863 3.59390
# Velocity P-wave (km/s) = 5.64990 6.93800 6.32682
#
# Compressibility (1/GPa) = 0.02582789
#
# Stress axis : x y z
#
# Youngs Moduli (GPa) = 42.73526 96.81740 71.41075
#
# Poissons Ratio (x) = 0.31643 0.35181
# Poissons Ratio (y) = 0.13967 0.19689
# Poissons Ratio (z) = 0.21054 0.26694
#
# Static dielectric constant tensor:
#      x y z
#    x 10.265560 3.226250 6.503660 
#    y 3.226250 4.994200 2.779240 
#    z 6.503660 2.779240 10.098050 
# 
# 
# High freq. dielectric constant tensor:
#      x y z
#    x 1.791420 0.023650 0.011030 
#    y 0.023650 1.790370 -0.000020 
#    z 0.011030 -0.000020 1.813420 
# 
# From -- ./inp_files/97671.got.cif
#   From: 2010.06.25/outbox.cif.g09.slc.cpg/sg2_49_cif.got.tgz:97671.got - 2010.06.27 13:26:56.
