data_PCOD8011279
_publ_section_title
;
Structure prediction by ZEFSAII (Michael W. Deem and Ramdas Pophale) SiO2 
 PCOD8011279
Probable space group: P -1
;
_chemical_formula_sum "Si O2"
_cell_formula_units_Z 14
_cell_length_a 12.189469
_cell_length_b 9.109964
_cell_length_c 9.815091
_cell_angle_alpha 72.342794
_cell_angle_beta 59.191008
_cell_angle_gamma 46.551712
_cell_volume 677.519957
_symmetry_space_group_name_H-M "P -1"
_symmetry_group_IT_number 2
_symmetry_cell_setting 'triclinic'
loop_
_space_group_symop_operation_xyz
x,y,z
-x,-y,-z
loop_
_atom_site_type_symbol
_atom_site_label
_atom_site_fract_x
_atom_site_fract_y
_atom_site_fract_z
Si Si1 0.980946 0.450276 0.175587
Si Si2 0.655284 0.569654 0.287657
Si Si3 0.400886 0.924603 0.547926
Si Si4 0.719115 0.434188 0.848903
Si Si5 0.592279 0.348193 0.192473
Si Si6 0.338386 0.228809 0.031599
Si Si7 0.946835 0.678662 0.383292
O O1 0.170930 0.254857 0.156760
O O2 0.843240 0.420480 0.279295
O O3 0.919087 0.636363 0.260779
O O4 0.000000 0.500000 0.000000
O O5 0.512530 0.722251 0.443725
O O6 0.615111 0.438087 0.284175
O O7 0.664008 0.698262 0.136669
O O8 0.361889 0.860922 0.730416
O O9 0.500000 0.000000 0.500000
O O10 0.229763 0.102769 0.525697
O O11 0.600558 0.485906 0.782358
O O12 0.652035 0.646102 0.896213
O O13 0.909070 0.303338 0.711590
O O14 0.714142 0.303381 0.003306
O O15 0.500000 0.000000 0.000000
O O16 0.000000 0.500000 0.500000
#
# Coordination Sequence:
#
# PCOD8011279 Si02
#       7
#     2   2   2   2   2   2   2
#     4   9  19  37  59  86 124 159 203 259 302 361
#     4  10  21  39  58  92 123 161 203 255 317 365
#     4  12  24  38  65  92 121 167 213 256 312 381
#     4   9  21  41  62  87 129 169 198 261 314 365
#     4  10  22  42  63  87 128 166 208 252 317 379
#     4   9  19  33  62  91 120 160 210 251 301 370
#     4  11  23  39  63  96 128 160 212 266 311 366
#
# _framework density 20.663596999999999
#
# number of rings (size 3 to 8) (size 9 to 14) (size 15 to 20)
#    0.000    2.000    1.429    2.143    6.000    0.571 
#    0.000    5.000    0.000    0.000    0.000    0.000 
#    0.000    0.000    0.000    0.000    0.000    0.000 
#
# Total GULP energy -173537.004211 kJ/mol
# GULP energy per Si atom -12395.500301 kJ/mol
# Density = 2.061657 g / cm^3
# Si number density = 20.663597 Si / 1000 Ang^3
#
#
#
# Elastic Constant Matrix: (Units=GPa)
#
#
# Indices 1 2 3 4 5 6 
#
# 1 154.9423 43.9122 44.4473 0.7189 -28.9472 -9.6257
# 2 43.9122 99.3531 37.9680 -9.6214 -25.8728 -14.9694
# 3 44.4473 37.9680 77.8296 -6.3743 -20.9569 -4.2149
# 4 0.7189 -9.6214 -6.3743 32.1953 -1.5520 -9.3156
# 5 -28.9472 -25.8728 -20.9569 -1.5520 39.3047 8.6724
# 6 -9.6257 -14.9694 -4.2149 -9.3156 8.6724 28.1972
#
#
#
# Elastic Compliance Matrix: (Units=1/GPa)
#
#
# Indices 1 2 3 4 5 6 
#
# 1 0.008503 -0.001776 -0.003184 -0.001169 0.003334 0.000073
# 2 -0.001776 0.015583 -0.004246 0.006275 0.005283 0.007480
# 3 -0.003184 -0.004246 0.018178 0.002232 0.004951 -0.001409
# 4 -0.001169 0.006275 0.002232 0.037859 0.002654 0.014957
# 5 0.003334 0.005283 0.004951 0.002654 0.035288 -0.005293
# 6 0.000073 0.007480 -0.001409 0.014957 -0.005293 0.045819
#
#
# Mechanical properties :
#
#
# Convention : Reuss Voigt Hill
#
# Bulk Modulus (GPa) = 41.92417 64.97556 53.44986
# Shear Modulus (GPa) = 26.65324 33.65929 30.15627
#
# Velocity S-wave (km/s) = 3.59536 4.04036 3.82434
# Velocity P-wave (km/s) = 6.12931 7.29923 6.73970
#
# Compressibility (1/GPa) = 0.02385259
#
# Stress axis : x y z
#
# Youngs Moduli (GPa) = 117.59949 64.17168 55.01106
#
# Poissons Ratio (x) = 0.11395 0.17516
# Poissons Ratio (y) = 0.20882 0.23360
# Poissons Ratio (z) = 0.37445 0.27250
#
# Static dielectric constant tensor:
#      x y z
#    x 4.586780 -0.320250 -0.199780 
#    y -0.320250 3.407620 0.068910 
#    z -0.199780 0.068910 3.944530 
# 
# 
# High freq. dielectric constant tensor:
#      x y z
#    x 1.828250 -0.012890 -0.008570 
#    y -0.012890 1.767150 -0.000850 
#    z -0.008570 -0.000850 1.815670 
# 
# From -- ./inp_files/184886.got.cif
#   From: 2010.06.25/outbox.cif.g09.slc.cpg/sg2_93_cif.got.tgz:184886.got - 2010.06.27 13:26:56.
