data_PCOD8011818
_publ_section_title
;
Structure prediction by ZEFSAII (Michael W. Deem and Ramdas Pophale) SiO2 
 PCOD8011818
Probable space group: P -1
;
_chemical_formula_sum "Si O2"
_cell_formula_units_Z 16
_cell_length_a 22.259815
_cell_length_b 16.132353
_cell_length_c 7.442973
_cell_angle_alpha 101.588710
_cell_angle_beta 114.151904
_cell_angle_gamma 21.035740
_cell_volume 729.592902
_symmetry_space_group_name_H-M "P -1"
_symmetry_group_IT_number 2
_symmetry_cell_setting 'triclinic'
loop_
_space_group_symop_operation_xyz
x,y,z
-x,-y,-z
loop_
_atom_site_type_symbol
_atom_site_label
_atom_site_fract_x
_atom_site_fract_y
_atom_site_fract_z
Si Si1 0.284252 0.802660 0.180806
Si Si2 0.820326 0.879525 0.884592
Si Si3 0.216411 0.809251 0.475640
Si Si4 0.269462 0.393465 0.331609
Si Si5 0.574593 0.051670 0.853863
Si Si6 0.036008 0.513827 0.723382
Si Si7 0.045873 0.835584 0.353761
Si Si8 0.650933 0.736435 0.023791
O O1 0.172855 0.896068 0.259221
O O2 0.532787 0.475516 0.309655
O O3 0.247419 0.948817 0.209734
O O4 0.165998 0.906218 0.914045
O O5 0.637780 0.069702 0.880955
O O6 0.825849 0.795492 0.706443
O O7 0.052352 0.602036 0.150843
O O8 0.182313 0.751753 0.440178
O O9 0.047006 0.061457 0.512735
O O10 0.209673 0.560857 0.391136
O O11 0.450756 0.145222 0.592459
O O12 0.379808 0.260224 0.213183
O O13 0.412555 0.261069 0.916506
O O14 0.790657 0.738287 0.038683
O O15 0.110822 0.517674 0.759481
O O16 0.000000 0.500000 0.500000
O O17 0.500000 0.000000 0.000000
#
# Coordination Sequence:
#
# PCOD8011818 Si02
#       8
#     2   2   2   2   2   2   2   2
#     4  10  21  41  62  92 127 159 207 255 312 366
#     4  10  23  41  61  93 124 163 210 259 302 375
#     4  10  21  39  65  92 123 167 200 255 318 370
#     4  10  23  41  61  91 128 162 212 257 304 370
#     4  11  23  40  65  88 123 170 205 259 310 363
#     4  10  23  41  63  90 127 163 208 256 311 369
#     4  10  21  39  64  92 125 163 207 256 305 374
#     4   9  22  40  59  89 120 163 207 256 304 364
#
# _framework density 21.930039000000001
#
# number of rings (size 3 to 8) (size 9 to 14) (size 15 to 20)
#    0.000    2.000    0.000    1.875    5.250    7.500 
#    2.250    3.750    0.000    0.000    0.000    0.000 
#    0.000    0.000    0.000    0.000    0.000    0.000 
#
# Total GULP energy -198231.435147 kJ/mol
# GULP energy per Si atom -12389.464697 kJ/mol
# Density = 2.188012 g / cm^3
# Si number density = 21.930039 Si / 1000 Ang^3
#
#
#
# Elastic Constant Matrix: (Units=GPa)
#
#
# Indices 1 2 3 4 5 6 
#
# 1 89.4474 36.9661 20.5338 21.4847 -15.7626 -37.9849
# 2 36.9661 88.1548 31.9845 29.3968 -5.7236 -3.2870
# 3 20.5338 31.9845 99.9070 19.9503 1.2599 -11.0749
# 4 21.4847 29.3968 19.9503 37.5097 -2.2422 -1.3006
# 5 -15.7626 -5.7236 1.2599 -2.2422 25.8344 8.2898
# 6 -37.9849 -3.2870 -11.0749 -1.3006 8.2898 31.6445
#
#
#
# Elastic Compliance Matrix: (Units=1/GPa)
#
#
# Indices 1 2 3 4 5 6 
#
# 1 0.036473 -0.010212 0.002864 -0.012642 0.005340 0.041804
# 2 -0.010212 0.019168 -0.003946 -0.007411 0.001529 -0.012354
# 3 0.002864 -0.003946 0.012629 -0.005153 -0.002742 0.007955
# 4 -0.012642 -0.007411 -0.005153 0.041875 -0.000357 -0.015934
# 5 0.005340 0.001529 -0.002742 -0.000357 0.044340 -0.006021
# 6 0.041804 -0.012354 0.007955 -0.015934 -0.006021 0.084204
#
#
# Mechanical properties :
#
#
# Convention : Reuss Voigt Hill
#
# Bulk Modulus (GPa) = 21.89090 50.71978 36.30534
# Shear Modulus (GPa) = 18.08285 31.53270 24.80777
#
# Velocity S-wave (km/s) = 2.87465 3.79605 3.36702
# Velocity P-wave (km/s) = 4.58497 6.51088 5.63087
#
# Compressibility (1/GPa) = 0.04568109
#
# Stress axis : x y z
#
# Youngs Moduli (GPa) = 27.41779 52.17116 79.18005
#
# Poissons Ratio (x) = 0.53279 -0.22680
# Poissons Ratio (y) = 0.28000 0.31247
# Poissons Ratio (z) = -0.07853 0.20589
#
# Static dielectric constant tensor:
#      x y z
#    x 4.591210 -0.694490 -0.143900 
#    y -0.694490 4.251320 0.158590 
#    z -0.143900 0.158590 4.055600 
# 
# 
# High freq. dielectric constant tensor:
#      x y z
#    x 1.861950 -0.021240 0.002720 
#    y -0.021240 1.864950 0.003750 
#    z 0.002720 0.003750 1.857630 
# 
# From -- ./inp_files/124839.got.cif
#   From: 2010.06.25/outbox.cif.g09.slc.cpg/sg2_63_cif.got.tgz:124839.got - 2010.06.27 13:26:56.
