data_PCOD8011967
_publ_section_title
;
Structure prediction by ZEFSAII (Michael W. Deem and Ramdas Pophale) SiO2 
 PCOD8011967
Probable space group: P -1
;
_chemical_formula_sum "Si O2"
_cell_formula_units_Z 16
_cell_length_a 7.519021
_cell_length_b 20.203665
_cell_length_c 10.104243
_cell_angle_alpha 54.207888
_cell_angle_beta 133.049150
_cell_angle_gamma 92.405787
_cell_volume 726.038282
_symmetry_space_group_name_H-M "P -1"
_symmetry_group_IT_number 2
_symmetry_cell_setting 'triclinic'
loop_
_space_group_symop_operation_xyz
x,y,z
-x,-y,-z
loop_
_atom_site_type_symbol
_atom_site_label
_atom_site_fract_x
_atom_site_fract_y
_atom_site_fract_z
Si Si1 0.191156 0.041866 0.216470
Si Si2 0.963297 0.097636 0.757777
Si Si3 0.765889 0.280020 0.750684
Si Si4 0.729472 0.399261 0.814435
Si Si5 0.655420 0.728668 0.614574
Si Si6 0.937933 0.643333 0.371412
Si Si7 0.954397 0.748347 0.496848
Si Si8 0.571768 0.587472 0.099956
O O1 0.500000 0.000000 0.500000
O O2 0.062858 0.977031 0.263308
O O3 0.215689 0.034965 0.076171
O O4 0.951888 0.159099 0.996161
O O5 0.628018 0.177683 0.558383
O O6 0.086432 0.148035 0.676024
O O7 0.709575 0.315026 0.833216
O O8 0.448238 0.327997 0.458103
O O9 0.924249 0.321258 0.704437
O O10 0.500000 0.500000 0.500000
O O11 0.615955 0.425737 0.873537
O O12 0.087023 0.353784 0.053097
O O13 0.803288 0.764547 0.544832
O O14 0.807246 0.720377 0.340599
O O15 0.159808 0.526876 0.677894
O O16 0.678757 0.650148 0.148098
O O17 0.322120 0.657832 0.778599
#
# Coordination Sequence:
#
# PCOD8011967 Si02
#       8
#     2   2   2   2   2   2   2   2
#     4  10  21  39  65  93 118 159 211 256 309 376
#     4  10  22  41  65  92 121 162 206 256 315 362
#     4  11  22  40  64  89 124 165 204 252 319 358
#     4  11  22  39  59  90 125 166 208 251 302 362
#     4  10  23  40  63  92 126 162 205 256 301 373
#     4  11  21  39  59  88 124 168 203 254 303 364
#     4  11  22  40  64  90 127 163 203 254 309 366
#     4  10  24  37  58  90 125 165 212 247 303 368
#
# _framework density 22.037405
#
# number of rings (size 3 to 8) (size 9 to 14) (size 15 to 20)
#    0.000    1.500    3.750    1.875    3.500    0.500 
#    2.250    5.625    0.000    5.250    0.000    0.000 
#    0.000    0.000    0.000    0.000    0.000    0.000 
#
# Total GULP energy -198242.356365 kJ/mol
# GULP energy per Si atom -12390.147273 kJ/mol
# Density = 2.198725 g / cm^3
# Si number density = 22.037405 Si / 1000 Ang^3
#
#
#
# Elastic Constant Matrix: (Units=GPa)
#
#
# Indices 1 2 3 4 5 6 
#
# 1 47.4920 5.6412 13.3408 -3.9593 -1.6131 11.1360
# 2 5.6412 125.1505 42.5420 7.5953 5.4933 7.4742
# 3 13.3408 42.5420 110.0947 22.9821 3.3338 10.7619
# 4 -3.9593 7.5953 22.9821 36.8553 6.3719 1.5469
# 5 -1.6131 5.4933 3.3338 6.3719 21.5742 2.7571
# 6 11.1360 7.4742 10.7619 1.5469 2.7571 29.0121
#
#
#
# Elastic Compliance Matrix: (Units=1/GPa)
#
#
# Indices 1 2 3 4 5 6 
#
# 1 0.024418 0.000131 -0.003183 0.004593 0.002035 -0.008664
# 2 0.000131 0.009309 -0.003610 0.000714 -0.001890 -0.000968
# 3 -0.003183 -0.003610 0.012632 -0.007598 0.001261 -0.002249
# 4 0.004593 0.000714 -0.007598 0.033710 -0.008607 -0.000108
# 5 0.002035 -0.001890 0.001261 -0.008607 0.049978 -0.005053
# 6 -0.008664 -0.000968 -0.002249 -0.000108 -0.005053 0.039363
#
#
# Mechanical properties :
#
#
# Convention : Reuss Voigt Hill
#
# Bulk Modulus (GPa) = 30.27174 45.08724 37.67949
# Shear Modulus (GPa) = 25.80693 32.23585 29.02139
#
# Velocity S-wave (km/s) = 3.42577 3.82878 3.63287
# Velocity P-wave (km/s) = 5.42349 6.32850 5.89339
#
# Compressibility (1/GPa) = 0.03303411
#
# Stress axis : x y z
#
# Youngs Moduli (GPa) = 40.95280 107.42156 79.16681
#
# Poissons Ratio (x) = -0.01403 0.25198
# Poissons Ratio (y) = -0.00535 0.28581
# Poissons Ratio (z) = 0.13035 0.38782
#
# Static dielectric constant tensor:
#      x y z
#    x 3.441750 0.392260 0.430130 
#    y 0.392260 4.001540 -0.319360 
#    z 0.430130 -0.319360 3.601900 
# 
# 
# High freq. dielectric constant tensor:
#      x y z
#    x 1.843670 0.009800 -0.005940 
#    y 0.009800 1.880630 0.011390 
#    z -0.005940 0.011390 1.867560 
# 
# From -- ./inp_files/404797.got.cif
#   From: 2010.06.25/outbox.cif.g09.slc.cpg/sg2_203_cif.got.tgz:404797.got - 2010.06.27 13:26:56.
