data_PCOD8011961
_publ_section_title
;
Structure prediction by ZEFSAII (Michael W. Deem and Ramdas Pophale) SiO2 
 PCOD8011961
Probable space group: P -1
;
_chemical_formula_sum "Si O2"
_cell_formula_units_Z 14
_cell_length_a 9.260069
_cell_length_b 8.485622
_cell_length_c 15.793578
_cell_angle_alpha 90.841223
_cell_angle_beta 56.938786
_cell_angle_gamma 52.546189
_cell_volume 704.897761
_symmetry_space_group_name_H-M "P -1"
_symmetry_group_IT_number 2
_symmetry_cell_setting 'triclinic'
loop_
_space_group_symop_operation_xyz
x,y,z
-x,-y,-z
loop_
_atom_site_type_symbol
_atom_site_label
_atom_site_fract_x
_atom_site_fract_y
_atom_site_fract_z
Si Si1 0.275725 0.477448 0.717298
Si Si2 0.202706 0.983655 0.897548
Si Si3 0.761958 0.809505 0.961146
Si Si4 0.032751 0.339055 0.826325
Si Si5 0.094332 0.214998 0.624710
Si Si6 0.386677 0.489906 0.326008
Si Si7 0.580935 0.702859 0.507517
O O1 0.284940 0.283044 0.735787
O O2 0.480258 0.429290 0.709151
O O3 0.324631 0.469962 0.601796
O O4 0.991599 0.733816 0.832382
O O5 0.089839 0.134999 0.849643
O O6 0.462636 0.720373 0.790430
O O7 0.260781 0.091100 0.940859
O O8 0.000000 0.000000 0.000000
O O9 0.820923 0.581234 0.948846
O O10 0.500000 0.000000 0.000000
O O11 0.939924 0.366525 0.760444
O O12 0.247694 0.257595 0.536946
O O13 0.895614 0.292385 0.617571
O O14 0.287668 0.944635 0.584852
O O15 0.387637 0.413941 0.417624
#
# Coordination Sequence:
#
# PCOD8011961 Si02
#       7
#     2   2   2   2   2   2   2
#     4   9  22  40  62  87 126 162 201 253 308 361
#     4  12  22  39  64  90 125 159 204 259 304 360
#     4  10  21  40  61  87 123 163 207 245 305 369
#     4   9  20  42  60  85 124 167 196 249 310 360
#     4  10  21  39  65  92 122 161 205 249 307 368
#     4  12  22  39  65  96 121 159 208 256 303 359
#     4  10  21  41  61  90 129 159 200 254 307 364
#
# _framework density 19.861037
#
# number of rings (size 3 to 8) (size 9 to 14) (size 15 to 20)
#    0.857    0.857    2.857    2.143    0.000    0.571 
#    0.000    7.143    0.000    0.000    0.000    0.000 
#    0.000    0.000    0.000    0.000    0.000    0.000 
#
# Total GULP energy -173518.452478 kJ/mol
# GULP energy per Si atom -12394.175177 kJ/mol
# Density = 1.981583 g / cm^3
# Si number density = 19.861037 Si / 1000 Ang^3
#
#
#
# Elastic Constant Matrix: (Units=GPa)
#
#
# Indices 1 2 3 4 5 6 
#
# 1 117.0735 50.9778 35.2583 1.9852 -5.5156 -25.3188
# 2 50.9778 93.0406 25.5242 -14.8967 -9.2912 -16.6103
# 3 35.2583 25.5242 95.8413 -3.8516 9.6697 -8.6583
# 4 1.9852 -14.8967 -3.8516 25.1557 1.8365 -4.5445
# 5 -5.5156 -9.2912 9.6697 1.8365 30.3878 4.3395
# 6 -25.3188 -16.6103 -8.6583 -4.5445 4.3395 29.6776
#
#
#
# Elastic Compliance Matrix: (Units=1/GPa)
#
#
# Indices 1 2 3 4 5 6 
#
# 1 0.013611 -0.005972 -0.003068 -0.003948 0.000912 0.006637
# 2 -0.005972 0.017695 -0.001911 0.011397 0.003461 0.005490
# 3 -0.003068 -0.001911 0.012789 0.001667 -0.005468 0.001099
# 4 -0.003948 0.011397 0.001667 0.049299 -0.002369 0.011392
# 5 0.000912 0.003461 -0.005468 -0.002369 0.036673 -0.004605
# 6 0.006637 0.005490 0.001099 0.011392 -0.004605 0.045169
#
#
# Mechanical properties :
#
#
# Convention : Reuss Voigt Hill
#
# Bulk Modulus (GPa) = 45.05757 58.83068 51.94412
# Shear Modulus (GPa) = 24.44559 29.99055 27.21807
#
# Velocity S-wave (km/s) = 3.51213 3.89011 3.70594
# Velocity P-wave (km/s) = 6.25958 7.06136 6.67252
#
# Compressibility (1/GPa) = 0.02219383
#
# Stress axis : x y z
#
# Youngs Moduli (GPa) = 73.46811 56.51316 78.18971
#
# Poissons Ratio (x) = 0.33752 0.23988
# Poissons Ratio (y) = 0.43879 0.14939
# Poissons Ratio (z) = 0.22539 0.10797
#
# Static dielectric constant tensor:
#      x y z
#    x 3.549110 0.075710 0.226230 
#    y 0.075710 3.430260 -0.022470 
#    z 0.226230 -0.022470 3.982950 
# 
# 
# High freq. dielectric constant tensor:
#      x y z
#    x 1.769990 0.005660 0.015040 
#    y 0.005660 1.749920 0.001100 
#    z 0.015040 0.001100 1.785850 
# 
# From -- ./inp_files/180795.got.cif
#   From: 2010.06.25/outbox.cif.g09.slc.cpg/sg2_91_cif.got.tgz:180795.got - 2010.06.27 13:26:56.
