data_PCOD8011377
_publ_section_title
;
Structure prediction by ZEFSAII (Michael W. Deem and Ramdas Pophale) SiO2 
 PCOD8011377
Probable space group: P -1
;
_chemical_formula_sum "Si O2"
_cell_formula_units_Z 12
_cell_length_a 15.731559
_cell_length_b 5.045397
_cell_length_c 12.045485
_cell_angle_alpha 114.762622
_cell_angle_beta 137.557808
_cell_angle_gamma 71.293892
_cell_volume 585.771559
_symmetry_space_group_name_H-M "P -1"
_symmetry_group_IT_number 2
_symmetry_cell_setting 'triclinic'
loop_
_space_group_symop_operation_xyz
x,y,z
-x,-y,-z
loop_
_atom_site_type_symbol
_atom_site_label
_atom_site_fract_x
_atom_site_fract_y
_atom_site_fract_z
Si Si1 0.299481 0.021140 0.112467
Si Si2 0.592445 0.028299 0.401178
Si Si3 0.285008 0.371442 0.375858
Si Si4 0.200512 0.395174 0.887531
Si Si5 0.214999 0.189750 0.624157
Si Si6 0.907548 0.410827 0.598807
O O1 0.446241 0.075974 0.245590
O O2 0.248262 0.185502 0.200979
O O3 0.223487 0.142249 0.954941
O O4 0.276499 0.679352 0.045055
O O5 0.387003 0.200801 0.520056
O O6 0.652874 0.330029 0.551058
O O7 0.656312 0.917048 0.329349
O O8 0.156318 0.429037 0.329363
O O9 0.251744 0.280078 0.799036
O O10 0.053753 0.477265 0.754391
O O11 0.152883 0.466347 0.551074
O O12 0.113004 0.934702 0.479959
#
# Coordination Sequence:
#
# PCOD8011377 Si02
#       6
#     2   2   2   2   2   2
#     4  12  24  36  56  86 118 146 176 228 286 330
#     4  10  21  39  61  81 107 148 192 228 266 324
#     4  10  21  39  61  81 107 148 192 228 266 324
#     4  12  24  36  56  86 118 146 176 228 286 330
#     4  10  21  39  61  81 107 148 192 228 266 324
#     4  10  21  39  61  81 107 148 192 228 266 324
#
# _framework density 20.485800999999999
#
# number of rings (size 3 to 8) (size 9 to 14) (size 15 to 20)
#    0.000    1.333    0.000    6.000    0.000    2.667 
#    0.000    0.000    0.000    0.000    0.000    0.000 
#    0.000    0.000    0.000    0.000    0.000    0.000 
#
# Total GULP energy -148905.389012 kJ/mol
# GULP energy per Si atom -12408.782418 kJ/mol
# Density = 2.043917 g / cm^3
# Si number density = 20.485801 Si / 1000 Ang^3
#
#
#
# Elastic Constant Matrix: (Units=GPa)
#
#
# Indices 1 2 3 4 5 6 
#
# 1 76.0026 11.8039 27.9659 1.7187 -7.8198 -6.6932
# 2 11.8039 69.2165 1.3630 1.9873 -2.0906 4.0035
# 3 27.9659 1.3630 57.4189 5.9503 -15.2728 -11.8939
# 4 1.7187 1.9873 5.9503 26.8823 4.7647 -1.3451
# 5 -7.8198 -2.0906 -15.2728 4.7647 17.8474 2.4658
# 6 -6.6932 4.0035 -11.8939 -1.3451 2.4658 29.5345
#
#
#
# Elastic Compliance Matrix: (Units=1/GPa)
#
#
# Indices 1 2 3 4 5 6 
#
# 1 0.016555 -0.002761 -0.007980 0.001016 -0.000306 0.000984
# 2 -0.002761 0.015161 0.001343 -0.001813 0.002536 -0.002434
# 3 -0.007980 0.001343 0.030419 -0.010251 0.024356 0.007759
# 4 0.001016 -0.001813 -0.010251 0.043089 -0.020040 -0.000017
# 5 -0.000306 0.002536 0.024356 -0.020040 0.082162 0.001623
# 6 0.000984 -0.002434 0.007759 -0.000017 0.001623 0.037400
#
#
# Mechanical properties :
#
#
# Convention : Reuss Voigt Hill
#
# Bulk Modulus (GPa) = 23.07455 31.65594 27.36524
# Shear Modulus (GPa) = 19.37768 25.61986 22.49877
#
# Velocity S-wave (km/s) = 3.07890 3.54024 3.31760
# Velocity P-wave (km/s) = 4.89159 5.67426 5.29740
#
# Compressibility (1/GPa) = 0.04333779
#
# Stress axis : x y z
#
# Youngs Moduli (GPa) = 60.40475 65.95725 32.87431
#
# Poissons Ratio (x) = 0.18213 0.26235
# Poissons Ratio (y) = 0.16680 -0.04416
# Poissons Ratio (z) = 0.48206 -0.08859
#
# Static dielectric constant tensor:
#      x y z
#    x 3.884610 -0.004150 -0.095560 
#    y -0.004150 3.866840 0.052080 
#    z -0.095560 0.052080 3.395200 
# 
# 
# High freq. dielectric constant tensor:
#      x y z
#    x 1.815870 0.002020 -0.005340 
#    y 0.002020 1.819690 0.003150 
#    z -0.005340 0.003150 1.786340 
# 
# From -- ./inp_files/34137.got.cif
#   From: 2010.06.25/outbox.cif.g09.slc.cpg/sg2_18_cif.got.tgz:34137.got - 2010.06.27 13:26:56.
