data_PCOD8011385
_publ_section_title
;
Structure prediction by ZEFSAII (Michael W. Deem and Ramdas Pophale) SiO2 
 PCOD8011385
Probable space group: P -1
;
_chemical_formula_sum "Si O2"
_cell_formula_units_Z 16
_cell_length_a 16.105563
_cell_length_b 7.759138
_cell_length_c 10.808838
_cell_angle_alpha 137.492928
_cell_angle_beta 70.377268
_cell_angle_gamma 87.926558
_cell_volume 769.492887
_symmetry_space_group_name_H-M "P -1"
_symmetry_group_IT_number 2
_symmetry_cell_setting 'triclinic'
loop_
_space_group_symop_operation_xyz
x,y,z
-x,-y,-z
loop_
_atom_site_type_symbol
_atom_site_label
_atom_site_fract_x
_atom_site_fract_y
_atom_site_fract_z
Si Si1 0.271145 0.884385 0.427119
Si Si2 0.161722 0.346073 0.551358
Si Si3 0.044804 0.203231 0.131159
Si Si4 0.822411 0.286061 0.044794
Si Si5 0.650563 0.766740 0.020428
Si Si6 0.190978 0.263197 0.892010
Si Si7 0.447898 0.827075 0.172314
Si Si8 0.309831 0.971785 0.094954
O O1 0.312144 0.547955 0.221253
O O2 0.358140 0.975585 0.393851
O O3 0.183848 0.053538 0.460770
O O4 0.229702 0.986392 0.638278
O O5 0.227091 0.262020 0.350683
O O6 0.047805 0.489921 0.640241
O O7 0.191580 0.551086 0.730709
O O8 0.102754 0.050991 0.147605
O O9 0.115447 0.246325 0.018920
O O10 0.000000 0.000000 0.000000
O O11 0.724165 0.280224 0.036530
O O12 0.860635 0.446033 0.010474
O O13 0.668299 0.964577 0.018944
O O14 0.711991 0.746101 0.100353
O O15 0.533502 0.928303 0.195263
O O16 0.407352 0.862782 0.071587
O O17 0.500000 0.500000 0.000000
#
# Coordination Sequence:
#
# PCOD8011385 Si02
#       8
#     2   2   2   2   2   2   2   2
#     4   9  21  38  62  86 117 161 196 244 297 355
#     4   9  21  39  58  84 118 157 200 242 298 343
#     4  10  22  39  60  91 120 154 203 251 291 353
#     4  10  21  39  61  85 121 159 195 250 290 348
#     4  11  22  37  62  90 120 157 198 246 296 355
#     4  11  22  41  62  88 122 160 200 240 304 349
#     4   9  19  39  60  87 118 155 199 241 298 352
#     4  11  21  38  61  88 122 156 197 246 296 352
#
# _framework density 20.792915000000001
#
# number of rings (size 3 to 8) (size 9 to 14) (size 15 to 20)
#    0.000    2.000    1.250    2.625    3.500    5.500 
#    0.000    5.000    0.000   11.250    0.000    0.000 
#    0.000    0.000    0.000    0.000    0.000    0.000 
#
# Total GULP energy -198244.216370 kJ/mol
# GULP energy per Si atom -12390.263523 kJ/mol
# Density = 2.074559 g / cm^3
# Si number density = 20.792915 Si / 1000 Ang^3
#
#
#
# Elastic Constant Matrix: (Units=GPa)
#
#
# Indices 1 2 3 4 5 6 
#
# 1 70.5950 18.7261 -9.2186 7.1753 -7.9181 1.0987
# 2 18.7261 103.5765 2.2866 6.1346 -13.2988 -2.3598
# 3 -9.2186 2.2866 21.1580 11.3872 -8.5181 -5.7186
# 4 7.1753 6.1346 11.3872 22.7498 -2.9223 -0.6397
# 5 -7.9181 -13.2988 -8.5181 -2.9223 26.5903 4.9233
# 6 1.0987 -2.3598 -5.7186 -0.6397 4.9233 32.4276
#
#
#
# Elastic Compliance Matrix: (Units=1/GPa)
#
#
# Indices 1 2 3 4 5 6 
#
# 1 0.020163 -0.001893 0.021619 -0.015342 0.010082 0.001158
# 2 -0.001893 0.010744 0.001324 -0.002322 0.004926 0.000286
# 3 0.021619 0.001324 0.101007 -0.053370 0.031492 0.011342
# 4 -0.015342 -0.002322 -0.053370 0.074227 -0.013647 -0.005525
# 5 0.010082 0.004926 0.031492 -0.013647 0.052147 -0.002616
# 6 0.001158 0.000286 0.011342 -0.005525 -0.002616 0.033108
#
#
# Mechanical properties :
#
#
# Convention : Reuss Voigt Hill
#
# Bulk Modulus (GPa) = 5.74662 24.32418 15.03540
# Shear Modulus (GPa) = 16.27070 28.58922 22.42996
#
# Velocity S-wave (km/s) = 2.80038 3.71205 3.28797
# Velocity P-wave (km/s) = 3.63674 5.48600 4.65414
#
# Compressibility (1/GPa) = 0.17401527
#
# Stress axis : x y z
#
# Youngs Moduli (GPa) = 49.59634 93.07312 9.90026
#
# Poissons Ratio (x) = 0.17618 -0.21403
# Poissons Ratio (y) = 0.09388 -0.01311
# Poissons Ratio (z) = -1.07222 -0.12327
#
# Static dielectric constant tensor:
#      x y z
#    x 3.731030 -0.194010 -0.385530 
#    y -0.194010 3.932770 0.107620 
#    z -0.385530 0.107620 3.903930 
# 
# 
# High freq. dielectric constant tensor:
#      x y z
#    x 1.814300 -0.014190 -0.007210 
#    y -0.014190 1.823490 0.003750 
#    z -0.007210 0.003750 1.792970 
# 
# From -- ./inp_files/273069.got.cif
#   From: 2010.06.25/outbox.cif.g09.slc.cpg/sg2_137_cif.got.tgz:273069.got - 2010.06.27 13:26:56.
