data_PCOD8011862
_publ_section_title
;
Structure prediction by ZEFSAII (Michael W. Deem and Ramdas Pophale) SiO2 
 PCOD8011862
Probable space group: P -1
;
_chemical_formula_sum "Si O2"
_cell_formula_units_Z 16
_cell_length_a 8.863550
_cell_length_b 19.587423
_cell_length_c 11.128775
_cell_angle_alpha 40.712823
_cell_angle_beta 56.623177
_cell_angle_gamma 87.915920
_cell_volume 752.788361
_symmetry_space_group_name_H-M "P -1"
_symmetry_group_IT_number 2
_symmetry_cell_setting 'triclinic'
loop_
_space_group_symop_operation_xyz
x,y,z
-x,-y,-z
loop_
_atom_site_type_symbol
_atom_site_label
_atom_site_fract_x
_atom_site_fract_y
_atom_site_fract_z
Si Si1 0.359781 0.626697 0.080965
Si Si2 0.161953 0.503551 0.084840
Si Si3 0.802744 0.771999 0.093133
Si Si4 0.258877 0.024161 0.110606
Si Si5 0.865985 0.775369 0.788032
Si Si6 0.740440 0.487928 0.234088
Si Si7 0.798001 0.188653 0.737871
Si Si8 0.932306 0.300555 0.791811
O O1 0.363735 0.611502 0.955739
O O2 0.266845 0.705588 0.046643
O O3 0.185397 0.467925 0.430063
O O4 0.641493 0.728440 0.867482
O O5 0.927962 0.488346 0.223536
O O6 0.049872 0.341624 0.366133
O O7 0.299221 0.569477 0.808497
O O8 0.523681 0.612602 0.447754
O O9 0.005846 0.771458 0.052774
O O10 0.844733 0.813066 0.880240
O O11 0.835989 0.896528 0.979917
O O12 0.208129 0.935690 0.131012
O O13 0.126746 0.918097 0.425087
O O14 0.556130 0.150677 0.840492
O O15 0.870049 0.652542 0.956993
O O16 0.804005 0.202046 0.860488
#
# Coordination Sequence:
#
# PCOD8011862 Si02
#       8
#     2   2   2   2   2   2   2   2
#     4  10  22  38  63  92 125 158 200 256 314 355
#     4  10  21  39  64  95 125 156 202 257 305 364
#     4  12  24  40  62  93 127 160 207 253 300 363
#     4  11  24  42  63  88 124 171 202 244 305 370
#     4  12  24  40  63  94 124 163 205 250 306 367
#     4  11  22  38  64  96 122 155 206 256 304 352
#     4  10  21  42  65  87 126 165 204 244 307 370
#     4  10  22  39  63  92 120 163 202 257 307 356
#
# _framework density 21.254314000000001
#
# number of rings (size 3 to 8) (size 9 to 14) (size 15 to 20)
#    0.000    1.250    3.750    2.250    3.500    2.000 
#    0.000    3.750    0.000    0.000    0.000    0.000 
#    0.000    0.000    0.000    0.000    0.000    0.000 
#
# Total GULP energy -198491.802315 kJ/mol
# GULP energy per Si atom -12405.737645 kJ/mol
# Density = 2.120594 g / cm^3
# Si number density = 21.254314 Si / 1000 Ang^3
#
#
#
# Elastic Constant Matrix: (Units=GPa)
#
#
# Indices 1 2 3 4 5 6 
#
# 1 89.5177 44.5556 -1.1052 -21.4006 1.2895 1.6854
# 2 44.5556 119.7538 19.5070 -16.3627 -0.9500 1.7204
# 3 -1.1052 19.5070 46.8929 -1.9491 6.8799 1.9759
# 4 -21.4006 -16.3627 -1.9491 29.4685 -4.5130 8.5423
# 5 1.2895 -0.9500 6.8799 -4.5130 22.9708 -5.6741
# 6 1.6854 1.7204 1.9759 8.5423 -5.6741 41.0353
#
#
#
# Elastic Compliance Matrix: (Units=1/GPa)
#
#
# Indices 1 2 3 4 5 6 
#
# 1 0.016181 -0.005172 0.003177 0.009758 -0.000835 -0.002747
# 2 -0.005172 0.011530 -0.005208 0.002796 0.002824 -0.000212
# 3 0.003177 -0.005208 0.024910 0.000470 -0.008346 -0.002363
# 4 0.009758 0.002796 0.000470 0.046255 0.006215 -0.009310
# 5 -0.000835 0.002824 -0.008346 0.006215 0.048845 0.005778
# 6 -0.002747 -0.000212 -0.002363 -0.009310 0.005778 0.027342
#
#
# Mechanical properties :
#
#
# Convention : Reuss Voigt Hill
#
# Bulk Modulus (GPa) = 26.16703 42.45323 34.31013
# Shear Modulus (GPa) = 24.72716 31.57540 28.15128
#
# Velocity S-wave (km/s) = 3.41456 3.85853 3.64331
# Velocity P-wave (km/s) = 5.28050 6.31413 5.82031
#
# Compressibility (1/GPa) = 0.03821602
#
# Stress axis : x y z
#
# Youngs Moduli (GPa) = 61.80181 86.72759 40.14459
#
# Poissons Ratio (x) = 0.44851 -0.12752
# Poissons Ratio (y) = 0.31961 0.20906
# Poissons Ratio (z) = -0.19632 0.45164
#
# Static dielectric constant tensor:
#      x y z
#    x 3.726230 -0.036310 0.054500 
#    y -0.036310 4.035480 -0.010250 
#    z 0.054500 -0.010250 3.619540 
# 
# 
# High freq. dielectric constant tensor:
#      x y z
#    x 1.827670 -0.005630 0.003110 
#    y -0.005630 1.852020 -0.001230 
#    z 0.003110 -0.001230 1.814850 
# 
# From -- ./inp_files/209558.got.cif
#   From: 2010.06.25/outbox.cif.g09.slc.cpg/sg2_105_cif.got.tgz:209558.got - 2010.06.27 13:26:56.
