data_PCOD8011412
_publ_section_title
;
Structure prediction by ZEFSAII (Michael W. Deem and Ramdas Pophale) SiO2 
 PCOD8011412
Probable space group: P -1
;
_chemical_formula_sum "Si O2"
_cell_formula_units_Z 16
_cell_length_a 14.877507
_cell_length_b 9.567451
_cell_length_c 12.319363
_cell_angle_alpha 50.004310
_cell_angle_beta 112.504972
_cell_angle_gamma 142.833098
_cell_volume 779.209912
_symmetry_space_group_name_H-M "P -1"
_symmetry_group_IT_number 2
_symmetry_cell_setting 'triclinic'
loop_
_space_group_symop_operation_xyz
x,y,z
-x,-y,-z
loop_
_atom_site_type_symbol
_atom_site_label
_atom_site_fract_x
_atom_site_fract_y
_atom_site_fract_z
Si Si1 0.753600 0.629370 0.383585
Si Si2 0.519687 0.012240 0.132151
Si Si3 0.184743 0.492555 0.842363
Si Si4 0.566142 0.721365 0.011716
Si Si5 0.360809 0.417970 0.434265
Si Si6 0.838636 0.367519 0.472236
Si Si7 0.857625 0.947787 0.062790
Si Si8 0.418054 0.274141 0.344645
O O1 0.773555 0.741979 0.458209
O O2 0.818390 0.518199 0.461312
O O3 0.857708 0.899632 0.214632
O O4 0.567851 0.374052 0.402009
O O5 0.694887 0.254481 0.139065
O O6 0.420554 0.700501 0.282908
O O7 0.454190 0.097805 0.115005
O O8 0.500000 0.000000 0.000000
O O9 0.180742 0.615314 0.673244
O O10 0.215834 0.330343 0.899027
O O11 0.023259 0.254649 0.948545
O O12 0.749229 0.962305 0.986771
O O13 0.477522 0.531209 0.174187
O O14 0.500000 0.500000 0.000000
O O15 0.500000 0.500000 0.500000
O O16 0.305988 0.211259 0.412710
O O17 0.000000 0.500000 0.500000
O O18 0.698748 0.033783 0.615002
#
# Coordination Sequence:
#
# PCOD8011412 Si02
#       8
#     2   2   2   2   2   2   2   2
#     4   9  20  38  64  92 119 168 220 264 318 388
#     4  12  24  41  66  98 129 169 220 264 324 388
#     4  10  21  40  62  90 134 168 204 268 332 380
#     4  11  22  36  65  96 124 162 219 272 312 382
#     4  10  21  40  65  87 127 170 216 263 319 378
#     4  11  24  38  63  97 128 166 219 270 328 387
#     4   9  20  38  62  94 124 166 209 265 330 378
#     4  10  21  39  61  88 126 167 210 267 322 380
#
# _framework density 20.533619999999999
#
# number of rings (size 3 to 8) (size 9 to 14) (size 15 to 20)
#    0.000    1.750    2.500    1.875    3.500    1.000 
#    0.000    1.250    0.000    0.000    0.000    0.000 
#    0.000    0.000    0.000    0.000    0.000    0.000 
#
# Total GULP energy -198246.475330 kJ/mol
# GULP energy per Si atom -12390.404708 kJ/mol
# Density = 2.048688 g / cm^3
# Si number density = 20.533620 Si / 1000 Ang^3
#
#
#
# Elastic Constant Matrix: (Units=GPa)
#
#
# Indices 1 2 3 4 5 6 
#
# 1 133.1054 21.9592 41.4837 4.7010 2.3162 -9.1645
# 2 21.9592 49.6686 9.4722 12.7861 -0.3259 1.1851
# 3 41.4837 9.4722 73.5903 3.0372 -0.4156 1.4569
# 4 4.7010 12.7861 3.0372 29.8744 -5.8262 -6.6256
# 5 2.3162 -0.3259 -0.4156 -5.8262 45.6168 3.0292
# 6 -9.1645 1.1851 1.4569 -6.6256 3.0292 29.4004
#
#
#
# Elastic Compliance Matrix: (Units=1/GPa)
#
#
# Indices 1 2 3 4 5 6 
#
# 1 0.010037 -0.003874 -0.005296 0.001356 -0.000673 0.003922
# 2 -0.003874 0.024921 -0.000475 -0.011182 -0.000750 -0.004631
# 3 -0.005296 -0.000475 0.016742 -0.001194 0.000450 -0.002777
# 4 0.001356 -0.011182 -0.001194 0.041200 0.004455 0.009758
# 5 -0.000673 -0.000750 0.000450 0.004455 0.022625 -0.001529
# 6 0.003922 -0.004631 -0.002777 0.009758 -0.001529 0.037917
#
#
# Mechanical properties :
#
#
# Convention : Reuss Voigt Hill
#
# Bulk Modulus (GPa) = 30.85586 44.68825 37.77206
# Shear Modulus (GPa) = 27.24268 33.20828 30.22548
#
# Velocity S-wave (km/s) = 3.64639 4.02588 3.84083
# Velocity P-wave (km/s) = 5.72607 6.58946 6.17288
#
# Compressibility (1/GPa) = 0.03240875
#
# Stress axis : x y z
#
# Youngs Moduli (GPa) = 99.63566 40.12691 59.72894
#
# Poissons Ratio (x) = 0.15546 0.31635
# Poissons Ratio (y) = 0.38602 0.02836
# Poissons Ratio (z) = 0.52772 0.01905
#
# Static dielectric constant tensor:
#      x y z
#    x 4.033890 -0.428290 -0.228990 
#    y -0.428290 3.498810 0.027410 
#    z -0.228990 0.027410 3.305920 
# 
# 
# High freq. dielectric constant tensor:
#      x y z
#    x 1.813480 -0.012410 0.001430 
#    y -0.012410 1.772550 0.006780 
#    z 0.001430 0.006780 1.812830 
# 
# From -- ./inp_files/262451.got.cif
#   From: 2010.06.25/outbox.cif.g09.slc.cpg/sg2_132_cif.got.tgz:262451.got - 2010.06.27 13:26:56.
