data_PCOD8011094
_publ_section_title
;
Structure prediction by ZEFSAII (Michael W. Deem and Ramdas Pophale) SiO2 
 PCOD8011094
Probable space group: P -1
;
_chemical_formula_sum "Si O2"
_cell_formula_units_Z 12
_cell_length_a 7.529410
_cell_length_b 13.772988
_cell_length_c 8.006347
_cell_angle_alpha 89.295392
_cell_angle_beta 128.346814
_cell_angle_gamma 119.368463
_cell_volume 513.092560
_symmetry_space_group_name_H-M "P -1"
_symmetry_group_IT_number 2
_symmetry_cell_setting 'triclinic'
loop_
_space_group_symop_operation_xyz
x,y,z
-x,-y,-z
loop_
_atom_site_type_symbol
_atom_site_label
_atom_site_fract_x
_atom_site_fract_y
_atom_site_fract_z
Si Si1 0.313849 0.042095 0.353635
Si Si2 0.722334 0.448519 0.232597
Si Si3 0.628640 0.609388 0.356692
Si Si4 0.971368 0.594081 0.832865
Si Si5 0.331916 0.169312 0.049188
Si Si6 0.454816 0.198541 0.749983
O O1 0.296225 0.098973 0.513483
O O2 0.500000 0.000000 0.500000
O O3 0.451407 0.137389 0.275770
O O4 0.007885 0.918481 0.126421
O O5 0.632999 0.538299 0.200177
O O6 0.820895 0.442171 0.104758
O O7 0.000000 0.500000 0.500000
O O8 0.458836 0.311334 0.143749
O O9 0.699266 0.736410 0.338587
O O10 0.875875 0.640929 0.628151
O O11 0.311163 0.525034 0.251740
O O12 0.196983 0.709232 0.083744
O O13 0.413815 0.145214 0.915715
#
# Coordination Sequence:
#
# PCOD8011094 Si02
#       6
#     2   2   2   2   2   2
#     4  11  27  45  70  97 128 184 234 281 336 397
#     4   9  20  39  67 100 138 175 216 274 342 407
#     4  10  21  38  67 100 143 180 211 281 346 402
#     4   9  21  37  61 102 138 178 220 268 334 414
#     4  10  25  47  66  98 138 172 230 285 330 407
#     4  11  24  43  69 100 133 178 229 275 343 409
#
# _framework density 23.387592999999999
#
# number of rings (size 3 to 8) (size 9 to 14) (size 15 to 20)
#    0.000    2.000    0.000    1.000    9.333    8.667 
#    0.000    0.000    0.000    0.000    0.000    0.000 
#    0.000    0.000    0.000    0.000    0.000    0.000 
#
# Total GULP energy -148692.308754 kJ/mol
# GULP energy per Si atom -12391.025730 kJ/mol
# Density = 2.333436 g / cm^3
# Si number density = 23.387593 Si / 1000 Ang^3
#
#
#
# Elastic Constant Matrix: (Units=GPa)
#
#
# Indices 1 2 3 4 5 6 
#
# 1 117.0197 52.6776 25.3097 -5.5638 1.8144 -20.0363
# 2 52.6776 86.5639 50.1884 -8.2563 -8.5246 -25.4085
# 3 25.3097 50.1884 101.1551 -3.2851 -21.0810 -6.3087
# 4 -5.5638 -8.2563 -3.2851 44.2478 11.9314 -4.9753
# 5 1.8144 -8.5246 -21.0810 11.9314 35.5946 -0.8173
# 6 -20.0363 -25.4085 -6.3087 -4.9753 -0.8173 27.4295
#
#
#
# Elastic Compliance Matrix: (Units=1/GPa)
#
#
# Indices 1 2 3 4 5 6 
#
# 1 0.012144 -0.006645 -0.000068 0.001311 -0.002624 0.002860
# 2 -0.006645 0.028478 -0.011250 0.006198 -0.001121 0.020029
# 3 -0.000068 -0.011250 0.016648 -0.003913 0.008317 -0.007104
# 4 0.001311 0.006198 -0.003913 0.027471 -0.009868 0.010488
# 5 -0.002624 -0.001121 0.008317 -0.009868 0.036153 -0.001755
# 6 0.002860 0.020029 -0.007104 0.010488 -0.001755 0.057316
#
#
# Mechanical properties :
#
#
# Convention : Reuss Voigt Hill
#
# Bulk Modulus (GPa) = 46.85033 62.34335 54.59684
# Shear Modulus (GPa) = 22.59880 33.22524 27.91202
#
# Velocity S-wave (km/s) = 3.11187 3.77322 3.45839
# Velocity P-wave (km/s) = 5.74345 6.75998 6.27234
#
# Compressibility (1/GPa) = 0.02134457
#
# Stress axis : x y z
#
# Youngs Moduli (GPa) = 82.34396 35.11425 60.06781
#
# Poissons Ratio (x) = 0.23334 0.00406
# Poissons Ratio (y) = 0.54718 0.67578
# Poissons Ratio (z) = 0.00557 0.39505
#
# Static dielectric constant tensor:
#      x y z
#    x -2.340410 1.274570 5.399270 
#    y 1.274570 3.905220 -1.170760 
#    z 5.399270 -1.170760 0.256860 
# 
# 
# High freq. dielectric constant tensor:
#      x y z
#    x 1.908440 0.004410 0.003050 
#    y 0.004410 1.912300 -0.009030 
#    z 0.003050 -0.009030 1.964870 
# 
# From -- ./inp_files/196692.got.cif
#   From: 2010.06.25/outbox.cif.g09.slc.cpg/sg2_99_cif.got.tgz:196692.got - 2010.06.27 13:26:56.
