data_PCOD8011283
_publ_section_title
;
Structure prediction by ZEFSAII (Michael W. Deem and Ramdas Pophale) SiO2 
 PCOD8011283
Probable space group: P -1
;
_chemical_formula_sum "Si O2"
_cell_formula_units_Z 14
_cell_length_a 8.642115
_cell_length_b 12.427156
_cell_length_c 9.381143
_cell_angle_alpha 127.935408
_cell_angle_beta 58.706331
_cell_angle_gamma 112.431844
_cell_volume 676.116051
_symmetry_space_group_name_H-M "P -1"
_symmetry_group_IT_number 2
_symmetry_cell_setting 'triclinic'
loop_
_space_group_symop_operation_xyz
x,y,z
-x,-y,-z
loop_
_atom_site_type_symbol
_atom_site_label
_atom_site_fract_x
_atom_site_fract_y
_atom_site_fract_z
Si Si1 0.094985 0.373545 0.908725
Si Si2 0.709106 0.041741 0.909105
Si Si3 0.940464 0.791873 0.639527
Si Si4 0.175793 0.793952 0.268992
Si Si5 0.327296 0.465565 0.453867
Si Si6 0.102383 0.716209 0.797561
Si Si7 0.570415 0.452178 0.074023
O O1 0.308732 0.413334 0.812833
O O2 0.017104 0.242377 0.749468
O O3 0.000000 0.500000 0.000000
O O4 0.054949 0.350921 0.077621
O O5 0.732013 0.076185 0.756973
O O6 0.822930 0.919023 0.798634
O O7 0.770310 0.171371 0.084676
O O8 0.500000 0.000000 0.000000
O O9 0.820322 0.657344 0.525296
O O10 0.121246 0.825805 0.483009
O O11 0.007379 0.776149 0.755688
O O12 0.310839 0.675268 0.104552
O O13 0.500000 0.500000 0.500000
O O14 0.226839 0.601222 0.590453
O O15 0.401304 0.413555 0.226301
O O16 0.500000 0.500000 0.000000
#
# Coordination Sequence:
#
# PCOD8011283 Si02
#       7
#     2   2   2   2   2   2   2
#     4   9  18  35  55  78 115 156 189 228 286 353
#     4  11  24  43  63  85 118 159 201 247 299 357
#     4  12  23  40  62  89 119 158 201 246 296 356
#     4  10  21  39  59  82 116 159 198 236 292 363
#     4  12  22  36  61  92 120 154 196 245 294 347
#     4  11  23  40  61  89 121 157 199 247 298 353
#     4  11  20  33  55  89 121 149 189 247 296 337
#
# _framework density 20.706505
#
# number of rings (size 3 to 8) (size 9 to 14) (size 15 to 20)
#    0.000    1.143    0.000    9.857    0.000    0.000 
#    0.000    0.714    0.000    0.000    0.000    0.000 
#    0.000    0.000    0.000    0.000    0.000    0.000 
#
# Total GULP energy -173561.394569 kJ/mol
# GULP energy per Si atom -12397.242469 kJ/mol
# Density = 2.065938 g / cm^3
# Si number density = 20.706505 Si / 1000 Ang^3
#
#
#
# Elastic Constant Matrix: (Units=GPa)
#
#
# Indices 1 2 3 4 5 6 
#
# 1 66.1166 50.6854 15.9156 -2.5422 -5.3768 -14.4580
# 2 50.6854 134.7206 42.9369 -19.2447 -7.8395 -11.0058
# 3 15.9156 42.9369 92.1818 -11.1418 -19.2867 -11.5061
# 4 -2.5422 -19.2447 -11.1418 43.6930 -7.1935 3.8320
# 5 -5.3768 -7.8395 -19.2867 -7.1935 36.2823 0.1259
# 6 -14.4580 -11.0058 -11.5061 3.8320 0.1259 43.9320
#
#
#
# Elastic Compliance Matrix: (Units=1/GPa)
#
#
# Indices 1 2 3 4 5 6 
#
# 1 0.022855 -0.008664 0.000797 -0.002557 0.001412 0.005779
# 2 -0.008664 0.012430 -0.003909 0.004095 0.000139 -0.001119
# 3 0.000797 -0.003909 0.014909 0.003160 0.007815 0.002890
# 4 -0.002557 0.004095 0.003160 0.026697 0.007483 -0.001338
# 5 0.001412 0.000139 0.007815 0.007483 0.033433 0.001798
# 6 0.005779 -0.001119 0.002890 -0.001338 0.001798 0.025252
#
#
# Mechanical properties :
#
#
# Convention : Reuss Voigt Hill
#
# Bulk Modulus (GPa) = 37.53519 56.89941 47.21730
# Shear Modulus (GPa) = 29.76045 37.01352 33.38698
#
# Velocity S-wave (km/s) = 3.79522 4.23251 4.01982
# Velocity P-wave (km/s) = 6.11323 7.17106 6.66317
#
# Compressibility (1/GPa) = 0.02664167
#
# Stress axis : x y z
#
# Youngs Moduli (GPa) = 43.75474 80.45142 67.07286
#
# Poissons Ratio (x) = 0.69700 -0.05345
# Poissons Ratio (y) = 0.37907 0.26221
# Poissons Ratio (z) = -0.03487 0.31451
#
# Static dielectric constant tensor:
#      x y z
#    x 5.654020 1.379830 0.370320 
#    y 1.379830 4.969110 0.082960 
#    z 0.370320 0.082960 3.574160 
# 
# 
# High freq. dielectric constant tensor:
#      x y z
#    x 1.811590 -0.003700 -0.003950 
#    y -0.003700 1.824510 -0.017020 
#    z -0.003950 -0.017020 1.803230 
# 
# From -- ./inp_files/158112.got.cif
#   From: 2010.06.25/outbox.cif.g09.slc.cpg/sg2_80_cif.got.tgz:158112.got - 2010.06.27 13:26:56.
