data_PCOD8011483
_publ_section_title
;
Structure prediction by ZEFSAII (Michael W. Deem and Ramdas Pophale) SiO2 
 PCOD8011483
Probable space group: P -1
;
_chemical_formula_sum "Si O2"
_cell_formula_units_Z 16
_cell_length_a 9.057559
_cell_length_b 16.705281
_cell_length_c 8.462268
_cell_angle_alpha 75.634728
_cell_angle_beta 67.960092
_cell_angle_gamma 124.324893
_cell_volume 783.745329
_symmetry_space_group_name_H-M "P -1"
_symmetry_group_IT_number 2
_symmetry_cell_setting 'triclinic'
loop_
_space_group_symop_operation_xyz
x,y,z
-x,-y,-z
loop_
_atom_site_type_symbol
_atom_site_label
_atom_site_fract_x
_atom_site_fract_y
_atom_site_fract_z
Si Si1 0.872565 0.018723 0.653294
Si Si2 0.351615 0.252166 0.408670
Si Si3 0.500078 0.243899 0.030178
Si Si4 0.358863 0.508263 0.658829
Si Si5 0.852175 0.261895 0.051479
Si Si6 0.617230 0.205884 0.494948
Si Si7 0.237526 0.607230 0.433456
Si Si8 0.480709 0.990910 0.821491
O O1 0.699518 0.021670 0.641833
O O2 0.071197 0.144219 0.608438
O O3 0.687617 0.894997 0.890676
O O4 0.000000 0.000000 0.500000
O O5 0.387868 0.257801 0.203639
O O6 0.465227 0.384234 0.336872
O O7 0.444731 0.209404 0.490750
O O8 0.734181 0.291769 0.986222
O O9 0.560651 0.320958 0.815465
O O10 0.500000 0.500000 0.500000
O O11 0.271738 0.551285 0.574250
O O12 0.133318 0.376418 0.885181
O O13 0.780853 0.234190 0.277009
O O14 0.765971 0.144239 0.062552
O O15 0.772977 0.307719 0.518704
O O16 0.477242 0.079304 0.698727
O O17 0.000000 0.500000 0.500000
O O18 0.500000 0.000000 0.000000
#
# Coordination Sequence:
#
# PCOD8011483 Si02
#       8
#     2   2   2   2   2   2   2   2
#     4   9  19  38  61  89 123 154 193 249 301 353
#     4   9  21  39  64  85 123 157 194 250 302 364
#     4   9  18  38  63  90 110 156 205 240 296 349
#     4  11  25  41  55  86 126 159 196 244 312 353
#     4  10  21  39  62  85 123 157 196 247 293 365
#     4  10  22  39  62  94 114 159 204 242 306 352
#     4  11  22  38  64  85 118 154 205 250 287 365
#     4  11  23  39  66  93 120 158 207 253 294 356
#
# _framework density 20.414795999999999
#
# number of rings (size 3 to 8) (size 9 to 14) (size 15 to 20)
#    0.000    2.000    1.250    2.625    3.500    1.500 
#    6.750    2.500    0.000    0.000    0.000    0.000 
#    0.000    0.000    0.000    0.000    0.000    0.000 
#
# Total GULP energy -198235.156766 kJ/mol
# GULP energy per Si atom -12389.697298 kJ/mol
# Density = 2.036833 g / cm^3
# Si number density = 20.414796 Si / 1000 Ang^3
#
#
#
# Elastic Constant Matrix: (Units=GPa)
#
#
# Indices 1 2 3 4 5 6 
#
# 1 22.2035 29.1419 21.1066 -9.9248 -8.2205 -0.5114
# 2 29.1419 175.1210 64.0629 -21.8141 -7.0767 15.8748
# 3 21.1066 64.0629 111.5525 -13.9926 2.0779 12.4310
# 4 -9.9248 -21.8141 -13.9926 41.4824 8.7856 -7.4001
# 5 -8.2205 -7.0767 2.0779 8.7856 35.1553 -5.0098
# 6 -0.5114 15.8748 12.4310 -7.4001 -5.0098 35.4982
#
#
#
# Elastic Compliance Matrix: (Units=1/GPa)
#
#
# Indices 1 2 3 4 5 6 
#
# 1 0.075936 -0.008251 -0.010174 0.009208 0.016184 0.012551
# 2 -0.008251 0.008494 -0.002843 0.001196 -0.000746 -0.002778
# 3 -0.010174 -0.002843 0.013140 0.000746 -0.004478 -0.003953
# 4 0.009208 0.001196 0.000746 0.028932 -0.004200 0.004775
# 5 0.016184 -0.000746 -0.004478 -0.004200 0.034262 0.006095
# 6 0.012551 -0.002778 -0.003953 0.004775 0.006095 0.032833
#
#
# Mechanical properties :
#
#
# Convention : Reuss Voigt Hill
#
# Bulk Modulus (GPa) = 18.17103 59.72221 38.94662
# Shear Modulus (GPa) = 19.64792 35.39821 27.52306
#
# Velocity S-wave (km/s) = 3.10568 4.16859 3.67576
# Velocity P-wave (km/s) = 4.66697 7.24482 6.09377
#
# Compressibility (1/GPa) = 0.05503265
#
# Stress axis : x y z
#
# Youngs Moduli (GPa) = 13.16890 117.72637 76.10448
#
# Poissons Ratio (x) = 0.97140 0.77430
# Poissons Ratio (y) = 0.10866 0.21640
# Poissons Ratio (z) = 0.13398 0.33475
#
# Static dielectric constant tensor:
#      x y z
#    x 3.383030 0.035810 -0.096900 
#    y 0.035810 4.119450 -0.368230 
#    z -0.096900 -0.368230 4.051180 
# 
# 
# High freq. dielectric constant tensor:
#      x y z
#    x 1.766520 0.004410 -0.002930 
#    y 0.004410 1.818010 -0.010630 
#    z -0.002930 -0.010630 1.797650 
# 
# From -- ./inp_files/206786.got.cif
#   From: 2010.06.25/outbox.cif.g09.slc.cpg/sg2_104_cif.got.tgz:206786.got - 2010.06.27 13:26:56.
