data_PCOD8011981
_publ_section_title
;
Structure prediction by ZEFSAII (Michael W. Deem and Ramdas Pophale) SiO2 
 PCOD8011981
Probable space group: P -1
;
_chemical_formula_sum "Si O2"
_cell_formula_units_Z 14
_cell_length_a 15.617763
_cell_length_b 17.597150
_cell_length_c 11.889222
_cell_angle_alpha 30.104733
_cell_angle_beta 131.988905
_cell_angle_gamma 154.021377
_cell_volume 623.868100
_symmetry_space_group_name_H-M "P -1"
_symmetry_group_IT_number 2
_symmetry_cell_setting 'triclinic'
loop_
_space_group_symop_operation_xyz
x,y,z
-x,-y,-z
loop_
_atom_site_type_symbol
_atom_site_label
_atom_site_fract_x
_atom_site_fract_y
_atom_site_fract_z
Si Si1 0.932270 0.471372 0.099738
Si Si2 0.014256 0.848758 0.824609
Si Si3 0.453407 0.050325 0.237498
Si Si4 0.877433 0.579398 0.291438
Si Si5 0.813200 0.110867 0.621652
Si Si6 0.256496 0.281985 0.904281
Si Si7 0.621883 0.556065 0.723870
O O1 0.664982 0.181649 0.241728
O O2 0.985957 0.389130 0.333860
O O3 0.050775 0.757621 0.879791
O O4 0.000000 0.500000 0.000000
O O5 0.798238 0.706044 0.784971
O O6 0.983670 0.737025 0.061525
O O7 0.240740 0.206625 0.560193
O O8 0.243094 0.720086 0.425287
O O9 0.404277 0.032640 0.349989
O O10 0.502754 0.268364 0.939520
O O11 0.698670 0.511567 0.253056
O O12 0.077067 0.796893 0.277758
O O13 0.732267 0.856037 0.828844
O O14 0.438029 0.465813 0.728146
O O15 0.000000 0.000000 0.000000
#
# Coordination Sequence:
#
# PCOD8011981 Si02
#       7
#     2   2   2   2   2   2   2
#     4  11  24  39  62  91 127 160 206 257 310 365
#     4  10  22  39  63  94 125 164 207 255 310 373
#     4  10  21  39  65  94 115 165 211 249 302 370
#     4  11  22  38  68  95 119 160 214 253 302 369
#     4  10  21  42  63  88 126 162 202 253 306 367
#     4   9  21  38  61  91 125 165 205 252 304 370
#     4   9  21  40  60  89 133 161 203 254 314 363
#
# _framework density 22.440639999999998
#
# number of rings (size 3 to 8) (size 9 to 14) (size 15 to 20)
#    0.000    2.000    1.429    0.857    6.000    4.000 
#    0.000   10.000    0.000    0.000    0.000    0.000 
#    0.000    0.000    0.000    0.000    0.000    0.000 
#
# Total GULP energy -173438.575698 kJ/mol
# GULP energy per Si atom -12388.469693 kJ/mol
# Density = 2.238956 g / cm^3
# Si number density = 22.440640 Si / 1000 Ang^3
#
#
#
# Elastic Constant Matrix: (Units=GPa)
#
#
# Indices 1 2 3 4 5 6 
#
# 1 155.7174 26.5422 67.2370 0.7160 3.0140 7.2480
# 2 26.5422 38.3315 40.3531 -3.9254 -18.3491 8.9438
# 3 67.2370 40.3531 172.7324 -19.2347 -2.6349 -6.4951
# 4 0.7160 -3.9254 -19.2347 33.8388 -7.2224 -2.5115
# 5 3.0140 -18.3491 -2.6349 -7.2224 34.2797 -2.7723
# 6 7.2480 8.9438 -6.4951 -2.5115 -2.7723 28.0304
#
#
#
# Elastic Compliance Matrix: (Units=1/GPa)
#
#
# Indices 1 2 3 4 5 6 
#
# 1 0.008684 -0.005406 -0.002648 -0.003472 -0.004747 -0.001915
# 2 -0.005406 0.063420 -0.012162 0.006365 0.033391 -0.017783
# 3 -0.002648 -0.012162 0.010324 0.004164 -0.004046 0.006931
# 4 -0.003472 0.006365 0.004164 0.035575 0.011867 0.004193
# 5 -0.004747 0.033391 -0.004046 0.011867 0.049294 -0.004426
# 6 -0.001915 -0.017783 0.006931 0.004193 -0.004426 0.043389
#
#
# Mechanical properties :
#
#
# Convention : Reuss Voigt Hill
#
# Bulk Modulus (GPa) = 23.81244 70.56065 47.18654
# Shear Modulus (GPa) = 18.85957 34.73972 26.79965
#
# Velocity S-wave (km/s) = 2.90215 3.93882 3.45954
# Velocity P-wave (km/s) = 4.67592 7.22477 6.08529
#
# Compressibility (1/GPa) = 0.04199486
#
# Stress axis : x y z
#
# Youngs Moduli (GPa) = 115.15645 15.76778 96.86159
#
# Poissons Ratio (x) = 0.08525 0.25651
# Poissons Ratio (y) = 0.62259 1.17804
# Poissons Ratio (z) = 0.30495 0.19177
#
# Static dielectric constant tensor:
#      x y z
#    x 4.633070 0.320880 0.455700 
#    y 0.320880 3.781600 -0.037510 
#    z 0.455700 -0.037510 4.459480 
# 
# 
# High freq. dielectric constant tensor:
#      x y z
#    x 1.883950 0.022020 0.023730 
#    y 0.022020 1.856360 -0.010420 
#    z 0.023730 -0.010420 1.897820 
# 
# From -- ./inp_files/174129.got.cif
#   From: 2010.06.25/outbox.cif.g09.slc.cpg/sg2_88_cif.got.tgz:174129.got - 2010.06.27 13:26:56.
