data_PCOD8011408
_publ_section_title
;
Structure prediction by ZEFSAII (Michael W. Deem and Ramdas Pophale) SiO2 
 PCOD8011408
Probable space group: P -1
;
_chemical_formula_sum "Si O2"
_cell_formula_units_Z 14
_cell_length_a 8.539747
_cell_length_b 12.664519
_cell_length_c 10.934255
_cell_angle_alpha 71.988149
_cell_angle_beta 113.445080
_cell_angle_gamma 139.998032
_cell_volume 697.387955
_symmetry_space_group_name_H-M "P -1"
_symmetry_group_IT_number 2
_symmetry_cell_setting 'triclinic'
loop_
_space_group_symop_operation_xyz
x,y,z
-x,-y,-z
loop_
_atom_site_type_symbol
_atom_site_label
_atom_site_fract_x
_atom_site_fract_y
_atom_site_fract_z
Si Si1 0.261063 0.455024 0.477622
Si Si2 0.746419 0.976379 0.038233
Si Si3 0.637288 0.321471 0.379408
Si Si4 0.212813 0.830127 0.442513
Si Si5 0.184488 0.742267 0.002583
Si Si6 0.167316 0.012261 0.214892
Si Si7 0.983690 0.461772 0.210212
O O1 0.500000 0.500000 0.500000
O O2 0.223527 0.528029 0.333711
O O3 0.332706 0.545154 0.597473
O O4 0.002500 0.257716 0.486238
O O5 0.908490 0.957480 0.159573
O O6 0.480113 0.855664 0.066876
O O7 0.880977 0.160398 0.027929
O O8 0.710227 0.926281 0.903175
O O9 0.773273 0.297505 0.523234
O O10 0.345378 0.150946 0.324954
O O11 0.758212 0.377697 0.263037
O O12 0.500000 0.000000 0.500000
O O13 0.120659 0.859323 0.288412
O O14 0.043042 0.605595 0.111521
O O15 0.093002 0.668018 0.865600
#
# Coordination Sequence:
#
# PCOD8011408 Si02
#       7
#     2   2   2   2   2   2   2
#     4  11  25  39  64  97 122 155 207 263 303 360
#     4  10  22  38  59  89 120 162 201 258 294 353
#     4  10  21  42  64  88 122 166 196 247 311 379
#     4   9  20  40  65  89 118 166 199 242 310 372
#     4  10  22  39  63  88 120 163 199 252 301 358
#     4  10  21  39  61  88 124 153 212 246 304 360
#     4  10  21  41  62  87 123 159 204 239 314 372
#
# _framework density 20.074909000000002
#
# number of rings (size 3 to 8) (size 9 to 14) (size 15 to 20)
#    0.000    2.000    1.429    1.714    8.000    0.000 
#    0.000    3.571    0.000    0.000    0.000    0.000 
#    0.000    0.000    0.000    0.000    0.000    0.000 
#
# Total GULP energy -173499.118302 kJ/mol
# GULP energy per Si atom -12392.794164 kJ/mol
# Density = 2.002922 g / cm^3
# Si number density = 20.074909 Si / 1000 Ang^3
#
#
#
# Elastic Constant Matrix: (Units=GPa)
#
#
# Indices 1 2 3 4 5 6 
#
# 1 104.1600 38.2546 42.6426 -1.3593 15.3848 1.9294
# 2 38.2546 85.9655 32.8334 -2.0396 0.2711 -2.0139
# 3 42.6426 32.8334 111.6859 -6.3864 10.7973 -6.2988
# 4 -1.3593 -2.0396 -6.3864 26.1653 -4.9678 -1.4835
# 5 15.3848 0.2711 10.7973 -4.9678 26.1364 2.0681
# 6 1.9294 -2.0139 -6.2988 -1.4835 2.0681 28.8563
#
#
#
# Elastic Compliance Matrix: (Units=1/GPa)
#
#
# Indices 1 2 3 4 5 6 
#
# 1 0.013810 -0.004925 -0.003354 -0.001891 -0.006925 -0.001600
# 2 -0.004925 0.014921 -0.002811 0.001021 0.004059 0.000519
# 3 -0.003354 -0.002811 0.011594 0.002102 -0.002613 0.002854
# 4 -0.001891 0.001021 0.002102 0.040303 0.007722 0.002175
# 5 -0.006925 0.004059 -0.002613 0.007722 0.045052 -0.002656
# 6 -0.001600 0.000519 0.002854 0.002175 -0.002656 0.035723
#
#
# Mechanical properties :
#
#
# Convention : Reuss Voigt Hill
#
# Bulk Modulus (GPa) = 55.10738 58.80808 56.95773
# Shear Modulus (GPa) = 26.36679 28.77032 27.56856
#
# Velocity S-wave (km/s) = 3.62805 3.78980 3.70981
# Velocity P-wave (km/s) = 6.71273 6.96477 6.83991
#
# Compressibility (1/GPa) = 0.01814639
#
# Stress axis : x y z
#
# Youngs Moduli (GPa) = 72.40917 67.01780 86.24918
#
# Poissons Ratio (x) = 0.33007 0.28927
# Poissons Ratio (y) = 0.35663 0.24243
# Poissons Ratio (z) = 0.24285 0.18838
#
# Static dielectric constant tensor:
#      x y z
#    x 3.523270 -0.019820 0.113380 
#    y -0.019820 3.795140 -0.107080 
#    z 0.113380 -0.107080 3.720010 
# 
# 
# High freq. dielectric constant tensor:
#      x y z
#    x 1.774430 0.003350 0.008120 
#    y 0.003350 1.784200 -0.003910 
#    z 0.008120 -0.003910 1.782630 
# 
# From -- ./inp_files/209704.got.cif
#   From: 2010.06.25/outbox.cif.g09.slc.cpg/sg2_105_cif.got.tgz:209704.got - 2010.06.27 13:26:56.
