data_PCOD8011930
_publ_section_title
;
Structure prediction by ZEFSAII (Michael W. Deem and Ramdas Pophale) SiO2 
 PCOD8011930
Probable space group: P -1
;
_chemical_formula_sum "Si O2"
_cell_formula_units_Z 16
_cell_length_a 14.316625
_cell_length_b 9.004892
_cell_length_c 15.010234
_cell_angle_alpha 86.104354
_cell_angle_beta 29.444652
_cell_angle_gamma 104.833028
_cell_volume 727.170181
_symmetry_space_group_name_H-M "P -1"
_symmetry_group_IT_number 2
_symmetry_cell_setting 'triclinic'
loop_
_space_group_symop_operation_xyz
x,y,z
-x,-y,-z
loop_
_atom_site_type_symbol
_atom_site_label
_atom_site_fract_x
_atom_site_fract_y
_atom_site_fract_z
Si Si1 0.149223 0.272634 0.304609
Si Si2 0.581945 0.376507 0.049920
Si Si3 0.575452 0.020764 0.835548
Si Si4 0.765483 0.899053 0.925936
Si Si5 0.595857 0.196557 0.363403
Si Si6 0.091486 0.377195 0.875474
Si Si7 0.229651 0.249730 0.607631
Si Si8 0.683681 0.595707 0.131224
O O1 0.310448 0.310750 0.256232
O O2 0.205265 0.174916 0.187641
O O3 0.866055 0.140501 0.574702
O O4 0.232021 0.474316 0.188846
O O5 0.686578 0.478313 0.053838
O O6 0.573347 0.194958 0.069834
O O7 0.482001 0.125077 0.862838
O O8 0.500000 0.000000 0.000000
O O9 0.753477 0.790583 0.027239
O O10 0.004306 0.123119 0.731312
O O11 0.734031 0.391666 0.303107
O O12 0.360710 0.154651 0.512948
O O13 0.500000 0.000000 0.500000
O O14 0.797109 0.260217 0.116451
O O15 0.153495 0.268655 0.767363
O O16 0.123181 0.351108 0.954673
O O17 0.410960 0.463441 0.406084
#
# Coordination Sequence:
#
# PCOD8011930 Si02
#       8
#     2   2   2   2   2   2   2   2
#     4  10  23  45  64  91 130 166 209 262 321 382
#     4  10  22  43  68  90 126 172 206 262 325 373
#     4  12  25  40  67  98 127 164 214 265 317 380
#     4  11  25  42  63  97 126 169 216 256 316 382
#     4  10  21  39  65  90 121 165 208 260 313 369
#     4  10  23  42  63  95 128 165 215 257 314 373
#     4  11  24  42  65  91 131 170 208 263 315 368
#     4  10  22  42  65  89 130 171 208 258 317 376
#
# _framework density 22.003102999999999
#
# number of rings (size 3 to 8) (size 9 to 14) (size 15 to 20)
#    0.000    1.500    1.250    3.375    1.750    8.500 
#    0.000    6.250    0.000    0.000    0.000    0.000 
#    0.000    0.000    0.000    0.000    0.000    0.000 
#
# Total GULP energy -198339.077944 kJ/mol
# GULP energy per Si atom -12396.192372 kJ/mol
# Density = 2.195302 g / cm^3
# Si number density = 22.003103 Si / 1000 Ang^3
#
#
#
# Elastic Constant Matrix: (Units=GPa)
#
#
# Indices 1 2 3 4 5 6 
#
# 1 63.7722 31.1169 20.4849 9.7974 3.9948 1.8020
# 2 31.1169 90.9113 45.5847 2.6050 -0.8862 -11.8264
# 3 20.4849 45.5847 99.0120 2.9253 -0.0315 -11.2750
# 4 9.7974 2.6050 2.9253 30.4320 0.7074 -0.0866
# 5 3.9948 -0.8862 -0.0315 0.7074 24.0056 -1.3560
# 6 1.8020 -11.8264 -11.2750 -0.0866 -1.3560 31.5146
#
#
#
# Elastic Compliance Matrix: (Units=1/GPa)
#
#
# Indices 1 2 3 4 5 6 
#
# 1 0.020744 -0.006797 -0.001497 -0.005877 -0.003783 -0.004451
# 2 -0.006797 0.016858 -0.005856 0.001276 0.001974 0.004708
# 3 -0.001497 -0.005856 0.013422 -0.000304 0.000212 0.002698
# 4 -0.005877 0.001276 -0.000304 0.034674 0.000048 0.000803
# 5 -0.003783 0.001974 0.000212 0.000048 0.042520 0.002863
# 6 -0.004451 0.004708 0.002698 0.000803 0.002863 0.034843
#
#
# Mechanical properties :
#
#
# Convention : Reuss Voigt Hill
#
# Bulk Modulus (GPa) = 44.00688 49.78537 46.89612
# Shear Modulus (GPa) = 25.13392 27.62438 26.37915
#
# Velocity S-wave (km/s) = 3.38344 3.54711 3.46625
# Velocity P-wave (km/s) = 5.94200 6.28106 6.11388
#
# Compressibility (1/GPa) = 0.02272372
#
# Stress axis : x y z
#
# Youngs Moduli (GPa) = 48.20689 59.32033 74.50571
#
# Poissons Ratio (x) = 0.40321 0.11152
# Poissons Ratio (y) = 0.32767 0.43629
# Poissons Ratio (z) = 0.07216 0.34737
#
# Static dielectric constant tensor:
#      x y z
#    x 4.097480 -0.310840 -0.188090 
#    y -0.310840 4.292330 0.039070 
#    z -0.188090 0.039070 4.212090 
# 
# 
# High freq. dielectric constant tensor:
#      x y z
#    x 1.859860 -0.003730 -0.004850 
#    y -0.003730 1.867580 -0.009160 
#    z -0.004850 -0.009160 1.869790 
# 
# From -- ./inp_files/315281.got.cif
#   From: 2010.06.25/outbox.cif.g09.slc.cpg/sg2_158_cif.got.tgz:315281.got - 2010.06.27 13:26:56.
