data_PCOD8011838
_publ_section_title
;
Structure prediction by ZEFSAII (Michael W. Deem and Ramdas Pophale) SiO2 
 PCOD8011838
Probable space group: P -1
;
_chemical_formula_sum "Si O2"
_cell_formula_units_Z 16
_cell_length_a 13.638781
_cell_length_b 10.349710
_cell_length_c 7.192496
_cell_angle_alpha 71.565979
_cell_angle_beta 131.241584
_cell_angle_gamma 106.026346
_cell_volume 720.988229
_symmetry_space_group_name_H-M "P -1"
_symmetry_group_IT_number 2
_symmetry_cell_setting 'triclinic'
loop_
_space_group_symop_operation_xyz
x,y,z
-x,-y,-z
loop_
_atom_site_type_symbol
_atom_site_label
_atom_site_fract_x
_atom_site_fract_y
_atom_site_fract_z
Si Si1 0.534034 0.779137 0.656729
Si Si2 0.542561 0.026987 0.830675
Si Si3 0.877104 0.570243 0.888560
Si Si4 0.163517 0.922485 0.868095
Si Si5 0.717383 0.416738 0.468971
Si Si6 0.067721 0.790725 0.158472
Si Si7 0.758305 0.591274 0.104576
Si Si8 0.961442 0.812743 0.399744
O O1 0.539699 0.865115 0.431312
O O2 0.406980 0.671233 0.559993
O O3 0.531693 0.881963 0.779612
O O4 0.663348 0.700022 0.861036
O O5 0.689182 0.097842 0.988411
O O6 0.500000 0.000000 0.000000
O O7 0.759450 0.542532 0.605981
O O8 0.819294 0.514790 0.041439
O O9 0.000000 0.500000 0.000000
O O10 0.930702 0.729172 0.917333
O O11 0.072210 0.804213 0.699730
O O12 0.131898 0.073662 0.702373
O O13 0.143420 0.904743 0.071991
O O14 0.838382 0.327691 0.630132
O O15 0.682130 0.480197 0.196372
O O16 0.034314 0.861377 0.277300
O O17 0.878362 0.667272 0.339436
#
# Coordination Sequence:
#
# PCOD8011838 Si02
#       8
#     2   2   2   2   2   2   2   2
#     4  11  25  46  65  96 129 170 219 264 317 382
#     4  11  26  45  70  93 128 171 214 268 321 380
#     4   9  22  40  61  95 129 169 213 263 315 377
#     4  11  21  42  64  95 126 161 217 266 318 384
#     4  11  23  39  66  93 129 173 216 259 315 382
#     4  10  21  39  64  93 129 166 207 265 320 377
#     4  11  23  43  65  96 135 170 211 266 318 381
#     4  10  23  38  65  97 124 167 208 265 326 378
#
# _framework density 22.191763999999999
#
# number of rings (size 3 to 8) (size 9 to 14) (size 15 to 20)
#    0.000    1.500    2.500    1.500    1.750    9.000 
#    9.000    0.000    0.000    0.000    0.000    0.000 
#    0.000    0.000    0.000    0.000    0.000    0.000 
#
# Total GULP energy -198371.702310 kJ/mol
# GULP energy per Si atom -12398.231394 kJ/mol
# Density = 2.214125 g / cm^3
# Si number density = 22.191764 Si / 1000 Ang^3
#
#
#
# Elastic Constant Matrix: (Units=GPa)
#
#
# Indices 1 2 3 4 5 6 
#
# 1 94.3763 25.1507 43.0263 4.8256 -19.8638 14.5689
# 2 25.1507 51.4545 36.6003 -5.7525 -4.1853 -1.2212
# 3 43.0263 36.6003 108.0257 0.1924 -11.5875 4.0867
# 4 4.8256 -5.7525 0.1924 28.6622 5.6270 -6.6097
# 5 -19.8638 -4.1853 -11.5875 5.6270 45.9882 -2.7599
# 6 14.5689 -1.2212 4.0867 -6.6097 -2.7599 30.4819
#
#
#
# Elastic Compliance Matrix: (Units=1/GPa)
#
#
# Indices 1 2 3 4 5 6 
#
# 1 0.016974 -0.006245 -0.003628 -0.007362 0.006215 -0.008910
# 2 -0.006245 0.029094 -0.007943 0.009083 -0.002746 0.006936
# 3 -0.003628 -0.007943 0.013555 -0.001463 0.001268 -0.000604
# 4 -0.007362 0.009083 -0.001463 0.042268 -0.007138 0.012598
# 5 0.006215 -0.002746 0.001268 -0.007138 0.025221 -0.002515
# 6 -0.008910 0.006936 -0.000604 0.012598 -0.002515 0.039928
#
#
# Mechanical properties :
#
#
# Convention : Reuss Voigt Hill
#
# Bulk Modulus (GPa) = 41.68333 51.49015 46.58674
# Shear Modulus (GPa) = 23.73391 30.96508 27.34950
#
# Velocity S-wave (km/s) = 3.27386 3.73948 3.51439
# Velocity P-wave (km/s) = 5.75455 6.47284 6.12424
#
# Compressibility (1/GPa) = 0.02399040
#
# Stress axis : x y z
#
# Youngs Moduli (GPa) = 58.91276 34.37137 73.77509
#
# Poissons Ratio (x) = 0.21466 0.26765
# Poissons Ratio (y) = 0.36793 0.58600
# Poissons Ratio (z) = 0.21373 0.27301
#
# Static dielectric constant tensor:
#      x y z
#    x 3.995210 0.060600 -0.061340 
#    y 0.060600 3.918930 0.283390 
#    z -0.061340 0.283390 4.205930 
# 
# 
# High freq. dielectric constant tensor:
#      x y z
#    x 1.874130 0.007110 -0.006500 
#    y 0.007110 1.863250 0.010230 
#    z -0.006500 0.010230 1.876260 
# 
# From -- ./inp_files/70167.got.cif
#   From: 2010.06.25/outbox.cif.g09.slc.cpg/sg2_36_cif.got.tgz:70167.got - 2010.06.27 13:26:56.
