data_PCOD8011723
_publ_section_title
;
Structure prediction by ZEFSAII (Michael W. Deem and Ramdas Pophale) SiO2 
 PCOD8011723
Probable space group: P -1
;
_chemical_formula_sum "Si O2"
_cell_formula_units_Z 12
_cell_length_a 14.031725
_cell_length_b 8.200729
_cell_length_c 11.520010
_cell_angle_alpha 70.150593
_cell_angle_beta 149.267957
_cell_angle_gamma 123.105517
_cell_volume 540.679778
_symmetry_space_group_name_H-M "P -1"
_symmetry_group_IT_number 2
_symmetry_cell_setting 'triclinic'
loop_
_space_group_symop_operation_xyz
x,y,z
-x,-y,-z
loop_
_atom_site_type_symbol
_atom_site_label
_atom_site_fract_x
_atom_site_fract_y
_atom_site_fract_z
Si Si1 0.691215 0.954335 0.988112
Si Si2 0.184573 0.370560 0.745187
Si Si3 0.079291 0.607966 0.934939
Si Si4 0.198848 0.973858 0.667858
Si Si5 0.431988 0.622430 0.150143
Si Si6 0.330919 0.582815 0.606488
O O1 0.457309 0.826658 0.706683
O O2 0.775294 0.800301 0.120283
O O3 0.862631 0.159253 0.048115
O O4 0.668233 0.025564 0.077741
O O5 0.313388 0.465904 0.737004
O O6 0.920278 0.247034 0.470502
O O7 0.264270 0.546089 0.882632
O O8 0.897203 0.484120 0.676111
O O9 0.301779 0.618754 0.128624
O O10 0.000000 0.500000 0.000000
O O11 0.359820 0.149926 0.706316
O O12 0.000000 0.000000 0.500000
O O13 0.525089 0.475313 0.309462
#
# Coordination Sequence:
#
# PCOD8011723 Si02
#       6
#     2   2   2   2   2   2
#     4  10  19  38  65  92 128 159 196 264 317 365
#     4  10  18  37  68 102 126 151 197 262 336 375
#     4  12  29  44  58  89 129 176 222 247 288 373
#     4  10  16  32  63  97 126 147 188 250 324 374
#     4  11  22  40  66  96 126 162 203 257 326 369
#     4  11  20  43  66  92 130 159 197 271 314 372
#
# _framework density 22.194282000000001
#
# number of rings (size 3 to 8) (size 9 to 14) (size 15 to 20)
#    0.000    1.333    6.667    2.000    0.000    4.000 
#    0.000    3.333    0.000    0.000    0.000    0.000 
#    0.000    0.000    0.000    0.000    0.000    0.000 
#
# Total GULP energy -148729.736356 kJ/mol
# GULP energy per Si atom -12394.144696 kJ/mol
# Density = 2.214377 g / cm^3
# Si number density = 22.194282 Si / 1000 Ang^3
#
#
#
# Elastic Constant Matrix: (Units=GPa)
#
#
# Indices 1 2 3 4 5 6 
#
# 1 98.6847 30.6743 22.3511 1.4521 13.0626 30.9132
# 2 30.6743 111.0731 44.5441 35.7303 -12.3678 30.7644
# 3 22.3511 44.5441 76.3325 32.6673 3.4299 5.2815
# 4 1.4521 35.7303 32.6673 51.6495 -1.7757 -3.6490
# 5 13.0626 -12.3678 3.4299 -1.7757 21.6091 0.9303
# 6 30.9132 30.7644 5.2815 -3.6490 0.9303 26.0661
#
#
#
# Elastic Compliance Matrix: (Units=1/GPa)
#
#
# Indices 1 2 3 4 5 6 
#
# 1 0.019427 0.003713 -0.004680 -0.002300 -0.007923 -0.026512
# 2 0.003713 0.031503 -0.009445 -0.018346 0.017623 -0.042868
# 3 -0.004680 -0.009445 0.022523 -0.007022 -0.007220 0.011409
# 4 -0.002300 -0.018346 -0.007022 0.038566 -0.006179 0.031423
# 5 -0.007923 0.017623 -0.007220 -0.006179 0.062352 -0.013031
# 6 -0.026512 -0.042868 0.011409 0.031423 -0.013031 0.122953
#
#
# Mechanical properties :
#
#
# Convention : Reuss Voigt Hill
#
# Bulk Modulus (GPa) = 19.00153 53.46991 36.23572
# Shear Modulus (GPa) = 14.89459 32.43299 23.66379
#
# Velocity S-wave (km/s) = 2.59337 3.82687 3.26883
# Velocity P-wave (km/s) = 4.18897 6.60838 5.53255
#
# Compressibility (1/GPa) = 0.05262735
#
# Stress axis : x y z
#
# Youngs Moduli (GPa) = 51.47487 31.74312 44.39940
#
# Poissons Ratio (x) = -0.11786 0.20781
# Poissons Ratio (y) = -0.19112 0.41935
# Poissons Ratio (z) = 0.24092 0.29982
#
# Static dielectric constant tensor:
#      x y z
#    x 3.649280 -0.321500 -0.150720 
#    y -0.321500 4.402640 0.873300 
#    z -0.150720 0.873300 4.668620 
# 
# 
# High freq. dielectric constant tensor:
#      x y z
#    x 1.829320 -0.019180 0.013060 
#    y -0.019180 1.876090 0.038460 
#    z 0.013060 0.038460 1.877350 
# 
# From -- ./inp_files/308268.got.cif
#   From: 2010.06.25/outbox.cif.g09.slc.cpg/sg2_155_cif.got.tgz:308268.got - 2010.06.27 13:26:56.
