data_PCOD8011245
_publ_section_title
;
Structure prediction by ZEFSAII (Michael W. Deem and Ramdas Pophale) SiO2 
 PCOD8011245
Probable space group: P -1
;
_chemical_formula_sum "Si O2"
_cell_formula_units_Z 14
_cell_length_a 11.007384
_cell_length_b 13.635461
_cell_length_c 13.378514
_cell_angle_alpha 33.853435
_cell_angle_beta 98.856459
_cell_angle_gamma 74.221498
_cell_volume 759.726013
_symmetry_space_group_name_H-M "P -1"
_symmetry_group_IT_number 2
_symmetry_cell_setting 'triclinic'
loop_
_space_group_symop_operation_xyz
x,y,z
-x,-y,-z
loop_
_atom_site_type_symbol
_atom_site_label
_atom_site_fract_x
_atom_site_fract_y
_atom_site_fract_z
Si Si1 0.062027 0.321245 0.067698
Si Si2 0.531710 0.578508 0.037052
Si Si3 0.805899 0.990239 0.243517
Si Si4 0.065707 0.886308 0.995505
Si Si5 0.551668 0.949230 0.664574
Si Si6 0.784785 0.630633 0.603871
Si Si7 0.883435 0.110865 0.587937
O O1 0.270344 0.124059 0.234560
O O2 0.030065 0.148948 0.236885
O O3 0.000000 0.500000 0.000000
O O4 0.946408 0.504098 0.805253
O O5 0.684168 0.343363 0.327373
O O6 0.500000 0.500000 0.000000
O O7 0.351194 0.763052 0.920378
O O8 0.591080 0.710858 0.904064
O O9 0.780687 0.806158 0.381748
O O10 0.808724 0.084919 0.055479
O O11 0.989854 0.849648 0.445934
O O12 0.179400 0.586084 0.269081
O O13 0.000000 0.000000 0.000000
O O14 0.894065 0.048635 0.761373
O O15 0.397961 0.198299 0.501444
O O16 0.500000 0.000000 0.500000
#
# Coordination Sequence:
#
# PCOD8011245 Si02
#       7
#     2   2   2   2   2   2   2
#     4  11  21  32  55  80 118 160 193 230 290 341
#     4  11  23  34  57  85 120 161 189 232 292 348
#     4   9  22  39  58  85 120 149 199 241 289 351
#     4   9  21  42  66  84 112 155 199 252 300 333
#     4  11  22  34  54  82 118 161 194 227 285 350
#     4  10  21  39  57  85 116 152 192 246 286 349
#     4   9  22  38  56  84 120 147 201 241 284 348
#
# _framework density 18.427696000000001
#
# number of rings (size 3 to 8) (size 9 to 14) (size 15 to 20)
#    0.857    1.143    1.429    1.714    8.000    1.143 
#    0.000    0.714    0.000    1.714    0.000    0.000 
#    0.000    0.000    0.000    0.000    0.000    0.000 
#
# Total GULP energy -173477.850410 kJ/mol
# GULP energy per Si atom -12391.275029 kJ/mol
# Density = 1.838575 g / cm^3
# Si number density = 18.427696 Si / 1000 Ang^3
#
#
#
# Elastic Constant Matrix: (Units=GPa)
#
#
# Indices 1 2 3 4 5 6 
#
# 1 92.3070 40.8754 38.5245 -11.7966 -4.6733 -13.5180
# 2 40.8754 124.0318 56.5382 -19.8769 -13.0458 -10.5414
# 3 38.5245 56.5382 104.5195 -12.8552 -3.0391 -2.1136
# 4 -11.7966 -19.8769 -12.8552 24.9880 4.7642 -2.2511
# 5 -4.6733 -13.0458 -3.0391 4.7642 41.7303 0.2478
# 6 -13.5180 -10.5414 -2.1136 -2.2511 0.2478 21.9138
#
#
#
# Elastic Compliance Matrix: (Units=1/GPa)
#
#
# Indices 1 2 3 4 5 6 
#
# 1 0.015052 -0.001716 -0.003891 0.004450 0.000307 0.008538
# 2 -0.001716 0.012839 -0.005313 0.006639 0.002645 0.005257
# 3 -0.003891 -0.005313 0.013893 0.000993 -0.001177 -0.003500
# 4 0.004450 0.006639 0.000993 0.049502 -0.003072 0.011154
# 5 0.000307 0.002645 -0.001177 -0.003072 0.025085 0.000749
# 6 0.008538 0.005257 -0.003500 0.011154 0.000749 0.054229
#
#
# Mechanical properties :
#
#
# Convention : Reuss Voigt Hill
#
# Bulk Modulus (GPa) = 50.13945 65.85938 57.99941
# Shear Modulus (GPa) = 25.11481 30.05442 27.58462
#
# Velocity S-wave (km/s) = 3.69573 4.04287 3.87319
# Velocity P-wave (km/s) = 6.74382 7.59012 7.17945
#
# Compressibility (1/GPa) = 0.01994438
#
# Stress axis : x y z
#
# Youngs Moduli (GPa) = 66.43817 77.89068 71.98031
#
# Poissons Ratio (x) = 0.13363 0.28007
# Poissons Ratio (y) = 0.11399 0.38241
# Poissons Ratio (z) = 0.25850 0.41381
#
# Static dielectric constant tensor:
#      x y z
#    x 2.099960 0.486400 -0.506290 
#    y 0.486400 2.850190 0.017800 
#    z -0.506290 0.017800 3.406300 
# 
# 
# High freq. dielectric constant tensor:
#      x y z
#    x 1.720570 0.001270 -0.010140 
#    y 0.001270 1.683690 -0.014750 
#    z -0.010140 -0.014750 1.723730 
# 
# From -- ./inp_files/281944.got.cif
#   From: 2010.06.25/outbox.cif.g09.slc.cpg/sg2_141_cif.got.tgz:281944.got - 2010.06.27 13:26:56.
