data_PCOD8011187
_publ_section_title
;
Structure prediction by ZEFSAII (Michael W. Deem and Ramdas Pophale) SiO2 
 PCOD8011187
Probable space group: P -1
;
_chemical_formula_sum "Si O2"
_cell_formula_units_Z 16
_cell_length_a 24.842564
_cell_length_b 15.510366
_cell_length_c 19.017985
_cell_angle_alpha 31.115328
_cell_angle_beta 160.227877
_cell_angle_gamma 160.817610
_cell_volume 778.536737
_symmetry_space_group_name_H-M "P -1"
_symmetry_group_IT_number 2
_symmetry_cell_setting 'triclinic'
loop_
_space_group_symop_operation_xyz
x,y,z
-x,-y,-z
loop_
_atom_site_type_symbol
_atom_site_label
_atom_site_fract_x
_atom_site_fract_y
_atom_site_fract_z
Si Si1 0.265530 0.428382 0.534071
Si Si2 0.748148 0.225253 0.699372
Si Si3 0.775542 0.620764 0.823796
Si Si4 0.772544 0.876797 0.760486
Si Si5 0.784232 0.916399 0.522214
Si Si6 0.190804 0.814270 0.515670
Si Si7 0.902621 0.967832 0.293145
Si Si8 0.743328 0.175289 0.891757
O O1 0.140099 0.492674 0.367866
O O2 0.538101 0.719038 0.635257
O O3 0.094581 0.218349 0.407426
O O4 0.304483 0.317041 0.718584
O O5 0.672420 0.130714 0.753716
O O6 0.500000 0.000000 0.500000
O O7 0.978611 0.289636 0.915554
O O8 0.687756 0.668117 0.745718
O O9 0.837048 0.782462 0.718019
O O10 0.520452 0.298936 0.717744
O O11 0.873742 0.127421 0.672043
O O12 0.000000 0.000000 0.000000
O O13 0.946279 0.041545 0.562190
O O14 0.881610 0.149124 0.527441
O O15 0.000000 0.500000 0.500000
O O16 0.500751 0.032973 0.740815
O O17 0.768691 0.999639 0.060665
O O18 0.000000 0.500000 0.000000
#
# Coordination Sequence:
#
# PCOD8011187 Si02
#       8
#     2   2   2   2   2   2   2   2
#     4  11  24  43  65  97 134 175 225 280 340 404
#     4  12  24  41  65 103 139 181 226 281 346 417
#     4  10  21  38  69  98 126 176 234 276 335 412
#     4  11  22  42  65  89 136 180 212 267 350 406
#     4  10  21  42  68  98 130 172 233 288 336 404
#     4  11  26  43  66 103 135 171 227 289 343 410
#     4  11  23  43  69  98 130 170 233 289 331 399
#     4  12  23  45  75  98 134 189 238 276 339 423
#
# _framework density 20.551376000000001
#
# number of rings (size 3 to 8) (size 9 to 14) (size 15 to 20)
#    0.000    1.000    5.000    1.500    3.500    1.000 
#    0.000    1.875    0.000    0.000    0.000    0.000 
#    0.000    0.000    0.000    0.000    0.000    0.000 
#
# Total GULP energy -198361.232061 kJ/mol
# GULP energy per Si atom -12397.577004 kJ/mol
# Density = 2.050460 g / cm^3
# Si number density = 20.551376 Si / 1000 Ang^3
#
#
#
# Elastic Constant Matrix: (Units=GPa)
#
#
# Indices 1 2 3 4 5 6 
#
# 1 101.1839 55.7525 39.9145 -4.3842 -2.9082 -3.5720
# 2 55.7525 127.6299 57.5847 -16.8899 -8.0500 2.2800
# 3 39.9145 57.5847 135.7594 -7.7649 -3.7297 -0.5279
# 4 -4.3842 -16.8899 -7.7649 30.0112 -2.0428 -0.2023
# 5 -2.9082 -8.0500 -3.7297 -2.0428 37.9941 1.1686
# 6 -3.5720 2.2800 -0.5279 -0.2023 1.1686 15.7875
#
#
#
# Elastic Compliance Matrix: (Units=1/GPa)
#
#
# Indices 1 2 3 4 5 6 
#
# 1 0.013651 -0.005463 -0.001783 -0.001549 -0.000489 0.003834
# 2 -0.005463 0.012710 -0.003413 0.005609 0.002342 -0.003287
# 3 -0.001783 -0.003413 0.009355 0.000246 0.000060 0.000401
# 4 -0.001549 0.005609 0.000246 0.036519 0.003086 -0.000913
# 5 -0.000489 0.002342 0.000060 0.003086 0.027025 -0.002408
# 6 0.003834 -0.003287 0.000401 -0.000913 -0.002408 0.064863
#
#
# Mechanical properties :
#
#
# Convention : Reuss Voigt Hill
#
# Bulk Modulus (GPa) = 69.45329 74.56407 72.00868
# Shear Modulus (GPa) = 26.28265 30.84666 28.56465
#
# Velocity S-wave (km/s) = 3.58002 3.87842 3.73220
# Velocity P-wave (km/s) = 7.13842 7.51111 7.32713
#
# Compressibility (1/GPa) = 0.01439817
#
# Stress axis : x y z
#
# Youngs Moduli (GPa) = 73.25665 78.67880 106.89313
#
# Poissons Ratio (x) = 0.42979 0.19064
# Poissons Ratio (y) = 0.40017 0.36479
# Poissons Ratio (z) = 0.13065 0.26850
#
# Static dielectric constant tensor:
#      x y z
#    x 3.610780 0.114840 -0.049230 
#    y 0.114840 3.513580 -0.269410 
#    z -0.049230 -0.269410 3.713810 
# 
# 
# High freq. dielectric constant tensor:
#      x y z
#    x 1.816710 -0.007610 0.001590 
#    y -0.007610 1.789390 -0.009890 
#    z 0.001590 -0.009890 1.808350 
# 
# From -- ./inp_files/318209.got.cif
#   From: 2010.06.25/outbox.cif.g09.slc.cpg/sg2_160_cif.got.tgz:318209.got - 2010.06.27 13:26:56.
