data_PCOD8011038
_publ_section_title
;
Structure prediction by ZEFSAII (Michael W. Deem and Ramdas Pophale) SiO2 
 PCOD8011038
Probable space group: P -1
;
_chemical_formula_sum "Si O2"
_cell_formula_units_Z 16
_cell_length_a 8.922235
_cell_length_b 8.788409
_cell_length_c 16.039808
_cell_angle_alpha 141.692625
_cell_angle_beta 99.253939
_cell_angle_gamma 88.298793
_cell_volume 759.855240
_symmetry_space_group_name_H-M "P -1"
_symmetry_group_IT_number 2
_symmetry_cell_setting 'triclinic'
loop_
_space_group_symop_operation_xyz
x,y,z
-x,-y,-z
loop_
_atom_site_type_symbol
_atom_site_label
_atom_site_fract_x
_atom_site_fract_y
_atom_site_fract_z
Si Si1 0.350092 0.657805 0.731468
Si Si2 0.765424 0.837587 0.062048
Si Si3 0.143827 0.331462 0.693900
Si Si4 0.123778 0.034999 0.166525
Si Si5 0.312347 0.393193 0.215068
Si Si6 0.169427 0.467230 0.476753
Si Si7 0.814877 0.210897 0.538586
Si Si8 0.858747 0.495185 0.048306
O O1 0.266449 0.556888 0.766276
O O2 0.528795 0.645475 0.745959
O O3 0.280416 0.490206 0.575847
O O4 0.331421 0.942122 0.837779
O O5 0.689363 0.660416 0.905666
O O6 0.745456 0.664626 0.068793
O O7 0.941265 0.950298 0.106478
O O8 0.996774 0.293766 0.604660
O O9 0.225958 0.086257 0.594643
O O10 0.091492 0.391040 0.807918
O O11 0.174732 0.204477 0.164190
O O12 0.166165 0.190715 0.321538
O O13 0.212602 0.795512 0.072513
O O14 0.281690 0.675471 0.348773
O O15 0.231932 0.677563 0.505215
O O16 0.000000 0.500000 0.500000
O O17 0.000000 0.500000 0.000000
#
# Coordination Sequence:
#
# PCOD8011038 Si02
#       8
#     2   2   2   2   2   2   2   2
#     4  12  24  39  63  90 127 166 200 252 306 370
#     4  11  21  40  64  88 121 163 208 253 301 363
#     4  11  22  39  63  91 123 160 209 251 306 362
#     4  10  21  38  66  89 120 159 207 255 299 362
#     4  11  24  41  59  92 127 164 204 249 310 359
#     4  11  20  39  63  91 118 159 205 244 302 361
#     4  10  22  38  63  91 122 162 205 256 297 364
#     4  10  22  37  63  94 117 152 205 265 301 349
#
# _framework density 21.056640999999999
#
# number of rings (size 3 to 8) (size 9 to 14) (size 15 to 20)
#    0.000    1.250    2.500    4.500    1.750    3.500 
#    0.000    3.750    0.000    0.000    0.000    0.000 
#    0.000    0.000    0.000    0.000    0.000    0.000 
#
# Total GULP energy -198432.302791 kJ/mol
# GULP energy per Si atom -12402.018924 kJ/mol
# Density = 2.100872 g / cm^3
# Si number density = 21.056641 Si / 1000 Ang^3
#
#
#
# Elastic Constant Matrix: (Units=GPa)
#
#
# Indices 1 2 3 4 5 6 
#
# 1 60.6199 11.3064 20.0156 3.5186 -1.2363 -22.5865
# 2 11.3064 86.3741 44.6052 4.8429 -8.8272 -17.2182
# 3 20.0156 44.6052 132.6068 -4.9642 -19.3385 -15.6579
# 4 3.5186 4.8429 -4.9642 42.4343 -16.2253 -8.4727
# 5 -1.2363 -8.8272 -19.3385 -16.2253 27.8618 1.7249
# 6 -22.5865 -17.2182 -15.6579 -8.4727 1.7249 23.2608
#
#
#
# Elastic Compliance Matrix: (Units=1/GPa)
#
#
# Indices 1 2 3 4 5 6 
#
# 1 0.026808 0.002763 -0.001270 0.003557 0.001496 0.028406
# 2 0.002763 0.015808 -0.004047 0.000572 0.001929 0.011725
# 3 -0.001270 -0.004047 0.011478 0.006905 0.010324 0.005246
# 4 0.003557 0.000572 0.006905 0.038047 0.026022 0.020454
# 5 0.001496 0.001929 0.010324 0.026022 0.057960 0.015011
# 6 0.028406 0.011725 0.005246 0.020454 0.015011 0.089121
#
#
# Mechanical properties :
#
#
# Convention : Reuss Voigt Hill
#
# Bulk Modulus (GPa) = 20.41454 47.93944 34.17699
# Shear Modulus (GPa) = 19.18202 32.28962 25.73582
#
# Velocity S-wave (km/s) = 3.02151 3.92020 3.49982
# Velocity P-wave (km/s) = 4.67854 6.58080 5.70945
#
# Compressibility (1/GPa) = 0.04898469
#
# Stress axis : x y z
#
# Youngs Moduli (GPa) = 37.30213 63.25721 87.12429
#
# Poissons Ratio (x) = -0.17477 0.11068
# Poissons Ratio (y) = -0.10306 0.35262
# Poissons Ratio (z) = 0.04739 0.25602
#
# Static dielectric constant tensor:
#      x y z
#    x 3.498970 -0.212390 -0.242880 
#    y -0.212390 4.251020 0.233460 
#    z -0.242880 0.233460 4.178900 
# 
# 
# High freq. dielectric constant tensor:
#      x y z
#    x 1.793480 -0.012580 -0.018240 
#    y -0.012580 1.831770 0.001010 
#    z -0.018240 0.001010 1.838270 
# 
# From -- ./inp_files/177864.got.cif
#   From: 2010.06.25/outbox.cif.g09.slc.cpg/sg2_89_cif.got.tgz:177864.got - 2010.06.27 13:26:56.
