data_PCOD8011420
_publ_section_title
;
Structure prediction by ZEFSAII (Michael W. Deem and Ramdas Pophale) SiO2 
 PCOD8011420
Probable space group: P -1
;
_chemical_formula_sum "Si O2"
_cell_formula_units_Z 16
_cell_length_a 9.861212
_cell_length_b 21.022865
_cell_length_c 7.008915
_cell_angle_alpha 103.887579
_cell_angle_beta 45.638487
_cell_angle_gamma 124.455522
_cell_volume 826.223634
_symmetry_space_group_name_H-M "P -1"
_symmetry_group_IT_number 2
_symmetry_cell_setting 'triclinic'
loop_
_space_group_symop_operation_xyz
x,y,z
-x,-y,-z
loop_
_atom_site_type_symbol
_atom_site_label
_atom_site_fract_x
_atom_site_fract_y
_atom_site_fract_z
Si Si1 0.706950 0.406176 0.071029
Si Si2 0.032660 0.842292 0.121968
Si Si3 0.693204 0.657828 0.291912
Si Si4 0.926642 0.051196 0.506477
Si Si5 0.475735 0.058531 0.439350
Si Si6 0.748261 0.861148 0.104798
Si Si7 0.997561 0.591355 0.895332
Si Si8 0.412947 0.676660 0.271945
O O1 0.491656 0.389721 0.393441
O O2 0.856756 0.384860 0.034602
O O3 0.862476 0.497694 0.919241
O O4 0.614949 0.351274 0.937015
O O5 0.077565 0.887385 0.307873
O O6 0.875719 0.748068 0.246319
O O7 0.911423 0.868987 0.118937
O O8 0.274613 0.865004 0.814245
O O9 0.567704 0.654576 0.217705
O O10 0.817135 0.614134 0.101551
O O11 0.668627 0.989192 0.639489
O O12 0.000000 0.000000 0.500000
O O13 0.105509 0.104059 0.204022
O O14 0.345867 0.086612 0.711925
O O15 0.500000 0.000000 0.500000
O O16 0.533938 0.770849 0.217277
O O17 0.164339 0.636711 0.585083
#
# Coordination Sequence:
#
# PCOD8011420 Si02
#       8
#     2   2   2   2   2   2   2   2
#     4  10  21  39  61  89 123 155 192 241 291 345
#     4  11  23  41  60  87 120 154 197 246 293 349
#     4  10  22  39  60  87 120 156 196 241 290 346
#     4  12  23  41  65  85 116 159 197 242 299 349
#     4  12  23  41  63  85 118 155 197 247 294 346
#     4  11  23  42  59  86 124 152 191 253 295 342
#     4  10  21  39  61  90 122 153 195 243 285 345
#     4  10  22  39  61  86 119 159 194 237 297 347
#
# _framework density 19.365217000000001
#
# number of rings (size 3 to 8) (size 9 to 14) (size 15 to 20)
#    0.000    1.250    2.500    3.750    0.000    1.500 
#    4.500    0.000    0.000    0.000    0.000    0.000 
#    0.000    0.000    0.000    0.000    0.000    0.000 
#
# Total GULP energy -198499.929072 kJ/mol
# GULP energy per Si atom -12406.245567 kJ/mol
# Density = 1.932114 g / cm^3
# Si number density = 19.365217 Si / 1000 Ang^3
#
#
#
# Elastic Constant Matrix: (Units=GPa)
#
#
# Indices 1 2 3 4 5 6 
#
# 1 90.7826 40.8058 20.5189 13.5361 -4.7108 11.5457
# 2 40.8058 91.9809 15.5181 12.0156 -14.3899 11.4756
# 3 20.5189 15.5181 87.1233 -10.5433 -2.9629 1.4009
# 4 13.5361 12.0156 -10.5433 52.5722 -4.1369 3.2253
# 5 -4.7108 -14.3899 -2.9629 -4.1369 39.9388 -5.1615
# 6 11.5457 11.4756 1.4009 3.2253 -5.1615 29.0268
#
#
#
# Elastic Compliance Matrix: (Units=1/GPa)
#
#
# Indices 1 2 3 4 5 6 
#
# 1 0.014990 -0.005510 -0.002904 -0.003062 -0.001204 -0.003518
# 2 -0.005510 0.014735 -0.001358 -0.001741 0.004035 -0.002658
# 3 -0.002904 -0.001358 0.012852 0.003635 0.000598 0.000774
# 4 -0.003062 -0.001741 0.003635 0.021070 0.001417 -0.000359
# 5 -0.001204 0.004035 0.000598 0.001417 0.026993 0.003497
# 6 -0.003518 -0.002658 0.000774 -0.000359 0.003497 0.037525
#
#
# Mechanical properties :
#
#
# Convention : Reuss Voigt Hill
#
# Bulk Modulus (GPa) = 43.41384 47.06361 45.23872
# Shear Modulus (GPa) = 32.17810 37.17716 34.67763
#
# Velocity S-wave (km/s) = 4.08075 4.38629 4.23628
# Velocity P-wave (km/s) = 6.68360 7.07168 6.88038
#
# Compressibility (1/GPa) = 0.02303413
#
# Stress axis : x y z
#
# Youngs Moduli (GPa) = 66.71329 67.86415 77.81193
#
# Poissons Ratio (x) = 0.37390 0.22595
# Poissons Ratio (y) = 0.36756 0.10565
# Poissons Ratio (z) = 0.19372 0.09214
#
# Static dielectric constant tensor:
#      x y z
#    x 3.365300 0.315880 -0.086250 
#    y 0.315880 3.452330 -0.146950 
#    z -0.086250 -0.146950 3.639520 
# 
# 
# High freq. dielectric constant tensor:
#      x y z
#    x 1.759490 0.005500 -0.003370 
#    y 0.005500 1.765090 -0.009810 
#    z -0.003370 -0.009810 1.766660 
# 
# From -- ./inp_files/44862.got.cif
#   From: 2010.06.25/outbox.cif.g09.slc.cpg/sg2_23_cif.got.tgz:44862.got - 2010.06.27 13:26:56.
