data_PCOD8011982
_publ_section_title
;
Structure prediction by ZEFSAII (Michael W. Deem and Ramdas Pophale) SiO2 
 PCOD8011982
Probable space group: P -1
;
_chemical_formula_sum "Si O2"
_cell_formula_units_Z 14
_cell_length_a 10.043019
_cell_length_b 11.819203
_cell_length_c 16.950637
_cell_angle_alpha 44.152183
_cell_angle_beta 109.197730
_cell_angle_gamma 143.788967
_cell_volume 657.534991
_symmetry_space_group_name_H-M "P -1"
_symmetry_group_IT_number 2
_symmetry_cell_setting 'triclinic'
loop_
_space_group_symop_operation_xyz
x,y,z
-x,-y,-z
loop_
_atom_site_type_symbol
_atom_site_label
_atom_site_fract_x
_atom_site_fract_y
_atom_site_fract_z
Si Si1 0.932903 0.236906 0.250505
Si Si2 0.440101 0.255369 0.894453
Si Si3 0.610368 0.426899 0.451815
Si Si4 0.559487 0.375693 0.290024
Si Si5 0.389436 0.205238 0.732188
Si Si6 0.000829 0.416274 0.791948
Si Si7 0.933352 0.629703 0.554237
O O1 0.225956 0.438550 0.193467
O O2 0.981521 0.462566 0.184752
O O3 0.728649 0.935060 0.421894
O O4 0.779941 0.091322 0.207728
O O5 0.380530 0.380088 0.846957
O O6 0.313070 0.095331 0.862731
O O7 0.280939 0.976446 0.063105
O O8 0.686409 0.469415 0.354898
O O9 0.691751 0.692085 0.359404
O O10 0.780054 0.469291 0.518862
O O11 0.718277 0.414580 0.241356
O O12 0.225392 0.014219 0.405616
O O13 0.728526 0.521293 0.629055
O O14 0.984203 0.503386 0.664688
#
# Coordination Sequence:
#
# PCOD8011982 Si02
#       7
#     2   2   2   2   2   2   2
#     4  11  21  39  64  90 122 152 202 255 298 349
#     4  11  23  43  63  85 125 165 199 244 298 364
#     4  10  21  39  65  94 118 157 206 247 300 361
#     4  11  23  43  63  85 125 165 199 244 298 364
#     4  10  21  39  65  94 118 157 206 247 300 361
#     4  12  25  40  59  96 124 158 202 246 305 354
#     4  11  21  39  64  90 122 152 202 255 298 349
#
# _framework density 21.291643000000001
#
# number of rings (size 3 to 8) (size 9 to 14) (size 15 to 20)
#    0.000    1.143    2.857    4.714    0.000    3.429 
#    5.143    0.000    0.000    5.143    0.000    0.000 
#    0.000    0.000    0.000    0.000    0.000    0.000 
#
# Total GULP energy -173593.596869 kJ/mol
# GULP energy per Si atom -12399.542634 kJ/mol
# Density = 2.124318 g / cm^3
# Si number density = 21.291643 Si / 1000 Ang^3
#
#
#
# Elastic Constant Matrix: (Units=GPa)
#
#
# Indices 1 2 3 4 5 6 
#
# 1 113.3124 41.5325 22.3126 -3.4467 5.3194 12.8927
# 2 41.5325 73.0104 32.9062 -15.4941 11.4370 10.7968
# 3 22.3126 32.9062 91.8688 -16.7534 18.2186 -1.9803
# 4 -3.4467 -15.4941 -16.7534 15.7443 -1.2062 -5.9199
# 5 5.3194 11.4370 18.2186 -1.2062 24.5218 -4.5158
# 6 12.8927 10.7968 -1.9803 -5.9199 -4.5158 10.9361
#
#
#
# Elastic Compliance Matrix: (Units=1/GPa)
#
#
# Indices 1 2 3 4 5 6 
#
# 1 0.013605 -0.005931 -0.003920 -0.014418 -0.001542 -0.019334
# 2 -0.005931 0.025413 -0.003585 0.013171 -0.010167 -0.015814
# 3 -0.003920 -0.003585 0.019230 0.023765 -0.006584 0.021788
# 4 -0.014418 0.013171 0.023765 0.127682 -0.000146 0.077353
# 5 -0.001542 -0.010167 -0.006584 -0.000146 0.057026 0.034132
# 6 -0.019334 -0.015814 0.021788 0.077353 0.034132 0.189756
#
#
# Mechanical properties :
#
#
# Convention : Reuss Voigt Hill
#
# Bulk Modulus (GPa) = 31.87174 52.41045 42.14110
# Shear Modulus (GPa) = 10.63732 22.33646 16.48689
#
# Velocity S-wave (km/s) = 2.23760 3.24245 2.78571
# Velocity P-wave (km/s) = 4.65590 6.21988 5.49383
#
# Compressibility (1/GPa) = 0.03137576
#
# Stress axis : x y z
#
# Youngs Moduli (GPa) = 73.50384 39.35012 52.00154
#
# Poissons Ratio (x) = 0.23340 0.20384
# Poissons Ratio (y) = 0.43599 0.18641
# Poissons Ratio (z) = 0.28812 0.14106
#
# Static dielectric constant tensor:
#      x y z
#    x 3.747870 -0.020990 0.029620 
#    y -0.020990 3.789220 0.028700 
#    z 0.029620 0.028700 3.731050 
# 
# 
# High freq. dielectric constant tensor:
#      x y z
#    x 1.830430 0.002190 0.000070 
#    y 0.002190 1.829330 -0.003430 
#    z 0.000070 -0.003430 1.830300 
# 
# From -- ./inp_files/188614.got.cif
#   From: 2010.06.25/outbox.cif.g09.slc.cpg/sg2_95_cif.got.tgz:188614.got - 2010.06.27 13:26:56.
