data_PCOD8011622
_publ_section_title
;
Structure prediction by ZEFSAII (Michael W. Deem and Ramdas Pophale) SiO2 
 PCOD8011622
Probable space group: P -1
;
_chemical_formula_sum "Si O2"
_cell_formula_units_Z 14
_cell_length_a 8.160546
_cell_length_b 14.384314
_cell_length_c 18.880507
_cell_angle_alpha 144.383208
_cell_angle_beta 145.533420
_cell_angle_gamma 35.107364
_cell_volume 652.797460
_symmetry_space_group_name_H-M "P -1"
_symmetry_group_IT_number 2
_symmetry_cell_setting 'triclinic'
loop_
_space_group_symop_operation_xyz
x,y,z
-x,-y,-z
loop_
_atom_site_type_symbol
_atom_site_label
_atom_site_fract_x
_atom_site_fract_y
_atom_site_fract_z
Si Si1 0.992487 0.013769 0.295556
Si Si2 0.131874 0.401606 0.818152
Si Si3 0.866125 0.141967 0.600593
Si Si4 0.663045 0.357162 0.867806
Si Si5 0.844292 0.738027 0.573438
Si Si6 0.386942 0.377634 0.337383
Si Si7 0.111951 0.550672 0.685789
O O1 0.641821 0.183017 0.280064
O O2 0.217397 0.072899 0.364268
O O3 0.124727 0.962983 0.389805
O O4 0.028128 0.832529 0.157574
O O5 0.422409 0.327017 0.818168
O O6 0.090778 0.243944 0.746697
O O7 0.790386 0.515702 0.729475
O O8 0.198377 0.515565 0.972140
O O9 0.489583 0.267690 0.527126
O O10 0.000000 0.000000 0.500000
O O11 0.475148 0.445792 0.782150
O O12 0.003999 0.590299 0.476853
O O13 0.079852 0.688191 0.695771
O O14 0.500000 0.500000 0.500000
O O15 0.130407 0.341225 0.270592
#
# Coordination Sequence:
#
# PCOD8011622 Si02
#       7
#     2   2   2   2   2   2   2
#     4  12  24  37  64  96 131 160 214 266 310 369
#     4  10  24  44  67  88 132 169 209 251 323 383
#     4  12  24  38  64 100 126 161 209 271 315 365
#     4  10  23  45  65  92 123 176 209 255 311 384
#     4  11  22  37  63  95 123 165 208 262 313 370
#     4  11  21  39  64  93 125 163 204 268 316 367
#     4  10  21  39  63  88 125 167 210 250 323 372
#
# _framework density 21.446162000000001
#
# number of rings (size 3 to 8) (size 9 to 14) (size 15 to 20)
#    0.000    1.143    2.857    3.857    4.000    1.143 
#    0.000    1.429    0.000    6.000    0.000    0.000 
#    0.000    0.000    0.000    0.000    0.000    0.000 
#
# Total GULP energy -173516.680019 kJ/mol
# GULP energy per Si atom -12394.048573 kJ/mol
# Density = 2.139735 g / cm^3
# Si number density = 21.446162 Si / 1000 Ang^3
#
#
#
# Elastic Constant Matrix: (Units=GPa)
#
#
# Indices 1 2 3 4 5 6 
#
# 1 95.0950 51.7703 46.6681 14.2842 -3.7814 11.4274
# 2 51.7703 119.3772 56.6525 11.7231 -5.7929 -0.7543
# 3 46.6681 56.6525 106.2209 8.1978 -6.1193 12.1317
# 4 14.2842 11.7231 8.1978 30.8041 1.6159 -8.6393
# 5 -3.7814 -5.7929 -6.1193 1.6159 33.0638 1.6458
# 6 11.4274 -0.7543 12.1317 -8.6393 1.6458 55.2595
#
#
#
# Elastic Compliance Matrix: (Units=1/GPa)
#
#
# Indices 1 2 3 4 5 6 
#
# 1 0.016219 -0.004676 -0.003737 -0.005777 0.000802 -0.003524
# 2 -0.004676 0.012887 -0.004944 -0.000879 0.000748 0.002069
# 3 -0.003737 -0.004944 0.014150 -0.000958 0.001501 -0.002596
# 4 -0.005777 -0.000879 -0.000958 0.037984 -0.003218 0.007427
# 5 0.000802 0.000748 0.001501 -0.003218 0.030998 -0.001911
# 6 -0.003524 0.002069 -0.002596 0.007427 -0.001911 0.020641
#
#
# Mechanical properties :
#
#
# Convention : Reuss Voigt Hill
#
# Bulk Modulus (GPa) = 60.45570 70.09722 65.27646
# Shear Modulus (GPa) = 30.28364 34.86563 32.57464
#
# Velocity S-wave (km/s) = 3.76184 4.03641 3.90154
# Velocity P-wave (km/s) = 6.86435 7.38103 7.12737
#
# Compressibility (1/GPa) = 0.01654104
#
# Stress axis : x y z
#
# Youngs Moduli (GPa) = 61.65730 77.60001 70.67185
#
# Poissons Ratio (x) = 0.36286 0.26411
# Poissons Ratio (y) = 0.28831 0.34939
# Poissons Ratio (z) = 0.23042 0.38365
#
# Static dielectric constant tensor:
#      x y z
#    x 4.174890 -0.048400 -0.088960 
#    y -0.048400 3.963050 0.007180 
#    z -0.088960 0.007180 3.537870 
# 
# 
# High freq. dielectric constant tensor:
#      x y z
#    x 1.861980 -0.001910 -0.012320 
#    y -0.001910 1.846350 0.001260 
#    z -0.012320 0.001260 1.805860 
# 
# From -- ./inp_files/184006.got.cif
#   From: 2010.06.25/outbox.cif.g09.slc.cpg/sg2_93_cif.got.tgz:184006.got - 2010.06.27 13:26:56.
