data_PCOD8011812
_publ_section_title
;
Structure prediction by ZEFSAII (Michael W. Deem and Ramdas Pophale) SiO2 
 PCOD8011812
Probable space group: P -1
;
_chemical_formula_sum "Si O2"
_cell_formula_units_Z 16
_cell_length_a 13.897069
_cell_length_b 9.765416
_cell_length_c 20.220707
_cell_angle_alpha 47.361261
_cell_angle_beta 142.049460
_cell_angle_gamma 154.618089
_cell_volume 716.970575
_symmetry_space_group_name_H-M "P -1"
_symmetry_group_IT_number 2
_symmetry_cell_setting 'triclinic'
loop_
_space_group_symop_operation_xyz
x,y,z
-x,-y,-z
loop_
_atom_site_type_symbol
_atom_site_label
_atom_site_fract_x
_atom_site_fract_y
_atom_site_fract_z
Si Si1 0.743383 0.113615 0.067827
Si Si2 0.200484 0.628179 0.336999
Si Si3 0.623615 0.879963 0.817383
Si Si4 0.951537 0.534440 0.359286
Si Si5 0.217649 0.967403 0.479979
Si Si6 0.494209 0.572234 0.194331
Si Si7 0.943042 0.006305 0.392372
Si Si8 0.066232 0.768117 0.006285
O O1 0.014855 0.505014 0.090282
O O2 0.728663 0.912736 0.169631
O O3 0.724154 0.031069 0.007329
O O4 0.500000 0.000000 0.000000
O O5 0.961965 0.249045 0.317487
O O6 0.152829 0.699063 0.354114
O O7 0.216431 0.789879 0.233979
O O8 0.467444 0.763962 0.445674
O O9 0.333949 0.667798 0.755955
O O10 0.593466 0.693069 0.807380
O O11 0.795308 0.980026 0.941627
O O12 0.923157 0.313102 0.454598
O O13 0.076849 0.814075 0.382576
O O14 0.166807 0.124409 0.428717
O O15 0.640043 0.658891 0.314699
O O16 0.220244 0.421007 0.109233
O O17 0.000000 0.000000 0.500000
#
# Coordination Sequence:
#
# PCOD8011812 Si02
#       8
#     2   2   2   2   2   2   2   2
#     4   9  21  43  67  94 128 168 210 270 322 379
#     4  11  24  40  66  97 125 175 220 264 326 389
#     4  11  24  41  66  98 133 169 216 267 321 393
#     4  10  21  39  64  91 131 170 213 269 325 379
#     4  10  21  42  61  91 129 170 218 270 322 382
#     4  11  24  43  64  96 134 169 217 266 323 387
#     4  12  24  44  66  95 132 174 217 276 323 380
#     4  10  22  43  70  97 128 169 215 264 325 387
#
# _framework density 22.316117999999999
#
# number of rings (size 3 to 8) (size 9 to 14) (size 15 to 20)
#    0.000    1.500    2.500    1.875    0.000    7.500 
#    4.500    0.000    0.000    0.000    0.000    0.000 
#    0.000    0.000    0.000    0.000    0.000    0.000 
#
# Total GULP energy -198350.172188 kJ/mol
# GULP energy per Si atom -12396.885762 kJ/mol
# Density = 2.226533 g / cm^3
# Si number density = 22.316118 Si / 1000 Ang^3
#
#
#
# Elastic Constant Matrix: (Units=GPa)
#
#
# Indices 1 2 3 4 5 6 
#
# 1 156.4251 38.7049 57.2179 13.3743 -11.2315 1.6656
# 2 38.7049 61.7472 35.4092 2.7758 -10.8988 -10.7735
# 3 57.2179 35.4092 115.2850 25.9865 -15.2595 -2.8452
# 4 13.3743 2.7758 25.9865 29.4105 -13.2347 1.3634
# 5 -11.2315 -10.8988 -15.2595 -13.2347 32.1210 4.7844
# 6 1.6656 -10.7735 -2.8452 1.3634 4.7844 37.9748
#
#
#
# Elastic Compliance Matrix: (Units=1/GPa)
#
#
# Indices 1 2 3 4 5 6 
#
# 1 0.008508 -0.003921 -0.002850 -0.000807 0.000211 -0.001697
# 2 -0.003921 0.023844 -0.006110 0.007404 0.006055 0.005450
# 3 -0.002850 -0.006110 0.014380 -0.011218 -0.000858 -0.000020
# 4 -0.000807 0.007404 -0.011218 0.052201 0.018849 -0.002954
# 5 0.000211 0.006055 -0.000858 0.018849 0.041249 -0.004229
# 6 -0.001697 0.005450 -0.000020 -0.002954 -0.004229 0.028591
#
#
# Mechanical properties :
#
#
# Convention : Reuss Voigt Hill
#
# Bulk Modulus (GPa) = 47.69076 66.23572 56.96324
# Shear Modulus (GPa) = 24.81071 33.37628 29.09349
#
# Velocity S-wave (km/s) = 3.33796 3.87151 3.61459
# Velocity P-wave (km/s) = 6.02270 7.05194 6.55755
#
# Compressibility (1/GPa) = 0.02096842
#
# Stress axis : x y z
#
# Youngs Moduli (GPa) = 117.53897 41.93982 69.53936
#
# Poissons Ratio (x) = 0.16444 0.19822
# Poissons Ratio (y) = 0.46086 0.42491
# Poissons Ratio (z) = 0.33503 0.25627
#
# Static dielectric constant tensor:
#      x y z
#    x 4.070770 -0.072670 -0.066420 
#    y -0.072670 4.112500 -0.124150 
#    z -0.066420 -0.124150 3.909910 
# 
# 
# High freq. dielectric constant tensor:
#      x y z
#    x 1.893100 -0.009460 -0.003680 
#    y -0.009460 1.870850 0.003720 
#    z -0.003680 0.003720 1.865740 
# 
# From -- ./inp_files/566655.got.cif
#   From: 2010.06.25/outbox.cif.g09.slc.cpg/sg2_284_cif.got.tgz:566655.got - 2010.06.27 13:26:56.
