data_PCOD8011964
_publ_section_title
;
Structure prediction by ZEFSAII (Michael W. Deem and Ramdas Pophale) SiO2 
 PCOD8011964
Probable space group: P -1
;
_chemical_formula_sum "Si O2"
_cell_formula_units_Z 14
_cell_length_a 6.794548
_cell_length_b 10.699747
_cell_length_c 11.380983
_cell_angle_alpha 51.977378
_cell_angle_beta 107.439621
_cell_angle_gamma 107.134633
_cell_volume 615.137627
_symmetry_space_group_name_H-M "P -1"
_symmetry_group_IT_number 2
_symmetry_cell_setting 'triclinic'
loop_
_space_group_symop_operation_xyz
x,y,z
-x,-y,-z
loop_
_atom_site_type_symbol
_atom_site_label
_atom_site_fract_x
_atom_site_fract_y
_atom_site_fract_z
Si Si1 0.922376 0.652146 0.462602
Si Si2 0.623576 0.588125 0.791741
Si Si3 0.011875 0.187872 0.370228
Si Si4 0.507730 0.355396 0.709689
Si Si5 0.352518 0.682353 0.881686
Si Si6 0.882549 0.199990 0.801547
Si Si7 0.699090 0.844918 0.009170
O O1 0.668161 0.631871 0.428446
O O2 0.000000 0.500000 0.500000
O O3 0.998009 0.700398 0.580135
O O4 0.022383 0.801237 0.312118
O O5 0.537551 0.519563 0.691877
O O6 0.415462 0.612457 0.809727
O O7 0.779719 0.750965 0.701683
O O8 0.735304 0.457701 0.960374
O O9 0.821054 0.206042 0.239179
O O10 0.000000 0.000000 0.500000
O O11 0.735381 0.338528 0.706974
O O12 0.432477 0.205084 0.868150
O O13 0.565712 0.784340 0.907199
O O14 0.739891 0.035291 0.900903
O O15 0.081400 0.228239 0.909478
#
# Coordination Sequence:
#
# PCOD8011964 Si02
#       7
#     2   2   2   2   2   2   2
#     4  11  25  43  63  95 135 177 222 260 326 404
#     4  10  23  44  69  95 125 178 228 274 324 392
#     4  12  28  43  64 103 141 176 219 271 337 406
#     4  10  21  40  69  94 122 169 223 270 317 387
#     4  10  23  44  69  94 132 176 222 272 332 395
#     4  10  21  39  65  92 126 164 214 276 327 377
#     4   9  21  39  63  97 123 162 215 278 327 379
#
# _framework density 22.759136000000002
#
# number of rings (size 3 to 8) (size 9 to 14) (size 15 to 20)
#    0.000    1.714    0.000    2.571    4.000   10.857 
#    2.571    0.000    0.000    0.000    0.000    0.000 
#    0.000    0.000    0.000    0.000    0.000    0.000 
#
# Total GULP energy -173556.016044 kJ/mol
# GULP energy per Si atom -12396.858289 kJ/mol
# Density = 2.270734 g / cm^3
# Si number density = 22.759136 Si / 1000 Ang^3
#
#
#
# Elastic Constant Matrix: (Units=GPa)
#
#
# Indices 1 2 3 4 5 6 
#
# 1 90.7145 31.3727 25.2147 7.7733 3.6851 14.3253
# 2 31.3727 89.6830 34.2955 1.1028 -2.3718 14.8532
# 3 25.2147 34.2955 92.5696 -2.4124 6.7571 13.1930
# 4 7.7733 1.1028 -2.4124 33.0135 3.1303 -4.8544
# 5 3.6851 -2.3718 6.7571 3.1303 34.2286 -2.0286
# 6 14.3253 14.8532 13.1930 -4.8544 -2.0286 36.1313
#
#
#
# Elastic Compliance Matrix: (Units=1/GPa)
#
#
# Indices 1 2 3 4 5 6 
#
# 1 0.013721 -0.003403 -0.001928 -0.003716 -0.001224 -0.003905
# 2 -0.003403 0.014508 -0.004180 -0.000635 0.002074 -0.003058
# 3 -0.001928 -0.004180 0.013480 0.001511 -0.003024 -0.002406
# 4 -0.003716 -0.000635 0.001511 0.032333 -0.002580 0.005382
# 5 -0.001224 0.002074 -0.003024 -0.002580 0.030448 0.002100
# 6 -0.003905 -0.003058 -0.002406 0.005382 0.002100 0.032202
#
#
# Mechanical properties :
#
#
# Convention : Reuss Voigt Hill
#
# Bulk Modulus (GPa) = 44.07711 50.52588 47.30150
# Shear Modulus (GPa) = 30.62299 32.81364 31.71831
#
# Velocity S-wave (km/s) = 3.67212 3.80120 3.73721
# Velocity P-wave (km/s) = 6.11458 6.44313 6.28100
#
# Compressibility (1/GPa) = 0.02268751
#
# Stress axis : x y z
#
# Youngs Moduli (GPa) = 72.88071 68.92579 74.18641
#
# Poissons Ratio (x) = 0.23452 0.14301
# Poissons Ratio (y) = 0.24798 0.31013
# Poissons Ratio (z) = 0.14049 0.28814
#
# Static dielectric constant tensor:
#      x y z
#    x 4.186600 0.202190 -0.122870 
#    y 0.202190 3.867970 -0.020390 
#    z -0.122870 -0.020390 4.281130 
# 
# 
# High freq. dielectric constant tensor:
#      x y z
#    x 1.903210 0.018210 -0.011790 
#    y 0.018210 1.881450 -0.002970 
#    z -0.011790 -0.002970 1.912170 
# 
# From -- ./inp_files/71612.got.cif
#   From: 2010.06.25/outbox.cif.g09.slc.cpg/sg2_36_cif.got.tgz:71612.got - 2010.06.27 13:26:56.
