data_PCOD8011411
_publ_section_title
;
Structure prediction by ZEFSAII (Michael W. Deem and Ramdas Pophale) SiO2 
 PCOD8011411
Probable space group: P -1
;
_chemical_formula_sum "Si O2"
_cell_formula_units_Z 14
_cell_length_a 24.398619
_cell_length_b 7.096240
_cell_length_c 11.662924
_cell_angle_alpha 113.598965
_cell_angle_beta 25.611590
_cell_angle_gamma 125.396205
_cell_volume 667.546358
_symmetry_space_group_name_H-M "P -1"
_symmetry_group_IT_number 2
_symmetry_cell_setting 'triclinic'
loop_
_space_group_symop_operation_xyz
x,y,z
-x,-y,-z
loop_
_atom_site_type_symbol
_atom_site_label
_atom_site_fract_x
_atom_site_fract_y
_atom_site_fract_z
Si Si1 0.467281 0.741517 0.954812
Si Si2 0.855644 0.646348 0.603910
Si Si3 0.128357 0.150159 0.140922
Si Si4 0.301090 0.073667 0.613408
Si Si5 0.025262 0.683275 0.684955
Si Si6 0.756986 0.819471 0.488360
Si Si7 0.867073 0.474674 0.168853
O O1 0.291944 0.516824 0.238742
O O2 0.523129 0.768187 0.722192
O O3 0.574110 0.684390 0.814757
O O4 0.500000 0.000000 0.000000
O O5 0.818715 0.767468 0.808103
O O6 0.903553 0.470209 0.522724
O O7 0.991669 0.860553 0.322802
O O8 0.072499 0.316688 0.235729
O O9 0.270164 0.190348 0.810015
O O10 0.196394 0.062746 0.700865
O O11 0.268344 0.809608 0.643585
O O12 0.160415 0.962279 0.523258
O O13 0.915744 0.557547 0.968224
O O14 0.803624 0.628245 0.379371
O O15 0.000000 0.500000 0.000000
#
# Coordination Sequence:
#
# PCOD8011411 Si02
#       7
#     2   2   2   2   2   2   2
#     4  10  21  44  62  92 129 163 200 262 320 373
#     4  11  24  42  63  89 128 162 215 256 311 365
#     4  11  24  41  64  92 118 173 212 259 301 364
#     4  10  21  39  61  88 125 162 208 247 315 367
#     4  12  20  37  63  92 128 154 210 262 312 363
#     4  10  22  36  62  93 125 158 204 255 315 374
#     4  12  20  34  63  96 125 162 204 259 308 372
#
# _framework density 20.972327
#
# number of rings (size 3 to 8) (size 9 to 14) (size 15 to 20)
#    0.857    0.286    5.714    1.714    0.000    0.571 
#    2.571    1.429    0.000    1.714    0.000    0.000 
#    0.000    0.000    0.000    0.000    0.000    0.000 
#
# Total GULP energy -173537.204381 kJ/mol
# GULP energy per Si atom -12395.514599 kJ/mol
# Density = 2.092459 g / cm^3
# Si number density = 20.972327 Si / 1000 Ang^3
#
#
#
# Elastic Constant Matrix: (Units=GPa)
#
#
# Indices 1 2 3 4 5 6 
#
# 1 49.8620 13.5934 8.1404 2.5705 -2.5389 -5.0973
# 2 13.5934 104.1054 28.0512 18.1859 -16.9400 -10.6341
# 3 8.1404 28.0512 84.8009 15.0718 -4.1973 2.6749
# 4 2.5705 18.1859 15.0718 36.4668 3.1970 -3.7947
# 5 -2.5389 -16.9400 -4.1973 3.1970 28.6734 9.4561
# 6 -5.0973 -10.6341 2.6749 -3.7947 9.4561 32.9489
#
#
#
# Elastic Compliance Matrix: (Units=1/GPa)
#
#
# Indices 1 2 3 4 5 6 
#
# 1 0.021157 -0.002286 -0.001520 0.000649 -0.000744 0.002947
# 2 -0.002286 0.012944 -0.002739 -0.005659 0.007240 0.001316
# 3 -0.001520 -0.002739 0.013896 -0.004787 0.001919 -0.003350
# 4 0.000649 -0.005659 -0.004787 0.033551 -0.009456 0.005240
# 5 -0.000744 0.007240 0.001919 -0.009456 0.044293 -0.011735
# 6 0.002947 0.001316 -0.003350 0.005240 -0.011735 0.035474
#
#
# Mechanical properties :
#
#
# Convention : Reuss Voigt Hill
#
# Bulk Modulus (GPa) = 28.64923 37.59312 33.12118
# Shear Modulus (GPa) = 26.87592 32.21670 29.54631
#
# Velocity S-wave (km/s) = 3.58368 3.92363 3.75750
# Velocity P-wave (km/s) = 5.55102 6.20407 5.88661
#
# Compressibility (1/GPa) = 0.03490495
#
# Stress axis : x y z
#
# Youngs Moduli (GPa) = 47.26635 77.25847 71.96422
#
# Poissons Ratio (x) = 0.17665 0.10936
# Poissons Ratio (y) = 0.10807 0.19714
# Poissons Ratio (z) = 0.07183 0.21164
#
# Static dielectric constant tensor:
#      x y z
#    x 3.557570 -0.276390 0.173890 
#    y -0.276390 3.947340 0.028830 
#    z 0.173890 0.028830 3.793240 
# 
# 
# High freq. dielectric constant tensor:
#      x y z
#    x 1.796280 -0.012460 0.014700 
#    y -0.012460 1.827330 0.012110 
#    z 0.014700 0.012110 1.816290 
# 
# From -- ./inp_files/473297.got.cif
#   From: 2010.06.25/outbox.cif.g09.slc.cpg/sg2_237_cif.got.tgz:473297.got - 2010.06.27 13:26:56.
