data_PCOD8011489
_publ_section_title
;
Structure prediction by ZEFSAII (Michael W. Deem and Ramdas Pophale) SiO2 
 PCOD8011489
Probable space group: P -1
;
_chemical_formula_sum "Si O2"
_cell_formula_units_Z 12
_cell_length_a 12.214692
_cell_length_b 12.291252
_cell_length_c 9.995863
_cell_angle_alpha 43.202333
_cell_angle_beta 59.945539
_cell_angle_gamma 34.267515
_cell_volume 558.009895
_symmetry_space_group_name_H-M "P -1"
_symmetry_group_IT_number 2
_symmetry_cell_setting 'triclinic'
loop_
_space_group_symop_operation_xyz
x,y,z
-x,-y,-z
loop_
_atom_site_type_symbol
_atom_site_label
_atom_site_fract_x
_atom_site_fract_y
_atom_site_fract_z
Si Si1 0.498969 0.289271 0.819489
Si Si2 0.167133 0.431475 0.039068
Si Si3 0.595390 0.027257 0.523344
Si Si4 0.893491 0.742428 0.166348
Si Si5 0.387202 0.473287 0.429567
Si Si6 0.990282 0.721552 0.414081
O O1 0.278596 0.451447 0.860571
O O2 0.497661 0.302852 0.647933
O O3 0.545514 0.414089 0.744626
O O4 0.671184 0.996833 0.019046
O O5 0.000000 0.500000 0.000000
O O6 0.061444 0.619372 0.062250
O O7 0.335571 0.142663 0.240605
O O8 0.438531 0.311724 0.415751
O O9 0.500000 0.000000 0.500000
O O10 0.781676 0.940546 0.423910
O O11 0.898272 0.553367 0.374337
O O12 0.946043 0.791660 0.221620
O O13 0.143821 0.707880 0.382725
#
# Coordination Sequence:
#
# PCOD8011489 Si02
#       6
#     2   2   2   2   2   2
#     4  11  24  40  59  88 125 159 194 242 300 357
#     4  11  22  37  62  90 115 154 204 248 291 346
#     4  11  22  39  64  89 116 155 202 248 291 345
#     4  10  21  39  62  87 117 153 200 247 292 349
#     4  11  24  40  59  87 124 161 195 241 300 355
#     4  10  21  39  62  87 116 154 200 246 293 348
#
# _framework density 21.504996999999999
#
# number of rings (size 3 to 8) (size 9 to 14) (size 15 to 20)
#    0.000    1.333    0.000    8.000    0.000    4.000 
#    0.000   10.000    0.000    0.000    0.000    0.000 
#    0.000    0.000    0.000    0.000    0.000    0.000 
#
# Total GULP energy -148834.750597 kJ/mol
# GULP energy per Si atom -12402.895883 kJ/mol
# Density = 2.145605 g / cm^3
# Si number density = 21.504997 Si / 1000 Ang^3
#
#
#
# Elastic Constant Matrix: (Units=GPa)
#
#
# Indices 1 2 3 4 5 6 
#
# 1 122.8971 38.2743 23.6300 8.8606 -14.7882 -23.3397
# 2 38.2743 106.8682 27.9894 13.1195 -17.8729 -11.4386
# 3 23.6300 27.9894 67.2586 13.1991 2.5961 -13.4673
# 4 8.8606 13.1195 13.1991 23.5274 -11.0099 3.5592
# 5 -14.7882 -17.8729 2.5961 -11.0099 34.0690 4.9765
# 6 -23.3397 -11.4386 -13.4673 3.5592 4.9765 40.8692
#
#
#
# Elastic Compliance Matrix: (Units=1/GPa)
#
#
# Indices 1 2 3 4 5 6 
#
# 1 0.010405 -0.002249 -0.001622 -0.001352 0.002350 0.004610
# 2 -0.002249 0.012359 -0.004309 -0.001104 0.005451 0.000187
# 3 -0.001622 -0.004309 0.022358 -0.015858 -0.010954 0.007950
# 4 -0.001352 -0.001104 -0.015858 0.065761 0.023469 -0.014892
# 5 0.002350 0.005451 -0.010954 0.023469 0.042820 -0.008000
# 6 0.004610 0.000187 0.007950 -0.014892 -0.008000 0.032044
#
#
# Mechanical properties :
#
#
# Convention : Reuss Voigt Hill
#
# Bulk Modulus (GPa) = 34.76937 52.97903 43.87420
# Shear Modulus (GPa) = 23.61910 33.50180 28.56045
#
# Velocity S-wave (km/s) = 3.31767 3.95126 3.64824
# Velocity P-wave (km/s) = 5.55689 6.74579 6.18000
#
# Compressibility (1/GPa) = 0.02876095
#
# Stress axis : x y z
#
# Youngs Moduli (GPa) = 96.10843 80.91437 44.72722
#
# Poissons Ratio (x) = 0.18200 0.07254
# Poissons Ratio (y) = 0.21618 0.19273
# Poissons Ratio (z) = 0.15587 0.34867
#
# Static dielectric constant tensor:
#      x y z
#    x 3.841220 -0.091990 0.170110 
#    y -0.091990 3.865620 0.188400 
#    z 0.170110 0.188400 3.861220 
# 
# 
# High freq. dielectric constant tensor:
#      x y z
#    x 1.849520 -0.016160 0.018640 
#    y -0.016160 1.844260 0.015070 
#    z 0.018640 0.015070 1.835580 
# 
# From -- ./inp_files/173809.got.cif
#   From: 2010.06.25/outbox.cif.g09.slc.cpg/sg2_87_cif.got.tgz:173809.got - 2010.06.27 13:26:56.
