data_PCOD8011524
_publ_section_title
;
Structure prediction by ZEFSAII (Michael W. Deem and Ramdas Pophale) SiO2 
 PCOD8011524
Probable space group: P -1
;
_chemical_formula_sum "Si O2"
_cell_formula_units_Z 14
_cell_length_a 11.403315
_cell_length_b 9.028948
_cell_length_c 18.627851
_cell_angle_alpha 42.025874
_cell_angle_beta 145.991079
_cell_angle_gamma 114.982004
_cell_volume 614.900501
_symmetry_space_group_name_H-M "P -1"
_symmetry_group_IT_number 2
_symmetry_cell_setting 'triclinic'
loop_
_space_group_symop_operation_xyz
x,y,z
-x,-y,-z
loop_
_atom_site_type_symbol
_atom_site_label
_atom_site_fract_x
_atom_site_fract_y
_atom_site_fract_z
Si Si1 0.842192 0.474882 0.595679
Si Si2 0.899928 0.629570 0.721173
Si Si3 0.585270 0.510263 0.702245
Si Si4 0.635591 0.389414 0.001147
Si Si5 0.710208 0.063855 0.019058
Si Si6 0.738311 0.208410 0.428431
Si Si7 0.251043 0.100389 0.712815
O O1 0.867824 0.484520 0.690205
O O2 0.619096 0.429598 0.483196
O O3 0.094828 0.239781 0.777405
O O4 0.777081 0.747744 0.429270
O O5 0.767955 0.596069 0.735005
O O6 0.186577 0.501836 0.931062
O O7 0.789353 0.926919 0.539142
O O8 0.455225 0.671935 0.649251
O O9 0.740529 0.208586 0.912853
O O10 0.629950 0.212566 0.128057
O O11 0.752260 0.177878 0.071833
O O12 0.372402 0.627609 0.760268
O O13 0.427872 0.127345 0.850295
O O14 0.980776 0.215394 0.568517
#
# Coordination Sequence:
#
# PCOD8011524 Si02
#       7
#     2   2   2   2   2   2   2
#     4  11  23  39  61  87 121 159 193 238 292 352
#     4  11  24  40  59  88 122 157 196 238 292 352
#     4  10  23  41  62  87 116 156 202 242 287 345
#     4  10  22  37  60  89 118 153 194 244 295 342
#     4  10  22  38  61  90 117 153 197 243 292 346
#     4  10  22  40  64  89 116 153 196 248 295 340
#     4  10  21  39  62  90 119 151 198 242 292 350
#
# _framework density 22.767911000000002
#
# number of rings (size 3 to 8) (size 9 to 14) (size 15 to 20)
#    0.000    1.714    0.000    3.857    0.000   16.571 
#    0.000    4.286    0.000    0.000    0.000    0.000 
#    0.000    0.000    0.000    0.000    0.000    0.000 
#
# Total GULP energy -173571.039793 kJ/mol
# GULP energy per Si atom -12397.931414 kJ/mol
# Density = 2.271609 g / cm^3
# Si number density = 22.767911 Si / 1000 Ang^3
#
#
#
# Elastic Constant Matrix: (Units=GPa)
#
#
# Indices 1 2 3 4 5 6 
#
# 1 34.9937 2.6460 13.6801 6.9527 -5.6002 19.8740
# 2 2.6460 69.9082 25.0202 13.2333 -3.9918 9.7430
# 3 13.6801 25.0202 120.4260 6.5213 -24.8153 20.3024
# 4 6.9527 13.2333 6.5213 33.8762 1.3290 -4.8333
# 5 -5.6002 -3.9918 -24.8153 1.3290 20.3716 2.8542
# 6 19.8740 9.7430 20.3024 -4.8333 2.8542 35.7678
#
#
#
# Elastic Compliance Matrix: (Units=1/GPa)
#
#
# Indices 1 2 3 4 5 6 
#
# 1 0.064329 0.008686 0.008720 -0.026897 0.038738 -0.049785
# 2 0.008686 0.018283 -0.000778 -0.010687 0.007316 -0.011393
# 3 0.008720 -0.000778 0.015650 -0.007798 0.024129 -0.016496
# 4 -0.026897 -0.010687 -0.007798 0.046115 -0.026285 0.030612
# 5 0.038738 0.007316 0.024129 -0.026285 0.099097 -0.048673
# 6 -0.049785 -0.011393 -0.016496 0.030612 -0.048673 0.076108
#
#
# Mechanical properties :
#
#
# Convention : Reuss Voigt Hill
#
# Bulk Modulus (GPa) = 7.60352 34.22448 20.91400
# Shear Modulus (GPa) = 15.14396 30.26856 22.70626
#
# Velocity S-wave (km/s) = 2.58184 3.65010 3.16142
# Velocity P-wave (km/s) = 3.49781 5.72965 4.74676
#
# Compressibility (1/GPa) = 0.13151808
#
# Stress axis : x y z
#
# Youngs Moduli (GPa) = 15.54508 54.69604 63.89658
#
# Poissons Ratio (x) = -0.47511 -0.55717
# Poissons Ratio (y) = -0.13503 0.04973
# Poissons Ratio (z) = -0.13555 0.04257
#
# Static dielectric constant tensor:
#      x y z
#    x 3.804540 0.266700 -0.376500 
#    y 0.266700 4.025600 0.013200 
#    z -0.376500 0.013200 4.441510 
# 
# 
# High freq. dielectric constant tensor:
#      x y z
#    x 1.875900 0.012850 -0.023420 
#    y 0.012850 1.895360 0.008130 
#    z -0.023420 0.008130 1.915900 
# 
# From -- ./inp_files/273625.got.cif
#   From: 2010.06.25/outbox.cif.g09.slc.cpg/sg2_137_cif.got.tgz:273625.got - 2010.06.27 13:26:56.
