data_PCOD8011883
_publ_section_title
;
Structure prediction by ZEFSAII (Michael W. Deem and Ramdas Pophale) SiO2 
 PCOD8011883
Probable space group: P -1
;
_chemical_formula_sum "Si O2"
_cell_formula_units_Z 14
_cell_length_a 8.747586
_cell_length_b 12.712667
_cell_length_c 5.521692
_cell_angle_alpha 90.123636
_cell_angle_beta 95.132485
_cell_angle_gamma 90.406435
_cell_volume 611.560792
_symmetry_space_group_name_H-M "P -1"
_symmetry_group_IT_number 2
_symmetry_cell_setting 'triclinic'
loop_
_space_group_symop_operation_xyz
x,y,z
-x,-y,-z
loop_
_atom_site_type_symbol
_atom_site_label
_atom_site_fract_x
_atom_site_fract_y
_atom_site_fract_z
Si Si1 0.993063 0.329220 0.940261
Si Si2 0.233103 0.625876 0.722282
Si Si3 0.492750 0.301129 0.941856
Si Si4 0.732144 0.206750 0.665444
Si Si5 0.901126 0.994889 0.730086
Si Si6 0.775133 0.598484 0.379351
Si Si7 0.248579 0.222197 0.224695
O O1 0.125108 0.244102 0.999308
O O2 0.933150 0.392966 0.167922
O O3 0.056944 0.398929 0.727966
O O4 0.841169 0.263743 0.869284
O O5 0.237932 0.738720 0.589415
O O6 0.250809 0.524129 0.545785
O O7 0.376248 0.624342 0.926905
O O8 0.558264 0.227338 0.733595
O O9 0.359780 0.376669 0.829032
O O10 0.419430 0.223240 0.135701
O O11 0.774166 0.085026 0.684116
O O12 0.796415 0.891027 0.679854
O O13 0.000000 0.000000 0.500000
O O14 0.000000 0.000000 0.000000
O O15 0.768444 0.680680 0.593988
#
# Coordination Sequence:
#
# PCOD8011883 Si02
#       7
#     2   2   2   2   2   2   2
#     4  10  21  39  64  96 134 173 229 284 342 410
#     4  11  23  41  65  98 137 182 228 283 345 415
#     4  10  25  43  64  94 140 181 229 280 346 420
#     4  11  24  43  68  99 136 176 233 283 348 415
#     4  12  26  47  79 107 139 183 232 297 359 419
#     4  11  23  41  65  98 137 182 228 283 345 415
#     4  11  24  43  68  99 136 176 233 283 348 415
#
# _framework density 22.892247999999999
#
# number of rings (size 3 to 8) (size 9 to 14) (size 15 to 20)
#    0.000    1.143    1.429    4.286    4.000    9.714 
#    0.000    2.857    0.000    0.000    0.000    0.000 
#    0.000    0.000    0.000    0.000    0.000    0.000 
#
# Total GULP energy -173443.161865 kJ/mol
# GULP energy per Si atom -12388.797276 kJ/mol
# Density = 2.284014 g / cm^3
# Si number density = 22.892248 Si / 1000 Ang^3
#
#
#
# Elastic Constant Matrix: (Units=GPa)
#
#
# Indices 1 2 3 4 5 6 
#
# 1 103.3144 22.9835 21.1970 -0.0270 -37.3976 6.0945
# 2 22.9835 62.0842 -8.4212 -1.4255 0.7815 -1.3551
# 3 21.1970 -8.4212 83.2208 -3.8229 -24.7118 2.3640
# 4 -0.0270 -1.4255 -3.8229 27.0463 1.2236 -5.0178
# 5 -37.3976 0.7815 -24.7118 1.2236 40.1661 -3.5953
# 6 6.0945 -1.3551 2.3640 -5.0178 -3.5953 19.4271
#
#
#
# Elastic Compliance Matrix: (Units=1/GPa)
#
#
# Indices 1 2 3 4 5 6 
#
# 1 0.017063 -0.006678 -0.000395 -0.001713 0.015527 -0.003339
# 2 -0.006678 0.019039 0.002131 0.002038 -0.005093 0.002748
# 3 -0.000395 0.002131 0.015027 0.001944 0.008829 0.000580
# 4 -0.001713 0.002038 0.001944 0.039328 -0.000699 0.010472
# 5 0.015527 -0.005093 0.008829 -0.000699 0.045072 0.001860
# 6 -0.003339 0.002748 0.000580 0.010472 0.001860 0.055692
#
#
# Mechanical properties :
#
#
# Convention : Reuss Voigt Hill
#
# Bulk Modulus (GPa) = 24.24573 35.57092 29.90833
# Shear Modulus (GPa) = 23.27164 31.51857 27.39511
#
# Velocity S-wave (km/s) = 3.19183 3.71458 3.46309
# Velocity P-wave (km/s) = 4.91914 5.82835 5.39294
#
# Compressibility (1/GPa) = 0.04124437
#
# Stress axis : x y z
#
# Youngs Moduli (GPa) = 58.60730 52.52327 66.54752
#
# Poissons Ratio (x) = 0.35074 0.02629
# Poissons Ratio (y) = 0.39137 -0.14179
# Poissons Ratio (z) = 0.02315 -0.11191
#
# Static dielectric constant tensor:
#      x y z
#    x 4.655200 -0.125760 -0.077980 
#    y -0.125760 4.118310 0.007730 
#    z -0.077980 0.007730 4.150330 
# 
# 
# High freq. dielectric constant tensor:
#      x y z
#    x 1.917950 -0.000850 -0.003830 
#    y -0.000850 1.892430 -0.001400 
#    z -0.003830 -0.001400 1.902870 
# 
# From -- ./inp_files/26737.got.cif
#   From: 2010.06.25/outbox.cif.g09.slc.cpg/sg2_14_cif.got.tgz:26737.got - 2010.06.27 13:26:56.
