data_PCOD8011990
_publ_section_title
;
Structure prediction by ZEFSAII (Michael W. Deem and Ramdas Pophale) SiO2 
 PCOD8011990
Probable space group: P -1
;
_chemical_formula_sum "Si O2"
_cell_formula_units_Z 12
_cell_length_a 7.467724
_cell_length_b 7.958405
_cell_length_c 21.547831
_cell_angle_alpha 150.330293
_cell_angle_beta 47.911771
_cell_angle_gamma 126.640694
_cell_volume 470.066168
_symmetry_space_group_name_H-M "P -1"
_symmetry_group_IT_number 2
_symmetry_cell_setting 'triclinic'
loop_
_space_group_symop_operation_xyz
x,y,z
-x,-y,-z
loop_
_atom_site_type_symbol
_atom_site_label
_atom_site_fract_x
_atom_site_fract_y
_atom_site_fract_z
Si Si1 0.730474 0.682677 0.475756
Si Si2 0.192059 0.813296 0.482159
Si Si3 0.438664 0.193721 0.183939
Si Si4 0.038948 0.947886 0.809816
Si Si5 0.171609 0.237463 0.744639
Si Si6 0.823871 0.755568 0.001157
O O1 0.500000 0.500000 0.500000
O O2 0.907826 0.804990 0.529776
O O3 0.873730 0.429735 0.315323
O O4 0.662930 0.998524 0.548638
O O5 0.288087 0.429397 0.342437
O O6 0.244981 0.007531 0.596018
O O7 0.252549 0.057751 0.130618
O O8 0.653047 0.429692 0.181276
O O9 0.548608 0.857755 0.083008
O O10 0.179453 0.025680 0.737829
O O11 0.123249 0.211249 0.927082
O O12 0.895328 0.370707 0.843818
O O13 0.000000 0.000000 0.000000
#
# Coordination Sequence:
#
# PCOD8011990 Si02
#       6
#     2   2   2   2   2   2
#     4  10  21  39  65  94 129 165 207 262 309 368
#     4  10  22  40  64  96 125 164 212 254 315 371
#     4  10  23  43  66  90 128 168 204 260 311 367
#     4  11  24  41  64  95 124 166 215 252 312 376
#     4  11  23  40  64  93 127 164 208 260 311 371
#     4  10  23  43  65  91 127 167 209 258 311 371
#
# _framework density 25.528320000000001
#
# number of rings (size 3 to 8) (size 9 to 14) (size 15 to 20)
#    0.000    1.667    0.000    4.000    0.000   10.000 
#    0.000    5.000    0.000    0.000    0.000    0.000 
#    0.000    0.000    0.000    0.000    0.000    0.000 
#
# Total GULP energy -148770.404459 kJ/mol
# GULP energy per Si atom -12397.533705 kJ/mol
# Density = 2.547022 g / cm^3
# Si number density = 25.528320 Si / 1000 Ang^3
#
#
#
# Elastic Constant Matrix: (Units=GPa)
#
#
# Indices 1 2 3 4 5 6 
#
# 1 114.2548 20.8652 36.4938 -8.6779 -23.1147 4.2613
# 2 20.8652 66.2598 -7.0507 -23.6035 4.0445 0.4305
# 3 36.4938 -7.0507 101.1311 11.9756 -20.0787 -21.9149
# 4 -8.6779 -23.6035 11.9756 35.0216 -7.8150 -5.6490
# 5 -23.1147 4.0445 -20.0787 -7.8150 34.9073 3.4883
# 6 4.2613 0.4305 -21.9149 -5.6490 3.4883 40.3204
#
#
#
# Elastic Compliance Matrix: (Units=1/GPa)
#
#
# Indices 1 2 3 4 5 6 
#
# 1 0.012833 -0.003825 -0.004693 0.003195 0.007362 -0.004056
# 2 -0.003825 0.021136 0.001703 0.012887 -0.001420 0.003033
# 3 -0.004693 0.001703 0.014398 -0.002919 0.003565 0.007586
# 4 0.003195 0.012887 -0.002919 0.041278 0.007881 0.003039
# 5 0.007362 -0.001420 0.003565 0.007881 0.037599 -0.000974
# 6 -0.004056 0.003033 0.007586 0.003039 -0.000974 0.029831
#
#
# Mechanical properties :
#
#
# Convention : Reuss Voigt Hill
#
# Bulk Modulus (GPa) = 28.78877 42.47358 35.63118
# Shear Modulus (GPa) = 27.42970 37.47237 32.45103
#
# Velocity S-wave (km/s) = 3.28148 3.83544 3.56923
# Velocity P-wave (km/s) = 5.06549 6.02396 5.56540
#
# Compressibility (1/GPa) = 0.03473577
#
# Stress axis : x y z
#
# Youngs Moduli (GPa) = 77.92175 47.31369 69.45507
#
# Poissons Ratio (x) = 0.18100 0.32597
# Poissons Ratio (y) = 0.29808 -0.11829
# Poissons Ratio (z) = 0.36570 -0.08058
#
# Static dielectric constant tensor:
#      x y z
#    x 4.710280 0.007780 -0.600670 
#    y 0.007780 4.487820 0.386730 
#    z -0.600670 0.386730 5.184550 
# 
# 
# High freq. dielectric constant tensor:
#      x y z
#    x 2.019150 0.007070 -0.032050 
#    y 0.007070 2.015940 0.012130 
#    z -0.032050 0.012130 2.024600 
# 
# From -- ./inp_files/606906.got.cif
#   From: 2010.06.25/outbox.cif.g09.slc.cpg/sg2_304_cif.got.tgz:606906.got - 2010.06.27 13:26:56.
