data_PCOD8011302
_publ_section_title
;
Structure prediction by ZEFSAII (Michael W. Deem and Ramdas Pophale) SiO2 
 PCOD8011302
Probable space group: P -1
;
_chemical_formula_sum "Si O2"
_cell_formula_units_Z 12
_cell_length_a 19.231463
_cell_length_b 15.441007
_cell_length_c 13.089811
_cell_angle_alpha 28.395351
_cell_angle_beta 26.070596
_cell_angle_gamma 19.660789
_cell_volume 559.532898
_symmetry_space_group_name_H-M "P -1"
_symmetry_group_IT_number 2
_symmetry_cell_setting 'triclinic'
loop_
_space_group_symop_operation_xyz
x,y,z
-x,-y,-z
loop_
_atom_site_type_symbol
_atom_site_label
_atom_site_fract_x
_atom_site_fract_y
_atom_site_fract_z
Si Si1 0.015545 0.087351 0.104541
Si Si2 0.477861 0.210138 0.258687
Si Si3 0.050094 0.662522 0.484022
Si Si4 0.828393 0.572497 0.736014
Si Si5 0.969075 0.323563 0.271753
Si Si6 0.251248 0.736770 0.532943
O O1 0.931744 0.956158 0.322100
O O2 0.289238 0.872275 0.957708
O O3 0.938022 0.189963 0.216239
O O4 0.890054 0.317926 0.950105
O O5 0.276494 0.480501 0.303963
O O6 0.421540 0.225698 0.196037
O O7 0.500000 0.000000 0.500000
O O8 0.115713 0.570225 0.610839
O O9 0.856940 0.678006 0.687488
O O10 0.000000 0.500000 0.500000
O O11 0.771009 0.372127 0.425062
O O12 0.196183 0.998612 0.310188
O O13 0.000000 0.500000 0.000000
O O14 0.500000 0.500000 0.500000
#
# Coordination Sequence:
#
# PCOD8011302 Si02
#       6
#     2   2   2   2   2   2
#     4  11  22  42  64  90 128 166 209 257 315 375
#     4  11  22  41  63  92 129 164 202 261 317 369
#     4  10  22  41  62  96 126 165 213 253 314 378
#     4  10  21  39  59  89 128 162 207 253 307 370
#     4  10  22  43  69  94 128 168 217 265 312 383
#     4  10  24  45  64  95 132 166 215 267 320 369
#
# _framework density 21.446459999999998
#
# number of rings (size 3 to 8) (size 9 to 14) (size 15 to 20)
#    0.000    1.667    3.333    1.500    0.000    7.333 
#    9.000    0.000    0.000    0.000    0.000    0.000 
#    0.000    0.000    0.000    0.000    0.000    0.000 
#
# Total GULP energy -148698.260788 kJ/mol
# GULP energy per Si atom -12391.521732 kJ/mol
# Density = 2.139765 g / cm^3
# Si number density = 21.446460 Si / 1000 Ang^3
#
#
#
# Elastic Constant Matrix: (Units=GPa)
#
#
# Indices 1 2 3 4 5 6 
#
# 1 161.1358 60.8871 43.4174 -14.2135 6.0563 -10.7324
# 2 60.8871 83.9485 45.6763 -20.4205 -5.4141 -22.7750
# 3 43.4174 45.6763 126.8084 -36.6423 7.2296 -1.6650
# 4 -14.2135 -20.4205 -36.6423 41.2719 1.0021 7.3875
# 5 6.0563 -5.4141 7.2296 1.0021 29.7298 -1.1718
# 6 -10.7324 -22.7750 -1.6650 7.3875 -1.1718 36.6779
#
#
#
# Elastic Compliance Matrix: (Units=1/GPa)
#
#
# Indices 1 2 3 4 5 6 
#
# 1 0.008942 -0.006974 -0.000533 -0.000460 -0.003015 -0.001742
# 2 -0.006974 0.024907 -0.006362 0.001747 0.007959 0.013039
# 3 -0.000533 -0.006362 0.013348 0.009638 -0.004841 -0.005596
# 4 -0.000460 0.001747 0.009638 0.034591 -0.003322 -0.005686
# 5 -0.003015 0.007959 -0.004841 -0.003322 0.037214 0.005698
# 6 -0.001742 0.013039 -0.005596 -0.005686 0.005698 0.035924
#
#
# Mechanical properties :
#
#
# Convention : Reuss Voigt Hill
#
# Bulk Modulus (GPa) = 51.39091 74.65046 63.02069
# Shear Modulus (GPa) = 26.43419 36.33005 31.38212
#
# Velocity S-wave (km/s) = 3.51460 4.12027 3.82943
# Velocity P-wave (km/s) = 6.36273 7.58412 7.00012
#
# Compressibility (1/GPa) = 0.01945869
#
# Stress axis : x y z
#
# Youngs Moduli (GPa) = 111.83712 40.14912 74.92036
#
# Poissons Ratio (x) = 0.28000 0.03995
# Poissons Ratio (y) = 0.77995 0.47661
# Poissons Ratio (z) = 0.05964 0.25541
#
# Static dielectric constant tensor:
#      x y z
#    x 4.876700 0.470190 0.497340 
#    y 0.470190 4.626200 0.453240 
#    z 0.497340 0.453240 4.493330 
# 
# 
# High freq. dielectric constant tensor:
#      x y z
#    x 1.856930 -0.000600 0.006620 
#    y -0.000600 1.822490 -0.022580 
#    z 0.006620 -0.022580 1.847010 
# 
# From -- ./inp_files/264717.got.cif
#   From: 2010.06.25/outbox.cif.g09.slc.cpg/sg2_133_cif.got.tgz:264717.got - 2010.06.27 13:26:56.
