data_PCOD8011268
_publ_section_title
;
Structure prediction by ZEFSAII (Michael W. Deem and Ramdas Pophale) SiO2 
 PCOD8011268
Probable space group: P -1
;
_chemical_formula_sum "Si O2"
_cell_formula_units_Z 10
_cell_length_a 9.898129
_cell_length_b 6.349367
_cell_length_c 12.370007
_cell_angle_alpha 70.446522
_cell_angle_beta 43.998688
_cell_angle_gamma 63.294879
_cell_volume 482.340315
_symmetry_space_group_name_H-M "P -1"
_symmetry_group_IT_number 2
_symmetry_cell_setting 'triclinic'
loop_
_space_group_symop_operation_xyz
x,y,z
-x,-y,-z
loop_
_atom_site_type_symbol
_atom_site_label
_atom_site_fract_x
_atom_site_fract_y
_atom_site_fract_z
Si Si1 0.325028 0.916440 0.320558
Si Si2 0.310093 0.504000 0.846678
Si Si3 0.015046 0.631398 0.581191
Si Si4 0.435349 0.941982 0.662132
Si Si5 0.073551 0.375339 0.814707
O O1 0.533480 0.756627 0.167909
O O2 0.188671 0.750951 0.447522
O O3 0.194698 0.162241 0.296600
O O4 0.392230 0.997698 0.379753
O O5 0.447902 0.672828 0.719741
O O6 0.181525 0.515116 0.808070
O O7 0.158419 0.587171 0.020893
O O8 0.000000 0.500000 0.500000
O O9 0.074965 0.449730 0.676586
O O10 0.500000 0.000000 0.500000
O O11 0.202264 0.099851 0.796243
#
# Coordination Sequence:
#
# PCOD8011268 Si02
#       5
#     2   2   2   2   2
#     4  10  22  37  57  83 112 147 191 230 276 334
#     4  10  21  39  58  85 115 145 187 233 281 331
#     4  11  22  39  58  83 114 149 190 231 276 332
#     4  11  20  36  61  85 112 148 188 234 278 328
#     4  10  22  37  59  85 114 148 186 231 280 333
#
# _framework density 20.732248999999999
#
# number of rings (size 3 to 8) (size 9 to 14) (size 15 to 20)
#    0.000    1.600    0.000    5.400    0.000    5.600 
#    0.000    4.000    0.000    0.000    0.000    0.000 
#    0.000    0.000    0.000    0.000    0.000    0.000 
#
# Total GULP energy -123926.628239 kJ/mol
# GULP energy per Si atom -12392.662824 kJ/mol
# Density = 2.068506 g / cm^3
# Si number density = 20.732249 Si / 1000 Ang^3
#
#
#
# Elastic Constant Matrix: (Units=GPa)
#
#
# Indices 1 2 3 4 5 6 
#
# 1 88.5124 33.0847 19.8831 1.2610 -5.7311 5.6875
# 2 33.0847 100.0347 18.5678 7.6271 -9.2076 -0.8990
# 3 19.8831 18.5678 58.7099 12.0793 -5.9791 5.7888
# 4 1.2610 7.6271 12.0793 31.4609 -6.5790 -10.5547
# 5 -5.7311 -9.2076 -5.9791 -6.5790 32.4971 2.3271
# 6 5.6875 -0.8990 5.7888 -10.5547 2.3271 42.8288
#
#
#
# Elastic Compliance Matrix: (Units=1/GPa)
#
#
# Indices 1 2 3 4 5 6 
#
# 1 0.013659 -0.003901 -0.003507 0.001603 0.001061 -0.001084
# 2 -0.003901 0.011958 -0.002041 -0.001335 0.002011 0.000607
# 3 -0.003507 -0.002041 0.021279 -0.008848 0.001264 -0.004702
# 4 0.001603 -0.001335 -0.008848 0.040162 0.005652 0.010545
# 5 0.001061 0.002011 0.001264 0.005652 0.032953 -0.000667
# 6 -0.001084 0.000607 -0.004702 0.010545 -0.000667 0.026776
#
#
# Mechanical properties :
#
#
# Convention : Reuss Voigt Hill
#
# Bulk Modulus (GPa) = 35.71696 43.36978 39.54337
# Shear Modulus (GPa) = 28.56851 33.07212 30.82032
#
# Velocity S-wave (km/s) = 3.71613 3.99833 3.85981
# Velocity P-wave (km/s) = 5.97311 6.50230 6.24331
#
# Compressibility (1/GPa) = 0.02799790
#
# Stress axis : x y z
#
# Youngs Moduli (GPa) = 73.21026 83.62689 46.99495
#
# Poissons Ratio (x) = 0.32622 0.16481
# Poissons Ratio (y) = 0.28559 0.09592
# Poissons Ratio (z) = 0.25675 0.17069
#
# Static dielectric constant tensor:
#      x y z
#    x 4.296360 -0.300100 -0.772800 
#    y -0.300100 4.208380 0.633100 
#    z -0.772800 0.633100 4.303140 
# 
# 
# High freq. dielectric constant tensor:
#      x y z
#    x 1.817110 -0.002100 -0.019680 
#    y -0.002100 1.826540 0.024850 
#    z -0.019680 0.024850 1.795120 
# 
# From -- ./inp_files/15111.got.cif
#   From: 2010.06.25/outbox.cif.g09.slc.cpg/sg2_8_cif.got.tgz:15111.got - 2010.06.27 13:26:56.
