data_PCOD8011717
_publ_section_title
;
Structure prediction by ZEFSAII (Michael W. Deem and Ramdas Pophale) SiO2 
 PCOD8011717
Probable space group: P -1
;
_chemical_formula_sum "Si O2"
_cell_formula_units_Z 16
_cell_length_a 9.558877
_cell_length_b 19.420409
_cell_length_c 12.241553
_cell_angle_alpha 152.042126
_cell_angle_beta 45.034256
_cell_angle_gamma 136.274443
_cell_volume 719.830723
_symmetry_space_group_name_H-M "P -1"
_symmetry_group_IT_number 2
_symmetry_cell_setting 'triclinic'
loop_
_space_group_symop_operation_xyz
x,y,z
-x,-y,-z
loop_
_atom_site_type_symbol
_atom_site_label
_atom_site_fract_x
_atom_site_fract_y
_atom_site_fract_z
Si Si1 0.430388 0.615434 0.776852
Si Si2 0.634149 0.860248 0.578778
Si Si3 0.239630 0.822829 0.478030
Si Si4 0.334194 0.040310 0.933388
Si Si5 0.027109 0.486226 0.093090
Si Si6 0.554924 0.534647 0.207677
Si Si7 0.979210 0.984017 0.735061
Si Si8 0.340591 0.232875 0.810716
O O1 0.500000 0.500000 0.500000
O O2 0.449556 0.558132 0.808281
O O3 0.193914 0.610950 0.871524
O O4 0.570492 0.788776 0.925811
O O5 0.501558 0.695942 0.476746
O O6 0.689344 0.825593 0.377819
O O7 0.500559 0.979187 0.821750
O O8 0.842702 0.934648 0.633981
O O9 0.096858 0.652011 0.346215
O O10 0.470172 0.819772 0.314068
O O11 0.236832 0.928663 0.731684
O O12 0.137629 0.880973 0.511348
O O13 0.153594 0.039839 0.115785
O O14 0.214180 0.411175 0.899060
O O15 0.000000 0.500000 0.000000
O O16 0.394328 0.418029 0.051044
O O17 0.124917 0.159273 0.889647
#
# Coordination Sequence:
#
# PCOD8011717 Si02
#       8
#     2   2   2   2   2   2   2   2
#     4  11  22  39  63  94 127 165 209 260 315 376
#     4  11  24  42  62  91 128 167 208 261 314 370
#     4  10  21  39  63  94 126 162 209 262 313 372
#     4  11  25  42  62  95 132 165 208 260 315 377
#     4   9  19  35  59  88 120 160 205 251 303 362
#     4  10  21  41  64  88 123 166 209 258 312 373
#     4  12  22  39  63  91 126 168 208 258 314 373
#     4  10  23  39  62  93 125 163 210 260 313 371
#
# _framework density 22.227449
#
# number of rings (size 3 to 8) (size 9 to 14) (size 15 to 20)
#    0.000    1.500    0.000    5.625    0.000    9.000 
#    0.000    0.625    0.000    0.000    0.000    0.000 
#    0.000    0.000    0.000    0.000    0.000    0.000 
#
# Total GULP energy -198346.229827 kJ/mol
# GULP energy per Si atom -12396.639364 kJ/mol
# Density = 2.217686 g / cm^3
# Si number density = 22.227449 Si / 1000 Ang^3
#
#
#
# Elastic Constant Matrix: (Units=GPa)
#
#
# Indices 1 2 3 4 5 6 
#
# 1 113.1872 30.5862 30.4612 4.5779 -2.5431 8.2736
# 2 30.5862 135.6678 39.3481 3.7656 -3.8321 18.4869
# 3 30.4612 39.3481 95.3748 13.2074 5.5639 3.9442
# 4 4.5779 3.7656 13.2074 31.0063 -6.4231 -3.0810
# 5 -2.5431 -3.8321 5.5639 -6.4231 29.3016 12.2718
# 6 8.2736 18.4869 3.9442 -3.0810 12.2718 27.9910
#
#
#
# Elastic Compliance Matrix: (Units=1/GPa)
#
#
# Indices 1 2 3 4 5 6 
#
# 1 0.010152 -0.000958 -0.002883 0.000080 0.002619 -0.003101
# 2 -0.000958 0.009954 -0.003923 0.000952 0.005551 -0.008067
# 3 -0.002883 -0.003923 0.014078 -0.006036 -0.006238 0.003529
# 4 0.000080 0.000952 -0.006036 0.036625 0.009229 0.000184
# 5 0.002619 0.005551 -0.006238 0.009229 0.048206 -0.023680
# 6 -0.003101 -0.008067 0.003529 0.000184 -0.023680 0.051875
#
#
# Mechanical properties :
#
#
# Convention : Reuss Voigt Hill
#
# Bulk Modulus (GPa) = 53.59988 60.55788 57.07888
# Shear Modulus (GPa) = 25.95558 33.91539 29.93549
#
# Velocity S-wave (km/s) = 3.42091 3.91043 3.67383
# Velocity P-wave (km/s) = 6.30635 6.90597 6.61296
#
# Compressibility (1/GPa) = 0.01865676
#
# Stress axis : x y z
#
# Youngs Moduli (GPa) = 98.50288 100.45826 71.03397
#
# Poissons Ratio (x) = 0.09627 0.20476
# Poissons Ratio (y) = 0.09440 0.27865
# Poissons Ratio (z) = 0.28395 0.39407
#
# Static dielectric constant tensor:
#      x y z
#    x 4.215450 0.386880 -0.152940 
#    y 0.386880 3.867710 0.242590 
#    z -0.152940 0.242590 4.058650 
# 
# 
# High freq. dielectric constant tensor:
#      x y z
#    x 1.886220 0.009760 0.009510 
#    y 0.009760 1.862620 0.013530 
#    z 0.009510 0.013530 1.877330 
# 
# From -- ./inp_files/403496.got.cif
#   From: 2010.06.25/outbox.cif.g09.slc.cpg/sg2_202_cif.got.tgz:403496.got - 2010.06.27 13:26:56.
