data_PCOD8011414
_publ_section_title
;
Structure prediction by ZEFSAII (Michael W. Deem and Ramdas Pophale) SiO2 
 PCOD8011414
Probable space group: P -1
;
_chemical_formula_sum "Si O2"
_cell_formula_units_Z 16
_cell_length_a 8.507872
_cell_length_b 8.098278
_cell_length_c 11.506681
_cell_angle_alpha 112.181717
_cell_angle_beta 98.921977
_cell_angle_gamma 102.232071
_cell_volume 692.829993
_symmetry_space_group_name_H-M "P -1"
_symmetry_group_IT_number 2
_symmetry_cell_setting 'triclinic'
loop_
_space_group_symop_operation_xyz
x,y,z
-x,-y,-z
loop_
_atom_site_type_symbol
_atom_site_label
_atom_site_fract_x
_atom_site_fract_y
_atom_site_fract_z
Si Si1 0.182833 0.007577 0.304287
Si Si2 0.752241 0.100426 0.965907
Si Si3 0.042793 0.565306 0.784600
Si Si4 0.831922 0.774920 0.263857
Si Si5 0.355685 0.330925 0.557013
Si Si6 0.285023 0.708804 0.381740
Si Si7 0.596772 0.912049 0.120619
Si Si8 0.726197 0.297261 0.360103
O O1 0.280962 0.881325 0.346506
O O2 0.990084 0.955987 0.308451
O O3 0.282024 0.222319 0.401191
O O4 0.183385 0.986117 0.160247
O O5 0.909638 0.260197 0.076895
O O6 0.683457 0.940631 0.011993
O O7 0.601256 0.187300 0.940419
O O8 0.120061 0.412031 0.808317
O O9 0.108349 0.623171 0.676709
O O10 0.843952 0.481128 0.732257
O O11 0.778086 0.772226 0.389952
O O12 0.677447 0.779596 0.167182
O O13 0.532688 0.311144 0.607128
O O14 0.624871 0.450196 0.397278
O O15 0.229145 0.748446 0.516184
O O16 0.612142 0.109760 0.237789
#
# Coordination Sequence:
#
# PCOD8011414 Si02
#       8
#     2   2   2   2   2   2   2   2
#     4  11  23  39  60  88 122 154 192 240 293 351
#     4  10  22  41  60  84 120 157 194 237 290 349
#     4   9  22  40  60  88 120 154 193 240 289 347
#     4  10  22  39  61  88 116 153 196 243 293 343
#     4  11  22  38  61  90 120 151 195 244 293 345
#     4  11  21  36  61  88 119 155 192 241 292 344
#     4  10  21  41  65  85 116 156 195 242 291 345
#     4  10  21  39  61  89 118 151 197 243 293 342
#
# _framework density 23.093689000000001
#
# number of rings (size 3 to 8) (size 9 to 14) (size 15 to 20)
#    0.000    1.750    0.000    3.750    0.000    7.000 
#    0.000    8.750    0.000    0.000    0.000    0.000 
#    0.000    0.000    0.000    0.000    0.000    0.000 
#
# Total GULP energy -198452.281169 kJ/mol
# GULP energy per Si atom -12403.267573 kJ/mol
# Density = 2.304113 g / cm^3
# Si number density = 23.093689 Si / 1000 Ang^3
#
#
#
# Elastic Constant Matrix: (Units=GPa)
#
#
# Indices 1 2 3 4 5 6 
#
# 1 60.3489 2.2316 30.8004 9.7958 -0.0245 16.7524
# 2 2.2316 50.4608 33.2407 -3.8019 -8.5042 8.2481
# 3 30.8004 33.2407 143.9304 -4.2908 -7.9958 9.9519
# 4 9.7958 -3.8019 -4.2908 22.4910 0.8386 11.6801
# 5 -0.0245 -8.5042 -7.9958 0.8386 26.7569 3.3860
# 6 16.7524 8.2481 9.9519 11.6801 3.3860 27.7926
#
#
#
# Elastic Compliance Matrix: (Units=1/GPa)
#
#
# Indices 1 2 3 4 5 6 
#
# 1 0.022949 0.004171 -0.005121 -0.004293 0.001420 -0.011606
# 2 0.004171 0.027553 -0.005624 0.008308 0.008491 -0.013204
# 3 -0.005121 -0.005624 0.009491 0.003084 0.000955 -0.000055
# 4 -0.004293 0.008308 0.003084 0.062639 0.005130 -0.027932
# 5 0.001420 0.008491 0.000955 0.005130 0.041582 -0.010939
# 6 -0.011606 -0.013204 -0.000055 -0.027932 -0.010939 0.059986
#
#
# Mechanical properties :
#
#
# Convention : Reuss Voigt Hill
#
# Bulk Modulus (GPa) = 21.34651 43.03171 32.18911
# Shear Modulus (GPa) = 19.76587 27.97259 23.86923
#
# Velocity S-wave (km/s) = 2.92875 3.48410 3.21843
# Velocity P-wave (km/s) = 4.54975 5.90417 5.27065
#
# Compressibility (1/GPa) = 0.04684608
#
# Stress axis : x y z
#
# Youngs Moduli (GPa) = 43.57554 36.29432 105.36101
#
# Poissons Ratio (x) = -0.15140 0.53954
# Poissons Ratio (y) = -0.18177 0.59251
# Poissons Ratio (z) = 0.22315 0.20410
#
# Static dielectric constant tensor:
#      x y z
#    x 4.036580 0.134770 0.058440 
#    y 0.134770 4.176390 -0.167830 
#    z 0.058440 -0.167830 4.193300 
# 
# 
# High freq. dielectric constant tensor:
#      x y z
#    x 1.911390 0.010750 0.006350 
#    y 0.010750 1.907260 -0.011250 
#    z 0.006350 -0.011250 1.913020 
# 
# From -- ./inp_files/379975.got.cif
#   From: 2010.06.25/outbox.cif.g09.slc.cpg/sg2_190_cif.got.tgz:379975.got - 2010.06.27 13:26:56.
