data_PCOD8011022
_publ_section_title
;
Structure prediction by ZEFSAII (Michael W. Deem and Ramdas Pophale) SiO2 
 PCOD8011022
Probable space group: P -1
;
_chemical_formula_sum "Si O2"
_cell_formula_units_Z 16
_cell_length_a 5.141410
_cell_length_b 19.236776
_cell_length_c 9.684701
_cell_angle_alpha 60.553051
_cell_angle_beta 68.012961
_cell_angle_gamma 86.796462
_cell_volume 763.639885
_symmetry_space_group_name_H-M "P -1"
_symmetry_group_IT_number 2
_symmetry_cell_setting 'triclinic'
loop_
_space_group_symop_operation_xyz
x,y,z
-x,-y,-z
loop_
_atom_site_type_symbol
_atom_site_label
_atom_site_fract_x
_atom_site_fract_y
_atom_site_fract_z
Si Si1 0.341576 0.638179 0.663246
Si Si2 0.738234 0.801863 0.911817
Si Si3 0.436049 0.321870 0.709831
Si Si4 0.151792 0.011666 0.310127
Si Si5 0.743049 0.534590 0.813617
Si Si6 0.589392 0.942411 0.419190
Si Si7 0.072823 0.578299 0.316723
Si Si8 0.368522 0.774174 0.750558
O O1 0.413188 0.687987 0.457782
O O2 0.584586 0.580922 0.683660
O O3 0.373653 0.696059 0.732250
O O4 0.017487 0.591285 0.769320
O O5 0.720868 0.896109 0.836051
O O6 0.510855 0.761002 0.883003
O O7 0.049217 0.789417 0.815682
O O8 0.671978 0.764660 0.113732
O O9 0.657372 0.367088 0.728113
O O10 0.180310 0.371549 0.696740
O O11 0.402358 0.956945 0.308467
O O12 0.000000 0.000000 0.500000
O O13 0.917340 0.973467 0.282494
O O14 0.853000 0.454580 0.814654
O O15 0.500000 0.500000 0.000000
O O16 0.552192 0.850101 0.564023
O O17 0.500000 0.000000 0.500000
O O18 0.000000 0.500000 0.500000
#
# Coordination Sequence:
#
# PCOD8011022 Si02
#       8
#     2   2   2   2   2   2   2   2
#     4  12  26  46  60  90 137 164 196 257 337 374
#     4  12  23  37  62  97 124 159 214 265 300 369
#     4  12  26  43  65  94 127 169 212 253 314 386
#     4  10  16  32  56  87 121 154 202 262 301 344
#     4  12  27  44  67  95 121 157 212 271 309 369
#     4  10  16  32  56  87 118 154 206 250 302 359
#     4  12  23  46  72  86 118 171 217 248 311 382
#     4  12  23  37  62  94 124 163 203 264 317 358
#
# _framework density 20.952283000000001
#
# number of rings (size 3 to 8) (size 9 to 14) (size 15 to 20)
#    0.000    0.500    7.500    3.000    5.250    0.000 
#    0.000    0.000    0.000    1.500    0.000    0.000 
#    0.000    0.000    0.000    0.000    0.000    0.000 
#
# Total GULP energy -198336.489776 kJ/mol
# GULP energy per Si atom -12396.030611 kJ/mol
# Density = 2.090459 g / cm^3
# Si number density = 20.952283 Si / 1000 Ang^3
#
#
#
# Elastic Constant Matrix: (Units=GPa)
#
#
# Indices 1 2 3 4 5 6 
#
# 1 176.0199 24.1669 27.3526 -7.2955 2.0081 1.0166
# 2 24.1669 34.2571 35.0531 -6.2762 0.9027 5.0296
# 3 27.3526 35.0531 115.8652 -18.6574 5.0034 1.6884
# 4 -7.2955 -6.2762 -18.6574 30.0526 -4.3325 1.2456
# 5 2.0081 0.9027 5.0034 -4.3325 26.9496 -6.6610
# 6 1.0166 5.0296 1.6884 1.2456 -6.6610 29.7185
#
#
#
# Elastic Compliance Matrix: (Units=1/GPa)
#
#
# Indices 1 2 3 4 5 6 
#
# 1 0.006310 -0.004319 -0.000100 0.000533 -0.000104 0.000475
# 2 -0.004319 0.046561 -0.012786 0.000965 -0.000477 -0.007153
# 3 -0.000100 -0.012786 0.013429 0.005467 -0.000940 0.000965
# 4 0.000533 0.000965 0.005467 0.037724 0.004727 -0.001014
# 5 -0.000104 -0.000477 -0.000940 0.004727 0.040281 0.008968
# 6 0.000475 -0.007153 0.000965 -0.001014 0.008968 0.036841
#
#
# Mechanical properties :
#
#
# Convention : Reuss Voigt Hill
#
# Bulk Modulus (GPa) = 31.35715 55.47636 43.41675
# Shear Modulus (GPa) = 22.10564 33.31547 27.71055
#
# Velocity S-wave (km/s) = 3.25167 3.99189 3.64064
# Velocity P-wave (km/s) = 5.39410 6.91244 6.19992
#
# Compressibility (1/GPa) = 0.03189065
#
# Stress axis : x y z
#
# Youngs Moduli (GPa) = 158.47419 21.47722 74.46296
#
# Poissons Ratio (x) = 0.09276 0.00741
# Poissons Ratio (y) = 0.68444 0.95212
# Poissons Ratio (z) = 0.01578 0.27462
#
# Static dielectric constant tensor:
#      x y z
#    x 2.570010 0.372280 0.056620 
#    y 0.372280 3.482460 -0.219220 
#    z 0.056620 -0.219220 3.818360 
# 
# 
# High freq. dielectric constant tensor:
#      x y z
#    x 1.856580 -0.001060 -0.001380 
#    y -0.001060 1.794820 -0.027800 
#    z -0.001380 -0.027800 1.808410 
# 
# From -- ./inp_files/138684.got.cif
#   From: 2010.06.25/outbox.cif.g09.slc.cpg/sg2_70_cif.got.tgz:138684.got - 2010.06.27 13:26:56.
