data_PCOD8011712
_publ_section_title
;
Structure prediction by ZEFSAII (Michael W. Deem and Ramdas Pophale) SiO2 
 PCOD8011712
Probable space group: P -1
;
_chemical_formula_sum "Si O2"
_cell_formula_units_Z 16
_cell_length_a 8.386722
_cell_length_b 9.078624
_cell_length_c 17.896772
_cell_angle_alpha 36.492346
_cell_angle_beta 120.632507
_cell_angle_gamma 103.533092
_cell_volume 654.953920
_symmetry_space_group_name_H-M "P -1"
_symmetry_group_IT_number 2
_symmetry_cell_setting 'triclinic'
loop_
_space_group_symop_operation_xyz
x,y,z
-x,-y,-z
loop_
_atom_site_type_symbol
_atom_site_label
_atom_site_fract_x
_atom_site_fract_y
_atom_site_fract_z
Si Si1 0.373843 0.351364 0.284779
Si Si2 0.623263 0.687584 0.860856
Si Si3 0.193064 0.199775 0.431242
Si Si4 0.968531 0.786569 0.980196
Si Si5 0.974273 0.850903 0.443255
Si Si6 0.891272 0.769276 0.130291
Si Si7 0.332900 0.347877 0.752150
Si Si8 0.670196 0.124825 0.148583
O O1 0.466302 0.201309 0.289213
O O2 0.383235 0.163922 0.436866
O O3 0.487132 0.547519 0.254207
O O4 0.147533 0.510130 0.142939
O O5 0.817844 0.764706 0.889537
O O6 0.467270 0.789443 0.847116
O O7 0.681325 0.368775 0.002497
O O8 0.209601 0.140566 0.548477
O O9 0.077061 0.508307 0.273361
O O10 0.085182 0.023400 0.438368
O O11 0.839707 0.870165 0.992174
O O12 0.054108 0.021972 0.888431
O O13 0.128989 0.557134 0.586793
O O14 0.890362 0.971974 0.294326
O O15 0.705589 0.711314 0.146279
O O16 0.399712 0.075957 0.834182
#
# Coordination Sequence:
#
# PCOD8011712 Si02
#       8
#     2   2   2   2   2   2   2   2
#     4  11  24  41  66 102 130 170 218 267 326 388
#     4  11  26  40  67  99 136 168 212 272 328 386
#     4   9  21  40  70  94 124 169 221 266 321 377
#     4  10  21  39  63  93 136 172 212 264 326 389
#     4  10  22  46  70  90 130 176 219 266 319 384
#     4   9  20  36  65  93 128 170 214 263 325 381
#     4  11  25  41  68  96 130 172 221 265 322 386
#     4  11  25  43  65  99 133 172 217 266 327 385
#
# _framework density 24.429196999999998
#
# number of rings (size 3 to 8) (size 9 to 14) (size 15 to 20)
#    0.000    1.750    0.000    3.000   14.000    2.500 
#    0.000    0.625    0.000    0.000    0.000    0.000 
#    0.000    0.000    0.000    0.000    0.000    0.000 
#
# Total GULP energy -198285.758301 kJ/mol
# GULP energy per Si atom -12392.859894 kJ/mol
# Density = 2.437359 g / cm^3
# Si number density = 24.429197 Si / 1000 Ang^3
#
#
#
# Elastic Constant Matrix: (Units=GPa)
#
#
# Indices 1 2 3 4 5 6 
#
# 1 105.6925 16.1306 12.5951 5.4746 -29.3514 3.3329
# 2 16.1306 89.6648 2.6753 -12.8628 -11.2448 -5.2329
# 3 12.5951 2.6753 43.1579 -3.6047 -19.7085 -12.6077
# 4 5.4746 -12.8628 -3.6047 42.5371 -2.3398 3.7382
# 5 -29.3514 -11.2448 -19.7085 -2.3398 41.0370 -2.7098
# 6 3.3329 -5.2329 -12.6077 3.7382 -2.7098 32.9202
#
#
#
# Elastic Compliance Matrix: (Units=1/GPa)
#
#
# Indices 1 2 3 4 5 6 
#
# 1 0.012016 -0.001397 -0.000042 -0.001474 0.008066 -0.000623
# 2 -0.001397 0.012639 0.002834 0.004203 0.004271 0.003110
# 3 -0.000042 0.002834 0.036954 0.003690 0.019749 0.015814
# 4 -0.001474 0.004203 0.003690 0.025498 0.003298 -0.000393
# 5 0.008066 0.004271 0.019749 0.003298 0.041673 0.010481
# 6 -0.000623 0.003110 0.015814 -0.000393 0.010481 0.037898
#
#
# Mechanical properties :
#
#
# Convention : Reuss Voigt Hill
#
# Bulk Modulus (GPa) = 15.52797 33.47968 24.50383
# Shear Modulus (GPa) = 26.97569 37.10648 32.04108
#
# Velocity S-wave (km/s) = 3.32662 3.90159 3.62552
# Velocity P-wave (km/s) = 4.59622 5.83361 5.25149
#
# Compressibility (1/GPa) = 0.06439992
#
# Stress axis : x y z
#
# Youngs Moduli (GPa) = 83.22577 79.11767 27.06098
#
# Poissons Ratio (x) = 0.11049 0.00113
# Poissons Ratio (y) = 0.11623 -0.07669
# Poissons Ratio (z) = 0.00346 -0.22421
#
# Static dielectric constant tensor:
#      x y z
#    x 4.817580 -0.441950 -0.256930 
#    y -0.441950 4.382970 -0.119620 
#    z -0.256930 -0.119620 4.542510 
# 
# 
# High freq. dielectric constant tensor:
#      x y z
#    x 1.985600 -0.019660 -0.007710 
#    y -0.019660 1.965520 -0.014860 
#    z -0.007710 -0.014860 1.970540 
# 
# From -- ./inp_files/556815.got.cif
#   From: 2010.06.25/outbox.cif.g09.slc.cpg/sg2_279_cif.got.tgz:556815.got - 2010.06.27 13:26:56.
