data_PCOD8011178
_publ_section_title
;
Structure prediction by ZEFSAII (Michael W. Deem and Ramdas Pophale) SiO2 
 PCOD8011178
Probable space group: P -1
;
_chemical_formula_sum "Si O2"
_cell_formula_units_Z 14
_cell_length_a 7.299920
_cell_length_b 10.235503
_cell_length_c 11.170062
_cell_angle_alpha 77.742128
_cell_angle_beta 59.853632
_cell_angle_gamma 49.845091
_cell_volume 543.704015
_symmetry_space_group_name_H-M "P -1"
_symmetry_group_IT_number 2
_symmetry_cell_setting 'triclinic'
loop_
_space_group_symop_operation_xyz
x,y,z
-x,-y,-z
loop_
_atom_site_type_symbol
_atom_site_label
_atom_site_fract_x
_atom_site_fract_y
_atom_site_fract_z
Si Si1 0.099489 0.038881 0.347565
Si Si2 0.529564 0.034641 0.345903
Si Si3 0.751699 0.415186 0.345392
Si Si4 0.438753 0.815979 0.074972
Si Si5 0.815661 0.588597 0.659419
Si Si6 0.158741 0.140688 0.940702
Si Si7 0.418775 0.525260 0.865225
O O1 0.317050 0.054779 0.321113
O O2 0.861896 0.220467 0.327614
O O3 0.213844 0.891233 0.240123
O O4 0.000000 0.000000 0.500000
O O5 0.455151 0.220398 0.329734
O O6 0.500000 0.000000 0.500000
O O7 0.809360 0.882648 0.212023
O O8 0.500000 0.500000 0.500000
O O9 0.644330 0.512555 0.236203
O O10 0.991099 0.420136 0.304027
O O11 0.528257 0.629446 0.040487
O O12 0.293397 0.949538 0.985809
O O13 0.697056 0.794585 0.048315
O O14 0.700072 0.497469 0.769233
O O15 0.000000 0.500000 0.500000
O O16 0.833448 0.285794 0.038425
#
# Coordination Sequence:
#
# PCOD8011178 Si02
#       7
#     2   2   2   2   2   2   2
#     4  10  21  38  69 107 138 188 251 304 358 443
#     4  10  25  46  72 102 146 194 240 313 381 440
#     4  11  22  42  72 105 151 198 245 309 371 435
#     4  10  22  42  76 112 145 194 256 302 371 455
#     4  11  26  45  67 115 152 188 260 311 361 456
#     4  10  23  48  75 108 150 196 253 310 374 457
#     4  12  24  45  80 108 149 205 245 310 385 438
#
# _framework density 25.749300999999999
#
# number of rings (size 3 to 8) (size 9 to 14) (size 15 to 20)
#    0.000    1.429    2.857    1.286    6.000    2.857 
#    2.571    0.714    0.000    0.000    0.000    0.000 
#    0.000    0.000    0.000    0.000    0.000    0.000 
#
# Total GULP energy -173504.322676 kJ/mol
# GULP energy per Si atom -12393.165905 kJ/mol
# Density = 2.569069 g / cm^3
# Si number density = 25.749301 Si / 1000 Ang^3
#
#
#
# Elastic Constant Matrix: (Units=GPa)
#
#
# Indices 1 2 3 4 5 6 
#
# 1 103.3647 42.0789 44.2921 -6.6205 -7.9646 -6.1677
# 2 42.0789 140.0277 45.9615 -1.4588 -23.3113 9.2813
# 3 44.2921 45.9615 160.7612 11.9792 2.4872 -4.0502
# 4 -6.6205 -1.4588 11.9792 50.9513 0.5653 -5.3678
# 5 -7.9646 -23.3113 2.4872 0.5653 45.7603 -9.6375
# 6 -6.1677 9.2813 -4.0502 -5.3678 -9.6375 24.0535
#
#
#
# Elastic Compliance Matrix: (Units=1/GPa)
#
#
# Indices 1 2 3 4 5 6 
#
# 1 0.012685 -0.002899 -0.002768 0.002753 0.001965 0.005307
# 2 -0.002899 0.009537 -0.002068 -0.000003 0.003780 -0.003258
# 3 -0.002768 -0.002068 0.007772 -0.002210 -0.001900 0.000142
# 4 0.002753 -0.000003 -0.002210 0.021082 0.001528 0.005652
# 5 0.001965 0.003780 -0.001900 0.001528 0.026221 0.009572
# 6 0.005307 -0.003258 0.000142 0.005652 0.009572 0.049312
#
#
# Mechanical properties :
#
#
# Convention : Reuss Voigt Hill
#
# Bulk Modulus (GPa) = 68.85557 74.31317 71.58437
# Shear Modulus (GPa) = 34.03177 42.27443 38.15310
#
# Velocity S-wave (km/s) = 3.63941 4.05627 3.85348
# Velocity P-wave (km/s) = 6.66777 7.13167 6.90362
#
# Compressibility (1/GPa) = 0.01452315
#
# Stress axis : x y z
#
# Youngs Moduli (GPa) = 78.83136 104.85807 128.66817
#
# Poissons Ratio (x) = 0.30403 0.35614
# Poissons Ratio (y) = 0.22857 0.26609
# Poissons Ratio (z) = 0.21820 0.21685
#
# Static dielectric constant tensor:
#      x y z
#    x 4.123230 0.247710 0.006620 
#    y 0.247710 4.707110 0.245240 
#    z 0.006620 0.245240 4.076450 
# 
# 
# High freq. dielectric constant tensor:
#      x y z
#    x 2.032620 0.000070 0.004700 
#    y 0.000070 2.029910 0.008510 
#    z 0.004700 0.008510 2.045610 
# 
# From -- ./inp_files/392302.got.cif
#   From: 2010.06.25/outbox.cif.g09.slc.cpg/sg2_197_cif.got.tgz:392302.got - 2010.06.27 13:26:56.
