data_PCOD8011778
_publ_section_title
;
Structure prediction by ZEFSAII (Michael W. Deem and Ramdas Pophale) SiO2 
 PCOD8011778
Probable space group: P -1
;
_chemical_formula_sum "Si O2"
_cell_formula_units_Z 14
_cell_length_a 8.452682
_cell_length_b 7.931442
_cell_length_c 22.817459
_cell_angle_alpha 98.756531
_cell_angle_beta 47.017337
_cell_angle_gamma 64.267102
_cell_volume 738.983109
_symmetry_space_group_name_H-M "P -1"
_symmetry_group_IT_number 2
_symmetry_cell_setting 'triclinic'
loop_
_space_group_symop_operation_xyz
x,y,z
-x,-y,-z
loop_
_atom_site_type_symbol
_atom_site_label
_atom_site_fract_x
_atom_site_fract_y
_atom_site_fract_z
Si Si1 0.731389 0.714185 0.907660
Si Si2 0.133376 0.460491 0.684810
Si Si3 0.144737 0.735267 0.280893
Si Si4 0.835444 0.905505 0.699378
Si Si5 0.887961 0.066561 0.466117
Si Si6 0.923578 0.641487 0.086390
Si Si7 0.733419 0.256816 0.045360
O O1 0.508688 0.708762 0.931134
O O2 0.008289 0.609727 0.786105
O O3 0.911733 0.544939 0.910386
O O4 0.500000 0.000000 0.000000
O O5 0.505892 0.273790 0.571217
O O6 0.072096 0.292084 0.690359
O O7 0.943284 0.672428 0.693047
O O8 0.523734 0.477919 0.159659
O O9 0.075236 0.966505 0.282329
O O10 0.064842 0.803802 0.374121
O O11 0.010899 0.816188 0.586408
O O12 0.455198 0.116811 0.794764
O O13 0.000000 0.000000 0.500000
O O14 0.000000 0.500000 0.000000
O O15 0.082982 0.732685 0.046353
O O16 0.000000 0.000000 0.000000
#
# Coordination Sequence:
#
# PCOD8011778 Si02
#       7
#     2   2   2   2   2   2   2
#     4  11  25  37  60  94 121 160 210 253 310 372
#     4  11  21  42  63  87 121 159 210 251 305 373
#     4   9  22  38  63  86 120 159 204 243 311 357
#     4  10  22  37  64  87 118 162 207 243 317 356
#     4  10  21  39  64  89 123 156 201 257 311 364
#     4  12  20  39  60  82 127 160 196 257 309 364
#     4  11  22  39  63  91 122 164 207 251 311 375
#
# _framework density 18.944955
#
# number of rings (size 3 to 8) (size 9 to 14) (size 15 to 20)
#    0.857    0.571    1.429    5.571    0.000    0.000 
#    0.000    0.714    0.000    0.000    0.000    0.000 
#    0.000    0.000    0.000    0.000    0.000    0.000 
#
# Total GULP energy -173450.592915 kJ/mol
# GULP energy per Si atom -12389.328065 kJ/mol
# Density = 1.890183 g / cm^3
# Si number density = 18.944955 Si / 1000 Ang^3
#
#
#
# Elastic Constant Matrix: (Units=GPa)
#
#
# Indices 1 2 3 4 5 6 
#
# 1 73.8861 40.7818 52.9252 1.5014 -1.6033 -11.9480
# 2 40.7818 118.8265 53.0569 -5.3814 -7.7431 -18.2959
# 3 52.9252 53.0569 155.4169 -11.8694 -11.4187 -4.4669
# 4 1.5014 -5.3814 -11.8694 33.0350 -2.4963 0.4278
# 5 -1.6033 -7.7431 -11.4187 -2.4963 39.7823 -0.7629
# 6 -11.9480 -18.2959 -4.4669 0.4278 -0.7629 36.1966
#
#
#
# Elastic Compliance Matrix: (Units=1/GPa)
#
#
# Indices 1 2 3 4 5 6 
#
# 1 0.020810 -0.004144 -0.005996 -0.003968 -0.001860 0.004042
# 2 -0.004144 0.011654 -0.002222 0.001357 0.001631 0.004267
# 3 -0.005996 -0.002222 0.009619 0.003563 0.002274 -0.001909
# 4 -0.003968 0.001357 0.003563 0.032196 0.003138 -0.000499
# 5 -0.001860 0.001631 0.002274 0.003138 0.026248 0.001007
# 6 0.004042 0.004267 -0.001909 -0.000499 0.001007 0.030910
#
#
# Mechanical properties :
#
#
# Convention : Reuss Voigt Hill
#
# Bulk Modulus (GPa) = 57.59743 71.29525 64.44634
# Shear Modulus (GPa) = 30.87460 35.22716 33.05088
#
# Velocity S-wave (km/s) = 4.04133 4.31681 4.18134
# Velocity P-wave (km/s) = 7.22807 7.90955 7.57648
#
# Compressibility (1/GPa) = 0.01736189
#
# Stress axis : x y z
#
# Youngs Moduli (GPa) = 48.05383 85.80470 103.96394
#
# Poissons Ratio (x) = 0.35553 0.62332
# Poissons Ratio (y) = 0.19911 0.23096
# Poissons Ratio (z) = 0.28811 0.19062
#
# Static dielectric constant tensor:
#      x y z
#    x 3.488630 0.144710 0.091990 
#    y 0.144710 3.502380 -0.280760 
#    z 0.091990 -0.280760 3.907370 
# 
# 
# High freq. dielectric constant tensor:
#      x y z
#    x 1.723630 0.007820 -0.009580 
#    y 0.007820 1.728520 -0.007500 
#    z -0.009580 -0.007500 1.764060 
# 
# From -- ./inp_files/171787.got.cif
#   From: 2010.06.25/outbox.cif.g09.slc.cpg/sg2_86_cif.got.tgz:171787.got - 2010.06.27 13:26:56.
