data_PCOD8011627
_publ_section_title
;
Structure prediction by ZEFSAII (Michael W. Deem and Ramdas Pophale) SiO2 
 PCOD8011627
Probable space group: P -1
;
_chemical_formula_sum "Si O2"
_cell_formula_units_Z 14
_cell_length_a 11.245507
_cell_length_b 17.116419
_cell_length_c 8.163496
_cell_angle_alpha 102.628543
_cell_angle_beta 137.160091
_cell_angle_gamma 45.185733
_cell_volume 595.773989
_symmetry_space_group_name_H-M "P -1"
_symmetry_group_IT_number 2
_symmetry_cell_setting 'triclinic'
loop_
_space_group_symop_operation_xyz
x,y,z
-x,-y,-z
loop_
_atom_site_type_symbol
_atom_site_label
_atom_site_fract_x
_atom_site_fract_y
_atom_site_fract_z
Si Si1 0.757639 0.737167 0.047246
Si Si2 0.839485 0.418666 0.917158
Si Si3 0.702112 0.888741 0.297490
Si Si4 0.617465 0.336120 0.673722
Si Si5 0.796930 0.994259 0.925600
Si Si6 0.150035 0.004568 0.388808
Si Si7 0.926325 0.529545 0.628259
O O1 0.398419 0.878810 0.711229
O O2 0.865876 0.749698 0.320112
O O3 0.947170 0.696128 0.064181
O O4 0.831447 0.617358 0.100770
O O5 0.715280 0.386045 0.867891
O O6 0.574217 0.574820 0.645042
O O7 0.033680 0.395198 0.233753
O O8 0.934233 0.871423 0.588704
O O9 0.489290 0.944130 0.259772
O O10 0.500000 0.000000 0.000000
O O11 0.417768 0.368709 0.628854
O O12 0.899172 0.173857 0.838195
O O13 0.708950 0.049277 0.676317
O O14 0.859634 0.053341 0.118889
O O15 0.000000 0.500000 0.500000
#
# Coordination Sequence:
#
# PCOD8011627 Si02
#       7
#     2   2   2   2   2   2   2
#     4  10  21  41  63  85 120 160 198 243 296 350
#     4  10  21  41  66  86 116 160 198 242 296 352
#     4  10  22  38  58  89 123 158 197 242 293 347
#     4  10  21  39  63  89 118 157 200 239 293 355
#     4  11  22  38  62  91 121 158 200 242 293 354
#     4  10  22  38  59  86 119 160 200 241 292 347
#     4  11  24  40  63  91 118 152 196 250 301 351
#
# _framework density 23.498842
#
# number of rings (size 3 to 8) (size 9 to 14) (size 15 to 20)
#    0.000    1.714    0.000    5.571    0.000    7.429 
#    0.000   11.429    0.000    0.000    0.000    0.000 
#    0.000    0.000    0.000    0.000    0.000    0.000 
#
# Total GULP energy -173567.198367 kJ/mol
# GULP energy per Si atom -12397.657026 kJ/mol
# Density = 2.344536 g / cm^3
# Si number density = 23.498842 Si / 1000 Ang^3
#
#
#
# Elastic Constant Matrix: (Units=GPa)
#
#
# Indices 1 2 3 4 5 6 
#
# 1 94.0287 31.5977 23.3441 21.8734 18.5104 3.3183
# 2 31.5977 127.8160 40.7439 36.9959 21.2196 0.3632
# 3 23.3441 40.7439 53.7745 29.4315 16.1625 7.6275
# 4 21.8734 36.9959 29.4315 46.0831 11.1185 6.3774
# 5 18.5104 21.2196 16.1625 11.1185 28.3668 7.3219
# 6 3.3183 0.3632 7.6275 6.3774 7.3219 33.9513
#
#
#
# Elastic Compliance Matrix: (Units=1/GPa)
#
#
# Indices 1 2 3 4 5 6 
#
# 1 0.013234 -0.000788 -0.001691 -0.003244 -0.006073 0.001014
# 2 -0.000788 0.011811 -0.004773 -0.005448 -0.004229 0.002959
# 3 -0.001691 -0.004773 0.033773 -0.014579 -0.008110 -0.002884
# 4 -0.003244 -0.005448 -0.014579 0.037213 0.000821 -0.003517
# 5 -0.006073 -0.004229 -0.008110 0.000821 0.048799 -0.008217
# 6 0.001014 0.002959 -0.002884 -0.003517 -0.008217 0.032404
#
#
# Mechanical properties :
#
#
# Convention : Reuss Voigt Hill
#
# Bulk Modulus (GPa) = 22.56694 51.88783 37.22739
# Shear Modulus (GPa) = 24.21198 33.67580 28.94389
#
# Velocity S-wave (km/s) = 3.21339 3.78972 3.51339
# Velocity P-wave (km/s) = 4.83654 6.42481 5.68640
#
# Compressibility (1/GPa) = 0.04431260
#
# Stress axis : x y z
#
# Youngs Moduli (GPa) = 75.56245 84.66751 29.60985
#
# Poissons Ratio (x) = 0.06675 0.05006
# Poissons Ratio (y) = 0.05957 0.14134
# Poissons Ratio (z) = 0.12776 0.40414
#
# Static dielectric constant tensor:
#      x y z
#    x 4.407130 0.021840 -0.075420 
#    y 0.021840 5.055570 0.655560 
#    z -0.075420 0.655560 4.395470 
# 
# 
# High freq. dielectric constant tensor:
#      x y z
#    x 1.928340 0.019590 0.000480 
#    y 0.019590 1.934490 0.017590 
#    z 0.000480 0.017590 1.913100 
# 
# From -- ./inp_files/257308.got.cif
#   From: 2010.06.25/outbox.cif.g09.slc.cpg/sg2_129_cif.got.tgz:257308.got - 2010.06.27 13:26:56.
