data_PCOD8011066
_publ_section_title
;
Structure prediction by ZEFSAII (Michael W. Deem and Ramdas Pophale) SiO2 
 PCOD8011066
Probable space group: P -1
;
_chemical_formula_sum "Si O2"
_cell_formula_units_Z 16
_cell_length_a 10.204515
_cell_length_b 15.093499
_cell_length_c 10.850268
_cell_angle_alpha 78.869044
_cell_angle_beta 90.121887
_cell_angle_gamma 28.075214
_cell_volume 715.870112
_symmetry_space_group_name_H-M "P -1"
_symmetry_group_IT_number 2
_symmetry_cell_setting 'triclinic'
loop_
_space_group_symop_operation_xyz
x,y,z
-x,-y,-z
loop_
_atom_site_type_symbol
_atom_site_label
_atom_site_fract_x
_atom_site_fract_y
_atom_site_fract_z
Si Si1 0.583437 0.536420 0.916555
Si Si2 0.154825 0.782510 0.622970
Si Si3 0.195665 0.929897 0.917198
Si Si4 0.754541 0.863943 0.635772
Si Si5 0.790321 0.872709 0.079996
Si Si6 0.217669 0.247365 0.673110
Si Si7 0.159981 0.483149 0.645365
Si Si8 0.230126 0.827554 0.367722
O O1 0.429782 0.621549 0.760288
O O2 0.482308 0.689612 0.948319
O O3 0.941863 0.313088 0.964847
O O4 0.500000 0.500000 0.000000
O O5 0.288786 0.718795 0.504658
O O6 0.004272 0.778795 0.612818
O O7 0.880505 0.015459 0.602477
O O8 0.287669 0.972228 0.953771
O O9 0.014498 0.059082 0.756800
O O10 0.000000 0.000000 0.000000
O O11 0.962574 0.645960 0.714527
O O12 0.500000 0.000000 0.500000
O O13 0.575433 0.008033 0.716594
O O14 0.896958 0.763991 0.240205
O O15 0.500000 0.000000 0.000000
O O16 0.193606 0.357712 0.713067
O O17 0.020817 0.379993 0.515505
O O18 0.482959 0.328331 0.673093
#
# Coordination Sequence:
#
# PCOD8011066 Si02
#       8
#     2   2   2   2   2   2   2   2
#     4  11  25  48  74 102 141 186 237 291 353 421
#     4  10  22  41  67 101 136 179 231 292 347 406
#     4  11  26  47  74 103 140 186 237 290 351 427
#     4  10  22  36  61  95 136 177 218 277 342 416
#     4  12  29  47  73 100 140 185 236 298 349 420
#     4  10  23  43  60  95 141 168 226 275 352 399
#     4  10  21  38  66  94 133 180 211 281 343 417
#     4  10  22  40  69  98 134 175 235 287 343 413
#
# _framework density 22.350424
#
# number of rings (size 3 to 8) (size 9 to 14) (size 15 to 20)
#    0.000    1.500    2.500    0.750    8.750    2.000 
#    0.000    0.000    0.000    0.000    0.000    0.000 
#    0.000    0.000    0.000    0.000    0.000    0.000 
#
# Total GULP energy -198306.803821 kJ/mol
# GULP energy per Si atom -12394.175239 kJ/mol
# Density = 2.229955 g / cm^3
# Si number density = 22.350424 Si / 1000 Ang^3
#
#
#
# Elastic Constant Matrix: (Units=GPa)
#
#
# Indices 1 2 3 4 5 6 
#
# 1 152.3948 71.1119 24.9770 -1.8991 -1.6243 17.4224
# 2 71.1119 158.3308 19.0735 -13.6066 2.2366 20.2019
# 3 24.9770 19.0735 72.6968 0.1088 -9.7757 5.0119
# 4 -1.8991 -13.6066 0.1088 18.0909 -6.4697 3.3174
# 5 -1.6243 2.2366 -9.7757 -6.4697 36.4246 -0.6594
# 6 17.4224 20.2019 5.0119 3.3174 -0.6594 41.2061
#
#
#
# Elastic Compliance Matrix: (Units=1/GPa)
#
#
# Indices 1 2 3 4 5 6 
#
# 1 0.008729 -0.003618 -0.001971 -0.001590 -0.000228 -0.001553
# 2 -0.003618 0.009094 -0.000885 0.007180 0.000256 -0.003395
# 3 -0.001971 -0.000885 0.015264 0.000630 0.004165 -0.000573
# 4 -0.001590 0.007180 0.000630 0.066001 0.011234 -0.008058
# 5 -0.000228 0.000256 0.004165 0.011234 0.030524 -0.000952
# 6 -0.001553 -0.003395 -0.000573 -0.008058 -0.000952 0.027292
#
#
# Mechanical properties :
#
#
# Convention : Reuss Voigt Hill
#
# Bulk Modulus (GPa) = 49.65722 68.19414 58.92568
# Shear Modulus (GPa) = 28.31825 37.02832 32.67328
#
# Velocity S-wave (km/s) = 3.56337 4.07469 3.82758
# Velocity P-wave (km/s) = 6.26067 7.26052 6.77905
#
# Compressibility (1/GPa) = 0.02013806
#
# Stress axis : x y z
#
# Youngs Moduli (GPa) = 114.56678 109.96112 65.51474
#
# Poissons Ratio (x) = 0.39786 0.12912
# Poissons Ratio (y) = 0.41452 0.05799
# Poissons Ratio (z) = 0.22580 0.09733
#
# Static dielectric constant tensor:
#      x y z
#    x 4.445920 -0.223790 -0.048810 
#    y -0.223790 4.891090 -0.084770 
#    z -0.048810 -0.084770 3.959410 
# 
# 
# High freq. dielectric constant tensor:
#      x y z
#    x 1.881520 0.009830 -0.001100 
#    y 0.009830 1.896970 -0.003090 
#    z -0.001100 -0.003090 1.868160 
# 
# From -- ./inp_files/299748.got.cif
#   From: 2010.06.25/outbox.cif.g09.slc.cpg/sg2_150_cif.got.tgz:299748.got - 2010.06.27 13:26:56.
