data_PCOD8011528
_publ_section_title
;
Structure prediction by ZEFSAII (Michael W. Deem and Ramdas Pophale) SiO2 
 PCOD8011528
Probable space group: P -1
;
_chemical_formula_sum "Si O2"
_cell_formula_units_Z 16
_cell_length_a 10.991569
_cell_length_b 9.040252
_cell_length_c 10.045539
_cell_angle_alpha 64.120724
_cell_angle_beta 98.766502
_cell_angle_gamma 123.678438
_cell_volume 741.980532
_symmetry_space_group_name_H-M "P -1"
_symmetry_group_IT_number 2
_symmetry_cell_setting 'triclinic'
loop_
_space_group_symop_operation_xyz
x,y,z
-x,-y,-z
loop_
_atom_site_type_symbol
_atom_site_label
_atom_site_fract_x
_atom_site_fract_y
_atom_site_fract_z
Si Si1 0.674235 0.981188 0.434949
Si Si2 0.606376 0.868760 0.181297
Si Si3 0.107316 0.334832 0.050608
Si Si4 0.279193 0.585769 0.345621
Si Si5 0.858142 0.838470 0.617422
Si Si6 0.641921 0.290920 0.408050
Si Si7 0.375031 0.423380 0.895318
Si Si8 0.187304 0.723250 0.052782
O O1 0.704096 0.936280 0.307710
O O2 0.751995 0.919250 0.579193
O O3 0.502207 0.874631 0.474037
O O4 0.729306 0.210265 0.375159
O O5 0.437872 0.742372 0.246953
O O6 0.634046 0.738757 0.138477
O O7 0.657785 0.071640 0.032770
O O8 0.090171 0.189904 0.221307
O O9 0.177728 0.559559 0.017876
O O10 0.212942 0.327379 0.964700
O O11 0.946266 0.246864 0.997603
O O12 0.235139 0.368295 0.391386
O O13 0.256259 0.577502 0.503651
O O14 0.176852 0.646620 0.232235
O O15 0.000000 0.000000 0.500000
O O16 0.589536 0.393675 0.260026
O O17 0.500000 0.500000 0.000000
#
# Coordination Sequence:
#
# PCOD8011528 Si02
#       8
#     2   2   2   2   2   2   2   2
#     4  10  21  39  62  90 121 159 209 254 304 367
#     4  11  22  38  66  92 122 163 205 255 309 368
#     4  10  23  40  62  92 129 165 205 251 306 372
#     4  10  22  40  63  93 123 161 212 258 306 365
#     4  11  22  40  64  89 124 168 205 248 310 371
#     4  10  22  39  62  90 122 158 204 262 308 356
#     4  12  24  39  61  92 128 162 201 254 310 365
#     4  10  21  41  63  90 125 164 204 254 309 366
#
# _framework density 21.563907
#
# number of rings (size 3 to 8) (size 9 to 14) (size 15 to 20)
#    0.000    1.500    0.000    5.625    0.000    8.500 
#    0.000    3.750    0.000    0.000    0.000    0.000 
#    0.000    0.000    0.000    0.000    0.000    0.000 
#
# Total GULP energy -198317.540697 kJ/mol
# GULP energy per Si atom -12394.846294 kJ/mol
# Density = 2.151483 g / cm^3
# Si number density = 21.563907 Si / 1000 Ang^3
#
#
#
# Elastic Constant Matrix: (Units=GPa)
#
#
# Indices 1 2 3 4 5 6 
#
# 1 86.6813 45.8718 39.1179 16.3092 7.4752 -14.1341
# 2 45.8718 100.7739 55.6958 -2.0947 2.0803 -15.6964
# 3 39.1179 55.6958 127.1433 10.3435 15.0523 -18.1667
# 4 16.3092 -2.0947 10.3435 41.2153 0.6922 -4.7004
# 5 7.4752 2.0803 15.0523 0.6922 43.6126 -5.4312
# 6 -14.1341 -15.6964 -18.1667 -4.7004 -5.4312 32.6373
#
#
#
# Elastic Compliance Matrix: (Units=1/GPa)
#
#
# Indices 1 2 3 4 5 6 
#
# 1 0.017650 -0.007108 -0.001223 -0.006749 -0.001876 0.002260
# 2 -0.007108 0.016702 -0.005423 0.005337 0.002599 0.003137
# 3 -0.001223 -0.005423 0.011529 -0.002357 -0.003173 0.002412
# 4 -0.006749 0.005337 -0.002357 0.028071 0.001599 0.002641
# 5 -0.001876 0.002599 -0.003173 0.001599 0.024569 0.002990
# 6 0.002260 0.003137 0.002412 0.002641 0.002990 0.035348
#
#
# Mechanical properties :
#
#
# Convention : Reuss Voigt Hill
#
# Bulk Modulus (GPa) = 54.42621 66.21883 60.32252
# Shear Modulus (GPa) = 29.85076 35.08725 32.46901
#
# Velocity S-wave (km/s) = 3.72464 4.03814 3.88456
# Velocity P-wave (km/s) = 6.61752 7.24686 6.93933
#
# Compressibility (1/GPa) = 0.01837350
#
# Stress axis : x y z
#
# Youngs Moduli (GPa) = 56.65708 59.87368 86.73824
#
# Poissons Ratio (x) = 0.42559 0.10604
# Poissons Ratio (y) = 0.40272 0.47039
# Poissons Ratio (z) = 0.06926 0.32470
#
# Static dielectric constant tensor:
#      x y z
#    x 3.896650 0.010780 0.241940 
#    y 0.010780 4.071400 0.161990 
#    z 0.241940 0.161990 4.270520 
# 
# 
# High freq. dielectric constant tensor:
#      x y z
#    x 1.837070 -0.002800 0.011450 
#    y -0.002800 1.845620 -0.004440 
#    z 0.011450 -0.004440 1.860290 
# 
# From -- ./inp_files/242596.got.cif
#   From: 2010.06.25/outbox.cif.g09.slc.cpg/sg2_122_cif.got.tgz:242596.got - 2010.06.27 13:26:56.
