data_PCOD8011474
_publ_section_title
;
Structure prediction by ZEFSAII (Michael W. Deem and Ramdas Pophale) SiO2 
 PCOD8011474
Probable space group: P -1
;
_chemical_formula_sum "Si O2"
_cell_formula_units_Z 16
_cell_length_a 9.783702
_cell_length_b 11.190236
_cell_length_c 14.373043
_cell_angle_alpha 28.977966
_cell_angle_beta 100.016087
_cell_angle_gamma 88.480834
_cell_volume 696.113763
_symmetry_space_group_name_H-M "P -1"
_symmetry_group_IT_number 2
_symmetry_cell_setting 'triclinic'
loop_
_space_group_symop_operation_xyz
x,y,z
-x,-y,-z
loop_
_atom_site_type_symbol
_atom_site_label
_atom_site_fract_x
_atom_site_fract_y
_atom_site_fract_z
Si Si1 0.182366 0.381291 0.442180
Si Si2 0.804693 0.842931 0.593283
Si Si3 0.328721 0.546349 0.509944
Si Si4 0.408251 0.956520 0.147787
Si Si5 0.141679 0.650685 0.777148
Si Si6 0.153941 0.435497 0.722375
Si Si7 0.371040 0.297113 0.179894
Si Si8 0.598580 0.170843 0.139637
O O1 0.201974 0.371626 0.338771
O O2 0.279341 0.516906 0.417340
O O3 0.011074 0.544429 0.337974
O O4 0.243391 0.071548 0.693015
O O5 0.675776 0.879588 0.630130
O O6 0.970049 0.740606 0.730021
O O7 0.786701 0.124331 0.350736
O O8 0.364336 0.813871 0.328858
O O9 0.472844 0.283429 0.734880
O O10 0.201220 0.585994 0.542791
O O11 0.480807 0.161028 0.054202
O O12 0.263242 0.125370 0.954400
O O13 0.149936 0.594693 0.707046
O O14 0.241377 0.391901 0.021847
O O15 0.529708 0.138074 0.256288
O O16 0.381482 0.552238 0.059808
#
# Coordination Sequence:
#
# PCOD8011474 Si02
#       8
#     2   2   2   2   2   2   2   2
#     4  10  22  44  59  93 130 151 211 261 293 372
#     4  10  22  39  63  92 126 165 193 255 315 356
#     4  10  23  43  66  89 121 164 201 258 312 352
#     4  10  22  44  61  92 124 154 214 255 292 378
#     4  10  21  39  61  97 126 149 212 251 295 385
#     4  11  22  40  68  89 121 166 199 252 317 358
#     4  11  21  40  63  87 126 171 200 247 311 362
#     4  10  22  41  59  91 133 156 208 260 290 371
#
# _framework density 22.984748
#
# number of rings (size 3 to 8) (size 9 to 14) (size 15 to 20)
#    0.000    1.750    2.500    1.125    1.750    1.000 
#   15.750    0.000    0.000    0.000    0.000    0.000 
#    0.000    0.000    0.000    0.000    0.000    0.000 
#
# Total GULP energy -198344.851834 kJ/mol
# GULP energy per Si atom -12396.553240 kJ/mol
# Density = 2.293243 g / cm^3
# Si number density = 22.984748 Si / 1000 Ang^3
#
#
#
# Elastic Constant Matrix: (Units=GPa)
#
#
# Indices 1 2 3 4 5 6 
#
# 1 106.2732 15.9622 27.7032 1.7534 10.3892 -12.3948
# 2 15.9622 53.4068 3.2557 2.3684 -4.4735 3.6345
# 3 27.7032 3.2557 56.3041 -5.7288 12.6482 0.6662
# 4 1.7534 2.3684 -5.7288 20.5834 -3.8865 -7.1373
# 5 10.3892 -4.4735 12.6482 -3.8865 44.1358 4.7616
# 6 -12.3948 3.6345 0.6662 -7.1373 4.7616 31.2020
#
#
#
# Elastic Compliance Matrix: (Units=1/GPa)
#
#
# Indices 1 2 3 4 5 6 
#
# 1 0.012321 -0.003916 -0.005422 -0.000587 -0.002410 0.005700
# 2 -0.003916 0.020699 -0.000304 -0.003309 0.003380 -0.005233
# 3 -0.005422 -0.000304 0.022032 0.005559 -0.004511 -0.000629
# 4 -0.000587 -0.003309 0.005559 0.055185 0.001732 0.012393
# 5 -0.002410 0.003380 -0.004511 0.001732 0.025526 -0.004754
# 6 0.005700 -0.005233 -0.000629 0.012393 -0.004754 0.038497
#
#
# Mechanical properties :
#
#
# Convention : Reuss Voigt Hill
#
# Bulk Modulus (GPa) = 27.95706 34.42514 31.19110
# Shear Modulus (GPa) = 24.33485 30.45510 27.39497
#
# Velocity S-wave (km/s) = 3.25736 3.64402 3.45610
# Velocity P-wave (km/s) = 5.13195 5.71971 5.43378
#
# Compressibility (1/GPa) = 0.03576914
#
# Stress axis : x y z
#
# Youngs Moduli (GPa) = 81.16035 48.31125 45.38777
#
# Poissons Ratio (x) = 0.18918 0.24608
# Poissons Ratio (y) = 0.31781 0.01381
# Poissons Ratio (z) = 0.44003 0.01470
#
# Static dielectric constant tensor:
#      x y z
#    x 4.256450 0.069710 0.332930 
#    y 0.069710 3.980060 -0.056220 
#    z 0.332930 -0.056220 3.867860 
# 
# 
# High freq. dielectric constant tensor:
#      x y z
#    x 1.914240 0.006390 0.025530 
#    y 0.006390 1.899230 -0.001310 
#    z 0.025530 -0.001310 1.888910 
# 
# From -- ./inp_files/398172.got.cif
#   From: 2010.06.25/outbox.cif.g09.slc.cpg/sg2_200_cif.got.tgz:398172.got - 2010.06.27 13:26:56.
