data_PCOD8011388
_publ_section_title
;
Structure prediction by ZEFSAII (Michael W. Deem and Ramdas Pophale) SiO2 
 PCOD8011388
Probable space group: P -1
;
_chemical_formula_sum "Si O2"
_cell_formula_units_Z 16
_cell_length_a 10.411950
_cell_length_b 17.380883
_cell_length_c 11.165177
_cell_angle_alpha 140.738499
_cell_angle_beta 131.879860
_cell_angle_gamma 34.085002
_cell_volume 714.650991
_symmetry_space_group_name_H-M "P -1"
_symmetry_group_IT_number 2
_symmetry_cell_setting 'triclinic'
loop_
_space_group_symop_operation_xyz
x,y,z
-x,-y,-z
loop_
_atom_site_type_symbol
_atom_site_label
_atom_site_fract_x
_atom_site_fract_y
_atom_site_fract_z
Si Si1 0.731479 0.739109 0.651233
Si Si2 0.459173 0.081350 0.818719
Si Si3 0.666409 0.252669 0.593221
Si Si4 0.920428 0.534655 0.293884
Si Si5 0.898044 0.948365 0.527995
Si Si6 0.793809 0.571129 0.869188
Si Si7 0.799467 0.075487 0.872799
Si Si8 0.567281 0.566139 0.936252
O O1 0.543717 0.728602 0.565596
O O2 0.794361 0.688036 0.488205
O O3 0.951667 0.625283 0.736396
O O4 0.628330 0.922954 0.817122
O O5 0.597212 0.081615 0.798833
O O6 0.263205 0.089567 0.648715
O O7 0.340234 0.240365 0.016877
O O8 0.798867 0.119144 0.618366
O O9 0.562439 0.425185 0.791246
O O10 0.845285 0.199335 0.534954
O O11 0.103060 0.522167 0.306855
O O12 0.741468 0.549182 0.115804
O O13 0.916982 0.956703 0.690639
O O14 0.631704 0.552928 0.818446
O O15 0.000000 0.500000 0.000000
O O16 0.685033 0.259038 0.990237
O O17 0.000000 0.000000 0.000000
#
# Coordination Sequence:
#
# PCOD8011388 Si02
#       8
#     2   2   2   2   2   2   2   2
#     4  10  23  38  58  91 122 155 196 245 296 346
#     4  10  21  40  62  87 119 157 200 241 294 355
#     4  10  22  39  61  89 120 155 199 246 292 343
#     4  10  21  39  61  86 117 155 199 242 295 357
#     4  10  21  40  63  87 119 159 198 240 293 353
#     4   9  19  36  60  86 111 150 201 241 283 343
#     4  11  25  40  60  91 122 153 194 247 298 348
#     4  10  21  40  61  84 116 156 197 241 295 353
#
# _framework density 22.388551
#
# number of rings (size 3 to 8) (size 9 to 14) (size 15 to 20)
#    0.000    2.000    0.000    3.375    0.000   10.500 
#    0.000    1.250    0.000    0.000    0.000    0.000 
#    0.000    0.000    0.000    0.000    0.000    0.000 
#
# Total GULP energy -198377.842689 kJ/mol
# GULP energy per Si atom -12398.615168 kJ/mol
# Density = 2.233759 g / cm^3
# Si number density = 22.388551 Si / 1000 Ang^3
#
#
#
# Elastic Constant Matrix: (Units=GPa)
#
#
# Indices 1 2 3 4 5 6 
#
# 1 81.7286 17.2498 35.2003 -0.3913 -12.7237 -14.8878
# 2 17.2498 121.3974 37.7084 9.3663 3.4764 -1.5328
# 3 35.2003 37.7084 54.8688 5.5662 2.4136 -1.0853
# 4 -0.3913 9.3663 5.5662 27.7467 11.7838 0.1962
# 5 -12.7237 3.4764 2.4136 11.7838 31.4338 11.1867
# 6 -14.8878 -1.5328 -1.0853 0.1962 11.1867 29.8787
#
#
#
# Elastic Compliance Matrix: (Units=1/GPa)
#
#
# Indices 1 2 3 4 5 6 
#
# 1 0.020411 0.001430 -0.014204 -0.000251 0.006722 0.007213
# 2 0.001430 0.010702 -0.008056 -0.002226 0.000575 0.000768
# 3 -0.014204 -0.008056 0.033210 -0.001930 -0.005137 -0.004348
# 4 -0.000251 -0.002226 -0.001930 0.045179 -0.018953 0.006490
# 5 0.006722 0.000575 -0.005137 -0.018953 0.047060 -0.014303
# 6 0.007213 0.000768 -0.004348 0.006490 -0.014303 0.042256
#
#
# Mechanical properties :
#
#
# Convention : Reuss Voigt Hill
#
# Bulk Modulus (GPa) = 44.12848 48.70130 46.41489
# Shear Modulus (GPa) = 20.15861 29.00094 24.57978
#
# Velocity S-wave (km/s) = 3.00392 3.60300 3.31701
# Velocity P-wave (km/s) = 5.63777 6.25370 5.95371
#
# Compressibility (1/GPa) = 0.02266110
#
# Stress axis : x y z
#
# Youngs Moduli (GPa) = 48.99388 93.44372 30.11103
#
# Poissons Ratio (x) = -0.13361 0.42771
# Poissons Ratio (y) = -0.07006 0.24258
# Poissons Ratio (z) = 0.69593 0.75281
#
# Static dielectric constant tensor:
#      x y z
#    x 4.392420 -0.069480 -0.205780 
#    y -0.069480 4.007450 0.309800 
#    z -0.205780 0.309800 3.756370 
# 
# 
# High freq. dielectric constant tensor:
#      x y z
#    x 1.886220 -0.003570 -0.009240 
#    y -0.003570 1.893880 0.018950 
#    z -0.009240 0.018950 1.854500 
# 
# From -- ./inp_files/438749.got.cif
#   From: 2010.06.25/outbox.cif.g09.slc.cpg/sg2_220_cif.got.tgz:438749.got - 2010.06.27 13:26:56.
