data_PCOD8011135
_publ_section_title
;
Structure prediction by ZEFSAII (Michael W. Deem and Ramdas Pophale) SiO2 
 PCOD8011135
Probable space group: P -1
;
_chemical_formula_sum "Si O2"
_cell_formula_units_Z 16
_cell_length_a 12.245581
_cell_length_b 9.206887
_cell_length_c 14.940526
_cell_angle_alpha 72.499726
_cell_angle_beta 151.422889
_cell_angle_gamma 98.617752
_cell_volume 743.966689
_symmetry_space_group_name_H-M "P -1"
_symmetry_group_IT_number 2
_symmetry_cell_setting 'triclinic'
loop_
_space_group_symop_operation_xyz
x,y,z
-x,-y,-z
loop_
_atom_site_type_symbol
_atom_site_label
_atom_site_fract_x
_atom_site_fract_y
_atom_site_fract_z
Si Si1 0.999653 0.560366 0.241894
Si Si2 0.498452 0.739331 0.820235
Si Si3 0.114672 0.074511 0.308289
Si Si4 0.371018 0.735345 0.526867
Si Si5 0.848743 0.614266 0.797469
Si Si6 0.262018 0.091808 0.605875
Si Si7 0.784517 0.309087 0.225633
Si Si8 0.603655 0.117718 0.991731
O O1 0.922062 0.436358 0.272412
O O2 0.182238 0.634190 0.410168
O O3 0.121949 0.478286 0.256416
O O4 0.777478 0.705050 0.036177
O O5 0.460860 0.715108 0.695238
O O6 0.385741 0.626359 0.823906
O O7 0.370936 0.908315 0.737548
O O8 0.063781 0.224925 0.177882
O O9 0.259228 0.116692 0.491045
O O10 0.869725 0.034363 0.167083
O O11 0.266130 0.920110 0.394890
O O12 0.574759 0.663054 0.616845
O O13 0.000000 0.500000 0.000000
O O14 0.992020 0.155002 0.432828
O O15 0.434487 0.174877 0.772450
O O16 0.624512 0.269502 0.036543
O O17 0.500000 0.000000 0.000000
#
# Coordination Sequence:
#
# PCOD8011135 Si02
#       8
#     2   2   2   2   2   2   2   2
#     4  12  25  46  64 100 138 176 221 280 340 403
#     4  11  23  41  64  99 137 177 218 277 332 402
#     4  10  24  46  67 104 133 171 233 279 327 404
#     4  11  26  43  72  94 133 181 228 273 338 396
#     4  12  24  50  72  93 136 177 225 290 338 388
#     4  10  21  38  67  97 137 174 221 270 327 397
#     4  11  24  40  66 101 142 175 225 275 330 408
#     4  11  21  37  69 104 137 177 218 269 339 397
#
# _framework density 21.506339000000001
#
# number of rings (size 3 to 8) (size 9 to 14) (size 15 to 20)
#    0.000    1.000    5.000    2.250    3.500    2.500 
#    2.250    0.625    0.000    0.000    0.000    0.000 
#    0.000    0.000    0.000    0.000    0.000    0.000 
#
# Total GULP energy -198335.240627 kJ/mol
# GULP energy per Si atom -12395.952539 kJ/mol
# Density = 2.145739 g / cm^3
# Si number density = 21.506339 Si / 1000 Ang^3
#
#
#
# Elastic Constant Matrix: (Units=GPa)
#
#
# Indices 1 2 3 4 5 6 
#
# 1 89.7905 8.5479 34.0831 -17.6710 27.0472 18.1978
# 2 8.5479 49.0103 28.7624 -11.3434 18.1676 33.6266
# 3 34.0831 28.7624 111.8768 0.8645 22.3024 10.6232
# 4 -17.6710 -11.3434 0.8645 22.3915 6.4389 10.9398
# 5 27.0472 18.1676 22.3024 6.4389 28.0929 -10.1133
# 6 18.1978 33.6266 10.6232 10.9398 -10.1133 24.8722
#
#
#
# Elastic Compliance Matrix: (Units=1/GPa)
#
#
# Indices 1 2 3 4 5 6 
#
# 1 0.008963 -0.009492 -0.001917 -0.003598 0.003491 0.010096
# 2 -0.009492 0.006189 -0.002784 -0.014655 0.015161 0.012377
# 3 -0.001917 -0.002784 0.011716 -0.000472 -0.006342 -0.002209
# 4 -0.003598 -0.014655 -0.000472 0.019705 0.016205 0.020570
# 5 0.003491 0.015161 -0.006342 0.016205 0.016240 -0.020867
# 6 0.010096 0.012377 -0.002209 0.020570 -0.020867 -0.000504
#
#
# Mechanical properties :
#
#
# Convention : Reuss Voigt Hill
#
# Bulk Modulus (GPa) = -658.70756 43.71829 -307.49464
# Shear Modulus (GPa) = 55.44045 27.02359 41.23202
#
# Velocity S-wave (km/s) = 5.08278 3.54862 4.38334
# Velocity P-wave (km/s) = 16.50770 6.09610 10.84762
#
# Compressibility (1/GPa) = -0.00151812
#
# Stress axis : x y z
#
# Youngs Moduli (GPa) = 111.57593 161.58144 85.35504
#
# Poissons Ratio (x) = 1.53375 0.16361
# Poissons Ratio (y) = 1.05909 0.23760
# Poissons Ratio (z) = 0.21387 0.44980
#
# Static dielectric constant tensor:
#      x y z
#    x 4.026230 -0.181220 0.131900 
#    y -0.181220 3.928130 -0.077940 
#    z 0.131900 -0.077940 4.111390 
# 
# 
# High freq. dielectric constant tensor:
#      x y z
#    x 1.848740 -0.008100 0.009530 
#    y -0.008100 1.835420 -0.007240 
#    z 0.009530 -0.007240 1.851500 
# 
# From -- ./inp_files/515461.got.cif
#   From: 2010.06.25/outbox.cif.g09.slc.cpg/sg2_258_cif.got.tgz:515461.got - 2010.06.27 13:26:56.
