data_PCOD8011447
_publ_section_title
;
Structure prediction by ZEFSAII (Michael W. Deem and Ramdas Pophale) SiO2 
 PCOD8011447
Probable space group: P -1
;
_chemical_formula_sum "Si O2"
_cell_formula_units_Z 16
_cell_length_a 11.212727
_cell_length_b 14.026695
_cell_length_c 8.095239
_cell_angle_alpha 67.770221
_cell_angle_beta 137.295774
_cell_angle_gamma 93.934809
_cell_volume 753.550181
_symmetry_space_group_name_H-M "P -1"
_symmetry_group_IT_number 2
_symmetry_cell_setting 'triclinic'
loop_
_space_group_symop_operation_xyz
x,y,z
-x,-y,-z
loop_
_atom_site_type_symbol
_atom_site_label
_atom_site_fract_x
_atom_site_fract_y
_atom_site_fract_z
Si Si1 0.505144 0.190582 0.653105
Si Si2 0.662158 0.171341 0.453405
Si Si3 0.223647 0.409958 0.139362
Si Si4 0.156265 0.608248 0.179716
Si Si5 0.972762 0.935075 0.275282
Si Si6 0.123070 0.830131 0.831780
Si Si7 0.536022 0.404530 0.225779
Si Si8 0.446289 0.030852 0.238827
O O1 0.607226 0.174391 0.588275
O O2 0.324429 0.297223 0.415919
O O3 0.461593 0.077139 0.712359
O O4 0.652950 0.200820 0.931686
O O5 0.881282 0.103290 0.701997
O O6 0.625762 0.295584 0.280787
O O7 0.539463 0.123290 0.235313
O O8 0.226173 0.515703 0.172652
O O9 0.334923 0.407783 0.086098
O O10 0.015499 0.411788 0.884907
O O11 0.327567 0.592541 0.487203
O O12 0.081539 0.728677 0.942827
O O13 0.043105 0.850148 0.553322
O O14 0.963062 0.057820 0.226682
O O15 0.776349 0.924064 0.031630
O O16 0.500000 0.500000 0.000000
O O17 0.500000 0.000000 0.500000
#
# Coordination Sequence:
#
# PCOD8011447 Si02
#       8
#     2   2   2   2   2   2   2   2
#     4   9  19  39  62  90 120 155 205 250 301 369
#     4  10  21  39  61  92 114 168 199 237 323 353
#     4  10  23  41  66  92 117 163 212 251 308 366
#     4  11  23  43  66  90 118 170 207 251 311 359
#     4  10  23  39  59  92 128 158 200 254 297 362
#     4  10  21  41  61  89 125 162 204 248 304 359
#     4  11  25  43  64  92 126 158 204 263 306 362
#     4   9  20  37  58  89 123 153 199 244 298 365
#
# _framework density 21.232825999999999
#
# number of rings (size 3 to 8) (size 9 to 14) (size 15 to 20)
#    0.000    2.000    2.500    0.375    3.500    8.000 
#    6.750    1.875    0.000    0.000    0.000    0.000 
#    0.000    0.000    0.000    0.000    0.000    0.000 
#
# Total GULP energy -198307.165671 kJ/mol
# GULP energy per Si atom -12394.197854 kJ/mol
# Density = 2.118450 g / cm^3
# Si number density = 21.232826 Si / 1000 Ang^3
#
#
#
# Elastic Constant Matrix: (Units=GPa)
#
#
# Indices 1 2 3 4 5 6 
#
# 1 46.8986 23.6806 28.9264 -3.6155 11.4427 2.6468
# 2 23.6806 129.9233 42.8626 -12.1786 2.3406 19.9806
# 3 28.9264 42.8626 106.8328 -0.4280 1.5894 7.9764
# 4 -3.6155 -12.1786 -0.4280 36.5170 0.8352 7.3291
# 5 11.4427 2.3406 1.5894 0.8352 30.4451 -5.1697
# 6 2.6468 19.9806 7.9764 7.3291 -5.1697 26.2068
#
#
#
# Elastic Compliance Matrix: (Units=1/GPa)
#
#
# Indices 1 2 3 4 5 6 
#
# 1 0.029733 -0.002424 -0.006750 0.002719 -0.011057 -0.002042
# 2 -0.002424 0.011052 -0.003063 0.005250 -0.001452 -0.009004
# 3 -0.006750 -0.003063 0.012367 -0.001623 0.002195 0.000140
# 4 0.002719 0.005250 -0.001623 0.032239 -0.004551 -0.013697
# 5 -0.011057 -0.001452 0.002195 -0.004551 0.038907 0.010503
# 6 -0.002042 -0.009004 0.000140 -0.013697 0.010503 0.051089
#
#
# Mechanical properties :
#
#
# Convention : Reuss Voigt Hill
#
# Bulk Modulus (GPa) = 34.87033 52.73267 43.80150
# Shear Modulus (GPa) = 23.87531 31.17945 27.52738
#
# Velocity S-wave (km/s) = 3.35692 3.83620 3.60454
# Velocity P-wave (km/s) = 5.61104 6.67168 6.16421
#
# Compressibility (1/GPa) = 0.02867767
#
# Stress axis : x y z
#
# Youngs Moduli (GPa) = 33.63297 90.47942 80.85787
#
# Poissons Ratio (x) = 0.21935 0.54579
# Poissons Ratio (y) = 0.08154 0.24767
# Poissons Ratio (z) = 0.22702 0.27714
#
# Static dielectric constant tensor:
#      x y z
#    x 3.636780 0.410190 0.193140 
#    y 0.410190 5.253140 0.047920 
#    z 0.193140 0.047920 3.995550 
# 
# 
# High freq. dielectric constant tensor:
#      x y z
#    x 1.804530 0.008800 0.014750 
#    y 0.008800 1.851630 -0.007580 
#    z 0.014750 -0.007580 1.834090 
# 
# From -- ./inp_files/272724.got.cif
#   From: 2010.06.25/outbox.cif.g09.slc.cpg/sg2_137_cif.got.tgz:272724.got - 2010.06.27 13:26:56.
