data_PCOD8011176
_publ_section_title
;
Structure prediction by ZEFSAII (Michael W. Deem and Ramdas Pophale) SiO2 
 PCOD8011176
Probable space group: P -1
;
_chemical_formula_sum "Si O2"
_cell_formula_units_Z 14
_cell_length_a 9.767505
_cell_length_b 22.920642
_cell_length_c 5.250711
_cell_angle_alpha 72.791391
_cell_angle_beta 106.635153
_cell_angle_gamma 144.825100
_cell_volume 644.756023
_symmetry_space_group_name_H-M "P -1"
_symmetry_group_IT_number 2
_symmetry_cell_setting 'triclinic'
loop_
_space_group_symop_operation_xyz
x,y,z
-x,-y,-z
loop_
_atom_site_type_symbol
_atom_site_label
_atom_site_fract_x
_atom_site_fract_y
_atom_site_fract_z
Si Si1 0.404977 0.017132 0.741320
Si Si2 0.290529 0.478555 0.686219
Si Si3 0.202083 0.340034 0.133145
Si Si4 0.860508 0.164933 0.510704
Si Si5 0.984166 0.035008 0.197088
Si Si6 0.225988 0.533802 0.091137
Si Si7 0.733706 0.750740 0.025058
O O1 0.221249 0.923730 0.568287
O O2 0.274537 0.022100 0.842082
O O3 0.639187 0.122596 0.586975
O O4 0.500000 0.000000 0.000000
O O5 0.573844 0.559990 0.706136
O O6 0.188216 0.472289 0.380683
O O7 0.164337 0.370198 0.824854
O O8 0.243515 0.505636 0.868895
O O9 0.958521 0.253911 0.274263
O O10 0.263825 0.290847 0.167892
O O11 0.068737 0.210594 0.738011
O O12 0.000000 0.000000 0.500000
O O13 0.199253 0.157579 0.138442
O O14 0.000000 0.000000 0.000000
O O15 0.465388 0.655518 0.120894
O O16 0.000000 0.500000 0.000000
#
# Coordination Sequence:
#
# PCOD8011176 Si02
#       7
#     2   2   2   2   2   2   2
#     4  11  23  41  69 101 134 183 239 301 340 415
#     4  10  23  39  69 102 134 169 235 293 343 409
#     4  10  21  38  69 102 132 172 230 299 352 411
#     4  11  20  39  71  97 137 177 240 285 362 411
#     4  12  27  46  69 103 145 186 234 289 353 430
#     4  11  24  45  68  96 142 187 228 281 354 435
#     4  11  23  43  70  96 134 192 229 284 368 422
#
# _framework density 21.713638
#
# number of rings (size 3 to 8) (size 9 to 14) (size 15 to 20)
#    0.000    1.143    4.286    1.286    4.000    1.714 
#    2.571    0.000    0.000    0.000    0.000    0.000 
#    0.000    0.000    0.000    0.000    0.000    0.000 
#
# Total GULP energy -173529.800613 kJ/mol
# GULP energy per Si atom -12394.985758 kJ/mol
# Density = 2.166422 g / cm^3
# Si number density = 21.713638 Si / 1000 Ang^3
#
#
#
# Elastic Constant Matrix: (Units=GPa)
#
#
# Indices 1 2 3 4 5 6 
#
# 1 133.7541 49.0979 45.1740 -14.9199 -6.4320 16.5399
# 2 49.0979 113.7432 48.0822 -32.7878 -0.1204 17.7254
# 3 45.1740 48.0822 135.5323 -30.1780 4.5138 10.6788
# 4 -14.9199 -32.7878 -30.1780 49.9366 -0.2647 0.1225
# 5 -6.4320 -0.1204 4.5138 -0.2647 39.3294 -1.6118
# 6 16.5399 17.7254 10.6788 0.1225 -1.6118 41.2717
#
#
#
# Elastic Compliance Matrix: (Units=1/GPa)
#
#
# Indices 1 2 3 4 5 6 
#
# 1 0.009586 -0.003066 -0.002105 -0.000407 0.001719 -0.001912
# 2 -0.003066 0.013536 -0.001926 0.006816 -0.000362 -0.004121
# 3 -0.002105 -0.001926 0.009779 0.004011 -0.001483 -0.000929
# 4 -0.000407 0.006816 0.004011 0.026810 -0.000485 -0.003900
# 5 0.001719 -0.000362 -0.001483 -0.000485 0.025909 0.000864
# 6 -0.001912 -0.004121 -0.000929 -0.003900 0.000864 0.027052
#
#
# Mechanical properties :
#
#
# Convention : Reuss Voigt Hill
#
# Bulk Modulus (GPa) = 53.45274 74.19308 63.82291
# Shear Modulus (GPa) = 37.56590 42.15256 39.85923
#
# Velocity S-wave (km/s) = 4.16391 4.41079 4.28913
# Velocity P-wave (km/s) = 6.91289 7.75778 7.34749
#
# Compressibility (1/GPa) = 0.01870812
#
# Stress axis : x y z
#
# Youngs Moduli (GPa) = 104.31487 73.87881 102.26292
#
# Poissons Ratio (x) = 0.22649 0.21524
# Poissons Ratio (y) = 0.31980 0.19694
# Poissons Ratio (z) = 0.21956 0.14228
#
# Static dielectric constant tensor:
#      x y z
#    x 3.781150 0.090790 -0.121760 
#    y 0.090790 4.003230 -0.297030 
#    z -0.121760 -0.297030 4.094740 
# 
# 
# High freq. dielectric constant tensor:
#      x y z
#    x 1.836930 0.003270 -0.015020 
#    y 0.003270 1.856180 -0.012390 
#    z -0.015020 -0.012390 1.866150 
# 
# From -- ./inp_files/54713.got.cif
#   From: 2010.06.25/outbox.cif.g09.slc.cpg/sg2_28_cif.got.tgz:54713.got - 2010.06.27 13:26:56.
