data_PCOD8011955
_publ_section_title
;
Structure prediction by ZEFSAII (Michael W. Deem and Ramdas Pophale) SiO2 
 PCOD8011955
Probable space group: P -1
;
_chemical_formula_sum "Si O2"
_cell_formula_units_Z 14
_cell_length_a 12.136816
_cell_length_b 11.486839
_cell_length_c 14.753069
_cell_angle_alpha 59.506204
_cell_angle_beta 152.680881
_cell_angle_gamma 103.873622
_cell_volume 687.853737
_symmetry_space_group_name_H-M "P -1"
_symmetry_group_IT_number 2
_symmetry_cell_setting 'triclinic'
loop_
_space_group_symop_operation_xyz
x,y,z
-x,-y,-z
loop_
_atom_site_type_symbol
_atom_site_label
_atom_site_fract_x
_atom_site_fract_y
_atom_site_fract_z
Si Si1 0.709521 0.222691 0.048492
Si Si2 0.257218 0.206848 0.604023
Si Si3 0.252756 0.264477 0.225800
Si Si4 0.957860 0.416801 0.132484
Si Si5 0.663077 0.309648 0.181585
Si Si6 0.232175 0.019311 0.211476
Si Si7 0.644507 0.042500 0.361704
O O1 0.714284 0.377280 0.959516
O O2 0.609723 0.255414 0.066797
O O3 0.489214 0.208212 0.833658
O O4 0.024416 0.067882 0.325148
O O5 0.138334 0.343372 0.385285
O O6 0.997430 0.240094 0.465212
O O7 0.398302 0.031863 0.731955
O O8 0.588556 0.131965 0.531370
O O9 0.168544 0.343818 0.230872
O O10 0.086986 0.177694 0.106534
O O11 0.197872 0.392421 0.057754
O O12 0.567636 0.223884 0.218187
O O13 0.500000 0.500000 0.000000
O O14 0.441446 0.038412 0.289944
O O15 0.000000 0.000000 0.000000
#
# Coordination Sequence:
#
# PCOD8011955 Si02
#       7
#     2   2   2   2   2   2   2
#     4  10  21  40  65  92 118 161 205 243 301 370
#     4  10  21  39  65  92 116 160 207 237 303 373
#     4  10  21  40  59  85 124 161 203 253 300 343
#     4   9  20  39  62  86 123 159 197 257 297 351
#     4  10  23  41  63  90 129 151 197 256 307 357
#     4  11  24  38  61  92 122 162 207 245 302 363
#     4  10  22  41  62  86 126 163 195 257 298 350
#
# _framework density 20.353165000000001
#
# number of rings (size 3 to 8) (size 9 to 14) (size 15 to 20)
#    0.000    2.286    2.857    1.714    6.000    4.000 
#    0.000    2.857    0.000    0.000    0.000    0.000 
#    0.000    0.000    0.000    0.000    0.000    0.000 
#
# Total GULP energy -173480.389437 kJ/mol
# GULP energy per Si atom -12391.456388 kJ/mol
# Density = 2.030684 g / cm^3
# Si number density = 20.353165 Si / 1000 Ang^3
#
#
#
# Elastic Constant Matrix: (Units=GPa)
#
#
# Indices 1 2 3 4 5 6 
#
# 1 70.8009 28.2347 37.9978 -4.1677 -2.9948 13.3839
# 2 28.2347 141.1671 93.3984 11.2940 -21.8926 11.0422
# 3 37.9978 93.3984 97.9302 15.1888 -14.5383 7.5819
# 4 -4.1677 11.2940 15.1888 57.8885 2.1835 -12.2810
# 5 -2.9948 -21.8926 -14.5383 2.1835 22.8049 -9.4324
# 6 13.3839 11.0422 7.5819 -12.2810 -9.4324 30.1888
#
#
#
# Elastic Compliance Matrix: (Units=1/GPa)
#
#
# Indices 1 2 3 4 5 6 
#
# 1 0.020428 0.003075 -0.011370 0.002357 -0.005137 -0.007972
# 2 0.003075 0.020901 -0.020114 0.000855 0.006973 -0.001431
# 3 -0.011370 -0.020114 0.034957 -0.005707 0.002947 0.002217
# 4 0.002357 0.000855 -0.005707 0.020531 -0.001135 0.008073
# 5 -0.005137 0.006973 0.002947 -0.001135 0.058852 0.016913
# 6 -0.007972 -0.001431 0.002217 0.008073 0.016913 0.045194
#
#
# Mechanical properties :
#
#
# Convention : Reuss Voigt Hill
#
# Bulk Modulus (GPa) = 51.36334 69.90667 60.63501
# Shear Modulus (GPa) = 18.92707 32.19426 25.56066
#
# Velocity S-wave (km/s) = 3.05279 3.98148 3.54765
# Velocity P-wave (km/s) = 6.14140 7.45370 6.82915
#
# Compressibility (1/GPa) = 0.01946914
#
# Stress axis : x y z
#
# Youngs Moduli (GPa) = 48.95136 47.84384 28.60633
#
# Poissons Ratio (x) = -0.14714 0.32526
# Poissons Ratio (y) = -0.15054 0.57539
# Poissons Ratio (z) = 0.55659 0.96233
#
# Static dielectric constant tensor:
#      x y z
#    x 3.791200 0.062180 -0.109720 
#    y 0.062180 3.975290 -0.261730 
#    z -0.109720 -0.261730 3.565210 
# 
# 
# High freq. dielectric constant tensor:
#      x y z
#    x 1.798560 -0.000340 -0.008980 
#    y -0.000340 1.802810 -0.013720 
#    z -0.008980 -0.013720 1.773710 
# 
# From -- ./inp_files/331993.got.cif
#   From: 2010.06.25/outbox.cif.g09.slc.cpg/sg2_166_cif.got.tgz:331993.got - 2010.06.27 13:26:56.
