data_PCOD8011566
_publ_section_title
;
Structure prediction by ZEFSAII (Michael W. Deem and Ramdas Pophale) SiO2 
 PCOD8011566
Probable space group: P -1
;
_chemical_formula_sum "Si O2"
_cell_formula_units_Z 14
_cell_length_a 9.224992
_cell_length_b 9.305034
_cell_length_c 14.287787
_cell_angle_alpha 88.838802
_cell_angle_beta 56.971745
_cell_angle_gamma 48.439029
_cell_volume 645.536866
_symmetry_space_group_name_H-M "P -1"
_symmetry_group_IT_number 2
_symmetry_cell_setting 'triclinic'
loop_
_space_group_symop_operation_xyz
x,y,z
-x,-y,-z
loop_
_atom_site_type_symbol
_atom_site_label
_atom_site_fract_x
_atom_site_fract_y
_atom_site_fract_z
Si Si1 0.215869 0.972727 0.049152
Si Si2 0.854197 0.269760 0.007005
Si Si3 0.898440 0.802165 0.390995
Si Si4 0.834437 0.528054 0.871090
Si Si5 0.413946 0.278179 0.468300
Si Si6 0.573987 0.496414 0.688821
Si Si7 0.826326 0.424058 0.280006
O O1 0.127488 0.861741 0.079838
O O2 0.539581 0.789678 0.949361
O O3 0.122756 0.103481 0.981088
O O4 0.048858 0.152050 0.192052
O O5 0.593070 0.388318 0.157668
O O6 0.808937 0.454018 0.975833
O O7 0.738008 0.774161 0.497584
O O8 0.066946 0.636318 0.245199
O O9 0.105745 0.733062 0.396146
O O10 0.693913 0.061298 0.428575
O O11 0.056272 0.509292 0.812225
O O12 0.472800 0.321129 0.350183
O O13 0.226726 0.507758 0.593367
O O14 0.462527 0.434763 0.667760
#
# Coordination Sequence:
#
# PCOD8011566 Si02
#       7
#     2   2   2   2   2   2   2
#     4  10  21  39  62  93 123 160 202 252 305 360
#     4  10  23  37  65  97 119 161 208 249 303 360
#     4  10  23  39  67  88 118 164 209 249 299 358
#     4  11  22  41  63  93 126 160 203 252 304 366
#     4  10  23  44  60  90 122 162 206 251 299 364
#     4  11  22  40  64  90 123 160 204 254 298 366
#     4  10  24  41  62  92 129 161 198 253 313 355
#
# _framework density 21.687377000000001
#
# number of rings (size 3 to 8) (size 9 to 14) (size 15 to 20)
#    0.000    1.714    1.429    1.714    6.000    2.857 
#    0.000    4.286    0.000    0.000    0.000    0.000 
#    0.000    0.000    0.000    0.000    0.000    0.000 
#
# Total GULP energy -173586.962431 kJ/mol
# GULP energy per Si atom -12399.068745 kJ/mol
# Density = 2.163802 g / cm^3
# Si number density = 21.687377 Si / 1000 Ang^3
#
#
#
# Elastic Constant Matrix: (Units=GPa)
#
#
# Indices 1 2 3 4 5 6 
#
# 1 100.7750 48.7843 27.4576 -4.6504 -29.0715 -12.4041
# 2 48.7843 110.3407 52.7698 -16.0373 -24.4959 -9.3993
# 3 27.4576 52.7698 89.9403 -5.6403 -13.9300 6.6326
# 4 -4.6504 -16.0373 -5.6403 38.9566 8.9115 -2.5952
# 5 -29.0715 -24.4959 -13.9300 8.9115 33.1816 15.0183
# 6 -12.4041 -9.3993 6.6326 -2.5952 15.0183 29.0562
#
#
#
# Elastic Compliance Matrix: (Units=1/GPa)
#
#
# Indices 1 2 3 4 5 6 
#
# 1 0.015130 -0.004559 -0.000389 -0.002638 0.010764 -0.000726
# 2 -0.004559 0.016360 -0.008117 0.005140 0.000959 0.005162
# 3 -0.000389 -0.008117 0.017612 -0.003058 0.006643 -0.010519
# 4 -0.002638 0.005140 -0.003058 0.030672 -0.012841 0.010611
# 5 0.010764 0.000959 0.006643 -0.012841 0.059393 -0.028456
# 6 -0.000726 0.005162 -0.010519 0.010611 -0.028456 0.053833
#
#
# Mechanical properties :
#
#
# Convention : Reuss Voigt Hill
#
# Bulk Modulus (GPa) = 43.52899 62.11993 52.82446
# Shear Modulus (GPa) = 22.04700 31.70849 26.87774
#
# Velocity S-wave (km/s) = 3.19185 3.82785 3.52423
# Velocity P-wave (km/s) = 5.80504 6.94566 6.40081
#
# Compressibility (1/GPa) = 0.02297319
#
# Stress axis : x y z
#
# Youngs Moduli (GPa) = 66.09304 61.12481 56.77837
#
# Poissons Ratio (x) = 0.27867 0.02208
# Poissons Ratio (y) = 0.30132 0.46086
# Poissons Ratio (z) = 0.02570 0.49614
#
# Static dielectric constant tensor:
#      x y z
#    x 3.988790 0.005510 -0.146900 
#    y 0.005510 3.772510 0.122240 
#    z -0.146900 0.122240 3.900170 
# 
# 
# High freq. dielectric constant tensor:
#      x y z
#    x 1.853270 0.002650 -0.012640 
#    y 0.002650 1.838480 0.005430 
#    z -0.012640 0.005430 1.849840 
# 
# From -- ./inp_files/257709.got.cif
#   From: 2010.06.25/outbox.cif.g09.slc.cpg/sg2_129_cif.got.tgz:257709.got - 2010.06.27 13:26:56.
