data_PCOD8011743
_publ_section_title
;
Structure prediction by ZEFSAII (Michael W. Deem and Ramdas Pophale) SiO2 
 PCOD8011743
Probable space group: P -1
;
_chemical_formula_sum "Si O2"
_cell_formula_units_Z 16
_cell_length_a 15.072020
_cell_length_b 6.143664
_cell_length_c 13.526565
_cell_angle_alpha 107.773252
_cell_angle_beta 142.431812
_cell_angle_gamma 66.016309
_cell_volume 697.414135
_symmetry_space_group_name_H-M "P -1"
_symmetry_group_IT_number 2
_symmetry_cell_setting 'triclinic'
loop_
_space_group_symop_operation_xyz
x,y,z
-x,-y,-z
loop_
_atom_site_type_symbol
_atom_site_label
_atom_site_fract_x
_atom_site_fract_y
_atom_site_fract_z
Si Si1 0.661668 0.550253 0.868111
Si Si2 0.603062 0.591498 0.294507
Si Si3 0.895893 0.091776 0.080106
Si Si4 0.219290 0.921486 0.643189
Si Si5 0.945977 0.843410 0.288096
Si Si6 0.147060 0.324350 0.344045
Si Si7 0.165006 0.328395 0.139215
Si Si8 0.490231 0.984974 0.107038
O O1 0.504918 0.477580 0.727014
O O2 0.709603 0.593482 0.804652
O O3 0.647913 0.797181 0.948100
O O4 0.793736 0.359744 0.014859
O O5 0.713990 0.358313 0.307477
O O6 0.708422 0.731229 0.462902
O O7 0.490915 0.739919 0.129681
O O8 0.070130 0.106644 0.239313
O O9 0.864203 0.968668 0.135196
O O10 0.852110 0.936150 0.932207
O O11 0.074179 0.968989 0.451237
O O12 0.183080 0.087546 0.732044
O O13 0.348767 0.992829 0.706373
O O14 0.018762 0.562737 0.298449
O O15 0.211588 0.354856 0.296728
O O16 0.000000 0.500000 0.000000
O O17 0.500000 0.000000 0.000000
#
# Coordination Sequence:
#
# PCOD8011743 Si02
#       8
#     2   2   2   2   2   2   2   2
#     4  11  26  43  65  97 133 171 223 271 319 393
#     4  10  24  46  64  98 135 177 220 261 334 390
#     4  12  23  39  70  96 133 171 216 276 327 387
#     4   9  22  39  63  95 133 174 212 268 324 390
#     4  10  21  39  63  98 134 166 220 268 323 390
#     4  11  24  42  70  97 134 175 216 275 329 389
#     4  12  24  44  67 102 131 165 225 274 327 385
#     4  11  25  41  65  92 135 173 219 269 318 392
#
# _framework density 22.941891999999999
#
# number of rings (size 3 to 8) (size 9 to 14) (size 15 to 20)
#    0.000    1.250    2.500    1.875    7.000    1.500 
#    0.000    6.250    0.000    0.000    0.000    0.000 
#    0.000    0.000    0.000    0.000    0.000    0.000 
#
# Total GULP energy -198288.788646 kJ/mol
# GULP energy per Si atom -12393.049290 kJ/mol
# Density = 2.288968 g / cm^3
# Si number density = 22.941892 Si / 1000 Ang^3
#
#
#
# Elastic Constant Matrix: (Units=GPa)
#
#
# Indices 1 2 3 4 5 6 
#
# 1 116.8797 43.3999 33.1078 -1.5186 -1.9585 -6.6758
# 2 43.3999 96.4133 32.6251 -9.7933 -5.9929 -8.0361
# 3 33.1078 32.6251 71.8150 2.3071 -6.2734 1.4864
# 4 -1.5186 -9.7933 2.3071 34.5587 6.1516 1.4549
# 5 -1.9585 -5.9929 -6.2734 6.1516 40.9302 4.2842
# 6 -6.6758 -8.0361 1.4864 1.4549 4.2842 35.2279
#
#
#
# Elastic Compliance Matrix: (Units=1/GPa)
#
#
# Indices 1 2 3 4 5 6 
#
# 1 0.010986 -0.003725 -0.003451 -0.000287 -0.000659 0.001470
# 2 -0.003725 0.014380 -0.004976 0.004085 0.000280 0.002582
# 3 -0.003451 -0.004976 0.018165 -0.003130 0.002649 -0.002748
# 4 -0.000287 0.004085 -0.003130 0.031097 -0.004599 0.000285
# 5 -0.000659 0.000280 0.002649 -0.004599 0.025866 -0.003128
# 6 0.001470 0.002582 -0.002748 0.000285 -0.003128 0.029739
#
#
# Mechanical properties :
#
#
# Convention : Reuss Voigt Hill
#
# Bulk Modulus (GPa) = 52.00989 55.93039 53.97014
# Shear Modulus (GPa) = 31.06658 33.87505 32.47082
#
# Velocity S-wave (km/s) = 3.68386 3.84677 3.76620
# Velocity P-wave (km/s) = 6.38858 6.64547 6.51829
#
# Compressibility (1/GPa) = 0.01922711
#
# Stress axis : x y z
#
# Youngs Moduli (GPa) = 91.02724 69.54094 55.05116
#
# Poissons Ratio (x) = 0.25904 0.18999
# Poissons Ratio (y) = 0.33907 0.27392
# Poissons Ratio (z) = 0.31415 0.34601
#
# Static dielectric constant tensor:
#      x y z
#    x 4.379080 -0.110310 0.121000 
#    y -0.110310 4.253690 0.192860 
#    z 0.121000 0.192860 4.330070 
# 
# 
# High freq. dielectric constant tensor:
#      x y z
#    x 1.908180 0.000370 0.013890 
#    y 0.000370 1.902510 0.004230 
#    z 0.013890 0.004230 1.907610 
# 
# From -- ./inp_files/484198.got.cif
#   From: 2010.06.25/outbox.cif.g09.slc.cpg/sg2_243_cif.got.tgz:484198.got - 2010.06.27 13:26:56.
