data_PCOD8011271
_publ_section_title
;
Structure prediction by ZEFSAII (Michael W. Deem and Ramdas Pophale) SiO2 
 PCOD8011271
Probable space group: P -1
;
_chemical_formula_sum "Si O2"
_cell_formula_units_Z 16
_cell_length_a 12.397632
_cell_length_b 17.902929
_cell_length_c 9.013849
_cell_angle_alpha 54.809904
_cell_angle_beta 93.756124
_cell_angle_gamma 138.479903
_cell_volume 799.120538
_symmetry_space_group_name_H-M "P -1"
_symmetry_group_IT_number 2
_symmetry_cell_setting 'triclinic'
loop_
_space_group_symop_operation_xyz
x,y,z
-x,-y,-z
loop_
_atom_site_type_symbol
_atom_site_label
_atom_site_fract_x
_atom_site_fract_y
_atom_site_fract_z
Si Si1 0.356130 0.953039 0.145121
Si Si2 0.419410 0.707675 0.659326
Si Si3 0.024382 0.927384 0.995752
Si Si4 0.129458 0.357896 0.543007
Si Si5 0.298266 0.816361 0.603867
Si Si6 0.472884 0.741169 0.290685
Si Si7 0.934456 0.047927 0.364505
Si Si8 0.096634 0.347475 0.200663
O O1 0.339633 0.887932 0.367366
O O2 0.106469 0.779294 0.260735
O O3 0.500000 0.000000 0.000000
O O4 0.496058 0.150183 0.942132
O O5 0.308128 0.713591 0.722547
O O6 0.361361 0.677702 0.513611
O O7 0.676050 0.881220 0.519272
O O8 0.310656 0.536705 0.913132
O O9 0.283439 0.106293 0.820215
O O10 0.953942 0.875063 0.876478
O O11 0.000000 0.000000 0.000000
O O12 0.862625 0.738288 0.282755
O O13 0.332732 0.563922 0.391438
O O14 0.145474 0.369605 0.353546
O O15 0.077886 0.698466 0.787439
O O16 0.500000 0.000000 0.500000
O O17 0.000000 0.000000 0.500000
O O18 0.029464 0.200465 0.296537
#
# Coordination Sequence:
#
# PCOD8011271 Si02
#       8
#     2   2   2   2   2   2   2   2
#     4  10  21  39  58  86 122 160 202 245 295 354
#     4  11  23  41  63  91 127 164 206 250 307 366
#     4  10  22  42  66  89 118 157 204 254 305 359
#     4  10  23  38  60  92 121 158 202 248 300 358
#     4  11  22  39  63  90 128 167 201 251 304 364
#     4  10  22  40  62  89 122 162 201 249 302 358
#     4  11  24  43  67  90 122 163 204 259 311 362
#     4  11  24  40  62  95 128 161 206 249 307 369
#
# _framework density 20.022010999999999
#
# number of rings (size 3 to 8) (size 9 to 14) (size 15 to 20)
#    0.000    1.500    2.500    1.875    1.750    4.500 
#    0.000    0.000    0.000    0.000    0.000    0.000 
#    0.000    0.000    0.000    0.000    0.000    0.000 
#
# Total GULP energy -198222.621861 kJ/mol
# GULP energy per Si atom -12388.913866 kJ/mol
# Density = 1.997644 g / cm^3
# Si number density = 20.022011 Si / 1000 Ang^3
#
#
#
# Elastic Constant Matrix: (Units=GPa)
#
#
# Indices 1 2 3 4 5 6 
#
# 1 92.4999 24.0269 19.6512 2.1189 23.2808 -18.0396
# 2 24.0269 105.1054 26.1820 -17.7694 14.2074 -16.1892
# 3 19.6512 26.1820 103.0367 -16.0084 17.7034 -3.8942
# 4 2.1189 -17.7694 -16.0084 23.2384 -10.3397 8.3997
# 5 23.2808 14.2074 17.7034 -10.3397 29.2189 6.3356
# 6 -18.0396 -16.1892 -3.8942 8.3997 6.3356 29.6397
#
#
#
# Elastic Compliance Matrix: (Units=1/GPa)
#
#
# Indices 1 2 3 4 5 6 
#
# 1 0.032223 -0.001107 -0.002678 -0.040981 -0.046745 0.040261
# 2 -0.001107 0.012233 -0.001292 0.005098 -0.003598 0.005162
# 3 -0.002678 -0.001292 0.011848 0.008019 -0.000962 -0.002846
# 4 -0.040981 0.005098 0.008019 0.119656 0.083455 -0.072852
# 5 -0.046745 -0.003598 -0.000962 0.083455 0.120678 -0.079988
# 6 0.040261 0.005162 -0.002846 -0.072852 -0.079988 0.098431
#
#
# Mechanical properties :
#
#
# Convention : Reuss Voigt Hill
#
# Bulk Modulus (GPa) = 21.66900 48.92912 35.29906
# Shear Modulus (GPa) = 11.88761 31.80488 21.84624
#
# Velocity S-wave (km/s) = 2.43929 3.98992 3.30678
# Velocity P-wave (km/s) = 4.33355 6.76141 5.67874
#
# Compressibility (1/GPa) = 0.04614887
#
# Stress axis : x y z
#
# Youngs Moduli (GPa) = 31.03391 81.74911 84.40362
#
# Poissons Ratio (x) = 0.09053 0.22604
# Poissons Ratio (y) = 0.03437 0.10903
# Poissons Ratio (z) = 0.08311 0.10560
#
# Static dielectric constant tensor:
#      x y z
#    x 4.165420 -0.186210 -0.295870 
#    y -0.186210 3.785890 0.359610 
#    z -0.295870 0.359610 4.227950 
# 
# 
# High freq. dielectric constant tensor:
#      x y z
#    x 1.785080 -0.004450 0.005710 
#    y -0.004450 1.782520 0.004930 
#    z 0.005710 0.004930 1.797770 
# 
# From -- ./inp_files/70148.got.cif
#   From: 2010.06.25/outbox.cif.g09.slc.cpg/sg2_36_cif.got.tgz:70148.got - 2010.06.27 13:26:56.
