data_PCOD8011690
_publ_section_title
;
Structure prediction by ZEFSAII (Michael W. Deem and Ramdas Pophale) SiO2 
 PCOD8011690
Probable space group: P -1
;
_chemical_formula_sum "Si O2"
_cell_formula_units_Z 16
_cell_length_a 14.948142
_cell_length_b 12.513396
_cell_length_c 12.260566
_cell_angle_alpha 97.168567
_cell_angle_beta 30.524676
_cell_angle_gamma 119.683686
_cell_volume 738.272232
_symmetry_space_group_name_H-M "P -1"
_symmetry_group_IT_number 2
_symmetry_cell_setting 'triclinic'
loop_
_space_group_symop_operation_xyz
x,y,z
-x,-y,-z
loop_
_atom_site_type_symbol
_atom_site_label
_atom_site_fract_x
_atom_site_fract_y
_atom_site_fract_z
Si Si1 0.817894 0.513810 0.725647
Si Si2 0.287171 0.891597 0.986449
Si Si3 0.225739 0.417210 0.642980
Si Si4 0.300585 0.519917 0.806977
Si Si5 0.526478 0.244086 0.173154
Si Si6 0.856138 0.264942 0.405645
Si Si7 0.400296 0.626824 0.281599
Si Si8 0.938769 0.995031 0.688324
O O1 0.687507 0.490984 0.744548
O O2 0.000000 0.500000 0.500000
O O3 0.989961 0.687483 0.632746
O O4 0.584405 0.357210 0.031593
O O5 0.342016 0.812268 0.994714
O O6 0.582371 0.066643 0.649546
O O7 0.152940 0.923020 0.202481
O O8 0.081992 0.765131 0.087605
O O9 0.208082 0.489647 0.774427
O O10 0.402662 0.397470 0.489385
O O11 0.390008 0.548565 0.388278
O O12 0.343566 0.656507 0.835298
O O13 0.062211 0.340613 0.098287
O O14 0.196317 0.086656 0.506249
O O15 0.801222 0.367389 0.484495
O O16 0.705056 0.810908 0.961782
O O17 0.000000 0.000000 0.500000
#
# Coordination Sequence:
#
# PCOD8011690 Si02
#       8
#     2   2   2   2   2   2   2   2
#     4   9  17  37  60  89 128 164 208 261 310 380
#     4  11  24  41  67  99 129 171 216 261 325 383
#     4  11  23  43  67  94 128 171 220 266 324 384
#     4  10  23  44  67  92 129 170 218 272 318 384
#     4  11  22  42  67  94 131 172 213 264 324 379
#     4   9  21  39  62  94 129 162 214 266 313 388
#     4  10  21  39  63  92 128 169 215 261 318 385
#     4  11  23  44  62  98 138 167 213 269 314 386
#
# _framework density 21.672221
#
# number of rings (size 3 to 8) (size 9 to 14) (size 15 to 20)
#    0.000    1.750    2.500    2.250    1.750    3.000 
#    2.250    5.000    0.000    0.000    0.000    0.000 
#    0.000    0.000    0.000    0.000    0.000    0.000 
#
# Total GULP energy -198319.836219 kJ/mol
# GULP energy per Si atom -12394.989764 kJ/mol
# Density = 2.162289 g / cm^3
# Si number density = 21.672221 Si / 1000 Ang^3
#
#
#
# Elastic Constant Matrix: (Units=GPa)
#
#
# Indices 1 2 3 4 5 6 
#
# 1 120.2062 58.4181 52.0480 -10.1158 14.9631 31.6686
# 2 58.4181 100.5408 48.4500 -9.1135 2.2928 19.0462
# 3 52.0480 48.4500 112.6558 -12.4885 -4.2341 29.4947
# 4 -10.1158 -9.1135 -12.4885 33.8439 4.9239 -8.0561
# 5 14.9631 2.2928 -4.2341 4.9239 33.4530 7.8096
# 6 31.6686 19.0462 29.4947 -8.0561 7.8096 32.9262
#
#
#
# Elastic Compliance Matrix: (Units=1/GPa)
#
#
# Indices 1 2 3 4 5 6 
#
# 1 0.014869 -0.005843 -0.002553 0.000944 -0.005029 -0.007210
# 2 -0.005843 0.015166 -0.003742 0.000867 0.000928 0.000191
# 3 -0.002553 -0.003742 0.014386 0.000522 0.005338 -0.009405
# 4 0.000944 0.000867 0.000522 0.033186 -0.007154 0.007939
# 5 -0.005029 0.000928 0.005338 -0.007154 0.036340 -0.010851
# 6 -0.007210 0.000191 -0.009405 0.007939 -0.010851 0.050136
#
#
# Mechanical properties :
#
#
# Convention : Reuss Voigt Hill
#
# Bulk Modulus (GPa) = 49.64046 72.35944 60.99995
# Shear Modulus (GPa) = 25.63104 31.67707 28.65405
#
# Velocity S-wave (km/s) = 3.44272 3.82729 3.64009
# Velocity P-wave (km/s) = 6.22559 7.27952 6.77309
#
# Compressibility (1/GPa) = 0.02014486
#
# Stress axis : x y z
#
# Youngs Moduli (GPa) = 67.25268 65.93883 69.50976
#
# Poissons Ratio (x) = 0.38528 0.17749
# Poissons Ratio (y) = 0.39295 0.26009
# Poissons Ratio (z) = 0.17173 0.24673
#
# Static dielectric constant tensor:
#      x y z
#    x 3.571080 0.504390 -0.378400 
#    y 0.504390 3.953450 0.071340 
#    z -0.378400 0.071340 3.965820 
# 
# 
# High freq. dielectric constant tensor:
#      x y z
#    x 1.835870 0.017480 -0.017060 
#    y 0.017480 1.841030 -0.000970 
#    z -0.017060 -0.000970 1.865910 
# 
# From -- ./inp_files/214375.got.cif
#   From: 2010.06.25/outbox.cif.g09.slc.cpg/sg2_108_cif.got.tgz:214375.got - 2010.06.27 13:26:56.
