data_PCOD8011910
_publ_section_title
;
Structure prediction by ZEFSAII (Michael W. Deem and Ramdas Pophale) SiO2 
 PCOD8011910
Probable space group: P -1
;
_chemical_formula_sum "Si O2"
_cell_formula_units_Z 16
_cell_length_a 13.879990
_cell_length_b 7.842174
_cell_length_c 18.949864
_cell_angle_alpha 106.583768
_cell_angle_beta 140.033466
_cell_angle_gamma 46.085472
_cell_volume 808.192682
_symmetry_space_group_name_H-M "P -1"
_symmetry_group_IT_number 2
_symmetry_cell_setting 'triclinic'
loop_
_space_group_symop_operation_xyz
x,y,z
-x,-y,-z
loop_
_atom_site_type_symbol
_atom_site_label
_atom_site_fract_x
_atom_site_fract_y
_atom_site_fract_z
Si Si1 0.208096 0.891378 0.558542
Si Si2 0.870628 0.091593 0.032633
Si Si3 0.673233 0.422408 0.828753
Si Si4 0.535339 0.183601 0.948202
Si Si5 0.371708 0.997088 0.766477
Si Si6 0.771554 0.207087 0.603368
Si Si7 0.902464 0.757307 0.217772
Si Si8 0.040820 0.697942 0.793934
O O1 0.448747 0.562405 0.673301
O O2 0.170878 0.917020 0.457450
O O3 0.243078 0.064262 0.627459
O O4 0.000000 0.000000 0.500000
O O5 0.739951 0.210606 0.898164
O O6 0.696615 0.187186 0.006753
O O7 0.960529 0.206214 0.119064
O O8 0.100913 0.753674 0.116186
O O9 0.608651 0.660439 0.863773
O O10 0.454403 0.124205 0.833216
O O11 0.301472 0.485288 0.883218
O O12 0.681455 0.947669 0.062886
O O13 0.196088 0.105697 0.744187
O O14 0.500000 0.500000 0.500000
O O15 0.914174 0.258811 0.704422
O O16 0.852912 0.972724 0.671847
O O17 0.026617 0.448820 0.253118
#
# Coordination Sequence:
#
# PCOD8011910 Si02
#       8
#     2   2   2   2   2   2   2   2
#     4  10  21  39  65  82 124 177 210 255 309 385
#     4  11  20  36  59  96 122 163 205 265 327 387
#     4   9  21  36  59  84 125 163 207 257 323 370
#     4  11  22  36  66  96 128 158 213 272 327 375
#     4   9  20  39  58  90 117 166 210 252 322 370
#     4  12  25  43  66  95 130 176 220 254 321 388
#     4  11  22  41  66  96 129 166 205 280 316 376
#     4  11  24  39  65  97 125 162 219 260 322 382
#
# _framework density 19.797260000000001
#
# number of rings (size 3 to 8) (size 9 to 14) (size 15 to 20)
#    0.750    0.750    2.500    4.125    3.500    1.000 
#    0.000    6.250    0.000    0.000    0.000    0.000 
#    0.000    0.000    0.000    0.000    0.000    0.000 
#
# Total GULP energy -198249.051975 kJ/mol
# GULP energy per Si atom -12390.565748 kJ/mol
# Density = 1.975220 g / cm^3
# Si number density = 19.797260 Si / 1000 Ang^3
#
#
#
# Elastic Constant Matrix: (Units=GPa)
#
#
# Indices 1 2 3 4 5 6 
#
# 1 43.2231 18.4559 19.7019 4.5601 -5.1685 5.9874
# 2 18.4559 93.0802 26.4041 1.8134 6.3140 8.7162
# 3 19.7019 26.4041 94.1103 -1.1890 -6.2650 8.9660
# 4 4.5601 1.8134 -1.1890 41.9856 -2.7634 -1.7289
# 5 -5.1685 6.3140 -6.2650 -2.7634 30.2765 -2.9023
# 6 5.9874 8.7162 8.9660 -1.7289 -2.9023 26.3479
#
#
#
# Elastic Compliance Matrix: (Units=1/GPa)
#
#
# Indices 1 2 3 4 5 6 
#
# 1 0.028127 -0.004340 -0.004110 -0.002837 0.004284 -0.003272
# 2 -0.004340 0.012959 -0.002749 -0.000570 -0.004340 -0.002881
# 3 -0.004110 -0.002749 0.012631 0.000991 0.002372 -0.002129
# 4 -0.002837 -0.000570 0.000991 0.024426 0.002295 0.002352
# 5 0.004284 -0.004340 0.002372 0.002295 0.035724 0.003741
# 6 -0.003272 -0.002881 -0.002129 0.002352 0.003741 0.040941
#
#
# Mechanical properties :
#
#
# Convention : Reuss Voigt Hill
#
# Bulk Modulus (GPa) = 31.92928 39.94858 35.93893
# Shear Modulus (GPa) = 26.64602 30.77880 28.71241
#
# Velocity S-wave (km/s) = 3.67269 3.94725 3.81244
# Velocity P-wave (km/s) = 5.84363 6.40289 6.12964
#
# Compressibility (1/GPa) = 0.03131921
#
# Stress axis : x y z
#
# Youngs Moduli (GPa) = 35.55313 77.16583 79.17255
#
# Poissons Ratio (x) = 0.33491 0.32537
# Poissons Ratio (y) = 0.15431 0.21764
# Poissons Ratio (z) = 0.14611 0.21213
#
# Static dielectric constant tensor:
#      x y z
#    x 3.325520 -0.181090 -0.024190 
#    y -0.181090 3.656180 0.000570 
#    z -0.024190 0.000570 3.649020 
# 
# 
# High freq. dielectric constant tensor:
#      x y z
#    x 1.749470 -0.019080 -0.001120 
#    y -0.019080 1.778330 0.001960 
#    z -0.001120 0.001960 1.774480 
# 
# From -- ./inp_files/597210.got.cif
#   From: 2010.06.25/outbox.cif.g09.slc.cpg/sg2_299_cif.got.tgz:597210.got - 2010.06.27 13:26:56.
