data_PCOD8011040
_publ_section_title
;
Structure prediction by ZEFSAII (Michael W. Deem and Ramdas Pophale) SiO2 
 PCOD8011040
Probable space group: P -1
;
_chemical_formula_sum "Si O2"
_cell_formula_units_Z 16
_cell_length_a 22.362277
_cell_length_b 11.436930
_cell_length_c 11.470847
_cell_angle_alpha 39.021068
_cell_angle_beta 24.242515
_cell_angle_gamma 38.616205
_cell_volume 727.602891
_symmetry_space_group_name_H-M "P -1"
_symmetry_group_IT_number 2
_symmetry_cell_setting 'triclinic'
loop_
_space_group_symop_operation_xyz
x,y,z
-x,-y,-z
loop_
_atom_site_type_symbol
_atom_site_label
_atom_site_fract_x
_atom_site_fract_y
_atom_site_fract_z
Si Si1 0.660847 0.847925 0.852138
Si Si2 0.171418 0.753574 0.573233
Si Si3 0.408971 0.876992 0.631458
Si Si4 0.168057 0.215424 0.899114
Si Si5 0.155261 0.893430 0.752724
Si Si6 0.362122 0.563910 0.783651
Si Si7 0.301989 0.074800 0.011042
Si Si8 0.606005 0.584562 0.665407
O O1 0.719500 0.828210 0.897424
O O2 0.759637 0.940656 0.519939
O O3 0.670714 0.631474 0.958169
O O4 0.500000 0.000000 0.000000
O O5 0.140947 0.832774 0.694207
O O6 0.315721 0.563376 0.462700
O O7 0.226309 0.899248 0.278386
O O8 0.013856 0.720107 0.834102
O O9 0.396868 0.685954 0.734402
O O10 0.501171 0.792757 0.649376
O O11 0.242523 0.009580 0.861293
O O12 0.514276 0.987549 0.288567
O O13 0.245301 0.366723 0.578972
O O14 0.214774 0.215760 0.953388
O O15 0.222504 0.701202 0.856319
O O16 0.000000 0.000000 0.000000
O O17 0.500000 0.500000 0.500000
O O18 0.500000 0.500000 0.000000
#
# Coordination Sequence:
#
# PCOD8011040 Si02
#       8
#     2   2   2   2   2   2   2   2
#     4  11  23  41  70 101 124 177 225 277 332 390
#     4  11  23  40  65  93 130 172 214 264 332 394
#     4  11  22  40  64  92 126 166 215 271 327 382
#     4  11  23  41  63  94 130 172 207 267 336 388
#     4  11  25  44  65  98 141 175 221 275 333 396
#     4  12  22  42  70  97 131 171 231 276 327 394
#     4  10  21  38  66  89 128 162 217 266 326 386
#     4  11  23  41  63  96 127 162 217 267 321 391
#
# _framework density 21.990016000000001
#
# number of rings (size 3 to 8) (size 9 to 14) (size 15 to 20)
#    0.000    1.000    2.500    5.250    3.500    0.500 
#    4.500    0.000    0.000    0.000    0.000    0.000 
#    0.000    0.000    0.000    0.000    0.000    0.000 
#
# Total GULP energy -198230.463515 kJ/mol
# GULP energy per Si atom -12389.403970 kJ/mol
# Density = 2.193997 g / cm^3
# Si number density = 21.990016 Si / 1000 Ang^3
#
#
#
# Elastic Constant Matrix: (Units=GPa)
#
#
# Indices 1 2 3 4 5 6 
#
# 1 47.5941 19.0597 35.4948 -2.3914 -13.3076 1.0534
# 2 19.0597 116.7431 73.4781 2.3976 1.7294 0.8933
# 3 35.4948 73.4781 161.2415 -9.2815 -10.0280 -2.9803
# 4 -2.3914 2.3976 -9.2815 51.6030 3.7557 -2.3229
# 5 -13.3076 1.7294 -10.0280 3.7557 26.6190 0.1925
# 6 1.0534 0.8933 -2.9803 -2.3229 0.1925 38.3596
#
#
#
# Elastic Compliance Matrix: (Units=1/GPa)
#
#
# Indices 1 2 3 4 5 6 
#
# 1 0.028913 -0.001909 -0.004741 -0.000414 0.012859 -0.001208
# 2 -0.001909 0.012489 -0.005596 -0.001442 -0.003665 -0.000742
# 3 -0.004741 -0.005596 0.010013 0.001783 0.001506 0.001139
# 4 -0.000414 -0.001442 0.001783 0.019976 -0.002270 0.001405
# 5 0.012859 -0.003665 0.001506 -0.002270 0.045125 -0.000515
# 6 -0.001208 -0.000742 0.001139 0.001405 -0.000515 0.026296
#
#
# Mechanical properties :
#
#
# Convention : Reuss Voigt Hill
#
# Bulk Modulus (GPa) = 37.14304 64.62708 50.88506
# Shear Modulus (GPa) = 28.36441 36.48607 32.42524
#
# Velocity S-wave (km/s) = 3.59538 4.07776 3.84414
# Velocity P-wave (km/s) = 5.84493 7.18498 6.54932
#
# Compressibility (1/GPa) = 0.02692294
#
# Stress axis : x y z
#
# Youngs Moduli (GPa) = 34.58675 80.07060 99.87167
#
# Poissons Ratio (x) = 0.15285 0.47351
# Poissons Ratio (y) = 0.06603 0.55885
# Poissons Ratio (z) = 0.16398 0.44805
#
# Static dielectric constant tensor:
#      x y z
#    x 3.910510 0.089560 -0.042620 
#    y 0.089560 4.212340 -0.203040 
#    z -0.042620 -0.203040 4.337770 
# 
# 
# High freq. dielectric constant tensor:
#      x y z
#    x 1.851470 0.009620 -0.004450 
#    y 0.009620 1.869430 -0.009060 
#    z -0.004450 -0.009060 1.877140 
# 
# From -- ./inp_files/208035.got.cif
#   From: 2010.06.25/outbox.cif.g09.slc.cpg/sg2_105_cif.got.tgz:208035.got - 2010.06.27 13:26:56.
