data_PCOD8011487
_publ_section_title
;
Structure prediction by ZEFSAII (Michael W. Deem and Ramdas Pophale) SiO2 
 PCOD8011487
Probable space group: P -1
;
_chemical_formula_sum "Si O2"
_cell_formula_units_Z 16
_cell_length_a 9.784614
_cell_length_b 14.628407
_cell_length_c 9.445562
_cell_angle_alpha 36.172593
_cell_angle_beta 89.620994
_cell_angle_gamma 81.065936
_cell_volume 771.759103
_symmetry_space_group_name_H-M "P -1"
_symmetry_group_IT_number 2
_symmetry_cell_setting 'triclinic'
loop_
_space_group_symop_operation_xyz
x,y,z
-x,-y,-z
loop_
_atom_site_type_symbol
_atom_site_label
_atom_site_fract_x
_atom_site_fract_y
_atom_site_fract_z
Si Si1 0.301606 0.629216 0.446733
Si Si2 0.469417 0.288880 0.822379
Si Si3 0.432267 0.781713 0.792064
Si Si4 0.282184 0.142063 0.356005
Si Si5 0.030338 0.335935 0.291325
Si Si6 0.009786 0.337677 0.620528
Si Si7 0.252798 0.748311 0.591992
Si Si8 0.245247 0.110222 0.082658
O O1 0.349401 0.454090 0.593357
O O2 0.405388 0.737247 0.260621
O O3 0.308244 0.618307 0.630983
O O4 0.139659 0.708762 0.304915
O O5 0.540149 0.310196 0.945679
O O6 0.397041 0.141098 0.998778
O O7 0.578326 0.794786 0.704835
O O8 0.354472 0.689385 0.798841
O O9 0.324649 0.952335 0.610885
O O10 0.174974 0.219120 0.382908
O O11 0.211586 0.185597 0.146311
O O12 0.045593 0.363083 0.424742
O O13 0.906619 0.248798 0.368546
O O14 0.000000 0.500000 0.000000
O O15 0.000000 0.500000 0.500000
O O16 0.125667 0.192329 0.870092
O O17 0.260903 0.921715 0.318553
#
# Coordination Sequence:
#
# PCOD8011487 Si02
#       8
#     2   2   2   2   2   2   2   2
#     4  10  23  39  57  90 126 153 208 254 302 369
#     4  10  21  39  62  86 121 166 200 253 302 365
#     4   9  20  38  64  87 120 166 196 251 307 357
#     4   9  20  40  61  91 124 156 206 247 305 364
#     4  11  25  40  61  92 129 161 205 259 303 367
#     4  11  22  40  64  88 121 168 203 249 315 360
#     4  10  24  41  59  95 122 158 206 256 309 358
#     4  10  21  40  66  87 122 160 201 253 305 365
#
# _framework density 20.731857999999999
#
# number of rings (size 3 to 8) (size 9 to 14) (size 15 to 20)
#    0.000    2.000    1.250    1.500    5.250   10.000 
#    0.000    0.000    0.000    0.000    0.000    0.000 
#    0.000    0.000    0.000    0.000    0.000    0.000 
#
# Total GULP energy -198399.276373 kJ/mol
# GULP energy per Si atom -12399.954773 kJ/mol
# Density = 2.068467 g / cm^3
# Si number density = 20.731858 Si / 1000 Ang^3
#
#
#
# Elastic Constant Matrix: (Units=GPa)
#
#
# Indices 1 2 3 4 5 6 
#
# 1 129.2446 58.3151 41.7978 9.4029 -0.3220 -12.4570
# 2 58.3151 80.6617 8.0786 13.9041 -0.5436 -9.1832
# 3 41.7978 8.0786 81.2244 11.4104 2.3455 -0.8389
# 4 9.4029 13.9041 11.4104 26.0511 12.7814 -0.9423
# 5 -0.3220 -0.5436 2.3455 12.7814 36.5402 7.4735
# 6 -12.4570 -9.1832 -0.8389 -0.9423 7.4735 38.5002
#
#
#
# Elastic Compliance Matrix: (Units=1/GPa)
#
#
# Indices 1 2 3 4 5 6 
#
# 1 0.014566 -0.010267 -0.006984 0.004123 -0.001532 0.002510
# 2 -0.010267 0.021486 0.004683 -0.011659 0.003828 0.000877
# 3 -0.006984 0.004683 0.016532 -0.008323 0.002145 -0.001403
# 4 0.004123 -0.011659 -0.008323 0.056827 -0.020235 0.003691
# 5 -0.001532 0.003828 0.002145 -0.020235 0.035778 -0.006976
# 6 0.002510 0.000877 -0.001403 0.003691 -0.006976 0.028409
#
#
# Mechanical properties :
#
#
# Convention : Reuss Voigt Hill
#
# Bulk Modulus (GPa) = 36.43080 56.39042 46.41061
# Shear Modulus (GPa) = 24.05182 32.41427 28.23304
#
# Velocity S-wave (km/s) = 3.40978 3.95840 3.69429
# Velocity P-wave (km/s) = 5.75436 6.93908 6.37430
#
# Compressibility (1/GPa) = 0.02744930
#
# Stress axis : x y z
#
# Youngs Moduli (GPa) = 68.65179 46.54154 60.48734
#
# Poissons Ratio (x) = 0.47782 0.42243
# Poissons Ratio (y) = 0.70482 -0.28324
# Poissons Ratio (z) = 0.47944 -0.21793
#
# Static dielectric constant tensor:
#      x y z
#    x 3.961350 0.108330 0.061040 
#    y 0.108330 3.672700 0.187860 
#    z 0.061040 0.187860 3.716360 
# 
# 
# High freq. dielectric constant tensor:
#      x y z
#    x 1.821150 0.003240 0.002730 
#    y 0.003240 1.801760 0.008660 
#    z 0.002730 0.008660 1.806400 
# 
# From -- ./inp_files/205236.got.cif
#   From: 2010.06.25/outbox.cif.g09.slc.cpg/sg2_103_cif.got.tgz:205236.got - 2010.06.27 13:26:56.
