data_PCOD8011868
_publ_section_title
;
Structure prediction by ZEFSAII (Michael W. Deem and Ramdas Pophale) SiO2 
 PCOD8011868
Probable space group: P -1
;
_chemical_formula_sum "Si O2"
_cell_formula_units_Z 16
_cell_length_a 5.010559
_cell_length_b 9.164424
_cell_length_c 19.961719
_cell_angle_alpha 88.264047
_cell_angle_beta 82.766251
_cell_angle_gamma 54.989806
_cell_volume 743.788828
_symmetry_space_group_name_H-M "P -1"
_symmetry_group_IT_number 2
_symmetry_cell_setting 'triclinic'
loop_
_space_group_symop_operation_xyz
x,y,z
-x,-y,-z
loop_
_atom_site_type_symbol
_atom_site_label
_atom_site_fract_x
_atom_site_fract_y
_atom_site_fract_z
Si Si1 0.596299 0.495063 0.738886
Si Si2 0.764512 0.697914 0.079973
Si Si3 0.733736 0.716021 0.930347
Si Si4 0.057459 0.186785 0.449489
Si Si5 0.886865 0.478772 0.349510
Si Si6 0.108369 0.802766 0.162150
Si Si7 0.522093 0.784537 0.461841
Si Si8 0.192253 0.805017 0.849922
O O1 0.295105 0.505064 0.713697
O O2 0.831781 0.304774 0.770146
O O3 0.458913 0.654382 0.793694
O O4 0.808189 0.511493 0.675975
O O5 0.447361 0.704767 0.111709
O O6 0.077722 0.495852 0.074319
O O7 0.830255 0.811174 0.126175
O O8 0.704120 0.781408 0.006590
O O9 0.370927 0.799556 0.912412
O O10 0.908959 0.779749 0.877395
O O11 0.161011 0.256394 0.507632
O O12 0.024290 0.289238 0.381532
O O13 0.709438 0.223113 0.477034
O O14 0.331624 0.977922 0.430084
O O15 0.631796 0.638080 0.404022
O O16 0.978287 0.003476 0.182928
#
# Coordination Sequence:
#
# PCOD8011868 Si02
#       8
#     2   2   2   2   2   2   2   2
#     4  12  26  43  59  88 126 168 215 256 295 362
#     4  11  22  41  68  94 124 158 203 268 331 385
#     4  11  22  41  68  94 124 158 203 268 331 385
#     4  10  21  39  64  95 127 155 195 253 310 360
#     4  12  24  39  66  88 123 168 209 248 297 370
#     4  12  25  43  65  89 126 168 210 262 319 376
#     4  10  21  39  64  95 127 155 195 253 310 360
#     4  12  25  43  65  89 126 168 210 262 319 376
#
# _framework density 21.511482000000001
#
# number of rings (size 3 to 8) (size 9 to 14) (size 15 to 20)
#    0.000    0.750    2.500    5.250    0.000    7.000 
#    0.000    0.000    0.000    0.000    0.000    0.000 
#    0.000    0.000    0.000    0.000    0.000    0.000 
#
# Total GULP energy -198553.177431 kJ/mol
# GULP energy per Si atom -12409.573589 kJ/mol
# Density = 2.146252 g / cm^3
# Si number density = 21.511482 Si / 1000 Ang^3
#
#
#
# Elastic Constant Matrix: (Units=GPa)
#
#
# Indices 1 2 3 4 5 6 
#
# 1 78.9996 2.7573 3.8787 3.0487 1.5229 3.4652
# 2 2.7573 90.8378 33.2238 -22.2566 3.8561 9.0465
# 3 3.8787 33.2238 71.8710 -12.5657 1.1546 2.5452
# 4 3.0487 -22.2566 -12.5657 13.4456 3.9753 -1.8250
# 5 1.5229 3.8561 1.1546 3.9753 39.2470 -2.0790
# 6 3.4652 9.0465 2.5452 -1.8250 -2.0790 27.5920
#
#
#
# Elastic Compliance Matrix: (Units=1/GPa)
#
#
# Indices 1 2 3 4 5 6 
#
# 1 0.013091 -0.001519 -0.001154 -0.006846 0.000291 -0.001471
# 2 -0.001519 0.021169 -0.003694 0.032927 -0.005494 -0.004645
# 3 -0.001154 -0.003694 0.017616 0.011017 -0.001207 0.000369
# 4 -0.006846 0.032927 0.011017 0.145742 -0.018198 -0.002684
# 5 0.000291 -0.005494 -0.001207 -0.018198 0.028034 0.002785
# 6 -0.001471 -0.004645 0.000369 -0.002684 0.002785 0.037948
#
#
# Mechanical properties :
#
#
# Convention : Reuss Voigt Hill
#
# Bulk Modulus (GPa) = 25.54739 35.71424 30.63081
# Shear Modulus (GPa) = 17.27811 29.51350 23.39580
#
# Velocity S-wave (km/s) = 2.83716 3.70805 3.30145
# Velocity P-wave (km/s) = 4.75758 5.91366 5.36684
#
# Compressibility (1/GPa) = 0.03914294
#
# Stress axis : x y z
#
# Youngs Moduli (GPa) = 76.38807 47.23786 56.76548
#
# Poissons Ratio (x) = 0.07173 0.06551
# Poissons Ratio (y) = 0.11600 0.20971
# Poissons Ratio (z) = 0.08816 0.17452
#
# Static dielectric constant tensor:
#      x y z
#    x 3.922370 0.050810 0.051440 
#    y 0.050810 3.946620 -0.144720 
#    z 0.051440 -0.144720 3.693450 
# 
# 
# High freq. dielectric constant tensor:
#      x y z
#    x 1.860580 0.003560 0.001440 
#    y 0.003560 1.853260 -0.011560 
#    z 0.001440 -0.011560 1.831910 
# 
# From -- ./inp_files/548030.got.cif
#   From: 2010.06.25/outbox.cif.g09.slc.cpg/sg2_275_cif.got.tgz:548030.got - 2010.06.27 13:26:56.
