data_PCOD8011460
_publ_section_title
;
Structure prediction by ZEFSAII (Michael W. Deem and Ramdas Pophale) SiO2 
 PCOD8011460
Probable space group: P -1
;
_chemical_formula_sum "Si O2"
_cell_formula_units_Z 14
_cell_length_a 5.562662
_cell_length_b 15.391102
_cell_length_c 21.159076
_cell_angle_alpha 20.168157
_cell_angle_beta 88.730230
_cell_angle_gamma 88.266611
_cell_volume 624.190240
_symmetry_space_group_name_H-M "P -1"
_symmetry_group_IT_number 2
_symmetry_cell_setting 'triclinic'
loop_
_space_group_symop_operation_xyz
x,y,z
-x,-y,-z
loop_
_atom_site_type_symbol
_atom_site_label
_atom_site_fract_x
_atom_site_fract_y
_atom_site_fract_z
Si Si1 0.986114 0.283068 0.198451
Si Si2 0.873897 0.860015 0.204936
Si Si3 0.324711 0.618519 0.154596
Si Si4 0.518083 0.728165 0.717339
Si Si5 0.971125 0.739777 0.516512
Si Si6 0.742669 0.542441 0.531932
Si Si7 0.639320 0.628329 0.255539
O O1 0.730216 0.312393 0.215947
O O2 0.227342 0.286127 0.237260
O O3 0.987424 0.031184 0.329982
O O4 0.000000 0.500000 0.000000
O O5 0.691011 0.717875 0.350990
O O6 0.811880 0.825660 0.153904
O O7 0.134982 0.727633 0.305295
O O8 0.868853 0.160121 0.015508
O O9 0.470822 0.507031 0.170570
O O10 0.489525 0.759908 0.109578
O O11 0.218504 0.378295 0.353953
O O12 0.500000 0.000000 0.500000
O O13 0.224056 0.601251 0.624283
O O14 0.915841 0.694148 0.474336
O O15 0.500983 0.494693 0.602228
#
# Coordination Sequence:
#
# PCOD8011460 Si02
#       7
#     2   2   2   2   2   2   2
#     4  12  28  48  75 105 146 186 241 299 361 424
#     4  10  21  39  61  93 129 170 223 273 341 412
#     4  11  24  38  66  94 132 173 230 276 347 414
#     4  12  26  49  74 107 144 187 239 298 357 423
#     4  10  23  41  64  92 132 175 221 285 348 411
#     4   9  21  39  61  91 131 170 216 279 341 412
#     4  10  21  39  62  93 127 174 216 279 343 409
#
# _framework density 22.429061000000001
#
# number of rings (size 3 to 8) (size 9 to 14) (size 15 to 20)
#    0.000    1.429    1.429    2.571    6.000    7.429 
#    0.000    0.000    0.000    0.000    0.000    0.000 
#    0.000    0.000    0.000    0.000    0.000    0.000 
#
# Total GULP energy -173483.248249 kJ/mol
# GULP energy per Si atom -12391.660589 kJ/mol
# Density = 2.237801 g / cm^3
# Si number density = 22.429061 Si / 1000 Ang^3
#
#
#
# Elastic Constant Matrix: (Units=GPa)
#
#
# Indices 1 2 3 4 5 6 
#
# 1 118.8153 45.2017 28.7695 4.4049 8.2043 -10.5686
# 2 45.2017 110.6179 51.9021 -5.2992 12.8747 -11.5161
# 3 28.7695 51.9021 137.3214 -8.3318 16.1843 -3.1475
# 4 4.4049 -5.2992 -8.3318 33.8384 -5.7188 9.8120
# 5 8.2043 12.8747 16.1843 -5.7188 25.8659 3.5606
# 6 -10.5686 -11.5161 -3.1475 9.8120 3.5606 41.9887
#
#
#
# Elastic Compliance Matrix: (Units=1/GPa)
#
#
# Indices 1 2 3 4 5 6 
#
# 1 0.010439 -0.003569 -0.000722 -0.003187 -0.002134 0.002520
# 2 -0.003569 0.012877 -0.003657 0.000280 -0.003282 0.002572
# 3 -0.000722 -0.003657 0.009286 0.001389 -0.003382 -0.000526
# 4 -0.003187 0.000280 0.001389 0.034613 0.008959 -0.009469
# 5 -0.002134 -0.003282 -0.003382 0.008959 0.046127 -0.007696
# 6 0.002520 0.002572 -0.000526 -0.009469 -0.007696 0.027982
#
#
# Mechanical properties :
#
#
# Convention : Reuss Voigt Hill
#
# Bulk Modulus (GPa) = 59.85412 68.72236 64.28824
# Shear Modulus (GPa) = 30.71475 36.39737 33.55606
#
# Velocity S-wave (km/s) = 3.70458 4.03274 3.87214
# Velocity P-wave (km/s) = 6.71137 7.23812 6.97971
#
# Compressibility (1/GPa) = 0.01670729
#
# Stress axis : x y z
#
# Youngs Moduli (GPa) = 95.79814 77.65630 107.68476
#
# Poissons Ratio (x) = 0.27712 0.07777
# Poissons Ratio (y) = 0.34186 0.39377
# Poissons Ratio (z) = 0.06919 0.28397
#
# Static dielectric constant tensor:
#      x y z
#    x 4.453020 -0.054580 0.145200 
#    y -0.054580 4.294870 0.092820 
#    z 0.145200 0.092820 3.883190 
# 
# 
# High freq. dielectric constant tensor:
#      x y z
#    x 1.887710 -0.008980 0.014110 
#    y -0.008980 1.894300 0.000880 
#    z 0.014110 0.000880 1.878030 
# 
# From -- ./inp_files/37496.got.cif
#   From: 2010.06.25/outbox.cif.g09.slc.cpg/sg2_19_cif.got.tgz:37496.got - 2010.06.27 13:26:56.
