data_PCOD8011583
_publ_section_title
;
Structure prediction by ZEFSAII (Michael W. Deem and Ramdas Pophale) SiO2 
 PCOD8011583
Probable space group: P -1
;
_chemical_formula_sum "Si O2"
_cell_formula_units_Z 16
_cell_length_a 12.186833
_cell_length_b 14.196079
_cell_length_c 15.121257
_cell_angle_alpha 127.303154
_cell_angle_beta 151.436913
_cell_angle_gamma 72.918503
_cell_volume 774.909315
_symmetry_space_group_name_H-M "P -1"
_symmetry_group_IT_number 2
_symmetry_cell_setting 'triclinic'
loop_
_space_group_symop_operation_xyz
x,y,z
-x,-y,-z
loop_
_atom_site_type_symbol
_atom_site_label
_atom_site_fract_x
_atom_site_fract_y
_atom_site_fract_z
Si Si1 0.887957 0.704903 0.399696
Si Si2 0.274561 0.062086 0.294873
Si Si3 0.652952 0.341362 0.294796
Si Si4 0.814555 0.080356 0.667629
Si Si5 0.611450 0.593298 0.720399
Si Si6 0.294029 0.578738 0.195633
Si Si7 0.094538 0.020363 0.679475
Si Si8 0.517112 0.508059 0.867523
O O1 0.709152 0.654170 0.336063
O O2 0.038640 0.624777 0.462928
O O3 0.680419 0.641313 0.130859
O O4 0.093530 0.886120 0.639573
O O5 0.476768 0.016259 0.380894
O O6 0.500427 0.242242 0.561408
O O7 0.150777 0.996407 0.267811
O O8 0.000000 0.000000 0.000000
O O9 0.566791 0.349263 0.339644
O O10 0.656584 0.456163 0.298368
O O11 0.427312 0.170339 0.003353
O O12 0.890767 0.038584 0.606853
O O13 0.038386 0.262991 0.949024
O O14 0.500000 0.500000 0.500000
O O15 0.520057 0.461858 0.648284
O O16 0.250195 0.504554 0.025342
O O17 0.000000 0.500000 0.000000
O O18 0.000000 0.000000 0.500000
#
# Coordination Sequence:
#
# PCOD8011583 Si02
#       8
#     2   2   2   2   2   2   2   2
#     4  11  22  40  66  87 123 170 206 257 318 374
#     4  11  23  43  66  96 128 170 213 259 331 386
#     4  10  22  40  63  92 125 159 214 264 305 381
#     4  10  23  43  63  91 137 165 209 276 311 381
#     4  10  21  39  62  96 125 163 210 263 319 378
#     4  11  22  39  65  89 126 163 207 261 313 378
#     4  11  22  43  62  91 129 169 215 260 315 369
#     4  10  23  41  60  93 125 158 210 259 318 372
#
# _framework density 20.647577999999999
#
# number of rings (size 3 to 8) (size 9 to 14) (size 15 to 20)
#    0.000    1.500    2.500    2.250    1.750    0.000 
#    9.000    2.500    0.000    0.000    0.000    0.000 
#    0.000    0.000    0.000    0.000    0.000    0.000 
#
# Total GULP energy -198237.494023 kJ/mol
# GULP energy per Si atom -12389.843376 kJ/mol
# Density = 2.060058 g / cm^3
# Si number density = 20.647578 Si / 1000 Ang^3
#
#
#
# Elastic Constant Matrix: (Units=GPa)
#
#
# Indices 1 2 3 4 5 6 
#
# 1 145.0232 43.7270 43.9155 -4.7714 -9.0797 4.3241
# 2 43.7270 104.6270 37.9074 7.1653 -5.7010 12.2734
# 3 43.9155 37.9074 60.8135 -6.4678 -14.2122 1.4344
# 4 -4.7714 7.1653 -6.4678 39.2131 -2.6681 7.8117
# 5 -9.0797 -5.7010 -14.2122 -2.6681 27.3105 0.0441
# 6 4.3241 12.2734 1.4344 7.8117 0.0441 32.0642
#
#
#
# Elastic Compliance Matrix: (Units=1/GPa)
#
#
# Indices 1 2 3 4 5 6 
#
# 1 0.009108 -0.001864 -0.005356 0.000646 -0.000085 -0.000432
# 2 -0.001864 0.013830 -0.008086 -0.003479 -0.002274 -0.003830
# 3 -0.005356 -0.008086 0.028825 0.006207 0.012136 0.000999
# 4 0.000646 -0.003479 0.006207 0.028825 0.005544 -0.006063
# 5 -0.000085 -0.002274 0.012136 0.005544 0.042972 -0.001071
# 6 -0.000432 -0.003830 0.000999 -0.006063 -0.001071 0.034146
#
#
# Mechanical properties :
#
#
# Convention : Reuss Voigt Hill
#
# Bulk Modulus (GPa) = 47.28020 62.39594 54.83807
# Shear Modulus (GPa) = 25.59260 32.04514 28.81887
#
# Velocity S-wave (km/s) = 3.52447 3.94382 3.74003
# Velocity P-wave (km/s) = 6.28577 7.14307 6.72809
#
# Compressibility (1/GPa) = 0.02115050
#
# Stress axis : x y z
#
# Youngs Moduli (GPa) = 109.78934 72.30618 34.69228
#
# Poissons Ratio (x) = 0.13479 0.18582
# Poissons Ratio (y) = 0.20466 0.28052
# Poissons Ratio (z) = 0.58807 0.58466
#
# Static dielectric constant tensor:
#      x y z
#    x 3.706090 -0.070540 0.082140 
#    y -0.070540 3.987090 0.131260 
#    z 0.082140 0.131260 3.588760 
# 
# 
# High freq. dielectric constant tensor:
#      x y z
#    x 1.824400 0.004930 0.000460 
#    y 0.004930 1.819550 0.011070 
#    z 0.000460 0.011070 1.787430 
# 
# From -- ./inp_files/521572.got.cif
#   From: 2010.06.25/outbox.cif.g09.slc.cpg/sg2_261_cif.got.tgz:521572.got - 2010.06.27 13:26:56.
