data_PCOD8011535
_publ_section_title
;
Structure prediction by ZEFSAII (Michael W. Deem and Ramdas Pophale) SiO2 
 PCOD8011535
Probable space group: P -1
;
_chemical_formula_sum "Si O2"
_cell_formula_units_Z 16
_cell_length_a 24.197111
_cell_length_b 8.832427
_cell_length_c 9.646817
_cell_angle_alpha 31.157981
_cell_angle_beta 48.622979
_cell_angle_gamma 48.620921
_cell_volume 775.915475
_symmetry_space_group_name_H-M "P -1"
_symmetry_group_IT_number 2
_symmetry_cell_setting 'triclinic'
loop_
_space_group_symop_operation_xyz
x,y,z
-x,-y,-z
loop_
_atom_site_type_symbol
_atom_site_label
_atom_site_fract_x
_atom_site_fract_y
_atom_site_fract_z
Si Si1 0.521682 0.148053 0.213411
Si Si2 0.820652 0.811171 0.094646
Si Si3 0.079528 0.501505 0.430778
Si Si4 0.538696 0.147678 0.704970
Si Si5 0.686361 0.845619 0.084518
Si Si6 0.175191 0.900949 0.848764
Si Si7 0.080456 0.804042 0.472721
Si Si8 0.693973 0.181982 0.529308
O O1 0.500000 0.000000 0.500000
O O2 0.471266 0.026937 0.280295
O O3 0.610357 0.072170 0.087530
O O4 0.500000 0.500000 0.000000
O O5 0.747084 0.770189 0.167664
O O6 0.882788 0.495676 0.265606
O O7 0.794052 0.999802 0.133122
O O8 0.858969 0.995281 0.779300
O O9 0.065368 0.741630 0.388259
O O10 0.000000 0.500000 0.500000
O O11 0.106838 0.167215 0.703931
O O12 0.141897 0.601640 0.149883
O O13 0.500000 0.500000 0.500000
O O14 0.628215 0.073322 0.643956
O O15 0.500000 0.000000 0.000000
O O16 0.663883 0.534821 0.334080
O O17 0.716275 0.987059 0.786547
O O18 0.237047 0.853466 0.663546
O O19 0.000000 0.000000 0.500000
#
# Coordination Sequence:
#
# PCOD8011535 Si02
#       8
#     2   2   2   2   2   2   2   2
#     4  12  26  44  67 100 130 172 229 271 330 395
#     4  10  23  42  61  92 130 165 205 266 317 380
#     4  10  21  39  62  90 126 158 207 264 308 378
#     4  12  23  46  68  94 134 173 219 278 331 383
#     4  12  25  44  65  96 134 168 220 275 322 389
#     4  10  23  41  61  93 125 166 210 254 327 383
#     4  10  21  39  63  91 123 164 209 252 319 381
#     4  12  24  43  67  95 129 173 218 270 329 390
#
# _framework density 20.620802000000001
#
# number of rings (size 3 to 8) (size 9 to 14) (size 15 to 20)
#    0.000    1.000    2.500    3.750    1.750    3.000 
#    4.500    0.000    0.000    0.000    0.000    0.000 
#    0.000    0.000    0.000    0.000    0.000    0.000 
#
# Total GULP energy -198344.986824 kJ/mol
# GULP energy per Si atom -12396.561677 kJ/mol
# Density = 2.057387 g / cm^3
# Si number density = 20.620802 Si / 1000 Ang^3
#
#
#
# Elastic Constant Matrix: (Units=GPa)
#
#
# Indices 1 2 3 4 5 6 
#
# 1 151.3535 49.5524 41.4128 7.1770 -3.8419 4.4103
# 2 49.5524 102.5843 35.2706 3.8274 -1.7177 3.8178
# 3 41.4128 35.2706 133.4917 1.2109 2.9919 14.0999
# 4 7.1770 3.8274 1.2109 46.5344 0.0732 -5.3157
# 5 -3.8419 -1.7177 2.9919 0.0732 33.2731 0.1901
# 6 4.4103 3.8178 14.0999 -5.3157 0.1901 27.4126
#
#
#
# Elastic Compliance Matrix: (Units=1/GPa)
#
#
# Indices 1 2 3 4 5 6 
#
# 1 0.008233 -0.003346 -0.001661 -0.000976 0.000930 -0.000200
# 2 -0.003346 0.012136 -0.002161 -0.000441 0.000436 -0.000129
# 3 -0.001661 -0.002161 0.009040 -0.000271 -0.001092 -0.004127
# 4 -0.000976 -0.000441 -0.000271 0.022217 -0.000187 0.004667
# 5 0.000930 0.000436 -0.001092 -0.000187 0.030282 0.000105
# 6 -0.000200 -0.000129 -0.004127 0.004667 0.000105 0.039557
#
#
# Mechanical properties :
#
#
# Convention : Reuss Voigt Hill
#
# Bulk Modulus (GPa) = 66.34197 71.10011 68.72104
# Shear Modulus (GPa) = 35.50532 38.85692 37.18112
#
# Velocity S-wave (km/s) = 4.15398 4.34563 4.25088
# Velocity P-wave (km/s) = 7.43301 7.72877 7.58233
#
# Compressibility (1/GPa) = 0.01507341
#
# Stress axis : x y z
#
# Youngs Moduli (GPa) = 121.46635 82.40021 110.61994
#
# Poissons Ratio (x) = 0.27574 0.18371
# Poissons Ratio (y) = 0.40647 0.23899
# Poissons Ratio (z) = 0.20173 0.17803
#
# Static dielectric constant tensor:
#      x y z
#    x 3.759610 0.122770 0.176980 
#    y 0.122770 3.725660 0.017390 
#    z 0.176980 0.017390 3.948920 
# 
# 
# High freq. dielectric constant tensor:
#      x y z
#    x 1.813650 0.002490 -0.001650 
#    y 0.002490 1.807520 -0.002690 
#    z -0.001650 -0.002690 1.831100 
# 
# From -- ./inp_files/217574.got.cif
#   From: 2010.06.25/outbox.cif.g09.slc.cpg/sg2_109_cif.got.tgz:217574.got - 2010.06.27 13:26:56.
