data_PCOD8011965
_publ_section_title
;
Structure prediction by ZEFSAII (Michael W. Deem and Ramdas Pophale) SiO2 
 PCOD8011965
Probable space group: P -1
;
_chemical_formula_sum "Si O2"
_cell_formula_units_Z 16
_cell_length_a 10.522851
_cell_length_b 9.632027
_cell_length_c 10.804272
_cell_angle_alpha 79.217810
_cell_angle_beta 56.502212
_cell_angle_gamma 58.617482
_cell_volume 771.824396
_symmetry_space_group_name_H-M "P -1"
_symmetry_group_IT_number 2
_symmetry_cell_setting 'triclinic'
loop_
_space_group_symop_operation_xyz
x,y,z
-x,-y,-z
loop_
_atom_site_type_symbol
_atom_site_label
_atom_site_fract_x
_atom_site_fract_y
_atom_site_fract_z
Si Si1 0.745902 0.565101 0.130111
Si Si2 0.922518 0.736564 0.576782
Si Si3 0.085163 0.272992 0.127827
Si Si4 0.405914 0.613788 0.918096
Si Si5 0.232662 0.037441 0.600731
Si Si6 0.383348 0.244094 0.592370
Si Si7 0.083004 0.963583 0.093344
Si Si8 0.259979 0.446762 0.390218
O O1 0.666699 0.469210 0.120566
O O2 0.618272 0.697783 0.277096
O O3 0.909101 0.427253 0.143058
O O4 0.773345 0.673212 0.993076
O O5 0.918535 0.766767 0.719580
O O6 0.805422 0.899821 0.531594
O O7 0.841998 0.620400 0.623572
O O8 0.127015 0.644746 0.431525
O O9 0.134214 0.101159 0.068014
O O10 0.549885 0.629700 0.760301
O O11 0.500000 0.500000 0.000000
O O12 0.258070 0.785573 0.026645
O O13 0.272130 0.150487 0.652706
O O14 0.064049 0.026603 0.735142
O O15 0.410618 0.861889 0.536762
O O16 0.287160 0.397541 0.527334
O O17 0.000000 0.000000 0.000000
#
# Coordination Sequence:
#
# PCOD8011965 Si02
#       8
#     2   2   2   2   2   2   2   2
#     4  11  24  42  66  95 128 170 219 270 314 383
#     4  10  21  41  65  94 127 169 207 261 323 383
#     4  11  24  41  67  95 127 172 220 263 321 383
#     4  12  26  42  65  98 131 169 215 269 322 380
#     4  10  23  39  64  95 133 165 208 264 327 381
#     4  10  21  40  64  95 126 167 212 263 316 384
#     4  12  24  43  65  94 131 174 214 264 322 383
#     4  10  21  39  65  92 127 167 211 256 317 383
#
# _framework density 20.730104000000001
#
# number of rings (size 3 to 8) (size 9 to 14) (size 15 to 20)
#    0.000    1.250    2.500    3.000    1.750    5.000 
#    0.000    1.875    0.000    0.000    0.000    0.000 
#    0.000    0.000    0.000    0.000    0.000    0.000 
#
# Total GULP energy -198292.483419 kJ/mol
# GULP energy per Si atom -12393.280214 kJ/mol
# Density = 2.068292 g / cm^3
# Si number density = 20.730104 Si / 1000 Ang^3
#
#
#
# Elastic Constant Matrix: (Units=GPa)
#
#
# Indices 1 2 3 4 5 6 
#
# 1 58.4575 30.9652 37.3695 1.4011 1.8564 5.5629
# 2 30.9652 99.9113 29.7920 9.3217 -0.3707 2.9605
# 3 37.3695 29.7920 83.7248 10.9487 -2.6451 3.8574
# 4 1.4011 9.3217 10.9487 25.0514 -6.8394 1.6215
# 5 1.8564 -0.3707 -2.6451 -6.8394 45.9000 -0.6073
# 6 5.5629 2.9605 3.8574 1.6215 -0.6073 22.0880
#
#
#
# Elastic Compliance Matrix: (Units=1/GPa)
#
#
# Indices 1 2 3 4 5 6 
#
# 1 0.027255 -0.005621 -0.010669 0.005247 -0.001042 -0.004661
# 2 -0.005621 0.012538 -0.001476 -0.003810 -0.000321 0.000264
# 3 -0.010669 -0.001476 0.018106 -0.006652 0.000475 0.000224
# 4 0.005247 -0.003810 -0.006652 0.045816 0.006163 -0.002843
# 5 -0.001042 -0.000321 0.000475 0.006163 0.022777 0.000396
# 6 -0.004661 0.000264 0.000224 -0.002843 0.000396 0.046592
#
#
# Mechanical properties :
#
#
# Convention : Reuss Voigt Hill
#
# Bulk Modulus (GPa) = 44.71201 48.70523 46.70862
# Shear Modulus (GPa) = 23.14032 28.20569 25.67300
#
# Velocity S-wave (km/s) = 3.34468 3.69265 3.52297
# Velocity P-wave (km/s) = 6.04412 6.45963 6.25532
#
# Compressibility (1/GPa) = 0.02236535
#
# Stress axis : x y z
#
# Youngs Moduli (GPa) = 36.69021 79.75918 55.23065
#
# Poissons Ratio (x) = 0.44833 0.58927
# Poissons Ratio (y) = 0.20624 0.08155
# Poissons Ratio (z) = 0.39146 0.11776
#
# Static dielectric constant tensor:
#      x y z
#    x 4.036570 -0.323030 -0.122230 
#    y -0.323030 3.765680 0.209720 
#    z -0.122230 0.209720 3.672340 
# 
# 
# High freq. dielectric constant tensor:
#      x y z
#    x 1.814550 -0.009980 0.006150 
#    y -0.009980 1.814790 0.001300 
#    z 0.006150 0.001300 1.816350 
# 
# From -- ./inp_files/381917.got.cif
#   From: 2010.06.25/outbox.cif.g09.slc.cpg/sg2_191_cif.got.tgz:381917.got - 2010.06.27 13:26:56.
