data_PCOD8011413
_publ_section_title
;
Structure prediction by ZEFSAII (Michael W. Deem and Ramdas Pophale) SiO2 
 PCOD8011413
Probable space group: P -1
;
_chemical_formula_sum "Si O2"
_cell_formula_units_Z 12
_cell_length_a 19.052206
_cell_length_b 15.887774
_cell_length_c 8.708955
_cell_angle_alpha 47.844118
_cell_angle_beta 38.323768
_cell_angle_gamma 20.223202
_cell_volume 538.470601
_symmetry_space_group_name_H-M "P -1"
_symmetry_group_IT_number 2
_symmetry_cell_setting 'triclinic'
loop_
_space_group_symop_operation_xyz
x,y,z
-x,-y,-z
loop_
_atom_site_type_symbol
_atom_site_label
_atom_site_fract_x
_atom_site_fract_y
_atom_site_fract_z
Si Si1 0.193661 0.844279 0.156049
Si Si2 0.777369 0.769931 0.370932
Si Si3 0.797239 0.017614 0.532578
Si Si4 0.531186 0.589358 0.629904
Si Si5 0.767405 0.801152 0.710826
Si Si6 0.057932 0.169536 0.174585
O O1 0.402933 0.601588 0.210118
O O2 0.015449 0.085658 0.267926
O O3 0.325331 0.807402 0.847113
O O4 0.046842 0.872691 0.290205
O O5 0.750395 0.796173 0.566199
O O6 0.987559 0.490231 0.292573
O O7 0.500000 0.000000 0.500000
O O8 0.865740 0.810981 0.107064
O O9 0.579540 0.293101 0.495517
O O10 0.826141 0.880308 0.545207
O O11 0.735068 0.028491 0.799445
O O12 0.782161 0.444327 0.387492
O O13 0.500000 0.000000 0.000000
#
# Coordination Sequence:
#
# PCOD8011413 Si02
#       6
#     2   2   2   2   2   2
#     4  10  23  40  61  94 128 165 210 257 317 379
#     4  11  26  45  68  96 129 171 216 269 325 382
#     4  11  22  39  66  94 125 168 211 260 318 378
#     4  10  21  39  61  88 127 167 207 257 313 373
#     4  11  25  46  69  97 129 168 220 268 321 385
#     4  11  24  41  62  94 129 165 211 260 317 381
#
# _framework density 22.285339
#
# number of rings (size 3 to 8) (size 9 to 14) (size 15 to 20)
#    0.000    1.333    0.000    5.500    0.000   13.333 
#    0.000    3.333    0.000    0.000    0.000    0.000 
#    0.000    0.000    0.000    0.000    0.000    0.000 
#
# Total GULP energy -148679.576821 kJ/mol
# GULP energy per Si atom -12389.964735 kJ/mol
# Density = 2.223462 g / cm^3
# Si number density = 22.285339 Si / 1000 Ang^3
#
#
#
# Elastic Constant Matrix: (Units=GPa)
#
#
# Indices 1 2 3 4 5 6 
#
# 1 98.1793 56.9159 32.9706 5.8696 -12.6782 -0.7571
# 2 56.9159 135.3920 57.4530 -2.2394 -7.1570 -23.7940
# 3 32.9706 57.4530 121.0840 -1.4967 4.1669 -5.0277
# 4 5.8696 -2.2394 -1.4967 33.2986 -3.4503 3.9629
# 5 -12.6782 -7.1570 4.1669 -3.4503 33.1098 -10.3217
# 6 -0.7571 -23.7940 -5.0277 3.9629 -10.3217 40.4922
#
#
#
# Elastic Compliance Matrix: (Units=1/GPa)
#
#
# Indices 1 2 3 4 5 6 
#
# 1 0.014603 -0.005719 -0.001505 -0.002398 0.003636 -0.002113
# 2 -0.005719 0.013375 -0.004575 0.001147 0.003912 0.008070
# 3 -0.001505 -0.004575 0.010872 0.000348 -0.003622 -0.002324
# 4 -0.002398 0.001147 0.000348 0.030969 0.001931 -0.001866
# 5 0.003636 0.003912 -0.003622 0.001931 0.036540 0.011042
# 6 -0.002113 0.008070 -0.002324 -0.001866 0.011042 0.032107
#
#
# Mechanical properties :
#
#
# Convention : Reuss Voigt Hill
#
# Bulk Modulus (GPa) = 65.56320 72.14828 68.85574
# Shear Modulus (GPa) = 29.91373 35.20116 32.55744
#
# Velocity S-wave (km/s) = 3.66772 3.97869 3.82637
# Velocity P-wave (km/s) = 6.88622 7.31790 7.10534
#
# Compressibility (1/GPa) = 0.01525246
#
# Stress axis : x y z
#
# Youngs Moduli (GPa) = 68.47992 74.76590 91.98232
#
# Poissons Ratio (x) = 0.42756 0.13847
# Poissons Ratio (y) = 0.39161 0.42078
# Poissons Ratio (z) = 0.10309 0.34202
#
# Static dielectric constant tensor:
#      x y z
#    x 3.559220 -0.453820 1.365030 
#    y -0.453820 4.205140 0.801900 
#    z 1.365030 0.801900 -0.079200 
# 
# 
# High freq. dielectric constant tensor:
#      x y z
#    x 1.860790 -0.012720 0.012030 
#    y -0.012720 1.887730 -0.011320 
#    z 0.012030 -0.011320 1.890640 
# 
# From -- ./inp_files/335661.got.cif
#   From: 2010.06.25/outbox.cif.g09.slc.cpg/sg2_168_cif.got.tgz:335661.got - 2010.06.27 13:26:56.
