data_PCOD8011914
_publ_section_title
;
Structure prediction by ZEFSAII (Michael W. Deem and Ramdas Pophale) SiO2 
 PCOD8011914
Probable space group: P -1
;
_chemical_formula_sum "Si O2"
_cell_formula_units_Z 12
_cell_length_a 14.167284
_cell_length_b 9.115649
_cell_length_c 9.439194
_cell_angle_alpha 48.208704
_cell_angle_beta 38.966692
_cell_angle_gamma 50.867096
_cell_volume 554.720614
_symmetry_space_group_name_H-M "P -1"
_symmetry_group_IT_number 2
_symmetry_cell_setting 'triclinic'
loop_
_space_group_symop_operation_xyz
x,y,z
-x,-y,-z
loop_
_atom_site_type_symbol
_atom_site_label
_atom_site_fract_x
_atom_site_fract_y
_atom_site_fract_z
Si Si1 0.010447 0.755236 0.925942
Si Si2 0.190148 0.400760 0.539737
Si Si3 0.457365 0.526976 0.305095
Si Si4 0.086508 0.318763 0.198629
Si Si5 0.671797 0.783350 0.781807
Si Si6 0.328426 0.786438 0.554802
O O1 0.141764 0.872853 0.739061
O O2 0.944315 0.827036 0.799432
O O3 0.111547 0.519173 0.958838
O O4 0.870348 0.774947 0.189828
O O5 0.352476 0.423699 0.395722
O O6 0.209117 0.339116 0.393905
O O7 0.062566 0.615297 0.565491
O O8 0.357692 0.649542 0.468663
O O9 0.595222 0.343573 0.316732
O O10 0.529327 0.680219 0.030395
O O11 0.238842 0.215113 0.174556
O O12 0.602093 0.016032 0.667759
#
# Coordination Sequence:
#
# PCOD8011914 Si02
#       6
#     2   2   2   2   2   2
#     4   9  18  40  62  86 112 166 195 230 306 341
#     4  10  21  39  65  87 121 160 190 250 303 342
#     4  11  22  43  60  82 129 160 194 239 302 356
#     4   9  18  38  63  86 116 156 200 235 293 356
#     4  12  24  37  62  97 118 149 206 245 297 351
#     4  11  23  39  65  87 117 163 199 245 288 357
#
# _framework density 21.632512999999999
#
# number of rings (size 3 to 8) (size 9 to 14) (size 15 to 20)
#    1.000    0.667    3.333    1.500    2.333    2.000 
#    0.000    0.000    0.000    0.000    0.000    0.000 
#    0.000    0.000    0.000    0.000    0.000    0.000 
#
# Total GULP energy -148738.899394 kJ/mol
# GULP energy per Si atom -12394.908283 kJ/mol
# Density = 2.158328 g / cm^3
# Si number density = 21.632513 Si / 1000 Ang^3
#
#
#
# Elastic Constant Matrix: (Units=GPa)
#
#
# Indices 1 2 3 4 5 6 
#
# 1 92.6804 16.3824 52.4613 -1.3912 -15.1916 1.7263
# 2 16.3824 29.5976 23.6331 -15.3002 -5.7869 0.3800
# 3 52.4613 23.6331 125.1122 -6.9184 -17.8899 1.8347
# 4 -1.3912 -15.3002 -6.9184 28.7009 -1.2698 -0.6083
# 5 -15.1916 -5.7869 -17.8899 -1.2698 25.3067 3.7755
# 6 1.7263 0.3800 1.8347 -0.6083 3.7755 7.9251
#
#
#
# Elastic Compliance Matrix: (Units=1/GPa)
#
#
# Indices 1 2 3 4 5 6 
#
# 1 0.015306 -0.005122 -0.004811 -0.003019 0.005160 -0.004665
# 2 -0.005122 0.058386 -0.006114 0.029709 0.007691 -0.001652
# 3 -0.004811 -0.006114 0.011849 -0.000510 0.004607 -0.003636
# 4 -0.003019 0.029709 -0.000510 0.050725 0.007193 -0.000183
# 5 0.005160 0.007691 0.004607 0.007193 0.051983 -0.026772
# 6 -0.004665 -0.001652 -0.003636 -0.000183 -0.026772 0.140859
#
#
# Mechanical properties :
#
#
# Convention : Reuss Voigt Hill
#
# Bulk Modulus (GPa) = 18.71037 48.03819 33.37428
# Shear Modulus (GPa) = 13.19197 22.71410 17.95303
#
# Velocity S-wave (km/s) = 2.47213 3.24388 2.88394
# Velocity P-wave (km/s) = 4.10080 6.02371 5.15275
#
# Compressibility (1/GPa) = 0.05344629
#
# Stress axis : x y z
#
# Youngs Moduli (GPa) = 65.33445 17.12727 84.39510
#
# Poissons Ratio (x) = 0.08773 0.40603
# Poissons Ratio (y) = 0.33465 0.51602
# Poissons Ratio (z) = 0.31433 0.10472
#
# Static dielectric constant tensor:
#      x y z
#    x 3.733250 0.045270 -0.065640 
#    y 0.045270 3.353550 -0.050290 
#    z -0.065640 -0.050290 3.938240 
# 
# 
# High freq. dielectric constant tensor:
#      x y z
#    x 1.849680 0.002960 -0.007410 
#    y 0.002960 1.800880 0.000970 
#    z -0.007410 0.000970 1.856430 
# 
# From -- ./inp_files/293826.got.cif
#   From: 2010.06.25/outbox.cif.g09.slc.cpg/sg2_147_cif.got.tgz:293826.got - 2010.06.27 13:26:56.
