data_PCOD8011343
_publ_section_title
;
Structure prediction by ZEFSAII (Michael W. Deem and Ramdas Pophale) SiO2 
 PCOD8011343
Probable space group: P -1
;
_chemical_formula_sum "Si O2"
_cell_formula_units_Z 16
_cell_length_a 15.171567
_cell_length_b 12.456574
_cell_length_c 10.262932
_cell_angle_alpha 101.420066
_cell_angle_beta 66.538399
_cell_angle_gamma 151.835641
_cell_volume 785.613192
_symmetry_space_group_name_H-M "P -1"
_symmetry_group_IT_number 2
_symmetry_cell_setting 'triclinic'
loop_
_space_group_symop_operation_xyz
x,y,z
-x,-y,-z
loop_
_atom_site_type_symbol
_atom_site_label
_atom_site_fract_x
_atom_site_fract_y
_atom_site_fract_z
Si Si1 0.329944 0.361334 0.675009
Si Si2 0.487853 0.358020 0.779283
Si Si3 0.095794 0.098117 0.324521
Si Si4 0.750874 0.227758 0.568929
Si Si5 0.529992 0.190448 0.548765
Si Si6 0.220917 0.498433 0.773075
Si Si7 0.253277 0.044721 0.099173
Si Si8 0.477632 0.082042 0.122406
O O1 0.500000 0.500000 0.500000
O O2 0.389177 0.367954 0.779202
O O3 0.332183 0.493831 0.723629
O O4 0.094202 0.079608 0.708862
O O5 0.738039 0.633415 0.728216
O O6 0.462670 0.237205 0.659217
O O7 0.360698 0.203227 0.946355
O O8 0.213741 0.102152 0.237738
O O9 0.000000 0.000000 0.500000
O O10 0.623345 0.211225 0.615932
O O11 0.000000 0.500000 0.500000
O O12 0.684345 0.079194 0.453695
O O13 0.693134 0.115107 0.712810
O O14 0.714786 0.389954 0.379681
O O15 0.298832 0.659919 0.878888
O O16 0.968252 0.238527 0.874775
O O17 0.408688 0.114208 0.084718
O O18 0.500000 0.000000 0.000000
#
# Coordination Sequence:
#
# PCOD8011343 Si02
#       8
#     2   2   2   2   2   2   2   2
#     4  11  21  39  64  90 120 162 201 244 304 362
#     4  12  23  38  61  91 126 157 202 251 300 363
#     4  11  23  39  64  91 123 164 203 246 302 367
#     4  10  22  39  62  86 115 153 207 257 303 356
#     4  10  21  39  60  88 117 154 203 257 300 358
#     4  10  22  41  62  87 124 160 205 249 301 368
#     4  11  25  40  60  91 126 162 202 252 306 359
#     4  11  24  41  63  86 123 163 203 251 309 364
#
# _framework density 20.366256
#
# number of rings (size 3 to 8) (size 9 to 14) (size 15 to 20)
#    0.000    1.250    2.500    3.375    0.000    5.500 
#    0.000    0.000    0.000    0.000    0.000    0.000 
#    0.000    0.000    0.000    0.000    0.000    0.000 
#
# Total GULP energy -198464.845043 kJ/mol
# GULP energy per Si atom -12404.052815 kJ/mol
# Density = 2.031990 g / cm^3
# Si number density = 20.366256 Si / 1000 Ang^3
#
#
#
# Elastic Constant Matrix: (Units=GPa)
#
#
# Indices 1 2 3 4 5 6 
#
# 1 66.0178 9.7517 20.8812 4.1436 14.8825 -2.4103
# 2 9.7517 141.2771 43.0855 -4.1423 -4.3701 1.9196
# 3 20.8812 43.0855 103.6462 -0.1332 9.8589 -1.1418
# 4 4.1436 -4.1423 -0.1332 38.0454 -11.7827 -4.6006
# 5 14.8825 -4.3701 9.8589 -11.7827 38.1516 0.4369
# 6 -2.4103 1.9196 -1.1418 -4.6006 0.4369 27.7131
#
#
#
# Elastic Compliance Matrix: (Units=1/GPa)
#
#
# Indices 1 2 3 4 5 6 
#
# 1 0.018174 -0.000865 -0.002545 -0.004419 -0.007906 0.000927
# 2 -0.000865 0.008374 -0.003575 0.001788 0.002779 -0.000550
# 3 -0.002545 -0.003575 0.011914 -0.000878 -0.002771 0.000415
# 4 -0.004419 0.001788 -0.000878 0.031122 0.011717 0.004438
# 5 -0.007906 0.002779 -0.002771 0.011717 0.033944 0.000416
# 6 0.000927 -0.000550 0.000415 0.004438 0.000416 0.036950
#
#
# Mechanical properties :
#
#
# Convention : Reuss Voigt Hill
#
# Bulk Modulus (GPa) = 40.83014 50.93087 45.88051
# Shear Modulus (GPa) = 30.74802 36.59684 33.67243
#
# Velocity S-wave (km/s) = 3.88977 4.24363 4.07054
# Velocity P-wave (km/s) = 6.34549 7.00521 6.68349
#
# Compressibility (1/GPa) = 0.02449171
#
# Stress axis : x y z
#
# Youngs Moduli (GPa) = 55.02447 119.41621 83.93384
#
# Poissons Ratio (x) = 0.10329 0.21364
# Poissons Ratio (y) = 0.04759 0.30006
# Poissons Ratio (z) = 0.14005 0.42690
#
# Static dielectric constant tensor:
#      x y z
#    x 3.810740 -0.056100 0.148590 
#    y -0.056100 4.064770 0.091890 
#    z 0.148590 0.091890 3.473580 
# 
# 
# High freq. dielectric constant tensor:
#      x y z
#    x 1.796070 -0.005180 0.009520 
#    y -0.005180 1.815970 0.003070 
#    z 0.009520 0.003070 1.790520 
# 
# From -- ./inp_files/307695.got.cif
#   From: 2010.06.25/outbox.cif.g09.slc.cpg/sg2_154_cif.got.tgz:307695.got - 2010.06.27 13:26:56.
