data_PCOD8011710
_publ_section_title
;
Structure prediction by ZEFSAII (Michael W. Deem and Ramdas Pophale) SiO2 
 PCOD8011710
Probable space group: P -1
;
_chemical_formula_sum "Si O2"
_cell_formula_units_Z 16
_cell_length_a 14.052253
_cell_length_b 11.450583
_cell_length_c 19.035612
_cell_angle_alpha 151.421497
_cell_angle_beta 31.135081
_cell_angle_gamma 131.333163
_cell_volume 704.180078
_symmetry_space_group_name_H-M "P -1"
_symmetry_group_IT_number 2
_symmetry_cell_setting 'triclinic'
loop_
_space_group_symop_operation_xyz
x,y,z
-x,-y,-z
loop_
_atom_site_type_symbol
_atom_site_label
_atom_site_fract_x
_atom_site_fract_y
_atom_site_fract_z
Si Si1 0.908780 0.707719 0.227741
Si Si2 0.844126 0.199311 0.755551
Si Si3 0.137579 0.746946 0.485498
Si Si4 0.393361 0.155965 0.268491
Si Si5 0.181514 0.447959 0.426029
Si Si6 0.281837 0.506495 0.649916
Si Si7 0.799126 0.942436 0.975568
Si Si8 0.699808 0.544358 0.907238
O O1 0.745432 0.638805 0.338658
O O2 0.074362 0.734143 0.188600
O O3 0.816302 0.989326 0.395981
O O4 0.000000 0.500000 0.000000
O O5 0.763440 0.476229 0.911372
O O6 0.669630 0.095216 0.829348
O O7 0.000000 0.000000 0.500000
O O8 0.275831 0.533345 0.341961
O O9 0.154943 0.657307 0.346359
O O10 0.910653 0.768106 0.655125
O O11 0.351244 0.320783 0.309229
O O12 0.246896 0.352587 0.523062
O O13 0.628499 0.056347 0.083118
O O14 0.003306 0.716027 0.705003
O O15 0.500000 0.500000 0.500000
O O16 0.142643 0.815804 0.904667
O O17 0.691046 0.836788 0.049688
O O18 0.500000 0.500000 0.000000
#
# Coordination Sequence:
#
# PCOD8011710 Si02
#       8
#     2   2   2   2   2   2   2   2
#     4  12  24  41  70  99 137 178 225 287 352 405
#     4  12  20  40  70  99 123 174 235 276 331 410
#     4  10  21  39  63  93 135 168 216 284 335 396
#     4  11  20  40  69  96 130 176 227 279 327 409
#     4  10  21  40  64  97 131 174 222 275 345 398
#     4  10  23  40  64  95 136 182 221 276 347 401
#     4  10  22  39  61  98 134 170 220 277 337 402
#     4  11  21  38  67  98 127 167 229 285 327 395
#
# _framework density 22.72146
#
# number of rings (size 3 to 8) (size 9 to 14) (size 15 to 20)
#    0.000    1.250    5.000    1.500    1.750    0.500 
#    2.250    9.375    0.000    3.750    0.000    0.000 
#    0.000    0.000    0.000    0.000    0.000    0.000 
#
# Total GULP energy -198215.218367 kJ/mol
# GULP energy per Si atom -12388.451148 kJ/mol
# Density = 2.266974 g / cm^3
# Si number density = 22.721460 Si / 1000 Ang^3
#
#
#
# Elastic Constant Matrix: (Units=GPa)
#
#
# Indices 1 2 3 4 5 6 
#
# 1 112.5440 41.6592 22.7637 12.2810 -0.5839 -21.8765
# 2 41.6592 160.7733 27.7700 30.9254 8.1357 -12.7861
# 3 22.7637 27.7700 61.4944 15.6838 0.5937 1.6155
# 4 12.2810 30.9254 15.6838 32.6149 -4.2528 -2.3549
# 5 -0.5839 8.1357 0.5937 -4.2528 36.8622 10.7880
# 6 -21.8765 -12.7861 1.6155 -2.3549 10.7880 42.4932
#
#
#
# Elastic Compliance Matrix: (Units=1/GPa)
#
#
# Indices 1 2 3 4 5 6 
#
# 1 0.011395 -0.001702 -0.003389 -0.000784 -0.001158 0.005734
# 2 -0.001702 0.008635 -0.001481 -0.007114 -0.003386 0.002244
# 3 -0.003389 -0.001481 0.020115 -0.007223 0.000106 -0.003382
# 4 -0.000784 -0.007114 -0.007223 0.041966 0.007021 -0.001727
# 5 -0.001158 -0.003386 0.000106 0.007021 0.031355 -0.009190
# 6 0.005734 0.002244 -0.003382 -0.001727 -0.009190 0.029526
#
#
# Mechanical properties :
#
#
# Convention : Reuss Voigt Hill
#
# Bulk Modulus (GPa) = 37.03609 57.68862 47.36236
# Shear Modulus (GPa) = 30.27798 38.56865 34.42331
#
# Velocity S-wave (km/s) = 3.65440 4.12449 3.89654
# Velocity P-wave (km/s) = 5.84308 6.93732 6.41358
#
# Compressibility (1/GPa) = 0.02700069
#
# Stress axis : x y z
#
# Youngs Moduli (GPa) = 87.75838 115.80747 49.71406
#
# Poissons Ratio (x) = 0.19708 0.16848
# Poissons Ratio (y) = 0.14935 0.07364
# Poissons Ratio (z) = 0.29741 0.17155
#
# Static dielectric constant tensor:
#      x y z
#    x 4.242270 0.068010 0.086050 
#    y 0.068010 4.587160 0.794020 
#    z 0.086050 0.794020 4.625240 
# 
# 
# High freq. dielectric constant tensor:
#      x y z
#    x 1.879050 -0.018460 0.007340 
#    y -0.018460 1.916740 0.012270 
#    z 0.007340 0.012270 1.875200 
# 
# From -- ./inp_files/598024.got.cif
#   From: 2010.06.25/outbox.cif.g09.slc.cpg/sg2_300_cif.got.tgz:598024.got - 2010.06.27 13:26:56.
