data_PCOD8011181
_publ_section_title
;
Structure prediction by ZEFSAII (Michael W. Deem and Ramdas Pophale) SiO2 
 PCOD8011181
Probable space group: P -1
;
_chemical_formula_sum "Si O2"
_cell_formula_units_Z 16
_cell_length_a 18.656044
_cell_length_b 9.181388
_cell_length_c 19.488797
_cell_angle_alpha 39.921883
_cell_angle_beta 151.910452
_cell_angle_gamma 150.805608
_cell_volume 766.606336
_symmetry_space_group_name_H-M "P -1"
_symmetry_group_IT_number 2
_symmetry_cell_setting 'triclinic'
loop_
_space_group_symop_operation_xyz
x,y,z
-x,-y,-z
loop_
_atom_site_type_symbol
_atom_site_label
_atom_site_fract_x
_atom_site_fract_y
_atom_site_fract_z
Si Si1 0.454269 0.645032 0.591664
Si Si2 0.715460 0.496831 0.854683
Si Si3 0.080804 0.638477 0.443721
Si Si4 0.483255 0.977755 0.373874
Si Si5 0.273472 0.692496 0.923361
Si Si6 0.925160 0.871551 0.138328
Si Si7 0.015406 0.271878 0.397290
Si Si8 0.776873 0.204269 0.906585
O O1 0.506583 0.429948 0.714693
O O2 0.564895 0.861403 0.672865
O O3 0.228585 0.511557 0.455785
O O4 0.521611 0.794384 0.519510
O O5 0.652295 0.226352 0.849575
O O6 0.787907 0.462819 0.999005
O O7 0.889875 0.836620 0.852986
O O8 0.317808 0.813674 0.580009
O O9 0.978904 0.372642 0.399684
O O10 0.000000 0.500000 0.500000
O O11 0.019888 0.836182 0.297737
O O12 0.295665 0.788910 0.232442
O O13 0.208604 0.434826 0.907548
O O14 0.146883 0.799919 0.768019
O O15 0.500000 0.000000 0.000000
O O16 0.772407 0.926006 0.012751
O O17 0.000000 0.000000 0.500000
O O18 0.000000 0.500000 0.000000
#
# Coordination Sequence:
#
# PCOD8011181 Si02
#       8
#     2   2   2   2   2   2   2   2
#     4  10  21  38  69  91 124 166 223 270 322 378
#     4  11  22  41  64  98 129 172 219 268 335 387
#     4  10  22  42  66  90 123 171 216 265 330 387
#     4  10  21  40  63  95 122 169 216 268 321 387
#     4  11  24  40  67  96 131 174 219 269 332 395
#     4  10  22  44  64  94 129 170 223 271 327 391
#     4  10  23  40  60  98 130 163 215 271 326 386
#     4  10  24  39  60  96 136 166 215 262 332 389
#
# _framework density 20.871207999999999
#
# number of rings (size 3 to 8) (size 9 to 14) (size 15 to 20)
#    0.000    1.750    1.250    1.875    5.250    5.500 
#    2.250    1.250    0.000    0.000    0.000    0.000 
#    0.000    0.000    0.000    0.000    0.000    0.000 
#
# Total GULP energy -198262.880945 kJ/mol
# GULP energy per Si atom -12391.430059 kJ/mol
# Density = 2.082370 g / cm^3
# Si number density = 20.871208 Si / 1000 Ang^3
#
#
#
# Elastic Constant Matrix: (Units=GPa)
#
#
# Indices 1 2 3 4 5 6 
#
# 1 123.0156 41.0117 85.6682 -13.2502 -6.4237 -2.2460
# 2 41.0117 91.8533 56.5213 -9.4549 -7.9293 -5.2752
# 3 85.6682 56.5213 176.6764 -12.4671 -4.3019 -14.0092
# 4 -13.2502 -9.4549 -12.4671 41.0484 -7.5239 0.3270
# 5 -6.4237 -7.9293 -4.3019 -7.5239 29.9043 -15.6467
# 6 -2.2460 -5.2752 -14.0092 0.3270 -15.6467 36.4964
#
#
#
# Elastic Compliance Matrix: (Units=1/GPa)
#
#
# Indices 1 2 3 4 5 6 
#
# 1 0.012964 -0.002096 -0.005494 0.002317 0.001503 -0.000990
# 2 -0.002096 0.014639 -0.003111 0.002686 0.005236 0.003014
# 3 -0.005494 -0.003111 0.009680 0.000679 0.001402 0.003523
# 4 0.002317 0.002686 0.000679 0.027928 0.011110 0.005304
# 5 0.001503 0.005236 0.001402 0.011110 0.050049 0.022745
# 6 -0.000990 0.003014 0.003523 0.005304 0.022745 0.038831
#
#
# Mechanical properties :
#
#
# Convention : Reuss Voigt Hill
#
# Bulk Modulus (GPa) = 62.96640 84.21642 73.59141
# Shear Modulus (GPa) = 27.65700 35.37941 31.51820
#
# Velocity S-wave (km/s) = 3.64418 4.12166 3.89025
# Velocity P-wave (km/s) = 6.92396 7.94285 7.45084
#
# Compressibility (1/GPa) = 0.01588149
#
# Stress axis : x y z
#
# Youngs Moduli (GPa) = 77.13820 68.31254 103.30068
#
# Poissons Ratio (x) = 0.14320 0.56751
# Poissons Ratio (y) = 0.16170 0.32133
# Poissons Ratio (z) = 0.42378 0.21249
#
# Static dielectric constant tensor:
#      x y z
#    x 4.185420 -0.328430 0.235130 
#    y -0.328430 3.627570 -0.322500 
#    z 0.235130 -0.322500 4.002080 
# 
# 
# High freq. dielectric constant tensor:
#      x y z
#    x 1.813650 -0.007080 0.006270 
#    y -0.007080 1.802540 -0.005550 
#    z 0.006270 -0.005550 1.838420 
# 
# From -- ./inp_files/575508.got.cif
#   From: 2010.06.25/outbox.cif.g09.slc.cpg/sg2_288_cif.got.tgz:575508.got - 2010.06.27 13:26:56.
