data_PCOD8011633
_publ_section_title
;
Structure prediction by ZEFSAII (Michael W. Deem and Ramdas Pophale) SiO2 
 PCOD8011633
Probable space group: P -1
;
_chemical_formula_sum "Si O2"
_cell_formula_units_Z 16
_cell_length_a 16.778769
_cell_length_b 6.862763
_cell_length_c 12.126723
_cell_angle_alpha 46.267972
_cell_angle_beta 129.414302
_cell_angle_gamma 108.515481
_cell_volume 760.883315
_symmetry_space_group_name_H-M "P -1"
_symmetry_group_IT_number 2
_symmetry_cell_setting 'triclinic'
loop_
_space_group_symop_operation_xyz
x,y,z
-x,-y,-z
loop_
_atom_site_type_symbol
_atom_site_label
_atom_site_fract_x
_atom_site_fract_y
_atom_site_fract_z
Si Si1 0.524575 0.434494 0.841241
Si Si2 0.769763 0.607370 0.527290
Si Si3 0.410458 0.636969 0.452789
Si Si4 0.065448 0.072948 0.367974
Si Si5 0.047543 0.837303 0.213370
Si Si6 0.684518 0.754076 0.947972
Si Si7 0.648021 0.858231 0.116216
Si Si8 0.905786 0.413966 0.254118
O O1 0.462522 0.649638 0.613386
O O2 0.591421 0.591197 0.916412
O O3 0.442992 0.315997 0.891031
O O4 0.598458 0.183325 0.938728
O O5 0.674547 0.557925 0.539807
O O6 0.845193 0.750339 0.610981
O O7 0.832453 0.315982 0.647253
O O8 0.726086 0.805917 0.309071
O O9 0.500000 0.500000 0.500000
O O10 0.350995 0.943655 0.251561
O O11 0.955518 0.229690 0.265398
O O12 0.046129 0.046405 0.231558
O O13 0.105402 0.776228 0.576395
O O14 0.980383 0.616210 0.276830
O O15 0.000000 0.000000 0.000000
O O16 0.712104 0.773091 0.093682
O O17 0.791257 0.589221 0.047727
#
# Coordination Sequence:
#
# PCOD8011633 Si02
#       8
#     2   2   2   2   2   2   2   2
#     4  10  22  40  61  89 124 169 212 255 317 370
#     4  10  23  42  64  91 123 168 209 254 318 373
#     4  11  23  45  59  90 131 167 205 269 312 366
#     4  10  22  45  67  93 128 163 210 262 316 380
#     4  11  23  43  64  95 130 165 204 260 317 381
#     4  12  22  39  64  94 122 171 211 255 317 378
#     4  10  21  39  63  89 129 157 216 265 303 369
#     4  10  23  39  66  99 125 163 213 260 315 372
#
# _framework density 21.028192000000001
#
# number of rings (size 3 to 8) (size 9 to 14) (size 15 to 20)
#    0.000    1.500    1.250    3.375    0.000    5.000 
#   13.500    0.000    0.000    0.000    0.000    0.000 
#    0.000    0.000    0.000    0.000    0.000    0.000 
#
# Total GULP energy -198483.184933 kJ/mol
# GULP energy per Si atom -12405.199058 kJ/mol
# Density = 2.098033 g / cm^3
# Si number density = 21.028192 Si / 1000 Ang^3
#
#
#
# Elastic Constant Matrix: (Units=GPa)
#
#
# Indices 1 2 3 4 5 6 
#
# 1 101.4663 40.3344 56.8897 1.0437 3.6982 -9.6296
# 2 40.3344 100.6078 51.8410 11.6157 -12.4480 -11.5640
# 3 56.8897 51.8410 136.3968 -9.9903 7.1465 -11.6564
# 4 1.0437 11.6157 -9.9903 30.7366 -2.8972 -1.2251
# 5 3.6982 -12.4480 7.1465 -2.8972 33.8652 -1.4476
# 6 -9.6296 -11.5640 -11.6564 -1.2251 -1.4476 25.2815
#
#
#
# Elastic Compliance Matrix: (Units=1/GPa)
#
#
# Indices 1 2 3 4 5 6 
#
# 1 0.013811 -0.003238 -0.004353 -0.000762 -0.001775 0.001634
# 2 -0.003238 0.016049 -0.005298 -0.006874 0.006942 0.003729
# 3 -0.004353 -0.005298 0.011888 0.005750 -0.003425 0.001482
# 4 -0.000762 -0.006874 0.005750 0.037024 -0.000447 0.000985
# 5 -0.001775 0.006942 -0.003425 -0.000447 0.033078 0.002792
# 6 0.001634 0.003729 0.001482 0.000985 0.002792 0.042774
#
#
# Mechanical properties :
#
#
# Convention : Reuss Voigt Hill
#
# Bulk Modulus (GPa) = 62.61518 70.73345 66.67432
# Shear Modulus (GPa) = 26.92167 30.60371 28.76269
#
# Velocity S-wave (km/s) = 3.58196 3.81906 3.70241
# Velocity P-wave (km/s) = 6.85191 7.29092 7.07482
#
# Compressibility (1/GPa) = 0.01597057
#
# Stress axis : x y z
#
# Youngs Moduli (GPa) = 72.40763 62.31074 84.11834
#
# Poissons Ratio (x) = 0.20174 0.36617
# Poissons Ratio (y) = 0.23443 0.44564
# Poissons Ratio (z) = 0.31519 0.33011
#
# Static dielectric constant tensor:
#      x y z
#    x 3.829230 0.053010 0.115520 
#    y 0.053010 3.694470 -0.135220 
#    z 0.115520 -0.135220 3.871700 
# 
# 
# High freq. dielectric constant tensor:
#      x y z
#    x 1.826910 0.004620 0.005560 
#    y 0.004620 1.818590 -0.007290 
#    z 0.005560 -0.007290 1.833560 
# 
# From -- ./inp_files/111582.got.cif
#   From: 2010.06.25/outbox.cif.g09.slc.cpg/sg2_56_cif.got.tgz:111582.got - 2010.06.27 13:26:56.
