data_PCOD8011324
_publ_section_title
;
Structure prediction by ZEFSAII (Michael W. Deem and Ramdas Pophale) SiO2 
 PCOD8011324
Probable space group: P -1
;
_chemical_formula_sum "Si O2"
_cell_formula_units_Z 16
_cell_length_a 18.090114
_cell_length_b 9.447723
_cell_length_c 11.951165
_cell_angle_alpha 98.684189
_cell_angle_beta 41.771563
_cell_angle_gamma 130.812810
_cell_volume 766.971189
_symmetry_space_group_name_H-M "P -1"
_symmetry_group_IT_number 2
_symmetry_cell_setting 'triclinic'
loop_
_space_group_symop_operation_xyz
x,y,z
-x,-y,-z
loop_
_atom_site_type_symbol
_atom_site_label
_atom_site_fract_x
_atom_site_fract_y
_atom_site_fract_z
Si Si1 0.626396 0.431837 0.787377
Si Si2 0.883671 0.400454 0.231503
Si Si3 0.089984 0.437911 0.381336
Si Si4 0.131424 0.451732 0.084243
Si Si5 0.734905 0.862936 0.703550
Si Si6 0.521708 0.820029 0.548980
Si Si7 0.773713 0.880631 0.407920
Si Si8 0.679531 0.462902 0.480375
O O1 0.745338 0.418857 0.694612
O O2 0.744768 0.705526 0.706113
O O3 0.573186 0.357606 0.707952
O O4 0.428897 0.226997 0.054629
O O5 0.859293 0.543194 0.296152
O O6 0.006607 0.462407 0.200813
O O7 0.666538 0.106429 0.433095
O O8 0.000000 0.500000 0.000000
O O9 0.186697 0.517451 0.159892
O O10 0.000000 0.500000 0.500000
O O11 0.933526 0.149169 0.546334
O O12 0.323468 0.645619 0.816645
O O13 0.993542 0.170250 0.177014
O O14 0.693716 0.838612 0.615407
O O15 0.623252 0.785606 0.477382
O O16 0.478722 0.750608 0.458451
O O17 0.779662 0.717665 0.363664
#
# Coordination Sequence:
#
# PCOD8011324 Si02
#       8
#     2   2   2   2   2   2   2   2
#     4  10  21  39  60  85 117 155 193 241 283 339
#     4  11  23  42  59  83 120 155 190 240 291 347
#     4  11  22  37  59  90 117 152 196 238 287 344
#     4  10  22  40  62  84 119 158 191 238 296 340
#     4   9  20  40  61  83 118 154 193 238 291 336
#     4  11  22  40  61  86 116 156 191 237 296 348
#     4   9  21  40  60  88 118 150 195 245 285 342
#     4  11  22  39  59  89 119 152 199 238 285 346
#
# _framework density 20.861281000000002
#
# number of rings (size 3 to 8) (size 9 to 14) (size 15 to 20)
#    0.000    1.750    1.250    2.625    0.000    2.000 
#    4.500    0.000    0.000    0.000    0.000    0.000 
#    0.000    0.000    0.000    0.000    0.000    0.000 
#
# Total GULP energy -198433.520403 kJ/mol
# GULP energy per Si atom -12402.095025 kJ/mol
# Density = 2.081380 g / cm^3
# Si number density = 20.861281 Si / 1000 Ang^3
#
#
#
# Elastic Constant Matrix: (Units=GPa)
#
#
# Indices 1 2 3 4 5 6 
#
# 1 129.0564 43.7504 45.3740 0.5483 -6.0285 -4.8959
# 2 43.7504 71.5079 48.1956 12.2731 -7.3188 -11.4519
# 3 45.3740 48.1956 137.0248 2.5448 6.8508 0.7055
# 4 0.5483 12.2731 2.5448 19.8087 -3.0807 -3.5707
# 5 -6.0285 -7.3188 6.8508 -3.0807 26.2264 5.8480
# 6 -4.8959 -11.4519 0.7055 -3.5707 5.8480 37.9247
#
#
#
# Elastic Compliance Matrix: (Units=1/GPa)
#
#
# Indices 1 2 3 4 5 6 
#
# 1 0.010296 -0.005785 -0.001524 0.003699 0.001651 -0.000296
# 2 -0.005785 0.026091 -0.007297 -0.013329 0.005127 0.005222
# 3 -0.001524 -0.007297 0.010563 0.002199 -0.004510 -0.001694
# 4 0.003699 -0.013329 0.002199 0.059118 0.003168 0.001489
# 5 0.001651 0.005127 -0.004510 0.003168 0.042472 -0.004406
# 6 -0.000296 0.005222 -0.001694 0.001489 -0.004406 0.028758
#
#
# Mechanical properties :
#
#
# Convention : Reuss Voigt Hill
#
# Bulk Modulus (GPa) = 56.38062 68.02547 62.20305
# Shear Modulus (GPa) = 23.53814 30.14324 26.84069
#
# Velocity S-wave (km/s) = 3.36269 3.80536 3.59085
# Velocity P-wave (km/s) = 6.49323 7.21020 6.86108
#
# Compressibility (1/GPa) = 0.01773659
#
# Stress axis : x y z
#
# Youngs Moduli (GPa) = 97.12707 38.32784 94.67426
#
# Poissons Ratio (x) = 0.22173 0.14430
# Poissons Ratio (y) = 0.56189 0.69083
# Poissons Ratio (z) = 0.14804 0.27967
#
# Static dielectric constant tensor:
#      x y z
#    x 4.041390 -0.147910 0.139640 
#    y -0.147910 3.830530 0.006530 
#    z 0.139640 0.006530 3.651440 
# 
# 
# High freq. dielectric constant tensor:
#      x y z
#    x 1.834230 -0.008940 0.010650 
#    y -0.008940 1.809510 0.003190 
#    z 0.010650 0.003190 1.813340 
# 
# From -- ./inp_files/70324.got.cif
#   From: 2010.06.25/outbox.cif.g09.slc.cpg/sg2_36_cif.got.tgz:70324.got - 2010.06.27 13:26:56.
