data_PCOD8011051
_publ_section_title
;
Structure prediction by ZEFSAII (Michael W. Deem and Ramdas Pophale) SiO2 
 PCOD8011051
Probable space group: P -1
;
_chemical_formula_sum "Si O2"
_cell_formula_units_Z 16
_cell_length_a 11.153731
_cell_length_b 12.065757
_cell_length_c 9.034860
_cell_angle_alpha 70.114518
_cell_angle_beta 56.403794
_cell_angle_gamma 106.265037
_cell_volume 763.450453
_symmetry_space_group_name_H-M "P -1"
_symmetry_group_IT_number 2
_symmetry_cell_setting 'triclinic'
loop_
_space_group_symop_operation_xyz
x,y,z
-x,-y,-z
loop_
_atom_site_type_symbol
_atom_site_label
_atom_site_fract_x
_atom_site_fract_y
_atom_site_fract_z
Si Si1 0.268772 0.858313 0.629987
Si Si2 0.418470 0.580355 0.571981
Si Si3 0.679743 0.402469 0.680220
Si Si4 0.600312 0.669983 0.879216
Si Si5 0.922542 0.678859 0.592143
Si Si6 0.316510 0.857012 0.255040
Si Si7 0.539614 0.817691 0.590260
Si Si8 0.923099 0.579517 0.944408
O O1 0.343380 0.871275 0.407382
O O2 0.351714 0.797189 0.707980
O O3 0.054180 0.747634 0.833976
O O4 0.307351 0.008479 0.593030
O O5 0.500000 0.500000 0.500000
O O6 0.312689 0.584653 0.507111
O O7 0.567393 0.742049 0.466197
O O8 0.278802 0.489505 0.841070
O O9 0.826600 0.565073 0.572590
O O10 0.721675 0.286944 0.731767
O O11 0.474758 0.325251 0.912104
O O12 0.811831 0.742257 0.690516
O O13 0.542123 0.744003 0.772158
O O14 0.500000 0.500000 0.000000
O O15 0.928178 0.582063 0.761251
O O16 0.125924 0.827213 0.355012
O O17 0.500000 0.000000 0.000000
O O18 0.000000 0.500000 0.000000
#
# Coordination Sequence:
#
# PCOD8011051 Si02
#       8
#     2   2   2   2   2   2   2   2
#     4  10  23  41  66  92 122 174 224 253 311 385
#     4  12  22  38  63  96 130 160 206 272 318 367
#     4  11  21  38  57  96 124 158 206 265 319 358
#     4  10  21  38  66  92 124 172 211 251 321 385
#     4  10  22  41  60  92 125 162 213 257 315 386
#     4  11  22  40  61  93 123 160 210 265 318 366
#     4  11  21  43  66  89 129 173 214 258 311 390
#     4  11  21  40  65  91 122 171 224 256 304 385
#
# _framework density 20.957484999999998
#
# number of rings (size 3 to 8) (size 9 to 14) (size 15 to 20)
#    0.000    1.250    2.500    5.625    0.000    0.000 
#    4.500    7.500    0.000    0.000    0.000    0.000 
#    0.000    0.000    0.000    0.000    0.000    0.000 
#
# Total GULP energy -198222.000720 kJ/mol
# GULP energy per Si atom -12388.875045 kJ/mol
# Density = 2.090978 g / cm^3
# Si number density = 20.957485 Si / 1000 Ang^3
#
#
#
# Elastic Constant Matrix: (Units=GPa)
#
#
# Indices 1 2 3 4 5 6 
#
# 1 79.8655 22.2700 40.5504 -11.6471 -7.9577 0.1850
# 2 22.2700 121.3624 30.8103 -6.7976 -12.2780 1.7316
# 3 40.5504 30.8103 95.6487 -5.3470 -17.4743 4.5571
# 4 -11.6471 -6.7976 -5.3470 21.9068 0.4558 2.0305
# 5 -7.9577 -12.2780 -17.4743 0.4558 42.6169 0.3464
# 6 0.1850 1.7316 4.5571 2.0305 0.3464 37.0922
#
#
#
# Elastic Compliance Matrix: (Units=1/GPa)
#
#
# Indices 1 2 3 4 5 6 
#
# 1 0.017201 -0.001087 -0.006533 0.007176 0.000140 0.000373
# 2 -0.001087 0.009238 -0.002115 0.001765 0.001575 -0.000277
# 3 -0.006533 -0.002115 0.014734 -0.000465 0.004231 -0.001693
# 4 0.007176 0.001765 -0.000465 0.050134 0.001145 -0.002816
# 5 0.000140 0.001575 0.004231 0.001145 0.025674 -0.000896
# 6 0.000373 -0.000277 -0.001693 -0.002816 -0.000896 0.027341
#
#
# Mechanical properties :
#
#
# Convention : Reuss Voigt Hill
#
# Bulk Modulus (GPa) = 46.07964 53.79310 49.93637
# Shear Modulus (GPa) = 29.23486 33.87290 31.55388
#
# Velocity S-wave (km/s) = 3.73897 4.02464 3.88443
# Velocity P-wave (km/s) = 6.37768 6.87899 6.63307
#
# Compressibility (1/GPa) = 0.02170156
#
# Stress axis : x y z
#
# Youngs Moduli (GPa) = 58.13661 108.24335 67.87151
#
# Poissons Ratio (x) = 0.11766 0.44342
# Poissons Ratio (y) = 0.06320 0.14358
# Poissons Ratio (z) = 0.37982 0.22899
#
# Static dielectric constant tensor:
#      x y z
#    x 4.512200 -0.322390 -0.074050 
#    y -0.322390 4.056180 0.045650 
#    z -0.074050 0.045650 4.304830 
# 
# 
# High freq. dielectric constant tensor:
#      x y z
#    x 1.824480 0.004400 0.001580 
#    y 0.004400 1.820400 0.001480 
#    z 0.001580 0.001480 1.804960 
# 
# From -- ./inp_files/257444.got.cif
#   From: 2010.06.25/outbox.cif.g09.slc.cpg/sg2_129_cif.got.tgz:257444.got - 2010.06.27 13:26:56.
