data_PCOD8011608
_publ_section_title
;
Structure prediction by ZEFSAII (Michael W. Deem and Ramdas Pophale) SiO2 
 PCOD8011608
Probable space group: P -1
;
_chemical_formula_sum "Si O2"
_cell_formula_units_Z 16
_cell_length_a 9.590640
_cell_length_b 8.635092
_cell_length_c 27.599055
_cell_angle_alpha 131.939173
_cell_angle_beta 27.863955
_cell_angle_gamma 130.441738
_cell_volume 783.556203
_symmetry_space_group_name_H-M "P -1"
_symmetry_group_IT_number 2
_symmetry_cell_setting 'triclinic'
loop_
_space_group_symop_operation_xyz
x,y,z
-x,-y,-z
loop_
_atom_site_type_symbol
_atom_site_label
_atom_site_fract_x
_atom_site_fract_y
_atom_site_fract_z
Si Si1 0.187368 0.558673 0.591806
Si Si2 0.341152 0.326971 0.172908
Si Si3 0.610031 0.977419 0.407895
Si Si4 0.795615 0.171470 0.586197
Si Si5 0.729056 0.750525 0.168844
Si Si6 0.299398 0.644195 0.021092
Si Si7 0.246221 0.910846 0.179397
Si Si8 0.244196 0.153416 0.926566
O O1 0.500000 0.500000 0.500000
O O2 0.966376 0.571275 0.708456
O O3 0.009185 0.399133 0.573412
O O4 0.256260 0.786198 0.596366
O O5 0.621802 0.503022 0.139632
O O6 0.331712 0.131385 0.170888
O O7 0.404083 0.277234 0.087103
O O8 0.332124 0.865590 0.436798
O O9 0.891185 0.850893 0.289691
O O10 0.500000 0.000000 0.500000
O O11 0.511788 0.145747 0.704394
O O12 0.000000 0.000000 0.500000
O O13 0.793344 0.883782 0.127331
O O14 0.034393 0.765318 0.108423
O O15 0.358221 0.728241 0.074867
O O16 0.211184 0.393339 0.998398
O O17 0.430368 0.906155 0.171703
O O18 0.000000 0.000000 0.000000
#
# Coordination Sequence:
#
# PCOD8011608 Si02
#       8
#     2   2   2   2   2   2   2   2
#     4  10  21  40  64  94 126 161 214 256 305 375
#     4   9  20  35  61  86 117 161 197 246 305 361
#     4  11  25  42  65  92 129 162 203 268 321 363
#     4  11  22  41  69  92 120 164 216 257 309 375
#     4  10  21  39  63  87 116 160 206 248 301 371
#     4  11  20  38  62  87 118 158 204 243 304 368
#     4  11  22  39  58  89 125 152 202 256 311 363
#     4  11  23  38  58  88 126 161 196 249 307 367
#
# _framework density 20.419723000000001
#
# number of rings (size 3 to 8) (size 9 to 14) (size 15 to 20)
#    0.000    1.500    2.500    3.750    1.750    1.500 
#    0.000    1.250    0.000    0.000    0.000    0.000 
#    0.000    0.000    0.000    0.000    0.000    0.000 
#
# Total GULP energy -198356.029105 kJ/mol
# GULP energy per Si atom -12397.251819 kJ/mol
# Density = 2.037325 g / cm^3
# Si number density = 20.419723 Si / 1000 Ang^3
#
#
#
# Elastic Constant Matrix: (Units=GPa)
#
#
# Indices 1 2 3 4 5 6 
#
# 1 107.0569 28.0853 49.4081 -6.5612 -3.8536 8.1269
# 2 28.0853 73.6683 29.6299 -2.9458 0.8242 4.7407
# 3 49.4081 29.6299 129.6580 0.6609 -1.3354 3.5111
# 4 -6.5612 -2.9458 0.6609 30.3430 -0.2628 -1.3527
# 5 -3.8536 0.8242 -1.3354 -0.2628 43.0098 0.6626
# 6 8.1269 4.7407 3.5111 -1.3527 0.6626 28.6882
#
#
#
# Elastic Compliance Matrix: (Units=1/GPa)
#
#
# Indices 1 2 3 4 5 6 
#
# 1 0.012288 -0.002850 -0.003966 0.002368 0.001084 -0.002438
# 2 -0.002850 0.015801 -0.002497 0.000903 -0.000608 -0.001442
# 3 -0.003966 -0.002497 0.009793 -0.001301 -0.000016 0.000277
# 4 0.002368 0.000903 -0.001301 0.033628 0.000346 0.000917
# 5 0.001084 -0.000608 -0.000016 0.000346 0.023372 -0.000728
# 6 -0.002438 -0.001442 0.000277 0.000917 -0.000728 0.035813
#
#
# Mechanical properties :
#
#
# Convention : Reuss Voigt Hill
#
# Bulk Modulus (GPa) = 51.92999 58.29220 55.11109
# Shear Modulus (GPa) = 32.10477 33.95886 33.03181
#
# Velocity S-wave (km/s) = 3.96945 4.08247 4.02636
# Velocity P-wave (km/s) = 6.81874 7.12959 6.97590
#
# Compressibility (1/GPa) = 0.01925670
#
# Stress axis : x y z
#
# Youngs Moduli (GPa) = 81.37909 63.28819 102.10878
#
# Poissons Ratio (x) = 0.18038 0.40498
# Poissons Ratio (y) = 0.23194 0.25492
# Poissons Ratio (z) = 0.32276 0.15801
#
# Static dielectric constant tensor:
#      x y z
#    x 3.681680 0.089250 0.127930 
#    y 0.089250 3.630320 0.163360 
#    z 0.127930 0.163360 3.339700 
# 
# 
# High freq. dielectric constant tensor:
#      x y z
#    x 1.788900 0.005860 -0.005220 
#    y 0.005860 1.795030 0.003250 
#    z -0.005220 0.003250 1.815640 
# 
# From -- ./inp_files/186105.got.cif
#   From: 2010.06.25/outbox.cif.g09.slc.cpg/sg2_94_cif.got.tgz:186105.got - 2010.06.27 13:26:56.
