data_PCOD8011909
_publ_section_title
;
Structure prediction by ZEFSAII (Michael W. Deem and Ramdas Pophale) SiO2 
 PCOD8011909
Probable space group: P -1
;
_chemical_formula_sum "Si O2"
_cell_formula_units_Z 14
_cell_length_a 12.487429
_cell_length_b 8.223506
_cell_length_c 12.389264
_cell_angle_alpha 109.244049
_cell_angle_beta 134.793720
_cell_angle_gamma 51.428623
_cell_volume 691.949076
_symmetry_space_group_name_H-M "P -1"
_symmetry_group_IT_number 2
_symmetry_cell_setting 'triclinic'
loop_
_space_group_symop_operation_xyz
x,y,z
-x,-y,-z
loop_
_atom_site_type_symbol
_atom_site_label
_atom_site_fract_x
_atom_site_fract_y
_atom_site_fract_z
Si Si1 0.282626 0.605544 0.861443
Si Si2 0.925260 0.582835 0.286694
Si Si3 0.747121 0.887001 0.547339
Si Si4 0.011186 0.148966 0.460106
Si Si5 0.081805 0.020766 0.954196
Si Si6 0.926482 0.436098 0.836559
Si Si7 0.338166 0.096474 0.272425
O O1 0.249421 0.431725 0.838463
O O2 0.198411 0.680776 0.697045
O O3 0.163898 0.811313 0.897740
O O4 0.500000 0.500000 0.000000
O O5 0.111751 0.365402 0.410546
O O6 0.898759 0.753926 0.389047
O O7 0.938033 0.644685 0.187920
O O8 0.710225 0.968543 0.662795
O O9 0.844545 0.975021 0.565390
O O10 0.556101 0.952630 0.371979
O O11 0.000000 0.000000 0.500000
O O12 0.920959 0.238140 0.824491
O O13 0.245291 0.048899 0.100932
O O14 0.000000 0.000000 0.000000
O O15 0.728911 0.657570 0.715393
O O16 0.000000 0.500000 0.000000
#
# Coordination Sequence:
#
# PCOD8011909 Si02
#       7
#     2   2   2   2   2   2   2
#     4  11  24  40  61  93 125 163 215 255 308 376
#     4  10  21  39  65  81 124 169 199 250 316 369
#     4   9  18  37  60  87 119 155 208 249 312 358
#     4  11  23  41  61  87 127 168 206 254 317 375
#     4  11  21  36  60  86 127 161 203 253 318 362
#     4   9  18  37  58  88 119 160 200 249 314 358
#     4   9  19  34  62  89 114 159 208 257 298 372
#
# _framework density 20.232703999999998
#
# number of rings (size 3 to 8) (size 9 to 14) (size 15 to 20)
#    0.000    2.000    0.000    6.000    4.000    0.000 
#    7.714    1.429    0.000    8.571    0.000    0.000 
#    0.000    0.000    0.000    0.000    0.000    0.000 
#
# Total GULP energy -173487.705363 kJ/mol
# GULP energy per Si atom -12391.978954 kJ/mol
# Density = 2.018665 g / cm^3
# Si number density = 20.232704 Si / 1000 Ang^3
#
#
#
# Elastic Constant Matrix: (Units=GPa)
#
#
# Indices 1 2 3 4 5 6 
#
# 1 147.8725 54.5581 49.2805 -16.8646 -7.3997 16.1250
# 2 54.5581 76.1929 34.5763 11.5706 5.5442 11.3959
# 3 49.2805 34.5763 98.4573 3.5204 7.3100 1.1439
# 4 -16.8646 11.5706 3.5204 31.2301 -0.3721 -0.1201
# 5 -7.3997 5.5442 7.3100 -0.3721 38.8380 -6.1724
# 6 16.1250 11.3959 1.1439 -0.1201 -6.1724 33.7660
#
#
#
# Elastic Compliance Matrix: (Units=1/GPa)
#
#
# Indices 1 2 3 4 5 6 
#
# 1 0.013309 -0.009365 -0.004072 0.011160 0.004394 -0.002214
# 2 -0.009365 0.024364 -0.002903 -0.013842 -0.005600 -0.004725
# 3 -0.004072 -0.002903 0.013480 -0.002667 -0.002609 0.001981
# 4 0.011160 -0.013842 -0.002667 0.043539 0.005104 0.000520
# 5 0.004394 -0.005600 -0.002609 0.005104 0.028743 0.005152
# 6 -0.002214 -0.004725 0.001981 0.000520 0.005152 0.033144
#
#
# Mechanical properties :
#
#
# Convention : Reuss Voigt Hill
#
# Bulk Modulus (GPa) = 54.13425 66.59471 60.36448
# Shear Modulus (GPa) = 25.58604 33.04065 29.31335
#
# Velocity S-wave (km/s) = 3.55996 4.04546 3.81045
# Velocity P-wave (km/s) = 6.61148 7.40317 7.01850
#
# Compressibility (1/GPa) = 0.01847260
#
# Stress axis : x y z
#
# Youngs Moduli (GPa) = 75.13593 41.04370 74.18127
#
# Poissons Ratio (x) = 0.38439 0.30208
# Poissons Ratio (y) = 0.70368 0.21535
# Poissons Ratio (z) = 0.30597 0.11915
#
# Static dielectric constant tensor:
#      x y z
#    x 5.055240 0.668300 -0.559410 
#    y 0.668300 4.051150 -0.212920 
#    z -0.559410 -0.212920 3.996810 
# 
# 
# High freq. dielectric constant tensor:
#      x y z
#    x 1.787330 0.005780 -0.016980 
#    y 0.005780 1.775490 0.006480 
#    z -0.016980 0.006480 1.795670 
# 
# From -- ./inp_files/212846.got.cif
#   From: 2010.06.25/outbox.cif.g09.slc.cpg/sg2_107_cif.got.tgz:212846.got - 2010.06.27 13:26:56.
