data_PCOD8011819
_publ_section_title
;
Structure prediction by ZEFSAII (Michael W. Deem and Ramdas Pophale) SiO2 
 PCOD8011819
Probable space group: P -1
;
_chemical_formula_sum "Si O2"
_cell_formula_units_Z 10
_cell_length_a 18.444139
_cell_length_b 8.666433
_cell_length_c 13.821797
_cell_angle_alpha 145.048867
_cell_angle_beta 19.576410
_cell_angle_gamma 148.085479
_cell_volume 388.876741
_symmetry_space_group_name_H-M "P -1"
_symmetry_group_IT_number 2
_symmetry_cell_setting 'triclinic'
loop_
_space_group_symop_operation_xyz
x,y,z
-x,-y,-z
loop_
_atom_site_type_symbol
_atom_site_label
_atom_site_fract_x
_atom_site_fract_y
_atom_site_fract_z
Si Si1 0.583915 0.247728 0.653958
Si Si2 0.712144 0.769201 0.160353
Si Si3 0.606447 0.144468 0.040920
Si Si4 0.897080 0.153187 0.434512
Si Si5 0.160985 0.136873 0.266817
O O1 0.507749 0.336447 0.691921
O O2 0.779414 0.531103 0.604183
O O3 0.702083 0.015353 0.371914
O O4 0.356317 0.113206 0.937502
O O5 0.698611 0.493579 0.100488
O O6 0.958685 0.915979 0.868166
O O7 0.380814 0.992661 0.319344
O O8 0.500000 0.000000 0.000000
O O9 0.830113 0.067946 0.757212
O O10 0.925662 0.021135 0.436633
O O11 0.000000 0.500000 0.500000
#
# Coordination Sequence:
#
# PCOD8011819 Si02
#       5
#     2   2   2   2   2
#     4   9  18  39  64  88 128 164 200 260 307 359
#     4  10  21  39  64  92 126 162 205 258 307 363
#     4  12  22  41  65  92 126 163 206 260 306 362
#     4  11  22  41  66  92 123 167 207 250 313 371
#     4  10  21  40  66  92 123 165 209 251 308 374
#
# _framework density 25.715088999999999
#
# number of rings (size 3 to 8) (size 9 to 14) (size 15 to 20)
#    0.000    1.600    4.000    2.400    0.000    1.600 
#    0.000   13.000    0.000    2.400    0.000    0.000 
#    0.000    0.000    0.000    0.000    0.000    0.000 
#
# Total GULP energy -123998.571963 kJ/mol
# GULP energy per Si atom -12399.857196 kJ/mol
# Density = 2.565656 g / cm^3
# Si number density = 25.715089 Si / 1000 Ang^3
#
#
#
# Elastic Constant Matrix: (Units=GPa)
#
#
# Indices 1 2 3 4 5 6 
#
# 1 94.6759 25.8774 30.7097 14.0119 -30.5542 -5.2891
# 2 25.8774 79.5516 30.9470 15.2400 -12.1128 -16.5463
# 3 30.7097 30.9470 108.6553 29.0635 -5.3875 13.3556
# 4 14.0119 15.2400 29.0635 47.4470 2.1902 -5.5096
# 5 -30.5542 -12.1128 -5.3875 2.1902 55.7400 6.7630
# 6 -5.2891 -16.5463 13.3556 -5.5096 6.7630 31.1809
#
#
#
# Elastic Compliance Matrix: (Units=1/GPa)
#
#
# Indices 1 2 3 4 5 6 
#
# 1 0.014759 -0.002090 -0.002641 -0.002354 0.007412 0.000502
# 2 -0.002090 0.018117 -0.005863 -0.000310 0.000838 0.011534
# 3 -0.002641 -0.005863 0.015215 -0.008025 0.000471 -0.011596
# 4 -0.002354 -0.000310 -0.008025 0.028001 -0.004295 0.008753
# 5 0.007412 0.000838 0.000471 -0.004295 0.022913 -0.004229
# 6 0.000502 0.011534 -0.011596 0.008753 -0.004229 0.045708
#
#
# Mechanical properties :
#
#
# Convention : Reuss Voigt Hill
#
# Bulk Modulus (GPa) = 37.16873 50.88344 44.02609
# Shear Modulus (GPa) = 28.59327 39.89681 34.24504
#
# Velocity S-wave (km/s) = 3.33817 3.94317 3.65322
# Velocity P-wave (km/s) = 5.41695 6.36882 5.91207
#
# Compressibility (1/GPa) = 0.02690433
#
# Stress axis : x y z
#
# Youngs Moduli (GPa) = 67.75738 55.19727 65.72483
#
# Poissons Ratio (x) = 0.11534 0.17357
# Poissons Ratio (y) = 0.14158 0.38532
# Poissons Ratio (z) = 0.17893 0.32360
#
# Static dielectric constant tensor:
#      x y z
#    x 5.249120 -0.085050 -0.381590 
#    y -0.085050 4.994580 -0.904330 
#    z -0.381590 -0.904330 5.793870 
# 
# 
# High freq. dielectric constant tensor:
#      x y z
#    x 2.053400 -0.019980 -0.008620 
#    y -0.019980 1.990570 -0.012800 
#    z -0.008620 -0.012800 2.058420 
# 
# From -- ./inp_files/144010.got.cif
#   From: 2010.06.25/outbox.cif.g09.slc.cpg/sg2_73_cif.got.tgz:144010.got - 2010.06.27 13:26:56.
