data_PCOD8011360
_publ_section_title
;
Structure prediction by ZEFSAII (Michael W. Deem and Ramdas Pophale) SiO2 
 PCOD8011360
Probable space group: P -1
;
_chemical_formula_sum "Si O2"
_cell_formula_units_Z 12
_cell_length_a 9.826142
_cell_length_b 7.577436
_cell_length_c 9.554861
_cell_angle_alpha 91.757642
_cell_angle_beta 61.751853
_cell_angle_gamma 97.047551
_cell_volume 621.658984
_symmetry_space_group_name_H-M "P -1"
_symmetry_group_IT_number 2
_symmetry_cell_setting 'triclinic'
loop_
_space_group_symop_operation_xyz
x,y,z
-x,-y,-z
loop_
_atom_site_type_symbol
_atom_site_label
_atom_site_fract_x
_atom_site_fract_y
_atom_site_fract_z
Si Si1 0.891720 0.041215 0.340844
Si Si2 0.844015 0.206088 0.825966
Si Si3 0.030065 0.542182 0.647086
Si Si4 0.362139 0.898907 0.331826
Si Si5 0.692749 0.115169 0.191032
Si Si6 0.359242 0.608076 0.556627
O O1 0.971169 0.248099 0.314380
O O2 0.769123 0.997433 0.526952
O O3 0.795404 0.006333 0.241870
O O4 0.978374 0.089135 0.710988
O O5 0.698977 0.170593 0.790849
O O6 0.904707 0.416986 0.796763
O O7 0.792085 0.155947 0.005223
O O8 0.198842 0.483413 0.600547
O O9 0.000000 0.500000 0.500000
O O10 0.395090 0.740673 0.413384
O O11 0.525843 0.014330 0.229952
O O12 0.660143 0.295752 0.284869
O O13 0.500000 0.500000 0.500000
#
# Coordination Sequence:
#
# PCOD8011360 Si02
#       6
#     2   2   2   2   2   2
#     4  10  22  39  63  88 113 163 199 233 298 350
#     4  12  22  39  64  88 122 155 188 257 299 330
#     4  10  21  39  60  90 118 147 210 239 278 366
#     4  10  21  40  60  87 117 156 205 230 289 370
#     4  10  23  40  57  91 121 149 199 245 295 351
#     4  10  22  39  62  86 114 162 196 239 293 347
#
# _framework density 19.303186
#
# number of rings (size 3 to 8) (size 9 to 14) (size 15 to 20)
#    0.000    2.000    3.333    3.500    4.667    2.667 
#    3.000    0.833    0.000    0.000    0.000    0.000 
#    0.000    0.000    0.000    0.000    0.000    0.000 
#
# Total GULP energy -148753.264312 kJ/mol
# GULP energy per Si atom -12396.105359 kJ/mol
# Density = 1.925925 g / cm^3
# Si number density = 19.303186 Si / 1000 Ang^3
#
#
#
# Elastic Constant Matrix: (Units=GPa)
#
#
# Indices 1 2 3 4 5 6 
#
# 1 107.5161 35.2785 12.4186 9.9920 -2.2141 16.8183
# 2 35.2785 57.8828 2.4308 -3.6836 -7.8626 15.6719
# 3 12.4186 2.4308 50.2970 -14.6350 8.7949 3.7132
# 4 9.9920 -3.6836 -14.6350 24.6736 5.6466 -12.0617
# 5 -2.2141 -7.8626 8.7949 5.6466 21.6899 1.3133
# 6 16.8183 15.6719 3.7132 -12.0617 1.3133 41.9700
#
#
#
# Elastic Compliance Matrix: (Units=1/GPa)
#
#
# Indices 1 2 3 4 5 6 
#
# 1 0.016437 -0.007110 -0.010712 -0.020740 0.009403 -0.009239
# 2 -0.007110 0.024420 0.000182 0.001892 0.007923 -0.005990
# 3 -0.010712 0.000182 0.037840 0.039485 -0.027442 0.013083
# 4 -0.020740 0.001892 0.039485 0.099761 -0.045484 0.034205
# 5 0.009403 0.007923 -0.027442 -0.045484 0.074097 -0.019689
# 6 -0.009239 -0.005990 0.013083 0.034205 -0.019689 0.039054
#
#
# Mechanical properties :
#
#
# Convention : Reuss Voigt Hill
#
# Bulk Modulus (GPa) = 23.03110 35.10573 29.06841
# Shear Modulus (GPa) = 14.64727 28.70456 21.67592
#
# Velocity S-wave (km/s) = 2.75762 3.86040 3.35463
# Velocity P-wave (km/s) = 4.70069 6.17221 5.48601
#
# Compressibility (1/GPa) = 0.04341956
#
# Stress axis : x y z
#
# Youngs Moduli (GPa) = 60.83727 40.94967 26.42731
#
# Poissons Ratio (x) = 0.29113 0.28308
# Poissons Ratio (y) = 0.43252 -0.00482
# Poissons Ratio (z) = 0.65167 -0.00747
#
# Static dielectric constant tensor:
#      x y z
#    x -4.261610 9.998720 0.092670 
#    y 9.998720 -8.234530 -0.018420 
#    z 0.092670 -0.018420 3.431700 
# 
# 
# High freq. dielectric constant tensor:
#      x y z
#    x 1.771990 0.014730 0.010660 
#    y 0.014730 1.738670 -0.006650 
#    z 0.010660 -0.006650 1.743820 
# 
# From -- ./inp_files/151244.got.cif
#   From: 2010.06.25/outbox.cif.g09.slc.cpg/sg2_76_cif.got.tgz:151244.got - 2010.06.27 13:26:56.
