data_PCOD8011734
_publ_section_title
;
Structure prediction by ZEFSAII (Michael W. Deem and Ramdas Pophale) SiO2 
 PCOD8011734
Probable space group: P -1
;
_chemical_formula_sum "Si O2"
_cell_formula_units_Z 14
_cell_length_a 11.516646
_cell_length_b 18.743001
_cell_length_c 12.138107
_cell_angle_alpha 150.614199
_cell_angle_beta 44.050840
_cell_angle_gamma 152.426698
_cell_volume 578.266782
_symmetry_space_group_name_H-M "P -1"
_symmetry_group_IT_number 2
_symmetry_cell_setting 'triclinic'
loop_
_space_group_symop_operation_xyz
x,y,z
-x,-y,-z
loop_
_atom_site_type_symbol
_atom_site_label
_atom_site_fract_x
_atom_site_fract_y
_atom_site_fract_z
Si Si1 0.541604 0.630752 0.046402
Si Si2 0.685930 0.734187 0.456242
Si Si3 0.694533 0.457748 0.353392
Si Si4 0.897701 0.482437 0.836252
Si Si5 0.917324 0.041323 0.213977
Si Si6 0.196326 0.936014 0.332405
Si Si7 0.403936 0.808803 0.145635
O O1 0.448747 0.497270 0.815908
O O2 0.500000 0.500000 0.000000
O O3 0.369968 0.660020 0.234460
O O4 0.828752 0.879085 0.158636
O O5 0.556730 0.683482 0.592477
O O6 0.988129 0.897381 0.488988
O O7 0.635874 0.838486 0.549597
O O8 0.909488 0.503661 0.334577
O O9 0.603715 0.317071 0.115213
O O10 0.838842 0.706162 0.566311
O O11 0.836259 0.381483 0.865292
O O12 0.047135 0.734825 0.077940
O O13 0.675338 0.981750 0.259276
O O14 0.000000 0.000000 0.000000
O O15 0.372157 0.952121 0.313695
#
# Coordination Sequence:
#
# PCOD8011734 Si02
#       7
#     2   2   2   2   2   2   2
#     4  10  22  42  62  89 136 178 213 269 334 389
#     4  10  21  39  63  96 131 173 225 266 322 402
#     4  11  22  42  70  96 129 176 213 279 332 374
#     4   9  21  41  62  96 130 166 226 267 319 408
#     4  11  24  46  64 100 136 161 228 282 314 395
#     4   9  19  40  61  88 130 170 214 265 324 386
#     4  10  23  43  67  95 131 175 216 268 333 395
#
# _framework density 24.210277000000001
#
# number of rings (size 3 to 8) (size 9 to 14) (size 15 to 20)
#    0.000    2.000    1.429    1.714    0.000    8.571 
#   12.857    1.429    0.000    0.000    0.000    0.000 
#    0.000    0.000    0.000    0.000    0.000    0.000 
#
# Total GULP energy -173473.693329 kJ/mol
# GULP energy per Si atom -12390.978095 kJ/mol
# Density = 2.415517 g / cm^3
# Si number density = 24.210277 Si / 1000 Ang^3
#
#
#
# Elastic Constant Matrix: (Units=GPa)
#
#
# Indices 1 2 3 4 5 6 
#
# 1 92.4118 42.9013 17.3461 -8.4591 -23.1469 -23.6040
# 2 42.9013 146.7414 35.4415 1.1642 -12.5613 -12.9926
# 3 17.3461 35.4415 81.4309 -1.4125 -6.9424 -7.7812
# 4 -8.4591 1.1642 -1.4125 42.3737 3.9112 -12.2540
# 5 -23.1469 -12.5613 -6.9424 3.9112 40.0767 2.9277
# 6 -23.6040 -12.9926 -7.7812 -12.2540 2.9277 19.2129
#
#
#
# Elastic Compliance Matrix: (Units=1/GPa)
#
#
# Indices 1 2 3 4 5 6 
#
# 1 0.025947 -0.003707 0.000816 0.015423 0.009680 0.038063
# 2 -0.003707 0.008583 -0.003034 -0.001349 0.000219 -0.000872
# 3 0.000816 -0.003034 0.014149 0.002321 0.001309 0.005962
# 4 0.015423 -0.001349 0.002321 0.039270 0.001859 0.043738
# 5 0.009680 0.000219 0.001309 0.001859 0.029986 0.009187
# 6 0.038063 -0.000872 0.005962 0.043738 0.009187 0.127132
#
#
# Mechanical properties :
#
#
# Convention : Reuss Voigt Hill
#
# Bulk Modulus (GPa) = 27.15206 56.88467 42.01836
# Shear Modulus (GPa) = 18.57401 35.32567 26.94984
#
# Velocity S-wave (km/s) = 2.77283 3.82399 3.34002
# Velocity P-wave (km/s) = 4.63583 6.56081 5.68046
#
# Compressibility (1/GPa) = 0.03682961
#
# Stress axis : x y z
#
# Youngs Moduli (GPa) = 38.53975 116.50274 70.67776
#
# Poissons Ratio (x) = 0.43183 -0.05768
# Poissons Ratio (y) = 0.14285 0.21446
# Poissons Ratio (z) = -0.03145 0.35351
#
# Static dielectric constant tensor:
#      x y z
#    x 4.314950 0.230840 -0.347360 
#    y 0.230840 4.384290 0.059970 
#    z -0.347360 0.059970 4.501220 
# 
# 
# High freq. dielectric constant tensor:
#      x y z
#    x 1.956600 0.010670 -0.016990 
#    y 0.010670 1.955020 0.010120 
#    z -0.016990 0.010120 1.968220 
# 
# From -- ./inp_files/437434.got.cif
#   From: 2010.06.25/outbox.cif.g09.slc.cpg/sg2_219_cif.got.tgz:437434.got - 2010.06.27 13:26:56.
