data_PCOD8011028
_publ_section_title
;
Structure prediction by ZEFSAII (Michael W. Deem and Ramdas Pophale) SiO2 
 PCOD8011028
Probable space group: P -1
;
_chemical_formula_sum "Si O2"
_cell_formula_units_Z 16
_cell_length_a 11.257160
_cell_length_b 14.601329
_cell_length_c 11.772925
_cell_angle_alpha 30.483075
_cell_angle_beta 132.903340
_cell_angle_gamma 124.842666
_cell_volume 718.448466
_symmetry_space_group_name_H-M "P -1"
_symmetry_group_IT_number 2
_symmetry_cell_setting 'triclinic'
loop_
_space_group_symop_operation_xyz
x,y,z
-x,-y,-z
loop_
_atom_site_type_symbol
_atom_site_label
_atom_site_fract_x
_atom_site_fract_y
_atom_site_fract_z
Si Si1 0.121825 0.627970 0.378362
Si Si2 0.359848 0.551135 0.943743
Si Si3 0.723671 0.803173 0.603402
Si Si4 0.098598 0.785920 0.413696
Si Si5 0.670853 0.892625 0.221766
Si Si6 0.506405 0.088210 0.285111
Si Si7 0.996435 0.097986 0.165250
Si Si8 0.270614 0.287275 0.769337
O O1 0.162206 0.793528 0.314862
O O2 0.280954 0.499678 0.586148
O O3 0.000000 0.500000 0.500000
O O4 0.036533 0.712936 0.121675
O O5 0.193096 0.608320 0.712521
O O6 0.402908 0.725259 0.858278
O O7 0.500000 0.500000 0.000000
O O8 0.326163 0.388411 0.178281
O O9 0.716301 0.788948 0.478258
O O10 0.902966 0.857582 0.703165
O O11 0.590369 0.951552 0.398310
O O12 0.912882 0.748476 0.337731
O O13 0.118763 0.968293 0.305418
O O14 0.642153 0.748766 0.256080
O O15 0.821700 0.020042 0.160536
O O16 0.500000 0.000000 0.000000
O O17 0.500000 0.000000 0.500000
O O18 0.329879 0.147380 0.056341
#
# Coordination Sequence:
#
# PCOD8011028 Si02
#       8
#     2   2   2   2   2   2   2   2
#     4  10  21  38  66 102 140 174 225 290 353 418
#     4  12  25  43  70 110 143 179 234 291 358 427
#     4  12  25  47  70  99 145 188 235 293 346 420
#     4  10  22  40  69 101 141 180 227 282 359 429
#     4  11  25  48  70  97 137 192 247 286 347 421
#     4  12  25  42  72 105 145 183 228 292 367 416
#     4  11  24  44  71 101 137 190 239 289 354 420
#     4  10  23  45  66 101 139 182 235 288 345 423
#
# _framework density 22.270213999999999
#
# number of rings (size 3 to 8) (size 9 to 14) (size 15 to 20)
#    0.000    1.000    3.750    3.000    3.500    4.000 
#    2.250    4.375    0.000    0.000    0.000    0.000 
#    0.000    0.000    0.000    0.000    0.000    0.000 
#
# Total GULP energy -198275.014707 kJ/mol
# GULP energy per Si atom -12392.188419 kJ/mol
# Density = 2.221953 g / cm^3
# Si number density = 22.270214 Si / 1000 Ang^3
#
#
#
# Elastic Constant Matrix: (Units=GPa)
#
#
# Indices 1 2 3 4 5 6 
#
# 1 102.7725 46.7982 65.8202 4.5825 5.4669 -15.6208
# 2 46.7982 90.3383 48.4285 4.2952 -1.3034 -15.3300
# 3 65.8202 48.4285 178.0933 16.2441 8.5034 -10.5380
# 4 4.5825 4.2952 16.2441 44.3788 -4.3252 -1.5247
# 5 5.4669 -1.3034 8.5034 -4.3252 37.9466 -0.0935
# 6 -15.6208 -15.3300 -10.5380 -1.5247 -0.0935 45.2206
#
#
#
# Elastic Compliance Matrix: (Units=1/GPa)
#
#
# Indices 1 2 3 4 5 6 
#
# 1 0.015134 -0.005329 -0.003959 0.000349 -0.001430 0.002507
# 2 -0.005329 0.015511 -0.002173 0.000121 0.001808 0.002919
# 3 -0.003959 -0.002173 0.007948 -0.002454 -0.001566 -0.000338
# 4 0.000349 0.000121 -0.002454 0.023710 0.003207 0.000396
# 5 -0.001430 0.001808 -0.001566 0.003207 0.027337 -0.000081
# 6 0.002507 0.002919 -0.000338 0.000396 -0.000081 0.023904
#
#
# Mechanical properties :
#
#
# Convention : Reuss Voigt Hill
#
# Bulk Modulus (GPa) = 63.81692 77.03310 70.42501
# Shear Modulus (GPa) = 35.28825 39.51970 37.40397
#
# Velocity S-wave (km/s) = 3.98496 4.21712 4.10268
# Velocity P-wave (km/s) = 7.06336 7.64051 7.35760
#
# Compressibility (1/GPa) = 0.01566982
#
# Stress axis : x y z
#
# Youngs Moduli (GPa) = 66.07480 64.47163 125.82061
#
# Poissons Ratio (x) = 0.34359 0.49817
# Poissons Ratio (y) = 0.35213 0.27339
# Poissons Ratio (z) = 0.26162 0.14009
#
# Static dielectric constant tensor:
#      x y z
#    x 4.379000 -1.003000 0.641270 
#    y -1.003000 3.183680 0.617490 
#    z 0.641270 0.617490 4.847240 
# 
# 
# High freq. dielectric constant tensor:
#      x y z
#    x 1.856280 -0.010540 0.020180 
#    y -0.010540 1.888000 0.008290 
#    z 0.020180 0.008290 1.896180 
# 
# From -- ./inp_files/223230.got.cif
#   From: 2010.06.25/outbox.cif.g09.slc.cpg/sg2_112_cif.got.tgz:223230.got - 2010.06.27 13:26:56.
