data_PCOD8011555
_publ_section_title
;
Structure prediction by ZEFSAII (Michael W. Deem and Ramdas Pophale) SiO2 
 PCOD8011555
Probable space group: P -1
;
_chemical_formula_sum "Si O2"
_cell_formula_units_Z 16
_cell_length_a 19.876031
_cell_length_b 8.064853
_cell_length_c 22.800204
_cell_angle_alpha 148.646123
_cell_angle_beta 158.511671
_cell_angle_gamma 31.629880
_cell_volume 664.909380
_symmetry_space_group_name_H-M "P -1"
_symmetry_group_IT_number 2
_symmetry_cell_setting 'triclinic'
loop_
_space_group_symop_operation_xyz
x,y,z
-x,-y,-z
loop_
_atom_site_type_symbol
_atom_site_label
_atom_site_fract_x
_atom_site_fract_y
_atom_site_fract_z
Si Si1 0.795805 0.493786 0.500043
Si Si2 0.097272 0.641745 0.949468
Si Si3 0.590437 0.219061 0.063522
Si Si4 0.765516 0.376281 0.637723
Si Si5 0.797650 0.648314 0.411478
Si Si6 0.631706 0.257015 0.615196
Si Si7 0.440946 0.310498 0.199460
Si Si8 0.192222 0.288793 0.814791
O O1 0.784596 0.511510 0.425594
O O2 0.660436 0.286231 0.354009
O O3 0.011978 0.267952 0.623288
O O4 0.726602 0.862325 0.585823
O O5 0.107952 0.639021 0.886753
O O6 0.974329 0.402431 0.800085
O O7 0.315654 0.543477 0.118236
O O8 0.000000 0.000000 0.000000
O O9 0.644825 0.563714 0.216695
O O10 0.738202 0.989898 0.161842
O O11 0.367338 0.293033 0.918029
O O12 0.606350 0.045512 0.959081
O O13 0.750964 0.358315 0.690444
O O14 0.591737 0.687248 0.566852
O O15 0.740094 0.046782 0.486561
O O16 0.000000 0.500000 0.500000
O O17 0.637830 0.510231 0.749291
#
# Coordination Sequence:
#
# PCOD8011555 Si02
#       8
#     2   2   2   2   2   2   2   2
#     4  11  22  38  66  94 120 162 210 258 310 364
#     4  11  21  37  63  93 124 159 202 257 315 364
#     4  10  23  40  60  90 124 161 203 255 311 362
#     4  10  23  41  63  87 125 173 204 249 313 369
#     4  11  23  42  62  86 125 170 210 248 304 372
#     4  10  22  41  61  90 124 163 211 254 308 371
#     4  11  22  37  62  93 124 157 206 262 304 361
#     4  10  21  39  62  92 124 155 205 261 308 361
#
# _framework density 24.06343
#
# number of rings (size 3 to 8) (size 9 to 14) (size 15 to 20)
#    0.000    1.500    0.000    6.375    0.000    5.500 
#    0.000    6.250    0.000    0.000    0.000    0.000 
#    0.000    0.000    0.000    0.000    0.000    0.000 
#
# Total GULP energy -198221.905030 kJ/mol
# GULP energy per Si atom -12388.869064 kJ/mol
# Density = 2.400866 g / cm^3
# Si number density = 24.063430 Si / 1000 Ang^3
#
#
#
# Elastic Constant Matrix: (Units=GPa)
#
#
# Indices 1 2 3 4 5 6 
#
# 1 88.6162 30.9318 39.1175 21.0988 -17.8312 -37.2474
# 2 30.9318 66.8540 63.0367 1.5043 -4.2999 -23.8587
# 3 39.1175 63.0367 157.4133 9.0980 -13.5697 -21.3783
# 4 21.0988 1.5043 9.0980 55.9808 -16.5732 -11.1198
# 5 -17.8312 -4.2999 -13.5697 -16.5732 23.5794 2.6807
# 6 -37.2474 -23.8587 -21.3783 -11.1198 2.6807 39.5442
#
#
#
# Elastic Compliance Matrix: (Units=1/GPa)
#
#
# Indices 1 2 3 4 5 6 
#
# 1 0.023594 -0.002005 -0.001191 -0.000633 0.014160 0.019232
# 2 -0.002005 0.029179 -0.009898 0.003671 -0.000611 0.011439
# 3 -0.001191 -0.009898 0.010703 -0.000343 0.003398 -0.001634
# 4 -0.000633 0.003671 -0.000343 0.024294 0.016255 0.007163
# 5 0.014160 -0.000611 0.003398 0.016255 0.064683 0.014992
# 6 0.019232 0.011439 -0.001634 0.007163 0.014992 0.050419
#
#
# Mechanical properties :
#
#
# Convention : Reuss Voigt Hill
#
# Bulk Modulus (GPa) = 26.81813 64.33952 45.57883
# Shear Modulus (GPa) = 20.70492 35.80740 28.25616
#
# Velocity S-wave (km/s) = 2.93649 3.86170 3.43043
# Velocity P-wave (km/s) = 4.76091 6.83221 5.88835
#
# Compressibility (1/GPa) = 0.03728820
#
# Stress axis : x y z
#
# Youngs Moduli (GPa) = 42.38420 34.27160 93.43012
#
# Poissons Ratio (x) = 0.06870 0.11129
# Poissons Ratio (y) = 0.08496 0.92476
# Poissons Ratio (z) = 0.05049 0.33922
#
# Static dielectric constant tensor:
#      x y z
#    x 4.139350 -0.522550 -0.407110 
#    y -0.522550 4.482820 0.229130 
#    z -0.407110 0.229130 4.462390 
# 
# 
# High freq. dielectric constant tensor:
#      x y z
#    x 1.946840 -0.036560 -0.014700 
#    y -0.036560 1.961810 -0.001840 
#    z -0.014700 -0.001840 1.963110 
# 
# From -- ./inp_files/613635.got.cif
#   From: 2010.06.25/outbox.cif.g09.slc.cpg/sg2_307_cif.got.tgz:613635.got - 2010.06.27 13:26:56.
