data_PCOD8011829
_publ_section_title
;
Structure prediction by ZEFSAII (Michael W. Deem and Ramdas Pophale) SiO2 
 PCOD8011829
Probable space group: P -1
;
_chemical_formula_sum "Si O2"
_cell_formula_units_Z 16
_cell_length_a 8.668408
_cell_length_b 28.076443
_cell_length_c 15.457333
_cell_angle_alpha 20.785967
_cell_angle_beta 34.904035
_cell_angle_gamma 41.916929
_cell_volume 759.162361
_symmetry_space_group_name_H-M "P -1"
_symmetry_group_IT_number 2
_symmetry_cell_setting 'triclinic'
loop_
_space_group_symop_operation_xyz
x,y,z
-x,-y,-z
loop_
_atom_site_type_symbol
_atom_site_label
_atom_site_fract_x
_atom_site_fract_y
_atom_site_fract_z
Si Si1 0.426487 0.586501 0.277082
Si Si2 0.089553 0.393320 0.860898
Si Si3 0.660858 0.878698 0.298904
Si Si4 0.346316 0.131917 0.344060
Si Si5 0.062638 0.891370 0.589125
Si Si6 0.002834 0.848946 0.359608
Si Si7 0.278865 0.585427 0.704661
Si Si8 0.584761 0.387684 0.214434
O O1 0.124072 0.519884 0.561793
O O2 0.608506 0.613002 0.233702
O O3 0.550403 0.482184 0.332048
O O4 0.421247 0.738525 0.985941
O O5 0.979877 0.255691 0.094594
O O6 0.901494 0.392423 0.034613
O O7 0.375421 0.933659 0.353402
O O8 0.605087 0.751234 0.477983
O O9 0.806166 0.828987 0.401610
O O10 0.843546 0.000788 0.962365
O O11 0.131568 0.114838 0.394145
O O12 0.180604 0.163081 0.451567
O O13 0.500000 0.000000 0.500000
O O14 0.000000 0.000000 0.500000
O O15 0.214933 0.736227 0.450957
O O16 0.452676 0.585254 0.713291
O O17 0.000000 0.500000 0.000000
O O18 0.500000 0.500000 0.000000
#
# Coordination Sequence:
#
# PCOD8011829 Si02
#       8
#     2   2   2   2   2   2   2   2
#     4  10  21  39  64  93 121 162 214 256 307 378
#     4   9  20  39  61  89 121 163 205 253 309 375
#     4  10  24  41  62  93 125 162 210 268 317 379
#     4  11  23  40  64  90 127 171 209 258 311 382
#     4  10  21  40  61  89 126 163 203 257 324 368
#     4  11  23  42  66  93 122 165 220 260 323 383
#     4  12  21  39  67  94 126 167 213 262 315 381
#     4  11  23  40  63  92 130 168 205 264 322 374
#
# _framework density 21.075859000000001
#
# number of rings (size 3 to 8) (size 9 to 14) (size 15 to 20)
#    0.000    1.500    2.500    3.000    1.750    3.000 
#    4.500    0.625    0.000    0.000    0.000    0.000 
#    0.000    0.000    0.000    0.000    0.000    0.000 
#
# Total GULP energy -198211.370995 kJ/mol
# GULP energy per Si atom -12388.210687 kJ/mol
# Density = 2.102789 g / cm^3
# Si number density = 21.075859 Si / 1000 Ang^3
#
#
#
# Elastic Constant Matrix: (Units=GPa)
#
#
# Indices 1 2 3 4 5 6 
#
# 1 83.2187 7.1954 28.1456 -1.8985 5.4245 2.2405
# 2 7.1954 63.9853 27.1774 -16.7898 5.5968 10.2273
# 3 28.1456 27.1774 127.5110 2.4123 4.2722 9.1902
# 4 -1.8985 -16.7898 2.4123 31.3850 -7.0423 5.1092
# 5 5.4245 5.5968 4.2722 -7.0423 30.8977 -4.2061
# 6 2.2405 10.2273 9.1902 5.1092 -4.2061 33.1596
#
#
#
# Elastic Compliance Matrix: (Units=1/GPa)
#
#
# Indices 1 2 3 4 5 6 
#
# 1 0.013116 0.000182 -0.002851 0.000781 -0.001832 -0.000505
# 2 0.000182 0.022374 -0.004438 0.013269 -0.001525 -0.007921
# 3 -0.002851 -0.004438 0.009560 -0.003368 -0.000878 -0.000681
# 4 0.000781 0.013269 -0.003368 0.042133 0.006316 -0.008903
# 5 -0.001832 -0.001525 -0.000878 0.006316 0.035112 0.004318
# 6 -0.000505 -0.007921 -0.000681 -0.008903 0.004318 0.034742
#
#
# Mechanical properties :
#
#
# Convention : Reuss Voigt Hill
#
# Bulk Modulus (GPa) = 32.42958 44.41686 38.42322
# Shear Modulus (GPa) = 27.54367 33.23491 30.38929
#
# Velocity S-wave (km/s) = 3.61900 3.97535 3.80136
# Velocity P-wave (km/s) = 5.73441 6.49552 6.12679
#
# Compressibility (1/GPa) = 0.03083605
#
# Stress axis : x y z
#
# Youngs Moduli (GPa) = 76.24380 44.69389 104.60489
#
# Poissons Ratio (x) = -0.00813 0.29821
# Poissons Ratio (y) = -0.01386 0.46423
# Poissons Ratio (z) = 0.21736 0.19835
#
# Static dielectric constant tensor:
#      x y z
#    x 3.951430 1.752110 1.284540 
#    y 1.752110 15.974160 8.813880 
#    z 1.284540 8.813880 10.917320 
# 
# 
# High freq. dielectric constant tensor:
#      x y z
#    x 1.817230 0.006460 -0.003570 
#    y 0.006460 1.818570 -0.009050 
#    z -0.003570 -0.009050 1.850550 
# 
# From -- ./inp_files/508951.got.cif
#   From: 2010.06.25/outbox.cif.g09.slc.cpg/sg2_255_cif.got.tgz:508951.got - 2010.06.27 13:26:56.
