data_PCOD8011656
_publ_section_title
;
Structure prediction by ZEFSAII (Michael W. Deem and Ramdas Pophale) SiO2 
 PCOD8011656
Probable space group: P -1
;
_chemical_formula_sum "Si O2"
_cell_formula_units_Z 16
_cell_length_a 11.079831
_cell_length_b 24.555744
_cell_length_c 6.752579
_cell_angle_alpha 126.451552
_cell_angle_beta 115.436791
_cell_angle_gamma 30.948727
_cell_volume 745.611092
_symmetry_space_group_name_H-M "P -1"
_symmetry_group_IT_number 2
_symmetry_cell_setting 'triclinic'
loop_
_space_group_symop_operation_xyz
x,y,z
-x,-y,-z
loop_
_atom_site_type_symbol
_atom_site_label
_atom_site_fract_x
_atom_site_fract_y
_atom_site_fract_z
Si Si1 0.456132 0.480657 0.130942
Si Si2 0.888314 0.321889 0.366008
Si Si3 0.709364 0.953887 0.960165
Si Si4 0.925877 0.626804 0.605475
Si Si5 0.239347 0.858409 0.609515
Si Si6 0.263784 0.947498 0.476755
Si Si7 0.319530 0.406982 0.683758
Si Si8 0.514925 0.141716 0.953769
O O1 0.714507 0.368749 0.172653
O O2 0.265385 0.603588 0.384931
O O3 0.500000 0.500000 0.000000
O O4 0.340241 0.454276 0.972610
O O5 0.030006 0.331176 0.426947
O O6 0.071000 0.185295 0.247614
O O7 0.781799 0.975454 0.229108
O O8 0.500000 0.000000 0.000000
O O9 0.601885 0.032821 0.858497
O O10 0.807633 0.610648 0.378767
O O11 0.179241 0.498287 0.597044
O O12 0.749442 0.727428 0.872337
O O13 0.302775 0.862834 0.446346
O O14 0.406888 0.722596 0.467812
O O15 0.291714 0.885986 0.888386
O O16 0.961345 0.957128 0.625451
O O17 0.487207 0.860740 0.294038
#
# Coordination Sequence:
#
# PCOD8011656 Si02
#       8
#     2   2   2   2   2   2   2   2
#     4  11  24  44  65  91 124 166 212 255 312 370
#     4  11  24  43  64  92 128 165 208 264 304 370
#     4  11  23  39  61  89 125 160 206 248 307 364
#     4  10  21  42  63  93 130 158 210 255 311 376
#     4   9  20  40  61  90 126 152 206 252 306 366
#     4  10  21  39  63  91 123 162 203 253 301 370
#     4  10  21  41  65  91 124 164 204 259 306 373
#     4  10  21  40  62  92 122 161 201 255 307 365
#
# _framework density 21.458908000000001
#
# number of rings (size 3 to 8) (size 9 to 14) (size 15 to 20)
#    0.000    1.750    2.500    1.125    0.000    4.000 
#    6.750    2.500    0.000    0.000    0.000    0.000 
#    0.000    0.000    0.000    0.000    0.000    0.000 
#
# Total GULP energy -198334.182410 kJ/mol
# GULP energy per Si atom -12395.886401 kJ/mol
# Density = 2.141007 g / cm^3
# Si number density = 21.458908 Si / 1000 Ang^3
#
#
#
# Elastic Constant Matrix: (Units=GPa)
#
#
# Indices 1 2 3 4 5 6 
#
# 1 83.0438 20.5621 38.8855 3.7146 -0.7334 3.6184
# 2 20.5621 113.9991 35.1569 27.7472 1.6823 5.9126
# 3 38.8855 35.1569 80.2205 4.5917 -6.4285 11.1128
# 4 3.7146 27.7472 4.5917 30.2360 -1.3011 2.6960
# 5 -0.7334 1.6823 -6.4285 -1.3011 39.0385 -2.2543
# 6 3.6184 5.9126 11.1128 2.6960 -2.2543 26.7376
#
#
#
# Elastic Compliance Matrix: (Units=1/GPa)
#
#
# Indices 1 2 3 4 5 6 
#
# 1 0.015676 -0.000387 -0.007624 -0.000551 -0.000898 0.001112
# 2 -0.000387 0.013210 -0.005129 -0.011397 -0.001786 0.000261
# 3 -0.007624 -0.005129 0.019280 0.003375 0.003022 -0.005933
# 4 -0.000551 -0.011397 0.003375 0.043453 0.002312 -0.002994
# 5 -0.000898 -0.001786 0.003022 0.002312 0.026323 0.001247
# 6 0.001112 0.000261 -0.005933 -0.002994 0.001247 0.040065
#
#
# Mechanical properties :
#
#
# Convention : Reuss Voigt Hill
#
# Bulk Modulus (GPa) = 45.68906 51.83029 48.75967
# Shear Modulus (GPa) = 26.09868 31.37968 28.73918
#
# Velocity S-wave (km/s) = 3.49121 3.82817 3.66357
# Velocity P-wave (km/s) = 6.13099 6.61404 6.37709
#
# Compressibility (1/GPa) = 0.02188708
#
# Stress axis : x y z
#
# Youngs Moduli (GPa) = 63.79344 75.69893 51.86790
#
# Poissons Ratio (x) = 0.02927 0.39542
# Poissons Ratio (y) = 0.02467 0.26603
# Poissons Ratio (z) = 0.48634 0.38826
#
# Static dielectric constant tensor:
#      x y z
#    x 3.899160 -0.135430 0.210040 
#    y -0.135430 3.868980 -0.000150 
#    z 0.210040 -0.000150 3.691100 
# 
# 
# High freq. dielectric constant tensor:
#      x y z
#    x 1.837210 -0.006390 0.011040 
#    y -0.006390 1.854240 0.008130 
#    z 0.011040 0.008130 1.833200 
# 
# From -- ./inp_files/84522.got.cif
#   From: 2010.06.25/outbox.cif.g09.slc.cpg/sg2_43_cif.got.tgz:84522.got - 2010.06.27 13:26:56.
