data_PCOD8011784
_publ_section_title
;
Structure prediction by ZEFSAII (Michael W. Deem and Ramdas Pophale) SiO2 
 PCOD8011784
Probable space group: P -1
;
_chemical_formula_sum "Si O2"
_cell_formula_units_Z 14
_cell_length_a 9.717103
_cell_length_b 14.219144
_cell_length_c 11.525720
_cell_angle_alpha 34.152381
_cell_angle_beta 114.684955
_cell_angle_gamma 131.881531
_cell_volume 630.036288
_symmetry_space_group_name_H-M "P -1"
_symmetry_group_IT_number 2
_symmetry_cell_setting 'triclinic'
loop_
_space_group_symop_operation_xyz
x,y,z
-x,-y,-z
loop_
_atom_site_type_symbol
_atom_site_label
_atom_site_fract_x
_atom_site_fract_y
_atom_site_fract_z
Si Si1 0.094646 0.730814 0.643131
Si Si2 0.527794 0.547210 0.142744
Si Si3 0.925916 0.455995 0.649260
Si Si4 0.802728 0.814684 0.762131
Si Si5 0.184929 0.899846 0.863271
Si Si6 0.277940 0.670295 0.965223
Si Si7 0.539414 0.378511 0.551809
O O1 0.238740 0.698086 0.789775
O O2 0.074622 0.669016 0.563274
O O3 0.178806 0.974109 0.435501
O O4 0.888104 0.570376 0.799575
O O5 0.331815 0.322294 0.254980
O O6 0.603463 0.493760 0.332157
O O7 0.703760 0.668606 0.990630
O O8 0.478028 0.704262 0.001740
O O9 0.711695 0.385782 0.654375
O O10 0.000000 0.500000 0.500000
O O11 0.910457 0.259637 0.897280
O O12 0.014632 0.877860 0.755611
O O13 0.292588 0.845281 0.871075
O O14 0.340257 0.137355 0.723206
O O15 0.500000 0.500000 0.500000
#
# Coordination Sequence:
#
# PCOD8011784 Si02
#       7
#     2   2   2   2   2   2   2
#     4  10  21  39  64  90 118 158 201 245 302 354
#     4  11  24  40  60  93 124 154 199 251 305 353
#     4  11  24  41  62  90 125 160 199 246 297 358
#     4  11  23  40  64  90 122 156 197 255 307 351
#     4  11  23  42  65  88 118 161 205 247 298 352
#     4  10  21  39  65  90 116 152 204 255 294 351
#     4  12  25  41  62  89 124 163 203 242 291 364
#
# _framework density 22.220942999999998
#
# number of rings (size 3 to 8) (size 9 to 14) (size 15 to 20)
#    0.000    1.143    0.000    8.143    0.000    5.714 
#    0.000    2.857    0.000    0.000    0.000    0.000 
#    0.000    0.000    0.000    0.000    0.000    0.000 
#
# Total GULP energy -173667.217063 kJ/mol
# GULP energy per Si atom -12404.801219 kJ/mol
# Density = 2.217037 g / cm^3
# Si number density = 22.220943 Si / 1000 Ang^3
#
#
#
# Elastic Constant Matrix: (Units=GPa)
#
#
# Indices 1 2 3 4 5 6 
#
# 1 60.5136 26.0415 8.0273 -12.6175 7.2296 -12.5624
# 2 26.0415 108.6252 45.8755 -10.4973 0.7323 -21.1217
# 3 8.0273 45.8755 73.5889 -0.5934 6.3337 -13.8986
# 4 -12.6175 -10.4973 -0.5934 46.1753 -6.6109 1.1998
# 5 7.2296 0.7323 6.3337 -6.6109 26.5433 8.7313
# 6 -12.5624 -21.1217 -13.8986 1.1998 8.7313 37.1693
#
#
#
# Elastic Compliance Matrix: (Units=1/GPa)
#
#
# Indices 1 2 3 4 5 6 
#
# 1 0.021254 -0.004303 0.002457 0.003553 -0.007797 0.007374
# 2 -0.004303 0.014490 -0.008147 0.002254 0.002247 0.003133
# 3 0.002457 -0.008147 0.020089 -0.002157 -0.007607 0.005569
# 4 0.003553 0.002254 -0.002157 0.023921 0.005576 -0.000407
# 5 -0.007797 0.002247 -0.007607 0.005576 0.048098 -0.015681
# 6 0.007374 0.003133 0.005569 -0.000407 -0.015681 0.036955
#
#
# Mechanical properties :
#
#
# Convention : Reuss Voigt Hill
#
# Bulk Modulus (GPa) = 27.89744 44.73514 36.31629
# Shear Modulus (GPa) = 25.41356 32.82981 29.12169
#
# Velocity S-wave (km/s) = 3.38550 3.84790 3.62408
# Velocity P-wave (km/s) = 5.27863 6.31803 5.82157
#
# Compressibility (1/GPa) = 0.03584558
#
# Stress axis : x y z
#
# Youngs Moduli (GPa) = 47.04929 69.01162 49.77771
#
# Poissons Ratio (x) = 0.29697 -0.12228
# Poissons Ratio (y) = 0.20246 0.40556
# Poissons Ratio (z) = -0.11558 0.56227
#
# Static dielectric constant tensor:
#      x y z
#    x 3.784640 -0.161850 0.094870 
#    y -0.161850 3.921200 0.125680 
#    z 0.094870 0.125680 4.096320 
# 
# 
# High freq. dielectric constant tensor:
#      x y z
#    x 1.869310 -0.008650 0.009820 
#    y -0.008650 1.876830 0.009870 
#    z 0.009820 0.009870 1.886650 
# 
# From -- ./inp_files/398294.got.cif
#   From: 2010.06.25/outbox.cif.g09.slc.cpg/sg2_200_cif.got.tgz:398294.got - 2010.06.27 13:26:56.
