data_PCOD8011625
_publ_section_title
;
Structure prediction by ZEFSAII (Michael W. Deem and Ramdas Pophale) SiO2 
 PCOD8011625
Probable space group: P -1
;
_chemical_formula_sum "Si O2"
_cell_formula_units_Z 14
_cell_length_a 8.413631
_cell_length_b 6.242718
_cell_length_c 17.522911
_cell_angle_alpha 88.868147
_cell_angle_beta 134.766103
_cell_angle_gamma 92.156512
_cell_volume 652.960339
_symmetry_space_group_name_H-M "P -1"
_symmetry_group_IT_number 2
_symmetry_cell_setting 'triclinic'
loop_
_space_group_symop_operation_xyz
x,y,z
-x,-y,-z
loop_
_atom_site_type_symbol
_atom_site_label
_atom_site_fract_x
_atom_site_fract_y
_atom_site_fract_z
Si Si1 0.172758 0.196134 0.062568
Si Si2 0.346627 0.195827 0.432462
Si Si3 0.469078 0.100085 0.848156
Si Si4 0.864267 0.237602 0.218642
Si Si5 0.841970 0.412447 0.047732
Si Si6 0.702298 0.471271 0.464407
Si Si7 0.189194 0.435061 0.668182
O O1 0.087667 0.347243 0.100596
O O2 0.407500 0.084560 0.157311
O O3 0.194954 0.342303 0.992081
O O4 0.000000 0.000000 0.000000
O O5 0.478961 0.351528 0.418181
O O6 0.296590 0.295138 0.497756
O O7 0.110336 0.141541 0.312092
O O8 0.500000 0.000000 0.500000
O O9 0.323619 0.230161 0.739300
O O10 0.301083 0.969339 0.849407
O O11 0.641823 0.255457 0.950703
O O12 0.849675 0.399850 0.141405
O O13 0.790052 0.374657 0.265120
O O14 0.696082 0.482387 0.371348
O O15 0.930405 0.357789 0.568672
#
# Coordination Sequence:
#
# PCOD8011625 Si02
#       7
#     2   2   2   2   2   2   2
#     4   9  21  39  60  83 113 158 202 243 296 348
#     4  10  21  39  63  89 117 152 199 247 299 357
#     4  11  22  38  60  88 120 159 202 244 295 354
#     4  11  24  37  59  90 120 161 200 240 300 358
#     4  10  22  41  59  85 125 157 197 251 295 351
#     4   9  21  41  60  86 121 154 192 251 306 350
#     4  10  22  39  60  87 121 156 198 246 300 359
#
# _framework density 21.440812999999999
#
# number of rings (size 3 to 8) (size 9 to 14) (size 15 to 20)
#    0.000    2.000    0.000    2.143    0.000   11.429 
#    0.000    4.286    0.000    0.000    0.000    0.000 
#    0.000    0.000    0.000    0.000    0.000    0.000 
#
# Total GULP energy -173531.287203 kJ/mol
# GULP energy per Si atom -12395.091943 kJ/mol
# Density = 2.139201 g / cm^3
# Si number density = 21.440813 Si / 1000 Ang^3
#
#
#
# Elastic Constant Matrix: (Units=GPa)
#
#
# Indices 1 2 3 4 5 6 
#
# 1 124.4827 49.5710 70.3045 -8.7533 -4.6858 1.1747
# 2 49.5710 117.4154 63.7514 -26.4228 8.5194 4.3109
# 3 70.3045 63.7514 102.3062 -24.7716 -0.2003 0.4184
# 4 -8.7533 -26.4228 -24.7716 38.4214 -1.1554 14.1572
# 5 -4.6858 8.5194 -0.2003 -1.1554 46.1437 -3.6080
# 6 1.1747 4.3109 0.4184 14.1572 -3.6080 37.7885
#
#
#
# Elastic Compliance Matrix: (Units=1/GPa)
#
#
# Indices 1 2 3 4 5 6 
#
# 1 0.013913 -0.002044 -0.009512 -0.005039 0.001776 0.001963
# 2 -0.002044 0.014657 -0.005924 0.007401 -0.003115 -0.004613
# 3 -0.009512 -0.005924 0.022207 0.009059 0.000244 -0.002645
# 4 -0.005039 0.007401 0.009059 0.041894 -0.002094 -0.016683
# 5 0.001776 -0.003115 0.000244 -0.002094 0.022629 0.003243
# 6 0.001963 -0.004613 -0.002645 -0.016683 0.003243 0.033517
#
#
# Mechanical properties :
#
#
# Convention : Reuss Voigt Hill
#
# Bulk Modulus (GPa) = 63.22108 79.05090 71.13599
# Shear Modulus (GPa) = 26.44791 35.17588 30.81189
#
# Velocity S-wave (km/s) = 3.51598 4.05483 3.79498
# Velocity P-wave (km/s) = 6.78477 7.67278 7.24240
#
# Compressibility (1/GPa) = 0.01581751
#
# Stress axis : x y z
#
# Youngs Moduli (GPa) = 71.87276 68.22636 45.03026
#
# Poissons Ratio (x) = 0.13948 0.42833
# Poissons Ratio (y) = 0.14693 0.26675
# Poissons Ratio (z) = 0.68365 0.40416
#
# Static dielectric constant tensor:
#      x y z
#    x 4.307570 -0.060610 0.406300 
#    y -0.060610 3.918520 -0.130330 
#    z 0.406300 -0.130330 3.847390 
# 
# 
# High freq. dielectric constant tensor:
#      x y z
#    x 1.857690 0.003150 0.021400 
#    y 0.003150 1.838500 -0.011580 
#    z 0.021400 -0.011580 1.831940 
# 
# From -- ./inp_files/46236.got.cif
#   From: 2010.06.25/outbox.cif.g09.slc.cpg/sg2_24_cif.got.tgz:46236.got - 2010.06.27 13:26:56.
