data_PCOD8011796
_publ_section_title
;
Structure prediction by ZEFSAII (Michael W. Deem and Ramdas Pophale) SiO2 
 PCOD8011796
Probable space group: P -1
;
_chemical_formula_sum "Si O2"
_cell_formula_units_Z 14
_cell_length_a 9.063120
_cell_length_b 9.477571
_cell_length_c 7.741058
_cell_angle_alpha 107.083903
_cell_angle_beta 105.445982
_cell_angle_gamma 83.321007
_cell_volume 612.109810
_symmetry_space_group_name_H-M "P -1"
_symmetry_group_IT_number 2
_symmetry_cell_setting 'triclinic'
loop_
_space_group_symop_operation_xyz
x,y,z
-x,-y,-z
loop_
_atom_site_type_symbol
_atom_site_label
_atom_site_fract_x
_atom_site_fract_y
_atom_site_fract_z
Si Si1 0.141940 0.265831 0.809861
Si Si2 0.690927 0.040440 0.888799
Si Si3 0.678499 0.483135 0.541121
Si Si4 0.338173 0.985264 0.732465
Si Si5 0.882492 0.442686 0.304237
Si Si6 0.208006 0.781058 0.322629
Si Si7 0.145134 0.255096 0.197746
O O1 0.156543 0.427442 0.794781
O O2 0.974782 0.199328 0.715779
O O3 0.262909 0.146859 0.721713
O O4 0.190016 0.287720 0.028621
O O5 0.728365 0.182147 0.835371
O O6 0.520850 0.989185 0.779464
O O7 0.814907 0.916005 0.811442
O O8 0.712241 0.068450 0.110462
O O9 0.500000 0.500000 0.500000
O O10 0.729593 0.401509 0.346890
O O11 0.743840 0.390330 0.691517
O O12 0.748036 0.644662 0.616494
O O13 0.283713 0.874696 0.530481
O O14 0.000000 0.500000 0.500000
O O15 0.963875 0.297437 0.187468
#
# Coordination Sequence:
#
# PCOD8011796 Si02
#       7
#     2   2   2   2   2   2   2
#     4  11  23  41  65  96 126 171 215 261 323 380
#     4  10  24  44  67  94 130 175 211 266 325 376
#     4  11  25  42  64  97 127 166 221 262 321 383
#     4  10  24  43  65  94 136 167 215 263 329 381
#     4  10  21  39  64  90 126 172 203 262 323 377
#     4  12  24  39  66 100 127 167 218 270 311 388
#     4  10  22  44  66  88 133 169 210 263 322 389
#
# _framework density 22.871713
#
# number of rings (size 3 to 8) (size 9 to 14) (size 15 to 20)
#    0.000    1.429    2.857    2.143    6.000    4.571 
#    0.000    0.714    0.000    0.000    0.000    0.000 
#    0.000    0.000    0.000    0.000    0.000    0.000 
#
# Total GULP energy -173578.903153 kJ/mol
# GULP energy per Si atom -12398.493082 kJ/mol
# Density = 2.281966 g / cm^3
# Si number density = 22.871713 Si / 1000 Ang^3
#
#
#
# Elastic Constant Matrix: (Units=GPa)
#
#
# Indices 1 2 3 4 5 6 
#
# 1 124.7677 32.1840 12.3250 -8.0588 -11.4362 -8.7018
# 2 32.1840 68.9954 -7.2205 -19.6529 -13.8564 -0.3344
# 3 12.3250 -7.2205 38.4272 -4.6348 1.0342 -2.0662
# 4 -8.0588 -19.6529 -4.6348 30.1047 0.6609 -7.0744
# 5 -11.4362 -13.8564 1.0342 0.6609 30.0993 -6.5339
# 6 -8.7018 -0.3344 -2.0662 -7.0744 -6.5339 35.5473
#
#
#
# Elastic Compliance Matrix: (Units=1/GPa)
#
#
# Indices 1 2 3 4 5 6 
#
# 1 0.009999 -0.004774 -0.004098 -0.000539 0.002292 0.002479
# 2 -0.004774 0.024309 0.008103 0.016718 0.009741 0.004648
# 3 -0.004098 0.008103 0.030125 0.009503 0.001582 0.003006
# 4 -0.000539 0.016718 0.009503 0.048015 0.008656 0.011724
# 5 0.002292 0.009741 0.001582 0.008656 0.040485 0.009909
# 6 0.002479 0.004648 0.003006 0.011724 0.009909 0.033111
#
#
# Mechanical properties :
#
#
# Convention : Reuss Voigt Hill
#
# Bulk Modulus (GPa) = 15.89911 34.08528 24.99220
# Shear Modulus (GPa) = 23.97523 32.14371 28.05947
#
# Velocity S-wave (km/s) = 3.24118 3.75292 3.50640
# Velocity P-wave (km/s) = 4.57968 5.80641 5.22914
#
# Compressibility (1/GPa) = 0.06289659
#
# Stress axis : x y z
#
# Youngs Moduli (GPa) = 100.00595 41.13625 33.19473
#
# Poissons Ratio (x) = 0.19640 0.13602
# Poissons Ratio (y) = 0.47746 -0.26898
# Poissons Ratio (z) = 0.40979 -0.33334
#
# Static dielectric constant tensor:
#      x y z
#    x 3.254800 -1.011250 1.190660 
#    y -1.011250 4.130300 0.857520 
#    z 1.190660 0.857520 2.148890 
# 
# 
# High freq. dielectric constant tensor:
#      x y z
#    x 1.904290 -0.011180 -0.009600 
#    y -0.011180 1.905990 -0.010170 
#    z -0.009600 -0.010170 1.900610 
# 
# From -- ./inp_files/155353.got.cif
#   From: 2010.06.25/outbox.cif.g09.slc.cpg/sg2_78_cif.got.tgz:155353.got - 2010.06.27 13:26:56.
