data_PCOD8011137
_publ_section_title
;
Structure prediction by ZEFSAII (Michael W. Deem and Ramdas Pophale) SiO2 
 PCOD8011137
Probable space group: P -1
;
_chemical_formula_sum "Si O2"
_cell_formula_units_Z 14
_cell_length_a 11.080313
_cell_length_b 13.417636
_cell_length_c 7.101774
_cell_angle_alpha 85.346052
_cell_angle_beta 42.231758
_cell_angle_gamma 114.199491
_cell_volume 504.035693
_symmetry_space_group_name_H-M "P -1"
_symmetry_group_IT_number 2
_symmetry_cell_setting 'triclinic'
loop_
_space_group_symop_operation_xyz
x,y,z
-x,-y,-z
loop_
_atom_site_type_symbol
_atom_site_label
_atom_site_fract_x
_atom_site_fract_y
_atom_site_fract_z
Si Si1 0.897232 0.244280 0.215592
Si Si2 0.193084 0.170266 0.759820
Si Si3 0.344480 0.536216 0.724896
Si Si4 0.283760 0.495337 0.228902
Si Si5 0.186921 0.796681 0.242261
Si Si6 0.571633 0.790811 0.893498
Si Si7 0.325967 0.061639 0.886324
O O1 0.898802 0.221694 0.440820
O O2 0.620582 0.165735 0.473177
O O3 0.985811 0.174885 0.030974
O O4 0.083649 0.413267 0.927755
O O5 0.454412 0.295028 0.561277
O O6 0.244269 0.189120 0.472968
O O7 0.149954 0.040517 0.922169
O O8 0.500000 0.500000 0.500000
O O9 0.253679 0.512721 0.045403
O O10 0.017773 0.344800 0.624549
O O11 0.500000 0.500000 0.000000
O O12 0.359183 0.626505 0.232804
O O13 0.448618 0.839422 0.930018
O O14 0.220275 0.912614 0.079139
O O15 0.720905 0.883716 0.890602
#
# Coordination Sequence:
#
# PCOD8011137 Si02
#       7
#     2   2   2   2   2   2   2
#     4   9  19  40  65  94 132 179 220 274 329 394
#     4  10  22  41  64  99 138 168 229 278 319 398
#     4   8  17  35  60  89 132 159 213 282 313 379
#     4  10  21  38  67  99 124 168 224 274 330 391
#     4  10  22  44  64  95 139 172 217 277 329 399
#     4  10  22  43  68  98 130 172 227 276 324 394
#     4  11  24  43  70  94 137 187 211 266 350 393
#
# _framework density 27.77581
#
# number of rings (size 3 to 8) (size 9 to 14) (size 15 to 20)
#    0.000    2.286    0.000    2.143    6.000    2.857 
#   10.286    2.857    3.143    0.000    0.000    0.000 
#    0.000    0.000    0.000    0.000    0.000    0.000 
#
# Total GULP energy -173498.045752 kJ/mol
# GULP energy per Si atom -12392.717554 kJ/mol
# Density = 2.771259 g / cm^3
# Si number density = 27.775810 Si / 1000 Ang^3
#
#
#
# Elastic Constant Matrix: (Units=GPa)
#
#
# Indices 1 2 3 4 5 6 
#
# 1 126.0020 36.9914 17.3590 1.0146 -20.3384 -2.2946
# 2 36.9914 136.6186 36.8354 -1.0089 0.8119 -11.7385
# 3 17.3590 36.8354 100.5378 -1.5770 -25.0634 -1.8330
# 4 1.0146 -1.0089 -1.5770 47.9973 -6.3989 -3.1970
# 5 -20.3384 0.8119 -25.0634 -6.3989 19.8304 -6.0929
# 6 -2.2946 -11.7385 -1.8330 -3.1970 -6.0929 33.1843
#
#
#
# Elastic Compliance Matrix: (Units=1/GPa)
#
#
# Indices 1 2 3 4 5 6 
#
# 1 0.011843 -0.004256 0.004649 0.002737 0.020166 0.003537
# 2 -0.004256 0.010284 -0.006343 -0.001635 -0.013204 0.000411
# 3 0.004649 -0.006343 0.020152 0.005369 0.034062 0.005962
# 4 0.002737 -0.001635 0.005369 0.023847 0.019110 0.005714
# 5 0.020166 -0.013204 0.034062 0.019110 0.128241 0.023992
# 6 0.003537 0.000411 0.005962 0.005714 0.023992 0.035810
#
#
# Mechanical properties :
#
#
# Convention : Reuss Voigt Hill
#
# Bulk Modulus (GPa) = 32.91647 60.61444 46.76545
# Shear Modulus (GPa) = 19.82541 38.33392 29.07967
#
# Velocity S-wave (km/s) = 2.67454 3.71903 3.23916
# Velocity P-wave (km/s) = 4.62753 6.34915 5.55543
#
# Compressibility (1/GPa) = 0.03037993
#
# Stress axis : x y z
#
# Youngs Moduli (GPa) = 84.43950 97.23951 49.62258
#
# Poissons Ratio (x) = 0.41384 -0.23071
# Poissons Ratio (y) = 0.35937 0.31475
# Poissons Ratio (z) = -0.39258 0.61677
#
# Static dielectric constant tensor:
#      x y z
#    x 4.741280 0.436270 -0.304180 
#    y 0.436270 6.019930 -0.717390 
#    z -0.304180 -0.717390 6.065420 
# 
# 
# High freq. dielectric constant tensor:
#      x y z
#    x 2.107960 0.014220 -0.014440 
#    y 0.014220 2.152530 -0.023800 
#    z -0.014440 -0.023800 2.132050 
# 
# From -- ./inp_files/311425.got.cif
#   From: 2010.06.25/outbox.cif.g09.slc.cpg/sg2_156_cif.got.tgz:311425.got - 2010.06.27 13:26:56.
