data_PCOD8011738
_publ_section_title
;
Structure prediction by ZEFSAII (Michael W. Deem and Ramdas Pophale) SiO2 
 PCOD8011738
Probable space group: P -1
;
_chemical_formula_sum "Si O2"
_cell_formula_units_Z 16
_cell_length_a 8.377144
_cell_length_b 11.225934
_cell_length_c 9.239050
_cell_angle_alpha 79.262822
_cell_angle_beta 91.686228
_cell_angle_gamma 119.777356
_cell_volume 738.896034
_symmetry_space_group_name_H-M "P -1"
_symmetry_group_IT_number 2
_symmetry_cell_setting 'triclinic'
loop_
_space_group_symop_operation_xyz
x,y,z
-x,-y,-z
loop_
_atom_site_type_symbol
_atom_site_label
_atom_site_fract_x
_atom_site_fract_y
_atom_site_fract_z
Si Si1 0.779275 0.937377 0.890029
Si Si2 0.957987 0.287594 0.165070
Si Si3 0.356483 0.176338 0.806802
Si Si4 0.073558 0.976994 0.656503
Si Si5 0.076513 0.528146 0.332575
Si Si6 0.259926 0.802481 0.115296
Si Si7 0.641734 0.638334 0.889347
Si Si8 0.447903 0.525993 0.339318
O O1 0.620903 0.774247 0.888215
O O2 0.946037 0.981153 0.778020
O O3 0.717110 0.053067 0.855127
O O4 0.813725 0.917377 0.065119
O O5 0.922593 0.166909 0.307560
O O6 0.954624 0.408289 0.236694
O O7 0.153584 0.337351 0.079839
O O8 0.802828 0.230011 0.047933
O O9 0.537143 0.175807 0.868340
O O10 0.389588 0.333208 0.762842
O O11 0.282515 0.102659 0.665124
O O12 0.000000 0.000000 0.500000
O O13 0.107089 0.675479 0.238351
O O14 0.275605 0.546942 0.345154
O O15 0.000000 0.500000 0.500000
O O16 0.597685 0.609130 0.724870
O O17 0.500000 0.500000 0.000000
O O18 0.500000 0.500000 0.500000
#
# Coordination Sequence:
#
# PCOD8011738 Si02
#       8
#     2   2   2   2   2   2   2   2
#     4  11  23  41  68  97 127 171 220 266 330 388
#     4  10  23  42  67  94 130 171 222 266 326 388
#     4  11  23  43  67  94 133 170 218 274 324 389
#     4  11  26  42  67  98 133 170 217 274 327 388
#     4  10  24  44  62  93 132 173 216 264 329 392
#     4  11  24  44  66  97 132 172 220 271 328 394
#     4  10  21  39  63  97 128 163 220 271 315 384
#     4  10  23  41  63  92 129 170 212 265 324 378
#
# _framework density 21.653926999999999
#
# number of rings (size 3 to 8) (size 9 to 14) (size 15 to 20)
#    0.000    1.500    2.500    1.125    8.750    1.000 
#    2.250    0.625    0.000    0.000    0.000    0.000 
#    0.000    0.000    0.000    0.000    0.000    0.000 
#
# Total GULP energy -198215.504343 kJ/mol
# GULP energy per Si atom -12388.469021 kJ/mol
# Density = 2.160464 g / cm^3
# Si number density = 21.653927 Si / 1000 Ang^3
#
#
#
# Elastic Constant Matrix: (Units=GPa)
#
#
# Indices 1 2 3 4 5 6 
#
# 1 44.4372 51.2390 57.5875 13.0423 14.7052 6.0254
# 2 51.2390 177.7900 70.1191 5.6562 14.4773 -19.9817
# 3 57.5875 70.1191 144.4272 -0.5933 19.9411 -0.9250
# 4 13.0423 5.6562 -0.5933 38.4733 1.2346 3.6717
# 5 14.7052 14.4773 19.9411 1.2346 39.1853 5.6174
# 6 6.0254 -19.9817 -0.9250 3.6717 5.6174 38.0649
#
#
#
# Elastic Compliance Matrix: (Units=1/GPa)
#
#
# Indices 1 2 3 4 5 6 
#
# 1 0.088061 -0.015373 -0.026435 -0.025889 -0.010431 -0.018615
# 2 -0.015373 0.010347 0.001141 0.002979 0.000185 0.007578
# 3 -0.026435 0.001141 0.016979 0.008640 -0.000041 0.004369
# 4 -0.025889 0.002979 0.008640 0.034167 0.002832 0.002158
# 5 -0.010431 0.000185 -0.000041 0.002832 0.029714 -0.002911
# 6 -0.018615 0.007578 0.004369 0.002158 -0.002911 0.033523
#
#
# Mechanical properties :
#
#
# Convention : Reuss Voigt Hill
#
# Bulk Modulus (GPa) = 29.36416 80.50509 54.93462
# Shear Modulus (GPa) = 16.36800 35.65860 26.01330
#
# Velocity S-wave (km/s) = 2.75233 4.06242 3.46977
# Velocity P-wave (km/s) = 4.86729 7.69825 6.44025
#
# Compressibility (1/GPa) = 0.03405512
#
# Stress axis : x y z
#
# Youngs Moduli (GPa) = 11.35576 96.64977 58.89600
#
# Poissons Ratio (x) = 1.48576 1.55689
# Poissons Ratio (y) = 0.17457 -0.06723
# Poissons Ratio (z) = 0.30019 -0.11032
#
# Static dielectric constant tensor:
#      x y z
#    x 3.672200 -0.001470 0.034550 
#    y -0.001470 4.679430 0.016410 
#    z 0.034550 0.016410 4.233210 
# 
# 
# High freq. dielectric constant tensor:
#      x y z
#    x 1.824190 0.005360 0.004050 
#    y 0.005360 1.880900 0.000710 
#    z 0.004050 0.000710 1.851610 
# 
# From -- ./inp_files/177858.got.cif
#   From: 2010.06.25/outbox.cif.g09.slc.cpg/sg2_89_cif.got.tgz:177858.got - 2010.06.27 13:26:56.
