data_PCOD8011943
_publ_section_title
;
Structure prediction by ZEFSAII (Michael W. Deem and Ramdas Pophale) SiO2 
 PCOD8011943
Probable space group: P -1
;
_chemical_formula_sum "Si O2"
_cell_formula_units_Z 16
_cell_length_a 9.839372
_cell_length_b 8.988022
_cell_length_c 16.020400
_cell_angle_alpha 105.523344
_cell_angle_beta 144.240171
_cell_angle_gamma 82.821731
_cell_volume 786.980724
_symmetry_space_group_name_H-M "P -1"
_symmetry_group_IT_number 2
_symmetry_cell_setting 'triclinic'
loop_
_space_group_symop_operation_xyz
x,y,z
-x,-y,-z
loop_
_atom_site_type_symbol
_atom_site_label
_atom_site_fract_x
_atom_site_fract_y
_atom_site_fract_z
Si Si1 0.471377 0.582716 0.585927
Si Si2 0.246966 0.442751 0.116812
Si Si3 0.816476 0.901503 0.580484
Si Si4 0.269682 0.069924 0.905405
Si Si5 0.506583 0.415362 0.079860
Si Si6 0.568192 0.928899 0.632205
Si Si7 0.019272 0.422419 0.408955
Si Si8 0.026167 0.092215 0.943943
O O1 0.500000 0.500000 0.500000
O O2 0.610213 0.508072 0.718882
O O3 0.555493 0.770255 0.656062
O O4 0.192668 0.548028 0.460079
O O5 0.403293 0.502047 0.120831
O O6 0.180272 0.258256 0.057149
O O7 0.000000 0.500000 0.000000
O O8 0.642826 0.876539 0.570106
O O9 0.863265 0.734263 0.544958
O O10 0.676066 0.004755 0.466221
O O11 0.071907 0.007573 0.730426
O O12 0.165798 0.005285 0.933046
O O13 0.326561 0.255698 0.954236
O O14 0.500000 0.000000 0.000000
O O15 0.769599 0.386881 0.230523
O O16 0.500000 0.500000 0.000000
O O17 0.758100 0.079886 0.776922
O O18 0.000000 0.500000 0.500000
O O19 0.000000 0.000000 0.000000
#
# Coordination Sequence:
#
# PCOD8011943 Si02
#       8
#     2   2   2   2   2   2   2   2
#     4  12  25  41  69  99 134 181 223 272 336 403
#     4  11  26  43  67 100 134 172 225 277 329 401
#     4  10  22  41  67  96 129 172 219 274 330 392
#     4  10  21  40  65  91 123 166 217 263 324 394
#     4  11  26  44  67  97 134 177 220 277 337 399
#     4  10  22  40  67  98 127 169 224 273 326 395
#     4  12  25  44  67  94 142 178 217 275 340 398
#     4  10  21  39  65  91 126 164 211 270 327 380
#
# _framework density 20.330864999999999
#
# number of rings (size 3 to 8) (size 9 to 14) (size 15 to 20)
#    0.000    1.250    5.000    0.000    5.250    2.000 
#    0.000    0.625    0.000    0.000    0.000    0.000 
#    0.000    0.000    0.000    0.000    0.000    0.000 
#
# Total GULP energy -198212.366844 kJ/mol
# GULP energy per Si atom -12388.272928 kJ/mol
# Density = 2.028459 g / cm^3
# Si number density = 20.330865 Si / 1000 Ang^3
#
#
#
# Elastic Constant Matrix: (Units=GPa)
#
#
# Indices 1 2 3 4 5 6 
#
# 1 131.1038 42.8723 59.1099 -14.5464 1.3508 -0.1723
# 2 42.8723 72.8756 33.6022 -15.0217 -3.6688 -6.6086
# 3 59.1099 33.6022 122.7551 -8.7451 5.2248 -8.9130
# 4 -14.5464 -15.0217 -8.7451 39.4541 -0.0689 7.3180
# 5 1.3508 -3.6688 5.2248 -0.0689 43.0639 -3.9868
# 6 -0.1723 -6.6086 -8.9130 7.3180 -3.9868 37.9511
#
#
#
# Elastic Compliance Matrix: (Units=1/GPa)
#
#
# Indices 1 2 3 4 5 6 
#
# 1 0.011179 -0.004484 -0.004157 0.001884 -0.000421 -0.002114
# 2 -0.004484 0.018799 -0.002613 0.004559 0.002251 0.001997
# 3 -0.004157 -0.002613 0.011033 -0.000469 -0.001239 0.002078
# 4 0.001884 0.004559 -0.000469 0.028566 -0.000014 -0.004818
# 5 -0.000421 0.002251 -0.001239 -0.000014 0.023818 0.002604
# 6 -0.002114 0.001997 0.002078 -0.004818 0.002604 0.028378
#
#
# Mechanical properties :
#
#
# Convention : Reuss Voigt Hill
#
# Bulk Modulus (GPa) = 54.04374 66.43368 60.23871
# Shear Modulus (GPa) = 33.23423 36.83718 35.03571
#
# Velocity S-wave (km/s) = 4.04749 4.26124 4.15574
# Velocity P-wave (km/s) = 6.96295 7.54706 7.26088
#
# Compressibility (1/GPa) = 0.01850353
#
# Stress axis : x y z
#
# Youngs Moduli (GPa) = 89.45633 53.19483 90.63566
#
# Poissons Ratio (x) = 0.23854 0.37674
# Poissons Ratio (y) = 0.40114 0.23680
# Poissons Ratio (z) = 0.37184 0.13898
#
# Static dielectric constant tensor:
#      x y z
#    x 3.815310 0.328290 0.351550 
#    y 0.328290 4.221910 0.717190 
#    z 0.351550 0.717190 4.497880 
# 
# 
# High freq. dielectric constant tensor:
#      x y z
#    x 1.799300 0.000740 0.013740 
#    y 0.000740 1.779950 0.009980 
#    z 0.013740 0.009980 1.811730 
# 
# From -- ./inp_files/282655.got.cif
#   From: 2010.06.25/outbox.cif.g09.slc.cpg/sg2_142_cif.got.tgz:282655.got - 2010.06.27 13:26:56.
