data_PCOD8011060
_publ_section_title
;
Structure prediction by ZEFSAII (Michael W. Deem and Ramdas Pophale) SiO2 
 PCOD8011060
Probable space group: P -1
;
_chemical_formula_sum "Si O2"
_cell_formula_units_Z 14
_cell_length_a 9.498582
_cell_length_b 9.338595
_cell_length_c 18.749509
_cell_angle_alpha 148.915341
_cell_angle_beta 53.719007
_cell_angle_gamma 123.647894
_cell_volume 687.722964
_symmetry_space_group_name_H-M "P -1"
_symmetry_group_IT_number 2
_symmetry_cell_setting 'triclinic'
loop_
_space_group_symop_operation_xyz
x,y,z
-x,-y,-z
loop_
_atom_site_type_symbol
_atom_site_label
_atom_site_fract_x
_atom_site_fract_y
_atom_site_fract_z
Si Si1 0.532967 0.183645 0.973086
Si Si2 0.173633 0.209385 0.650401
Si Si3 0.887114 0.439798 0.580697
Si Si4 0.893471 0.400045 0.921399
Si Si5 0.953511 0.387398 0.245482
Si Si6 0.497198 0.421523 0.230655
Si Si7 0.766441 0.803352 0.026626
O O1 0.738143 0.161115 0.886640
O O2 0.436313 0.264050 0.964313
O O3 0.444165 0.878153 0.892650
O O4 0.509546 0.422112 0.141122
O O5 0.126677 0.333576 0.640004
O O6 0.367190 0.334866 0.672121
O O7 0.023846 0.288055 0.780326
O O8 0.160221 0.877899 0.514664
O O9 0.699949 0.552718 0.672989
O O10 0.000000 0.500000 0.500000
O O11 0.999254 0.591642 0.676200
O O12 0.800211 0.656540 0.028011
O O13 0.000000 0.500000 0.000000
O O14 0.803975 0.132628 0.168982
O O15 0.123388 0.315732 0.121025
#
# Coordination Sequence:
#
# PCOD8011060 Si02
#       7
#     2   2   2   2   2   2   2
#     4  11  21  39  63  97 128 158 208 264 317 368
#     4  11  23  44  62  92 128 172 209 253 317 384
#     4  12  26  42  65  91 129 169 214 260 312 376
#     4  11  23  36  65  99 127 158 207 269 315 365
#     4  10  22  41  66  92 122 170 213 255 315 375
#     4  11  23  39  66  91 125 168 210 257 314 376
#     4  10  21  38  66  93 129 161 206 263 319 370
#
# _framework density 20.357036999999998
#
# number of rings (size 3 to 8) (size 9 to 14) (size 15 to 20)
#    0.000    1.143    4.286    2.143    4.000    0.000 
#    0.000    0.714    0.000    0.000    0.000    0.000 
#    0.000    0.000    0.000    0.000    0.000    0.000 
#
# Total GULP energy -173565.834823 kJ/mol
# GULP energy per Si atom -12397.559630 kJ/mol
# Density = 2.031070 g / cm^3
# Si number density = 20.357037 Si / 1000 Ang^3
#
#
#
# Elastic Constant Matrix: (Units=GPa)
#
#
# Indices 1 2 3 4 5 6 
#
# 1 152.5680 39.3051 43.7389 -12.7974 19.7229 6.0306
# 2 39.3051 79.2869 29.7499 -7.2306 9.2862 1.8340
# 3 43.7389 29.7499 62.8795 3.7320 0.9880 -9.0527
# 4 -12.7974 -7.2306 3.7320 33.0123 -0.4632 -3.4125
# 5 19.7229 9.2862 0.9880 -0.4632 29.1861 -4.2032
# 6 6.0306 1.8340 -9.0527 -3.4125 -4.2032 37.3970
#
#
#
# Elastic Compliance Matrix: (Units=1/GPa)
#
#
# Indices 1 2 3 4 5 6 
#
# 1 0.010322 -0.001097 -0.007341 0.004104 -0.006857 -0.003784
# 2 -0.001097 0.017081 -0.007868 0.003854 -0.004762 -0.002749
# 3 -0.007341 -0.007868 0.026178 -0.006577 0.007650 0.008166
# 4 0.004104 0.003854 -0.006577 0.033451 -0.003210 0.000249
# 5 -0.006857 -0.004762 0.007650 -0.003210 0.041186 0.007527
# 6 -0.003784 -0.002749 0.008166 0.000249 0.007527 0.030331
#
#
# Mechanical properties :
#
#
# Convention : Reuss Voigt Hill
#
# Bulk Modulus (GPa) = 47.69081 57.81359 52.75220
# Shear Modulus (GPa) = 25.23305 32.04844 28.64074
#
# Velocity S-wave (km/s) = 3.52451 3.97207 3.75496
# Velocity P-wave (km/s) = 6.32779 7.03548 6.69100
#
# Compressibility (1/GPa) = 0.02096840
#
# Stress axis : x y z
#
# Youngs Moduli (GPa) = 96.87929 58.54302 38.19929
#
# Poissons Ratio (x) = 0.06425 0.28044
# Poissons Ratio (y) = 0.10632 0.30055
# Poissons Ratio (z) = 0.71123 0.46061
#
# Static dielectric constant tensor:
#      x y z
#    x 3.874640 -0.165380 -0.053450 
#    y -0.165380 3.882180 0.181820 
#    z -0.053450 0.181820 3.505610 
# 
# 
# High freq. dielectric constant tensor:
#      x y z
#    x 1.816080 -0.002150 0.003320 
#    y -0.002150 1.796440 0.010150 
#    z 0.003320 0.010150 1.778140 
# 
# From -- ./inp_files/156980.got.cif
#   From: 2010.06.25/outbox.cif.g09.slc.cpg/sg2_79_cif.got.tgz:156980.got - 2010.06.27 13:26:56.
