data_PCOD8011462
_publ_section_title
;
Structure prediction by ZEFSAII (Michael W. Deem and Ramdas Pophale) SiO2 
 PCOD8011462
Probable space group: P -1
;
_chemical_formula_sum "Si O2"
_cell_formula_units_Z 16
_cell_length_a 5.879422
_cell_length_b 23.397070
_cell_length_c 11.911731
_cell_angle_alpha 31.778835
_cell_angle_beta 113.676412
_cell_angle_gamma 123.948354
_cell_volume 705.745648
_symmetry_space_group_name_H-M "P -1"
_symmetry_group_IT_number 2
_symmetry_cell_setting 'triclinic'
loop_
_space_group_symop_operation_xyz
x,y,z
-x,-y,-z
loop_
_atom_site_type_symbol
_atom_site_label
_atom_site_fract_x
_atom_site_fract_y
_atom_site_fract_z
Si Si1 0.524126 0.670981 0.237171
Si Si2 0.274838 0.987431 0.725548
Si Si3 0.041408 0.881995 0.075444
Si Si4 0.872729 0.091317 0.706620
Si Si5 0.186864 0.209722 0.367443
Si Si6 0.111973 0.757155 0.943625
Si Si7 0.595278 0.526808 0.296242
Si Si8 0.661146 0.457552 0.007691
O O1 0.845132 0.754243 0.191151
O O2 0.461375 0.576156 0.282596
O O3 0.390182 0.594121 0.453026
O O4 0.411308 0.765456 0.015392
O O5 0.091467 0.869888 0.811080
O O6 0.594952 0.060375 0.631575
O O7 0.135735 0.077430 0.535182
O O8 0.287735 0.949856 0.921657
O O9 0.141313 0.857374 0.257642
O O10 0.886733 0.964577 0.930397
O O11 0.122085 0.198252 0.507349
O O12 0.963849 0.241435 0.204642
O O13 0.502267 0.310613 0.234347
O O14 0.904955 0.627451 0.168621
O O15 0.401911 0.496852 0.198579
O O16 0.500000 0.500000 0.000000
O O17 0.000000 0.500000 0.000000
#
# Coordination Sequence:
#
# PCOD8011462 Si02
#       8
#     2   2   2   2   2   2   2   2
#     4  11  22  42  68  95 132 183 231 292 350 414
#     4  11  21  40  64 100 132 179 222 286 353 415
#     4  10  21  39  61  93 133 171 228 274 346 411
#     4  10  22  40  62  95 132 176 222 279 342 417
#     4  10  26  41  68  99 134 175 232 283 348 428
#     4  11  22  42  65  94 136 176 225 287 351 417
#     4  10  25  43  68 100 134 175 242 287 346 424
#     4  11  28  51  75 106 144 188 233 294 360 425
#
# _framework density 22.671060000000001
#
# number of rings (size 3 to 8) (size 9 to 14) (size 15 to 20)
#    0.000    1.500    2.500    1.125    7.000    1.500 
#    0.000    0.000    0.000    0.000    0.000    0.000 
#    0.000    0.000    0.000    0.000    0.000    0.000 
#
# Total GULP energy -198229.662696 kJ/mol
# GULP energy per Si atom -12389.353918 kJ/mol
# Density = 2.261946 g / cm^3
# Si number density = 22.671060 Si / 1000 Ang^3
#
#
#
# Elastic Constant Matrix: (Units=GPa)
#
#
# Indices 1 2 3 4 5 6 
#
# 1 66.2454 27.5758 21.9774 2.2341 -4.1874 4.5716
# 2 27.5758 107.6279 40.2574 10.3190 -4.4727 2.2380
# 3 21.9774 40.2574 122.5935 8.9982 -10.3836 0.4087
# 4 2.2341 10.3190 8.9982 32.1355 -1.5954 -3.0582
# 5 -4.1874 -4.4727 -10.3836 -1.5954 27.7337 -0.6037
# 6 4.5716 2.2380 0.4087 -3.0582 -0.6037 34.0318
#
#
#
# Elastic Compliance Matrix: (Units=1/GPa)
#
#
# Indices 1 2 3 4 5 6 
#
# 1 0.017462 -0.003734 -0.001811 0.000366 0.001333 -0.002022
# 2 -0.003734 0.011618 -0.002943 -0.002689 0.000043 -0.000468
# 3 -0.001811 -0.002943 0.009799 -0.001509 0.002839 0.000234
# 4 0.000366 -0.002689 -0.001509 0.032724 0.001006 0.003104
# 5 0.001333 0.000043 0.002839 0.001006 0.037398 0.000538
# 6 -0.002022 -0.000468 0.000234 0.003104 0.000538 0.029972
#
#
# Mechanical properties :
#
#
# Convention : Reuss Voigt Hill
#
# Bulk Modulus (GPa) = 45.65870 52.89865 49.27867
# Shear Modulus (GPa) = 30.62749 32.55729 31.59239
#
# Velocity S-wave (km/s) = 3.67952 3.79367 3.73703
# Velocity P-wave (km/s) = 6.18346 6.52480 6.35642
#
# Compressibility (1/GPa) = 0.02190163
#
# Stress axis : x y z
#
# Youngs Moduli (GPa) = 57.26651 86.07131 102.05413
#
# Poissons Ratio (x) = 0.32140 0.18486
# Poissons Ratio (y) = 0.21384 0.30037
# Poissons Ratio (z) = 0.10373 0.25332
#
# Static dielectric constant tensor:
#      x y z
#    x 3.854800 -0.082950 -0.184690 
#    y -0.082950 4.036780 0.041180 
#    z -0.184690 0.041180 4.259400 
# 
# 
# High freq. dielectric constant tensor:
#      x y z
#    x 1.870920 -0.000320 -0.012210 
#    y -0.000320 1.894260 0.002660 
#    z -0.012210 0.002660 1.906480 
# 
# From -- ./inp_files/69772.got.cif
#   From: 2010.06.25/outbox.cif.g09.slc.cpg/sg2_35_cif.got.tgz:69772.got - 2010.06.27 13:26:56.
