data_PCOD8011603
_publ_section_title
;
Structure prediction by ZEFSAII (Michael W. Deem and Ramdas Pophale) SiO2 
 PCOD8011603
Probable space group: P -1
;
_chemical_formula_sum "Si O2"
_cell_formula_units_Z 14
_cell_length_a 8.908561
_cell_length_b 15.176671
_cell_length_c 15.815916
_cell_angle_alpha 28.214630
_cell_angle_beta 125.081516
_cell_angle_gamma 105.856220
_cell_volume 660.081157
_symmetry_space_group_name_H-M "P -1"
_symmetry_group_IT_number 2
_symmetry_cell_setting 'triclinic'
loop_
_space_group_symop_operation_xyz
x,y,z
-x,-y,-z
loop_
_atom_site_type_symbol
_atom_site_label
_atom_site_fract_x
_atom_site_fract_y
_atom_site_fract_z
Si Si1 0.192378 0.999321 0.197378
Si Si2 0.436731 0.171361 0.410776
Si Si3 0.292664 0.624993 0.892854
Si Si4 0.778421 0.942821 0.417100
Si Si5 0.055031 0.210808 0.734422
Si Si6 0.505882 0.877585 0.254971
Si Si7 0.096673 0.523245 0.376598
O O1 0.319203 0.913717 0.399993
O O2 0.373891 0.842948 0.313920
O O3 0.988152 0.974204 0.151160
O O4 0.087949 0.270126 0.921071
O O5 0.285174 0.155003 0.443787
O O6 0.500000 0.000000 0.500000
O O7 0.298934 0.437251 0.111387
O O8 0.053519 0.773985 0.637751
O O9 0.311301 0.794115 0.816008
O O10 0.500000 0.500000 0.000000
O O11 0.661516 0.945066 0.290304
O O12 0.007648 0.372466 0.502183
O O13 0.883734 0.365138 0.626081
O O14 0.319128 0.080662 0.958915
O O15 0.660958 0.636948 0.457040
#
# Coordination Sequence:
#
# PCOD8011603 Si02
#       7
#     2   2   2   2   2   2   2
#     4  10  24  40  59  93 124 160 209 252 301 374
#     4  11  23  42  65  91 128 166 207 256 318 365
#     4  11  23  42  67  88 126 165 209 263 306 368
#     4  10  24  42  62  97 126 163 212 255 313 372
#     4  10  22  40  61  92 124 158 209 247 303 376
#     4  10  21  39  64  91 125 161 203 252 309 367
#     4  10  21  39  63  85 126 165 194 258 306 356
#
# _framework density 21.209513000000001
#
# number of rings (size 3 to 8) (size 9 to 14) (size 15 to 20)
#    0.000    1.714    1.429    2.571    2.000    9.143 
#    0.000    0.000    0.000    0.000    0.000    0.000 
#    0.000    0.000    0.000    0.000    0.000    0.000 
#
# Total GULP energy -173607.864245 kJ/mol
# GULP energy per Si atom -12400.561732 kJ/mol
# Density = 2.116124 g / cm^3
# Si number density = 21.209513 Si / 1000 Ang^3
#
#
#
# Elastic Constant Matrix: (Units=GPa)
#
#
# Indices 1 2 3 4 5 6 
#
# 1 81.7972 49.2660 49.3093 -10.2278 14.2004 5.8684
# 2 49.2660 101.8015 68.8644 0.7060 14.9586 11.0433
# 3 49.3093 68.8644 135.2525 -13.4837 5.5507 5.1391
# 4 -10.2278 0.7060 -13.4837 29.4885 2.5444 10.1436
# 5 14.2004 14.9586 5.5507 2.5444 40.4335 -7.1188
# 6 5.8684 11.0433 5.1391 10.1436 -7.1188 37.0707
#
#
#
# Elastic Compliance Matrix: (Units=1/GPa)
#
#
# Indices 1 2 3 4 5 6 
#
# 1 0.020109 -0.006673 -0.002797 0.007676 -0.005387 -0.003942
# 2 -0.006673 0.019035 -0.007464 -0.004810 -0.003901 -0.003012
# 3 -0.002797 -0.007464 0.012634 0.004872 0.001686 -0.000095
# 4 0.007676 -0.004810 0.004872 0.044281 -0.006816 -0.013883
# 5 -0.005387 -0.003901 0.001686 -0.006816 0.029918 0.009391
# 6 -0.003942 -0.003012 -0.000095 -0.013883 0.009391 0.034112
#
#
# Mechanical properties :
#
#
# Convention : Reuss Voigt Hill
#
# Bulk Modulus (GPa) = 55.83889 72.63674 64.23782
# Shear Modulus (GPa) = 25.00922 31.49264 28.25093
#
# Velocity S-wave (km/s) = 3.43760 3.85754 3.65361
# Velocity P-wave (km/s) = 6.49158 7.35951 6.93913
#
# Compressibility (1/GPa) = 0.01790867
#
# Stress axis : x y z
#
# Youngs Moduli (GPa) = 49.72984 52.53524 79.15340
#
# Poissons Ratio (x) = 0.35058 0.22141
# Poissons Ratio (y) = 0.33186 0.59078
# Poissons Ratio (z) = 0.13910 0.39211
#
# Static dielectric constant tensor:
#      x y z
#    x 3.797920 0.012750 -0.000930 
#    y 0.012750 3.815920 -0.009430 
#    z -0.000930 -0.009430 3.932220 
# 
# 
# High freq. dielectric constant tensor:
#      x y z
#    x 1.827910 -0.000280 0.000980 
#    y -0.000280 1.826350 -0.004030 
#    z 0.000980 -0.004030 1.836820 
# 
# From -- ./inp_files/503694.got.cif
#   From: 2010.06.25/outbox.cif.g09.slc.cpg/sg2_252_cif.got.tgz:503694.got - 2010.06.27 13:26:56.
