data_PCOD8011645
_publ_section_title
;
Structure prediction by ZEFSAII (Michael W. Deem and Ramdas Pophale) SiO2 
 PCOD8011645
Probable space group: P -1
;
_chemical_formula_sum "Si O2"
_cell_formula_units_Z 16
_cell_length_a 15.028579
_cell_length_b 8.693039
_cell_length_c 11.700874
_cell_angle_alpha 92.323309
_cell_angle_beta 68.678445
_cell_angle_gamma 40.019075
_cell_volume 775.068711
_symmetry_space_group_name_H-M "P -1"
_symmetry_group_IT_number 2
_symmetry_cell_setting 'triclinic'
loop_
_space_group_symop_operation_xyz
x,y,z
-x,-y,-z
loop_
_atom_site_type_symbol
_atom_site_label
_atom_site_fract_x
_atom_site_fract_y
_atom_site_fract_z
Si Si1 0.205854 0.048389 0.411973
Si Si2 0.841923 0.222513 0.230953
Si Si3 0.671251 0.168096 0.395766
Si Si4 0.572105 0.763509 0.531957
Si Si5 0.197395 0.410637 0.383037
Si Si6 0.221460 0.711691 0.988597
Si Si7 0.620055 0.697826 0.902807
Si Si8 0.511194 0.536083 0.866696
O O1 0.248408 0.161823 0.351361
O O2 0.004120 0.285522 0.480382
O O3 0.242181 0.994301 0.528657
O O4 0.323934 0.763148 0.284115
O O5 0.811229 0.078934 0.255231
O O6 0.721226 0.476503 0.381487
O O7 0.811527 0.322878 0.118996
O O8 0.045909 0.985695 0.151016
O O9 0.500000 0.500000 0.500000
O O10 0.598356 0.115294 0.361410
O O11 0.664672 0.690144 0.602453
O O12 0.500000 0.000000 0.500000
O O13 0.216802 0.452730 0.247885
O O14 0.328494 0.722511 0.905548
O O15 0.330577 0.445629 0.005063
O O16 0.526211 0.700375 0.862464
O O17 0.500000 0.000000 0.000000
O O18 0.500000 0.500000 0.000000
#
# Coordination Sequence:
#
# PCOD8011645 Si02
#       8
#     2   2   2   2   2   2   2   2
#     4  11  23  43  62  96 131 169 215 266 326 377
#     4  10  23  40  67  89 127 166 215 266 309 387
#     4  10  21  39  63  90 126 167 211 258 313 382
#     4  11  23  39  64  98 129 168 210 265 330 381
#     4  11  25  39  66  96 134 165 211 278 319 379
#     4  10  22  44  62  92 123 172 216 257 317 377
#     4  11  25  41  63  92 128 169 212 260 320 382
#     4  10  22  38  65  84 124 169 211 254 311 388
#
# _framework density 20.643332999999998
#
# number of rings (size 3 to 8) (size 9 to 14) (size 15 to 20)
#    0.000    1.500    1.250    3.750   10.500    0.500 
#    0.000    0.000    0.000    3.000    0.000    0.000 
#    0.000    0.000    0.000    0.000    0.000    0.000 
#
# Total GULP energy -198278.190212 kJ/mol
# GULP energy per Si atom -12392.386888 kJ/mol
# Density = 2.059635 g / cm^3
# Si number density = 20.643333 Si / 1000 Ang^3
#
#
#
# Elastic Constant Matrix: (Units=GPa)
#
#
# Indices 1 2 3 4 5 6 
#
# 1 128.1556 60.2103 44.0939 13.8434 -8.5656 12.6644
# 2 60.2103 88.8454 24.2553 2.0096 -10.4461 3.3207
# 3 44.0939 24.2553 92.8232 8.1475 -11.0240 10.4604
# 4 13.8434 2.0096 8.1475 39.0009 0.1978 2.0217
# 5 -8.5656 -10.4461 -11.0240 0.1978 33.5036 -3.7848
# 6 12.6644 3.3207 10.4604 2.0217 -3.7848 36.2269
#
#
#
# Elastic Compliance Matrix: (Units=1/GPa)
#
#
# Indices 1 2 3 4 5 6 
#
# 1 0.013448 -0.007974 -0.003762 -0.003431 -0.000577 -0.002753
# 2 -0.007974 0.017115 -0.000657 0.001984 0.003255 0.001638
# 3 -0.003762 -0.000657 0.013448 -0.001346 0.003027 -0.002116
# 4 -0.003431 0.001984 -0.001346 0.027052 -0.000883 -0.000196
# 5 -0.000577 0.003255 0.003027 -0.000883 0.031990 0.002420
# 6 -0.002753 0.001638 -0.002116 -0.000196 0.002420 0.029291
#
#
# Mechanical properties :
#
#
# Convention : Reuss Voigt Hill
#
# Bulk Modulus (GPa) = 52.01111 62.99371 57.50241
# Shear Modulus (GPa) = 30.57434 33.83060 32.20247
#
# Velocity S-wave (km/s) = 3.85265 4.05262 3.95390
# Velocity P-wave (km/s) = 6.71121 7.24430 6.98284
#
# Compressibility (1/GPa) = 0.01922666
#
# Stress axis : x y z
#
# Youngs Moduli (GPa) = 74.36276 58.42757 74.36179
#
# Poissons Ratio (x) = 0.46589 0.27971
# Poissons Ratio (y) = 0.59295 0.04883
# Poissons Ratio (z) = 0.27972 0.03837
#
# Static dielectric constant tensor:
#      x y z
#    x 4.374800 0.190480 -0.283440 
#    y 0.190480 3.703690 -0.253500 
#    z -0.283440 -0.253500 3.777500 
# 
# 
# High freq. dielectric constant tensor:
#      x y z
#    x 1.817940 -0.004730 -0.015340 
#    y -0.004730 1.804100 -0.014680 
#    z -0.015340 -0.014680 1.808030 
# 
# From -- ./inp_files/447498.got.cif
#   From: 2010.06.25/outbox.cif.g09.slc.cpg/sg2_224_cif.got.tgz:447498.got - 2010.06.27 13:26:56.
