data_PCOD8011937
_publ_section_title
;
Structure prediction by ZEFSAII (Michael W. Deem and Ramdas Pophale) SiO2 
 PCOD8011937
Probable space group: P -1
;
_chemical_formula_sum "Si O2"
_cell_formula_units_Z 12
_cell_length_a 11.518041
_cell_length_b 7.033048
_cell_length_c 7.472168
_cell_angle_alpha 107.402598
_cell_angle_beta 78.454390
_cell_angle_gamma 118.528340
_cell_volume 506.273525
_symmetry_space_group_name_H-M "P -1"
_symmetry_group_IT_number 2
_symmetry_cell_setting 'triclinic'
loop_
_space_group_symop_operation_xyz
x,y,z
-x,-y,-z
loop_
_atom_site_type_symbol
_atom_site_label
_atom_site_fract_x
_atom_site_fract_y
_atom_site_fract_z
Si Si1 0.379321 0.169508 0.609348
Si Si2 0.649663 0.504716 0.686029
Si Si3 0.741966 0.355149 0.960788
Si Si4 0.130179 0.161309 0.811260
Si Si5 0.839548 0.990391 0.859291
Si Si6 0.410114 0.794842 0.690680
O O1 0.488540 0.414513 0.717416
O O2 0.237145 0.169052 0.631550
O O3 0.434104 0.127081 0.388377
O O4 0.370769 0.989171 0.706580
O O5 0.690809 0.380778 0.790977
O O6 0.723513 0.769044 0.749466
O O7 0.681383 0.424169 0.461888
O O8 0.814771 0.199955 0.877391
O O9 0.847406 0.593789 0.068709
O O10 0.615971 0.250158 0.103953
O O11 0.151662 0.031201 0.936570
O O12 0.981769 0.031259 0.743053
#
# Coordination Sequence:
#
# PCOD8011937 Si02
#       6
#     2   2   2   2   2   2
#     4   9  19  43  61  91 132 161 203 264 318 358
#     4   9  22  42  63  98 122 161 213 264 302 374
#     4  11  21  39  68  95 119 173 206 254 321 369
#     4  10  21  39  65  90 129 170 201 259 315 375
#     4  10  21  40  63  94 128 162 214 257 307 375
#     4   9  20  42  63  93 130 160 205 266 311 369
#
# _framework density 23.702603
#
# number of rings (size 3 to 8) (size 9 to 14) (size 15 to 20)
#    1.000    1.333    1.667    0.500    0.000    4.000 
#    6.000    1.667    0.000    0.000    0.000    0.000 
#    0.000    0.000    0.000    0.000    0.000    0.000 
#
# Total GULP energy -148706.440753 kJ/mol
# GULP energy per Si atom -12392.203396 kJ/mol
# Density = 2.364865 g / cm^3
# Si number density = 23.702603 Si / 1000 Ang^3
#
#
#
# Elastic Constant Matrix: (Units=GPa)
#
#
# Indices 1 2 3 4 5 6 
#
# 1 136.7000 56.0229 46.6026 -7.8501 -36.4702 4.4637
# 2 56.0229 92.8960 11.8132 -4.5243 -12.2090 -5.3772
# 3 46.6026 11.8132 46.4632 -3.2959 -10.5337 -4.2935
# 4 -7.8501 -4.5243 -3.2959 22.0397 -6.8983 2.2800
# 5 -36.4702 -12.2090 -10.5337 -6.8983 27.1653 -6.2757
# 6 4.4637 -5.3772 -4.2935 2.2800 -6.2757 38.0959
#
#
#
# Elastic Compliance Matrix: (Units=1/GPa)
#
#
# Indices 1 2 3 4 5 6 
#
# 1 0.022857 -0.008348 -0.014813 0.011860 0.023661 -0.002338
# 2 -0.008348 0.015167 0.004360 -0.000170 -0.001983 0.003294
# 3 -0.014813 0.004360 0.035034 -0.000741 -0.003186 0.005819
# 4 0.011860 -0.000170 -0.000741 0.059011 0.030544 0.000003
# 5 0.023661 -0.001983 -0.003186 0.030544 0.075884 0.007261
# 6 -0.002338 0.003294 0.005819 0.000003 0.007261 0.028840
#
#
# Mechanical properties :
#
#
# Convention : Reuss Voigt Hill
#
# Bulk Modulus (GPa) = 28.20508 56.10408 42.15458
# Shear Modulus (GPa) = 17.46944 28.23488 22.85216
#
# Velocity S-wave (km/s) = 2.71777 3.45514 3.10840
# Velocity P-wave (km/s) = 4.66624 6.29593 5.54132
#
# Compressibility (1/GPa) = 0.03545461
#
# Stress axis : x y z
#
# Youngs Moduli (GPa) = 43.75104 65.93359 28.54362
#
# Poissons Ratio (x) = 0.55045 0.42282
# Poissons Ratio (y) = 0.36526 -0.12446
# Poissons Ratio (z) = 0.64809 -0.28748
#
# Static dielectric constant tensor:
#      x y z
#    x 4.039930 0.003640 -0.045500 
#    y 0.003640 4.474770 -0.059580 
#    z -0.045500 -0.059580 3.955030 
# 
# 
# High freq. dielectric constant tensor:
#      x y z
#    x 1.927320 -0.015390 -0.001660 
#    y -0.015390 1.955460 -0.007710 
#    z -0.001660 -0.007710 1.917110 
# 
# From -- ./inp_files/232374.got.cif
#   From: 2010.06.25/outbox.cif.g09.slc.cpg/sg2_117_cif.got.tgz:232374.got - 2010.06.27 13:26:56.
