data_PCOD8011998
_publ_section_title
;
Structure prediction by ZEFSAII (Michael W. Deem and Ramdas Pophale) SiO2 
 PCOD8011998
Probable space group: P -1
;
_chemical_formula_sum "Si O2"
_cell_formula_units_Z 14
_cell_length_a 9.364343
_cell_length_b 14.405372
_cell_length_c 8.715614
_cell_angle_alpha 59.022908
_cell_angle_beta 78.254628
_cell_angle_gamma 46.034677
_cell_volume 702.653845
_symmetry_space_group_name_H-M "P -1"
_symmetry_group_IT_number 2
_symmetry_cell_setting 'triclinic'
loop_
_space_group_symop_operation_xyz
x,y,z
-x,-y,-z
loop_
_atom_site_type_symbol
_atom_site_label
_atom_site_fract_x
_atom_site_fract_y
_atom_site_fract_z
Si Si1 0.364975 0.890317 0.792610
Si Si2 0.345078 0.545456 0.774709
Si Si3 0.594629 0.606881 0.807983
Si Si4 0.648194 0.237918 0.815941
Si Si5 0.021774 0.596358 0.318184
Si Si6 0.958067 0.222418 0.597624
Si Si7 0.590922 0.840845 0.060653
O O1 0.467492 0.784523 0.709058
O O2 0.186711 0.066341 0.636416
O O3 0.269466 0.845944 0.963687
O O4 0.546619 0.856962 0.874099
O O5 0.432139 0.608568 0.774591
O O6 0.496756 0.418234 0.721274
O O7 0.131922 0.680766 0.621134
O O8 0.310599 0.477845 0.976421
O O9 0.776200 0.527126 0.718714
O O10 0.524920 0.201250 0.795328
O O11 0.829666 0.184017 0.712844
O O12 0.039074 0.692187 0.339542
O O13 0.831789 0.710668 0.148337
O O14 0.000000 0.500000 0.500000
O O15 0.500000 0.000000 0.000000
#
# Coordination Sequence:
#
# PCOD8011998 Si02
#       7
#     2   2   2   2   2   2   2
#     4   9  22  39  62  92 129 167 201 259 319 368
#     4  10  21  39  65  95 126 163 208 268 309 366
#     4  10  23  43  62  89 135 163 206 257 327 371
#     4   9  19  37  64  92 124 164 208 263 297 370
#     4  12  25  40  68  96 120 171 214 259 309 376
#     4  12  21  39  68  95 123 162 224 257 303 370
#     4  10  21  41  60  92 133 162 212 250 321 365
#
# _framework density 19.924461000000001
#
# number of rings (size 3 to 8) (size 9 to 14) (size 15 to 20)
#    0.857    0.857    2.857    1.714    2.000    1.143 
#    0.000    2.143    0.000    0.000    0.000    0.000 
#    0.000    0.000    0.000    0.000    0.000    0.000 
#
# Total GULP energy -173538.054703 kJ/mol
# GULP energy per Si atom -12395.575336 kJ/mol
# Density = 1.987911 g / cm^3
# Si number density = 19.924461 Si / 1000 Ang^3
#
#
#
# Elastic Constant Matrix: (Units=GPa)
#
#
# Indices 1 2 3 4 5 6 
#
# 1 89.0416 48.0572 23.4567 4.6270 15.3705 16.3259
# 2 48.0572 162.5986 54.2713 -5.3645 10.9974 13.2901
# 3 23.4567 54.2713 78.5874 -15.3052 20.9751 -8.4216
# 4 4.6270 -5.3645 -15.3052 27.6738 -9.4473 3.5333
# 5 15.3705 10.9974 20.9751 -9.4473 27.5188 -3.2244
# 6 16.3259 13.2901 -8.4216 3.5333 -3.2244 34.5660
#
#
#
# Elastic Compliance Matrix: (Units=1/GPa)
#
#
# Indices 1 2 3 4 5 6 
#
# 1 0.017046 -0.003145 -0.002551 -0.007203 -0.009686 -0.007630
# 2 -0.003145 0.009400 -0.006630 0.000035 0.002655 -0.003500
# 3 -0.002551 -0.006630 0.023011 0.007475 -0.010001 0.007663
# 4 -0.007203 0.000035 0.007475 0.046152 0.014371 0.001833
# 5 -0.009686 0.002655 -0.010001 0.014371 0.053791 0.004666
# 6 -0.007630 -0.003500 0.007663 0.001833 0.004666 0.035995
#
#
# Mechanical properties :
#
#
# Convention : Reuss Voigt Hill
#
# Bulk Modulus (GPa) = 40.31518 64.64422 52.47970
# Shear Modulus (GPa) = 22.90276 31.58122 27.24199
#
# Velocity S-wave (km/s) = 3.39408 3.98558 3.70166
# Velocity P-wave (km/s) = 5.96972 7.32768 6.68328
#
# Compressibility (1/GPa) = 0.02480456
#
# Stress axis : x y z
#
# Youngs Moduli (GPa) = 58.66585 106.38023 43.45806
#
# Poissons Ratio (x) = 0.33461 0.11085
# Poissons Ratio (y) = 0.18453 0.28812
# Poissons Ratio (z) = 0.14964 0.70528
#
# Static dielectric constant tensor:
#      x y z
#    x 3.736970 0.070410 0.215820 
#    y 0.070410 3.669740 -0.224070 
#    z 0.215820 -0.224070 3.555830 
# 
# 
# High freq. dielectric constant tensor:
#      x y z
#    x 1.775190 0.014780 0.010200 
#    y 0.014780 1.776260 -0.016420 
#    z 0.010200 -0.016420 1.761330 
# 
# From -- ./inp_files/206300.got.cif
#   From: 2010.06.25/outbox.cif.g09.slc.cpg/sg2_104_cif.got.tgz:206300.got - 2010.06.27 13:26:56.
