data_PCOD8011901
_publ_section_title
;
Structure prediction by ZEFSAII (Michael W. Deem and Ramdas Pophale) SiO2 
 PCOD8011901
Probable space group: P -1
;
_chemical_formula_sum "Si O2"
_cell_formula_units_Z 14
_cell_length_a 11.145335
_cell_length_b 8.041867
_cell_length_c 8.809401
_cell_angle_alpha 74.227115
_cell_angle_beta 58.291568
_cell_angle_gamma 67.715817
_cell_volume 618.911743
_symmetry_space_group_name_H-M "P -1"
_symmetry_group_IT_number 2
_symmetry_cell_setting 'triclinic'
loop_
_space_group_symop_operation_xyz
x,y,z
-x,-y,-z
loop_
_atom_site_type_symbol
_atom_site_label
_atom_site_fract_x
_atom_site_fract_y
_atom_site_fract_z
Si Si1 0.771731 0.257233 0.062745
Si Si2 0.552295 0.233955 0.467040
Si Si3 0.737770 0.975780 0.924375
Si Si4 0.022246 0.667759 0.857791
Si Si5 0.649754 0.543844 0.853306
Si Si6 0.710114 0.458767 0.501423
Si Si7 0.573954 0.968894 0.758287
O O1 0.626486 0.239991 0.252444
O O2 0.905431 0.218609 0.102198
O O3 0.751342 0.455558 0.952597
O O4 0.799977 0.117081 0.940083
O O5 0.616621 0.332712 0.531196
O O6 0.378758 0.334693 0.536592
O O7 0.582503 0.028480 0.561879
O O8 0.683450 0.045310 0.772905
O O9 0.867944 0.791762 0.869566
O O10 0.595412 0.938787 0.105996
O O11 0.126817 0.596497 0.662089
O O12 0.000000 0.500000 0.000000
O O13 0.724338 0.441638 0.677420
O O14 0.625358 0.755162 0.801133
O O15 0.500000 0.500000 0.000000
#
# Coordination Sequence:
#
# PCOD8011901 Si02
#       7
#     2   2   2   2   2   2   2
#     4  11  23  43  69  94 132 171 216 272 328 383
#     4  10  21  39  65 101 125 166 218 274 324 378
#     4  11  23  41  63  95 129 171 216 263 326 383
#     4  11  24  43  64  96 135 177 214 263 329 394
#     4  12  22  42  66  97 128 169 216 272 325 379
#     4  10  22  39  67  93 136 168 215 269 327 386
#     4  11  24  39  70  97 128 165 227 271 318 386
#
# _framework density 22.620350999999999
#
# number of rings (size 3 to 8) (size 9 to 14) (size 15 to 20)
#    0.000    1.143    2.857    3.000    2.000    3.429 
#    0.000   10.714    0.000    0.000    0.000    0.000 
#    0.000    0.000    0.000    0.000    0.000    0.000 
#
# Total GULP energy -173555.067653 kJ/mol
# GULP energy per Si atom -12396.790547 kJ/mol
# Density = 2.256887 g / cm^3
# Si number density = 22.620351 Si / 1000 Ang^3
#
#
#
# Elastic Constant Matrix: (Units=GPa)
#
#
# Indices 1 2 3 4 5 6 
#
# 1 80.1774 25.6626 46.4888 11.5247 2.9681 -19.9366
# 2 25.6626 116.3068 61.2239 -10.1498 -2.0523 -24.6236
# 3 46.4888 61.2239 142.2077 -0.7560 19.1770 -18.1288
# 4 11.5247 -10.1498 -0.7560 40.4244 -8.1623 5.1370
# 5 2.9681 -2.0523 19.1770 -8.1623 36.4101 4.1697
# 6 -19.9366 -24.6236 -18.1288 5.1370 4.1697 37.6823
#
#
#
# Elastic Compliance Matrix: (Units=1/GPa)
#
#
# Indices 1 2 3 4 5 6 
#
# 1 0.018384 -0.000535 -0.004538 -0.006844 -0.001624 0.008306
# 2 -0.000535 0.012836 -0.005241 0.003440 0.003761 0.004698
# 3 -0.004538 -0.005241 0.011723 -0.001192 -0.006446 0.000690
# 4 -0.006844 0.003440 -0.001192 0.030238 0.008967 -0.007061
# 5 -0.001624 0.003761 -0.006446 0.008967 0.033957 -0.006483
# 6 0.008306 0.004698 0.000690 -0.007061 -0.006483 0.036014
#
#
# Mechanical properties :
#
#
# Convention : Reuss Voigt Hill
#
# Bulk Modulus (GPa) = 44.81366 67.27137 56.04251
# Shear Modulus (GPa) = 29.20228 36.59112 32.89670
#
# Velocity S-wave (km/s) = 3.59691 4.02633 3.81766
# Velocity P-wave (km/s) = 6.09135 7.17070 6.65295
#
# Compressibility (1/GPa) = 0.02231463
#
# Stress axis : x y z
#
# Youngs Moduli (GPa) = 54.39465 77.90441 85.30297
#
# Poissons Ratio (x) = 0.04167 0.38711
# Poissons Ratio (y) = 0.02909 0.44711
# Poissons Ratio (z) = 0.24685 0.40833
#
# Static dielectric constant tensor:
#      x y z
#    x 4.392230 -0.178590 0.393680 
#    y -0.178590 4.162300 -0.163880 
#    z 0.393680 -0.163880 4.028840 
# 
# 
# High freq. dielectric constant tensor:
#      x y z
#    x 1.896050 -0.000770 0.025170 
#    y -0.000770 1.892080 -0.003430 
#    z 0.025170 -0.003430 1.882080 
# 
# From -- ./inp_files/218218.got.cif
#   From: 2010.06.25/outbox.cif.g09.slc.cpg/sg2_110_cif.got.tgz:218218.got - 2010.06.27 13:26:56.
