data_PCOD8011033
_publ_section_title
;
Structure prediction by ZEFSAII (Michael W. Deem and Ramdas Pophale) SiO2 
 PCOD8011033
Probable space group: P -1
;
_chemical_formula_sum "Si O2"
_cell_formula_units_Z 14
_cell_length_a 9.840320
_cell_length_b 8.095620
_cell_length_c 9.178345
_cell_angle_alpha 65.811159
_cell_angle_beta 101.443864
_cell_angle_gamma 77.591695
_cell_volume 616.810694
_symmetry_space_group_name_H-M "P -1"
_symmetry_group_IT_number 2
_symmetry_cell_setting 'triclinic'
loop_
_space_group_symop_operation_xyz
x,y,z
-x,-y,-z
loop_
_atom_site_type_symbol
_atom_site_label
_atom_site_fract_x
_atom_site_fract_y
_atom_site_fract_z
Si Si1 0.614473 0.700319 0.435119
Si Si2 0.112367 0.037165 0.254116
Si Si3 0.687481 0.305359 0.737860
Si Si4 0.860377 0.627775 0.011404
Si Si5 0.227623 0.717594 0.914762
Si Si6 0.877981 0.664541 0.333800
Si Si7 0.764586 0.988093 0.396726
O O1 0.667457 0.527644 0.625481
O O2 0.445588 0.749981 0.340814
O O3 0.718338 0.638582 0.336229
O O4 0.639004 0.891630 0.439326
O O5 0.145783 0.001696 0.444344
O O6 0.942957 0.156125 0.150397
O O7 0.163014 0.831741 0.256796
O O8 0.204823 0.166823 0.157301
O O9 0.689941 0.269070 0.923416
O O10 0.748754 0.505741 0.035968
O O11 0.909983 0.665188 0.170177
O O12 0.000000 0.500000 0.000000
O O13 0.300351 0.800620 0.766922
O O14 0.877206 0.861472 0.342161
O O15 0.000000 0.500000 0.500000
#
# Coordination Sequence:
#
# PCOD8011033 Si02
#       7
#     2   2   2   2   2   2   2
#     4   9  25  42  64  88 126 167 209 245 319 355
#     4  11  23  38  66  94 124 163 207 255 311 359
#     4  11  23  43  64  88 128 167 208 253 297 382
#     4  10  22  39  60  97 123 158 204 254 310 362
#     4  11  23  37  64  95 126 157 209 255 311 361
#     4  10  21  38  66  87 125 161 203 260 308 357
#     4  10  23  39  61  97 123 158 207 257 309 366
#
# _framework density 22.697402
#
# number of rings (size 3 to 8) (size 9 to 14) (size 15 to 20)
#    0.857    0.857    0.000    4.286    8.000    1.143 
#    0.000    0.714    0.000    0.000    0.000    0.000 
#    0.000    0.000    0.000    0.000    0.000    0.000 
#
# Total GULP energy -173510.378244 kJ/mol
# GULP energy per Si atom -12393.598446 kJ/mol
# Density = 2.264574 g / cm^3
# Si number density = 22.697402 Si / 1000 Ang^3
#
#
#
# Elastic Constant Matrix: (Units=GPa)
#
#
# Indices 1 2 3 4 5 6 
#
# 1 37.6849 2.5308 7.9574 -14.4796 -4.5982 8.8562
# 2 2.5308 69.2944 41.8121 0.5699 -5.8338 19.0571
# 3 7.9574 41.8121 168.9596 4.6582 -13.3884 9.8718
# 4 -14.4796 0.5699 4.6582 43.7777 4.5244 -14.6847
# 5 -4.5982 -5.8338 -13.3884 4.5244 29.3508 -2.6471
# 6 8.8562 19.0571 9.8718 -14.6847 -2.6471 30.9819
#
#
#
# Elastic Compliance Matrix: (Units=1/GPa)
#
#
# Indices 1 2 3 4 5 6 
#
# 1 0.031604 0.001318 -0.001543 0.008631 0.002725 -0.005029
# 2 0.001318 0.020851 -0.004159 -0.004181 0.001863 -0.013700
# 3 -0.001543 -0.004159 0.007241 -0.001402 0.002472 0.000239
# 4 0.008631 -0.004181 -0.001402 0.031336 -0.003587 0.015097
# 5 0.002725 0.001863 0.002472 -0.003587 0.036431 -0.001300
# 6 -0.005029 -0.013700 0.000239 0.015097 -0.001300 0.049110
#
#
# Mechanical properties :
#
#
# Convention : Reuss Voigt Hill
#
# Bulk Modulus (GPa) = 19.63496 42.28219 30.95858
# Shear Modulus (GPa) = 24.71369 35.73131 30.22250
#
# Velocity S-wave (km/s) = 3.30333 3.97198 3.65299
# Velocity P-wave (km/s) = 4.81859 6.30116 5.60907
#
# Compressibility (1/GPa) = 0.05092956
#
# Stress axis : x y z
#
# Youngs Moduli (GPa) = 31.64163 47.95850 138.10173
#
# Poissons Ratio (x) = -0.06322 0.21307
# Poissons Ratio (y) = -0.04171 0.57434
# Poissons Ratio (z) = 0.04882 0.19945
#
# Static dielectric constant tensor:
#      x y z
#    x 4.051750 0.481020 -0.465270 
#    y 0.481020 4.540040 -0.328590 
#    z -0.465270 -0.328590 4.242730 
# 
# 
# High freq. dielectric constant tensor:
#      x y z
#    x 1.871120 0.024090 -0.016930 
#    y 0.024090 1.892160 -0.008060 
#    z -0.016930 -0.008060 1.904970 
# 
# From -- ./inp_files/233862.got.cif
#   From: 2010.06.25/outbox.cif.g09.slc.cpg/sg2_117_cif.got.tgz:233862.got - 2010.06.27 13:26:56.
