data_PCOD8011359
_publ_section_title
;
Structure prediction by ZEFSAII (Michael W. Deem and Ramdas Pophale) SiO2 
 PCOD8011359
Probable space group: P -1
;
_chemical_formula_sum "Si O2"
_cell_formula_units_Z 16
_cell_length_a 11.380470
_cell_length_b 8.753213
_cell_length_c 9.637893
_cell_angle_alpha 67.563287
_cell_angle_beta 71.293087
_cell_angle_gamma 105.468539
_cell_volume 752.940836
_symmetry_space_group_name_H-M "P -1"
_symmetry_group_IT_number 2
_symmetry_cell_setting 'triclinic'
loop_
_space_group_symop_operation_xyz
x,y,z
-x,-y,-z
loop_
_atom_site_type_symbol
_atom_site_label
_atom_site_fract_x
_atom_site_fract_y
_atom_site_fract_z
Si Si1 0.901407 0.598078 0.291277
Si Si2 0.676974 0.810351 0.558393
Si Si3 0.097267 0.311779 0.430794
Si Si4 0.549376 0.571534 0.131199
Si Si5 0.836037 0.210570 0.058348
Si Si6 0.712943 0.793199 0.241212
Si Si7 0.837999 0.210008 0.380321
Si Si8 0.681898 0.418889 0.943596
O O1 0.942228 0.631571 0.425673
O O2 0.823032 0.711772 0.228310
O O3 0.805825 0.378867 0.379741
O O4 0.036572 0.650419 0.129130
O O5 0.826656 0.816458 0.527232
O O6 0.554002 0.647703 0.741451
O O7 0.640079 0.776564 0.421764
O O8 0.699412 0.015709 0.522677
O O9 0.201063 0.494458 0.247369
O O10 0.960731 0.206113 0.428058
O O11 0.590290 0.676041 0.223749
O O12 0.469681 0.667624 0.042323
O O13 0.682192 0.575798 0.997097
O O14 0.881098 0.226671 0.196173
O O15 0.790065 0.004858 0.089714
O O16 0.708954 0.264616 0.069009
#
# Coordination Sequence:
#
# PCOD8011359 Si02
#       8
#     2   2   2   2   2   2   2   2
#     4  11  22  39  61  93 124 156 194 248 304 357
#     4   9  21  40  60  90 119 156 203 244 295 357
#     4  10  21  39  60  89 127 155 195 247 302 354
#     4  10  21  42  62  84 120 163 201 244 294 352
#     4  11  23  39  60  93 124 153 202 245 299 360
#     4  10  22  39  62  88 120 159 199 248 299 350
#     4  11  21  36  63  91 121 156 194 247 300 354
#     4  10  22  40  61  87 121 158 204 245 293 356
#
# _framework density 21.250008999999999
#
# number of rings (size 3 to 8) (size 9 to 14) (size 15 to 20)
#    0.000    1.750    1.250    2.625    1.750    0.500 
#    6.750    9.375    0.000    0.000    0.000    0.000 
#    0.000    0.000    0.000    0.000    0.000    0.000 
#
# Total GULP energy -198361.854007 kJ/mol
# GULP energy per Si atom -12397.615875 kJ/mol
# Density = 2.120164 g / cm^3
# Si number density = 21.250009 Si / 1000 Ang^3
#
#
#
# Elastic Constant Matrix: (Units=GPa)
#
#
# Indices 1 2 3 4 5 6 
#
# 1 77.3854 60.7503 13.7845 10.2906 22.7646 14.6588
# 2 60.7503 142.5565 42.2072 -2.5507 20.4977 9.5726
# 3 13.7845 42.2072 70.9549 15.1577 12.7535 18.5724
# 4 10.2906 -2.5507 15.1577 26.8582 2.0219 8.4428
# 5 22.7646 20.4977 12.7535 2.0219 29.0353 3.6801
# 6 14.6588 9.5726 18.5724 8.4428 3.6801 25.5087
#
#
#
# Elastic Compliance Matrix: (Units=1/GPa)
#
#
# Indices 1 2 3 4 5 6 
#
# 1 0.031156 -0.013618 0.011915 -0.014164 -0.017249 -0.014292
# 2 -0.013618 0.015399 -0.010937 0.010730 0.003101 0.006012
# 3 0.011915 -0.010937 0.027754 -0.015328 -0.010673 -0.016336
# 4 -0.014164 0.010730 -0.015328 0.052813 0.006993 -0.003216
# 5 -0.017249 0.003101 -0.010673 0.006993 0.049073 0.007125
# 6 -0.014292 0.006012 -0.016336 -0.003216 0.007125 0.057090
#
#
# Mechanical properties :
#
#
# Convention : Reuss Voigt Hill
#
# Bulk Modulus (GPa) = 20.39694 58.26454 39.33074
# Shear Modulus (GPa) = 18.18792 27.89076 23.03934
#
# Velocity S-wave (km/s) = 2.92875 3.62678 3.29630
# Velocity P-wave (km/s) = 4.58870 6.70941 5.74771
#
# Compressibility (1/GPa) = 0.04902697
#
# Stress axis : x y z
#
# Youngs Moduli (GPa) = 32.09700 64.94020 36.03133
#
# Poissons Ratio (x) = 0.88437 -0.42931
# Poissons Ratio (y) = 0.43710 0.39409
# Poissons Ratio (z) = -0.38244 0.71027
#
# Static dielectric constant tensor:
#      x y z
#    x 3.830840 -0.057360 0.314940 
#    y -0.057360 3.824870 0.058590 
#    z 0.314940 0.058590 3.824100 
# 
# 
# High freq. dielectric constant tensor:
#      x y z
#    x 1.830910 -0.004260 0.024460 
#    y -0.004260 1.829070 0.008240 
#    z 0.024460 0.008240 1.833120 
# 
# From -- ./inp_files/242958.got.cif
#   From: 2010.06.25/outbox.cif.g09.slc.cpg/sg2_122_cif.got.tgz:242958.got - 2010.06.27 13:26:56.
