data_PCOD8011076
_publ_section_title
;
Structure prediction by ZEFSAII (Michael W. Deem and Ramdas Pophale) SiO2 
 PCOD8011076
Probable space group: P -1
;
_chemical_formula_sum "Si O2"
_cell_formula_units_Z 16
_cell_length_a 21.076429
_cell_length_b 8.988782
_cell_length_c 8.988784
_cell_angle_alpha 148.076800
_cell_angle_beta 124.569477
_cell_angle_gamma 55.430527
_cell_volume 726.948959
_symmetry_space_group_name_H-M "P -1"
_symmetry_group_IT_number 2
_symmetry_cell_setting 'triclinic'
loop_
_space_group_symop_operation_xyz
x,y,z
-x,-y,-z
loop_
_atom_site_type_symbol
_atom_site_label
_atom_site_fract_x
_atom_site_fract_y
_atom_site_fract_z
Si Si1 0.931853 0.857871 0.116495
Si Si2 0.944703 0.779593 0.730862
Si Si3 0.603370 0.673997 0.284781
Si Si4 0.431853 0.883505 0.142129
Si Si5 0.701344 0.617145 0.083910
Si Si6 0.798656 0.083910 0.617145
Si Si7 0.896630 0.284781 0.673997
Si Si8 0.444703 0.269138 0.220407
O O1 0.023653 0.868907 0.267186
O O2 0.889035 0.161056 0.390585
O O3 0.911739 0.779040 0.854814
O O4 0.900290 0.618622 0.967196
O O5 0.000000 0.500000 0.500000
O O6 0.871113 0.862819 0.595643
O O7 0.000000 0.000000 0.000000
O O8 0.523653 0.732814 0.131093
O O9 0.677205 0.627617 0.233461
O O10 0.599710 0.967196 0.618622
O O11 0.610965 0.390585 0.161056
O O12 0.411739 0.145186 0.220960
O O13 0.733079 0.904444 0.331678
O O14 0.766921 0.331678 0.904444
O O15 0.628887 0.595643 0.862819
O O16 0.822795 0.233461 0.627617
O O17 0.500000 0.500000 0.500000
O O18 0.500000 0.000000 0.000000
#
# Coordination Sequence:
#
# PCOD8011076 Si02
#       8
#     2   2   2   2   2   2   2   2
#     4  10  21  38  66  97 122 163 224 278 310 377
#     4  12  24  42  68  99 128 169 230 274 315 390
#     4  10  21  39  64  94 129 167 213 269 330 382
#     4  10  21  38  66  97 122 163 224 278 310 377
#     4  12  26  44  64  96 138 177 209 269 346 404
#     4  12  26  44  64  96 138 177 209 269 346 404
#     4  10  21  39  64  94 129 167 213 269 330 382
#     4  12  24  42  68  99 128 169 230 274 315 390
#
# _framework density 22.009798
#
# number of rings (size 3 to 8) (size 9 to 14) (size 15 to 20)
#    0.000    1.000    2.500    4.500    7.000    0.000 
#    0.000    7.500    0.000    0.000    0.000    0.000 
#    0.000    0.000    0.000    0.000    0.000    0.000 
#
# Total GULP energy -198294.981872 kJ/mol
# GULP energy per Si atom -12393.436367 kJ/mol
# Density = 2.195970 g / cm^3
# Si number density = 22.009798 Si / 1000 Ang^3
#
#
#
# Elastic Constant Matrix: (Units=GPa)
#
#
# Indices 1 2 3 4 5 6 
#
# 1 126.5202 23.7897 50.3474 9.2215 -3.4921 11.1507
# 2 23.7897 61.4698 12.4116 4.9143 -1.5658 7.3046
# 3 50.3474 12.4116 131.7279 19.4811 -0.4975 -0.7165
# 4 9.2215 4.9143 19.4811 36.6636 1.7741 -2.3457
# 5 -3.4921 -1.5658 -0.4975 1.7741 47.4208 7.6334
# 6 11.1507 7.3046 -0.7165 -2.3457 7.6334 25.4368
#
#
#
# Elastic Compliance Matrix: (Units=1/GPa)
#
#
# Indices 1 2 3 4 5 6 
#
# 1 0.010307 -0.002659 -0.003610 -0.000660 0.001354 -0.004323
# 2 -0.002659 0.018110 -0.000432 -0.001880 0.001206 -0.004582
# 3 -0.003610 -0.000432 0.009614 -0.004019 -0.000302 0.001697
# 4 -0.000660 -0.001880 -0.004019 0.030184 -0.001939 0.004082
# 5 0.001354 0.001206 -0.000302 -0.001939 0.022568 -0.007900
# 6 -0.004323 -0.004582 0.001697 0.004082 -0.007900 0.045319
#
#
# Mechanical properties :
#
#
# Convention : Reuss Voigt Hill
#
# Bulk Modulus (GPa) = 40.60202 54.75726 47.67964
# Shear Modulus (GPa) = 31.70296 37.44886 34.57591
#
# Velocity S-wave (km/s) = 3.79938 4.12935 3.96780
# Velocity P-wave (km/s) = 6.14283 6.90420 6.53461
#
# Compressibility (1/GPa) = 0.02462932
#
# Stress axis : x y z
#
# Youngs Moduli (GPa) = 97.02356 55.21779 104.01204
#
# Poissons Ratio (x) = 0.14682 0.37544
# Poissons Ratio (y) = 0.25799 0.04497
# Poissons Ratio (z) = 0.35021 0.02387
#
# Static dielectric constant tensor:
#      x y z
#    x 4.008690 0.079430 -0.024880 
#    y 0.079430 3.035420 0.307310 
#    z -0.024880 0.307310 3.920480 
# 
# 
# High freq. dielectric constant tensor:
#      x y z
#    x 1.870510 0.019850 -0.006220 
#    y 0.019850 1.835400 0.017040 
#    z -0.006220 0.017040 1.884470 
# 
# From -- ./inp_files/343994.got.cif
#   From: 2010.06.25/outbox.cif.g09.slc.cpg/sg2_172_cif.got.tgz:343994.got - 2010.06.27 13:26:56.
