data_PCOD8011847
_publ_section_title
;
Structure prediction by ZEFSAII (Michael W. Deem and Ramdas Pophale) SiO2 
 PCOD8011847
Probable space group: P -1
;
_chemical_formula_sum "Si O2"
_cell_formula_units_Z 16
_cell_length_a 9.605074
_cell_length_b 12.306131
_cell_length_c 18.784392
_cell_angle_alpha 27.474098
_cell_angle_beta 62.187655
_cell_angle_gamma 49.841329
_cell_volume 746.936213
_symmetry_space_group_name_H-M "P -1"
_symmetry_group_IT_number 2
_symmetry_cell_setting 'triclinic'
loop_
_space_group_symop_operation_xyz
x,y,z
-x,-y,-z
loop_
_atom_site_type_symbol
_atom_site_label
_atom_site_fract_x
_atom_site_fract_y
_atom_site_fract_z
Si Si1 0.063335 0.632242 0.643957
Si Si2 0.512887 0.694984 0.940844
Si Si3 0.464232 0.362329 0.867983
Si Si4 0.024231 0.214727 0.580984
Si Si5 0.771911 0.858479 0.006083
Si Si6 0.317973 0.245566 0.582094
Si Si7 0.305241 0.832703 0.525527
Si Si8 0.935401 0.335940 0.066044
O O1 0.007149 0.641006 0.571378
O O2 0.152281 0.320708 0.835329
O O3 0.227849 0.692566 0.573788
O O4 0.871897 0.840707 0.613974
O O5 0.373911 0.029379 0.760539
O O6 0.500000 0.500000 0.000000
O O7 0.470972 0.650609 0.058392
O O8 0.728974 0.594158 0.940737
O O9 0.336052 0.235078 0.965638
O O10 0.350746 0.686633 0.677972
O O11 0.640499 0.183895 0.874837
O O12 0.832095 0.427457 0.548452
O O13 0.214967 0.170590 0.591988
O O14 0.062717 0.902037 0.748152
O O15 0.941730 0.825298 0.939365
O O16 0.509738 0.199189 0.532576
O O17 0.000000 0.500000 0.000000
#
# Coordination Sequence:
#
# PCOD8011847 Si02
#       8
#     2   2   2   2   2   2   2   2
#     4  10  22  39  64  94 124 158 216 268 314 374
#     4  12  24  43  65  95 132 171 215 266 323 386
#     4  10  21  40  63  92 128 163 210 266 320 382
#     4  11  25  44  63  93 133 173 213 266 319 387
#     4  10  21  39  64  94 124 164 211 267 324 374
#     4  11  25  44  63  92 135 175 212 256 326 395
#     4  10  22  39  65  91 123 164 211 265 319 379
#     4  12  24  42  70  96 127 169 221 271 322 377
#
# _framework density 21.420838
#
# number of rings (size 3 to 8) (size 9 to 14) (size 15 to 20)
#    0.000    1.250    2.500    3.000    5.250    1.000 
#    2.250    0.625    0.000    0.000    0.000    0.000 
#    0.000    0.000    0.000    0.000    0.000    0.000 
#
# Total GULP energy -198383.701990 kJ/mol
# GULP energy per Si atom -12398.981374 kJ/mol
# Density = 2.137208 g / cm^3
# Si number density = 21.420838 Si / 1000 Ang^3
#
#
#
# Elastic Constant Matrix: (Units=GPa)
#
#
# Indices 1 2 3 4 5 6 
#
# 1 109.4271 29.8206 33.4451 2.7121 18.8159 -7.1735
# 2 29.8206 69.1006 5.9952 11.4043 2.2935 -15.1837
# 3 33.4451 5.9952 71.5749 -4.6309 16.2810 7.8306
# 4 2.7121 11.4043 -4.6309 34.6899 4.8465 5.1110
# 5 18.8159 2.2935 16.2810 4.8465 32.9473 6.9198
# 6 -7.1735 -15.1837 7.8306 5.1110 6.9198 42.8976
#
#
#
# Elastic Compliance Matrix: (Units=1/GPa)
#
#
# Indices 1 2 3 4 5 6 
#
# 1 0.012826 -0.004518 -0.004653 0.000265 -0.005213 0.002205
# 2 -0.004518 0.019178 -0.001034 -0.007295 0.001387 0.006867
# 3 -0.004653 -0.001034 0.018381 0.004618 -0.006182 -0.004052
# 4 0.000265 -0.007295 0.004618 0.033545 -0.005497 -0.006491
# 5 -0.005213 0.001387 -0.006182 -0.005497 0.038091 -0.004742
# 6 0.002205 0.006867 -0.004052 -0.006491 -0.004742 0.028389
#
#
# Mechanical properties :
#
#
# Convention : Reuss Voigt Hill
#
# Bulk Modulus (GPa) = 33.36156 43.18046 38.27101
# Shear Modulus (GPa) = 27.65320 34.16306 30.90813
#
# Velocity S-wave (km/s) = 3.59688 3.99789 3.80267
# Velocity P-wave (km/s) = 5.73220 6.44304 6.09799
#
# Compressibility (1/GPa) = 0.02997462
#
# Stress axis : x y z
#
# Youngs Moduli (GPa) = 77.96558 52.14367 54.40526
#
# Poissons Ratio (x) = 0.23557 0.25316
# Poissons Ratio (y) = 0.35223 0.05626
# Poissons Ratio (z) = 0.36279 0.05392
#
# Static dielectric constant tensor:
#      x y z
#    x 3.750010 -0.147910 0.171600 
#    y -0.147910 3.893030 -0.086660 
#    z 0.171600 -0.086660 4.031370 
# 
# 
# High freq. dielectric constant tensor:
#      x y z
#    x 1.834780 -0.008200 0.021460 
#    y -0.008200 1.846820 -0.009130 
#    z 0.021460 -0.009130 1.843820 
# 
# From -- ./inp_files/402715.got.cif
#   From: 2010.06.25/outbox.cif.g09.slc.cpg/sg2_202_cif.got.tgz:402715.got - 2010.06.27 13:26:56.
