data_PCOD8011840
_publ_section_title
;
Structure prediction by ZEFSAII (Michael W. Deem and Ramdas Pophale) SiO2 
 PCOD8011840
Probable space group: P -1
;
_chemical_formula_sum "Si O2"
_cell_formula_units_Z 14
_cell_length_a 6.655760
_cell_length_b 16.449827
_cell_length_c 15.227172
_cell_angle_alpha 26.743881
_cell_angle_beta 90.663035
_cell_angle_gamma 77.853269
_cell_volume 653.700578
_symmetry_space_group_name_H-M "P -1"
_symmetry_group_IT_number 2
_symmetry_cell_setting 'triclinic'
loop_
_space_group_symop_operation_xyz
x,y,z
-x,-y,-z
loop_
_atom_site_type_symbol
_atom_site_label
_atom_site_fract_x
_atom_site_fract_y
_atom_site_fract_z
Si Si1 0.081616 0.962226 0.914122
Si Si2 0.232372 0.152198 0.869594
Si Si3 0.803694 0.260497 0.489349
Si Si4 0.534562 0.683552 0.708458
Si Si5 0.089054 0.196271 0.401236
Si Si6 0.785815 0.250366 0.195963
Si Si7 0.568430 0.579323 0.336874
O O1 0.081177 0.154130 0.782983
O O2 0.335338 0.765481 0.114404
O O3 0.010904 0.042707 0.737120
O O4 0.874707 0.919836 0.983160
O O5 0.230795 0.365195 0.688538
O O6 0.500000 0.000000 0.000000
O O7 0.616063 0.229774 0.463552
O O8 0.677419 0.409607 0.425904
O O9 0.920611 0.342297 0.338208
O O10 0.674190 0.805551 0.591947
O O11 0.399555 0.739637 0.744760
O O12 0.687336 0.432517 0.947326
O O13 0.980568 0.272867 0.230267
O O14 0.115779 0.969531 0.639400
O O15 0.500000 0.500000 0.500000
#
# Coordination Sequence:
#
# PCOD8011840 Si02
#       7
#     2   2   2   2   2   2   2
#     4  10  22  40  61  86 123 157 206 262 310 371
#     4   9  19  39  65  86 110 162 209 257 310 369
#     4  11  25  39  56  98 124 158 209 254 311 378
#     4  10  21  39  64  93 130 162 205 255 310 379
#     4  10  21  39  65  91 128 165 203 262 311 362
#     4   9  20  40  65  93 122 163 215 247 304 386
#     4  11  24  41  64  87 121 166 214 258 311 371
#
# _framework density 21.416532
#
# number of rings (size 3 to 8) (size 9 to 14) (size 15 to 20)
#    0.000    2.000    0.000    3.429    2.000    6.857 
#    0.000    0.000    0.000    0.000    0.000    0.000 
#    0.000    0.000    0.000    0.000    0.000    0.000 
#
# Total GULP energy -173451.906549 kJ/mol
# GULP energy per Si atom -12389.421896 kJ/mol
# Density = 2.136779 g / cm^3
# Si number density = 21.416532 Si / 1000 Ang^3
#
#
#
# Elastic Constant Matrix: (Units=GPa)
#
#
# Indices 1 2 3 4 5 6 
#
# 1 132.7018 49.4223 31.5040 4.0916 -12.0018 35.9746
# 2 49.4223 102.9486 40.1189 13.7099 -7.1928 4.1867
# 3 31.5040 40.1189 91.7985 19.3798 14.1797 19.3492
# 4 4.0916 13.7099 19.3798 27.6205 5.8190 12.6347
# 5 -12.0018 -7.1928 14.1797 5.8190 31.7495 -3.5905
# 6 35.9746 4.1867 19.3492 12.6347 -3.5905 27.7781
#
#
#
# Elastic Compliance Matrix: (Units=1/GPa)
#
#
# Indices 1 2 3 4 5 6 
#
# 1 0.019350 -0.011228 0.002091 0.016921 -0.002986 -0.032906
# 2 -0.011228 0.020339 -0.008685 -0.016573 0.010264 0.026389
# 3 0.002091 -0.008685 0.019132 0.000592 -0.011697 -0.016508
# 4 0.016921 -0.016573 0.000592 0.069458 -0.016408 -0.053541
# 5 -0.002986 0.010264 -0.011697 -0.016408 0.043589 0.023564
# 6 -0.032906 0.026389 -0.016508 -0.053541 0.023564 0.113534
#
#
# Mechanical properties :
#
#
# Convention : Reuss Voigt Hill
#
# Bulk Modulus (GPa) = 43.14329 63.28217 53.21273
# Shear Modulus (GPa) = 15.20816 31.18987 23.19901
#
# Velocity S-wave (km/s) = 2.66769 3.82035 3.29482
# Velocity P-wave (km/s) = 5.44769 7.00518 6.27494
#
# Compressibility (1/GPa) = 0.02317857
#
# Stress axis : x y z
#
# Youngs Moduli (GPa) = 51.68081 49.16665 52.26738
#
# Poissons Ratio (x) = 0.55203 -0.10930
# Poissons Ratio (y) = 0.58026 0.45392
# Poissons Ratio (z) = -0.10808 0.42699
#
# Static dielectric constant tensor:
#      x y z
#    x 4.113600 0.184730 0.109780 
#    y 0.184730 3.907640 -0.075520 
#    z 0.109780 -0.075520 3.900450 
# 
# 
# High freq. dielectric constant tensor:
#      x y z
#    x 1.851890 0.004100 0.014100 
#    y 0.004100 1.838010 0.002770 
#    z 0.014100 0.002770 1.828040 
# 
# From -- ./inp_files/140535.got.cif
#   From: 2010.06.25/outbox.cif.g09.slc.cpg/sg2_71_cif.got.tgz:140535.got - 2010.06.27 13:26:56.
