data_PCOD8011951
_publ_section_title
;
Structure prediction by ZEFSAII (Michael W. Deem and Ramdas Pophale) SiO2 
 PCOD8011951
Probable space group: P -1
;
_chemical_formula_sum "Si O2"
_cell_formula_units_Z 16
_cell_length_a 8.509791
_cell_length_b 10.113662
_cell_length_c 15.808053
_cell_angle_alpha 64.323121
_cell_angle_beta 87.964384
_cell_angle_gamma 44.197053
_cell_volume 768.484594
_symmetry_space_group_name_H-M "P -1"
_symmetry_group_IT_number 2
_symmetry_cell_setting 'triclinic'
loop_
_space_group_symop_operation_xyz
x,y,z
-x,-y,-z
loop_
_atom_site_type_symbol
_atom_site_label
_atom_site_fract_x
_atom_site_fract_y
_atom_site_fract_z
Si Si1 0.454413 0.076864 0.236898
Si Si2 0.891762 0.201345 0.383961
Si Si3 0.033532 0.305661 0.067872
Si Si4 0.556349 0.524727 0.581749
Si Si5 0.607785 0.026672 0.560587
Si Si6 0.204399 0.573894 0.127400
Si Si7 0.259396 0.706420 0.826110
Si Si8 0.949047 0.856859 0.226640
O O1 0.305570 0.088564 0.165976
O O2 0.306053 0.332773 0.195436
O O3 0.492932 0.949206 0.353416
O O4 0.725895 0.909542 0.239867
O O5 0.614436 0.442148 0.356680
O O6 0.862669 0.167451 0.297563
O O7 0.000000 0.000000 0.500000
O O8 0.086527 0.196188 0.383850
O O9 0.823318 0.393690 0.111521
O O10 0.000000 0.500000 0.000000
O O11 0.999520 0.254181 0.991221
O O12 0.500000 0.500000 0.500000
O O13 0.492319 0.741410 0.524361
O O14 0.845518 0.295979 0.661297
O O15 0.500000 0.000000 0.500000
O O16 0.439729 0.510050 0.124378
O O17 0.068073 0.718308 0.175389
O O18 0.158550 0.899631 0.842061
#
# Coordination Sequence:
#
# PCOD8011951 Si02
#       8
#     2   2   2   2   2   2   2   2
#     4  10  23  41  62  91 130 166 205 264 322 380
#     4  10  21  39  65  91 128 172 208 255 314 381
#     4  10  22  43  66  91 125 165 211 264 323 378
#     4  11  24  41  61  96 132 169 218 263 309 388
#     4  11  23  39  64  91 129 174 212 256 325 379
#     4  10  22  42  65  92 122 162 216 264 316 375
#     4  11  21  42  68  92 125 168 211 258 319 376
#     4  11  23  39  64  93 127 164 210 263 313 382
#
# _framework density 20.820198000000001
#
# number of rings (size 3 to 8) (size 9 to 14) (size 15 to 20)
#    0.000    1.500    2.500    2.625    7.000    1.500 
#    2.250    2.500    0.000    0.000    0.000    0.000 
#    0.000    0.000    0.000    0.000    0.000    0.000 
#
# Total GULP energy -198346.019878 kJ/mol
# GULP energy per Si atom -12396.626242 kJ/mol
# Density = 2.077281 g / cm^3
# Si number density = 20.820198 Si / 1000 Ang^3
#
#
#
# Elastic Constant Matrix: (Units=GPa)
#
#
# Indices 1 2 3 4 5 6 
#
# 1 157.2436 65.5263 58.2205 11.6265 18.3504 -30.9558
# 2 65.5263 126.0552 43.9310 21.0556 10.2433 -20.8490
# 3 58.2205 43.9310 115.1169 23.0330 24.4628 -11.3049
# 4 11.6265 21.0556 23.0330 25.9324 0.7440 4.7424
# 5 18.3504 10.2433 24.4628 0.7440 51.3224 2.8533
# 6 -30.9558 -20.8490 -11.3049 4.7424 2.8533 36.0602
#
#
#
# Elastic Compliance Matrix: (Units=1/GPa)
#
#
# Indices 1 2 3 4 5 6 
#
# 1 0.010195 -0.002959 -0.002795 -0.000803 -0.002069 0.006434
# 2 -0.002959 0.012220 -0.000495 -0.009157 -0.001328 0.005679
# 3 -0.002795 -0.000495 0.014147 -0.011424 -0.005685 0.003702
# 4 -0.000803 -0.009157 -0.011424 0.059576 0.007697 -0.018009
# 5 -0.002069 -0.001328 -0.005685 0.007697 0.023488 -0.007197
# 6 0.006434 0.005679 0.003702 -0.018009 -0.007197 0.040637
#
#
# Mechanical properties :
#
#
# Convention : Reuss Voigt Hill
#
# Bulk Modulus (GPa) = 41.55533 81.53014 61.54274
# Shear Modulus (GPa) = 27.65777 38.04551 32.85164
#
# Velocity S-wave (km/s) = 3.64869 4.27937 3.97656
# Velocity P-wave (km/s) = 6.14435 7.97882 7.12091
#
# Compressibility (1/GPa) = 0.02406430
#
# Stress axis : x y z
#
# Youngs Moduli (GPa) = 98.08865 81.82983 70.68872
#
# Poissons Ratio (x) = 0.24215 0.19755
# Poissons Ratio (y) = 0.29026 0.03499
# Poissons Ratio (z) = 0.27413 0.04050
#
# Static dielectric constant tensor:
#      x y z
#    x 4.298810 -0.394760 0.347900 
#    y -0.394760 3.681130 0.099400 
#    z 0.347900 0.099400 4.052550 
# 
# 
# High freq. dielectric constant tensor:
#      x y z
#    x 1.833850 -0.019320 0.014740 
#    y -0.019320 1.789380 0.014190 
#    z 0.014740 0.014190 1.827120 
# 
# From -- ./inp_files/313909.got.cif
#   From: 2010.06.25/outbox.cif.g09.slc.cpg/sg2_157_cif.got.tgz:313909.got - 2010.06.27 13:26:56.
