data_PCOD8011641
_publ_section_title
;
Structure prediction by ZEFSAII (Michael W. Deem and Ramdas Pophale) SiO2 
 PCOD8011641
Probable space group: P -1
;
_chemical_formula_sum "Si O2"
_cell_formula_units_Z 14
_cell_length_a 11.483224
_cell_length_b 20.132062
_cell_length_c 8.553967
_cell_angle_alpha 29.166604
_cell_angle_beta 140.773267
_cell_angle_gamma 139.076477
_cell_volume 589.017977
_symmetry_space_group_name_H-M "P -1"
_symmetry_group_IT_number 2
_symmetry_cell_setting 'triclinic'
loop_
_space_group_symop_operation_xyz
x,y,z
-x,-y,-z
loop_
_atom_site_type_symbol
_atom_site_label
_atom_site_fract_x
_atom_site_fract_y
_atom_site_fract_z
Si Si1 0.257995 0.159353 0.612170
Si Si2 0.799916 0.772267 0.936214
Si Si3 0.883199 0.069273 0.568994
Si Si4 0.324624 0.928267 0.356527
Si Si5 0.627250 0.317274 0.286287
Si Si6 0.326451 0.736036 0.198919
Si Si7 0.989285 0.524476 0.619486
O O1 0.185631 0.160787 0.358329
O O2 0.461359 0.274369 0.611737
O O3 0.086560 0.175449 0.513691
O O4 0.299358 0.009736 0.004354
O O5 0.588687 0.669810 0.959565
O O6 0.859519 0.905151 0.839889
O O7 0.943082 0.673203 0.307219
O O8 0.863220 0.084391 0.704361
O O9 0.714583 0.119144 0.201979
O O10 0.357483 0.782140 0.637424
O O11 0.500000 0.000000 0.500000
O O12 0.683595 0.264248 0.622693
O O13 0.792354 0.462142 0.121166
O O14 0.173978 0.608055 0.215143
O O15 0.000000 0.500000 0.500000
#
# Coordination Sequence:
#
# PCOD8011641 Si02
#       7
#     2   2   2   2   2   2   2
#     4  11  22  36  60  91 122 158 205 252 307 355
#     4  11  22  38  66  96 122 157 208 258 305 368
#     4  12  23  39  65  93 126 162 206 254 309 366
#     4  12  22  40  62  89 133 163 202 255 312 359
#     4  10  21  39  63  90 124 162 203 252 308 359
#     4  10  22  40  64  93 124 158 205 258 306 365
#     4  10  22  40  63  94 126 159 202 255 312 366
#
# _framework density 23.768374999999999
#
# number of rings (size 3 to 8) (size 9 to 14) (size 15 to 20)
#    0.000    1.143    2.857    4.286    0.000    8.571 
#    0.000    0.714    0.000    7.714    0.000    0.000 
#    0.000    0.000    0.000    0.000    0.000    0.000 
#
# Total GULP energy -173450.251671 kJ/mol
# GULP energy per Si atom -12389.303691 kJ/mol
# Density = 2.371428 g / cm^3
# Si number density = 23.768375 Si / 1000 Ang^3
#
#
#
# Elastic Constant Matrix: (Units=GPa)
#
#
# Indices 1 2 3 4 5 6 
#
# 1 133.4826 52.5155 9.7839 -2.0258 11.4863 27.3628
# 2 52.5155 107.0549 2.3934 8.1421 2.5007 33.5228
# 3 9.7839 2.3934 44.3515 3.1677 8.4985 -2.7418
# 4 -2.0258 8.1421 3.1677 24.0045 0.8742 10.5657
# 5 11.4863 2.5007 8.4985 0.8742 27.9005 5.4218
# 6 27.3628 33.5228 -2.7418 10.5657 5.4218 45.2261
#
#
#
# Elastic Compliance Matrix: (Units=1/GPa)
#
#
# Indices 1 2 3 4 5 6 
#
# 1 0.010371 -0.004015 -0.002150 0.004445 -0.002586 -0.004157
# 2 -0.004015 0.013819 -0.000637 -0.001617 0.002162 -0.007734
# 3 -0.002150 -0.000637 0.025248 -0.005435 -0.007645 0.005490
# 4 0.004445 -0.001617 -0.005435 0.049174 0.001040 -0.013433
# 5 -0.002586 0.002162 -0.007645 0.001040 0.040087 -0.005550
# 6 -0.004157 -0.007734 0.005490 -0.013433 -0.005550 0.034495
#
#
# Mechanical properties :
#
#
# Convention : Reuss Voigt Hill
#
# Bulk Modulus (GPa) = 27.90640 46.03051 36.96846
# Shear Modulus (GPa) = 25.15789 34.10596 29.63193
#
# Velocity S-wave (km/s) = 3.25693 3.79216 3.53469
# Velocity P-wave (km/s) = 5.09018 6.21146 5.67856
#
# Compressibility (1/GPa) = 0.03583408
#
# Stress axis : x y z
#
# Youngs Moduli (GPa) = 96.42128 72.36327 39.60666
#
# Poissons Ratio (x) = 0.29056 0.08516
# Poissons Ratio (y) = 0.38716 0.02522
# Poissons Ratio (z) = 0.20731 0.04608
#
# Static dielectric constant tensor:
#      x y z
#    x 4.731550 0.703740 0.089100 
#    y 0.703740 4.551070 -0.023350 
#    z 0.089100 -0.023350 3.991390 
# 
# 
# High freq. dielectric constant tensor:
#      x y z
#    x 1.951070 0.031030 0.011960 
#    y 0.031030 1.947240 0.017910 
#    z 0.011960 0.017910 1.908790 
# 
# From -- ./inp_files/280003.got.cif
#   From: 2010.06.25/outbox.cif.g09.slc.cpg/sg2_141_cif.got.tgz:280003.got - 2010.06.27 13:26:56.
