data_PCOD8011618
_publ_section_title
;
Structure prediction by ZEFSAII (Michael W. Deem and Ramdas Pophale) SiO2 
 PCOD8011618
Probable space group: P -1
;
_chemical_formula_sum "Si O2"
_cell_formula_units_Z 16
_cell_length_a 10.020041
_cell_length_b 16.420342
_cell_length_c 9.504368
_cell_angle_alpha 70.422827
_cell_angle_beta 64.381070
_cell_angle_gamma 35.855800
_cell_volume 825.578586
_symmetry_space_group_name_H-M "P -1"
_symmetry_group_IT_number 2
_symmetry_cell_setting 'triclinic'
loop_
_space_group_symop_operation_xyz
x,y,z
-x,-y,-z
loop_
_atom_site_type_symbol
_atom_site_label
_atom_site_fract_x
_atom_site_fract_y
_atom_site_fract_z
Si Si1 0.873088 0.353814 0.443524
Si Si2 0.259077 0.061348 0.582392
Si Si3 0.736492 0.385524 0.047348
Si Si4 0.498707 0.883180 0.123546
Si Si5 0.223341 0.092548 0.896357
Si Si6 0.425444 0.638370 0.604977
Si Si7 0.729221 0.105296 0.531676
Si Si8 0.013172 0.392061 0.081916
O O1 0.701783 0.486755 0.547456
O O2 0.730852 0.337550 0.455424
O O3 0.980453 0.371791 0.268375
O O4 0.070601 0.219160 0.527235
O O5 0.224580 0.048405 0.768003
O O6 0.500000 0.000000 0.500000
O O7 0.274184 0.969482 0.535435
O O8 0.681854 0.337289 0.211813
O O9 0.799710 0.448052 0.055399
O O10 0.500000 0.500000 0.000000
O O11 0.962678 0.253210 0.931114
O O12 0.563864 0.934663 0.164168
O O13 0.410752 0.849167 0.286509
O O14 0.727859 0.755186 0.001263
O O15 0.275837 0.000843 0.051169
O O16 0.406472 0.749735 0.548078
O O17 0.000000 0.000000 0.500000
O O18 0.000000 0.500000 0.000000
#
# Coordination Sequence:
#
# PCOD8011618 Si02
#       8
#     2   2   2   2   2   2   2   2
#     4  10  21  39  66  88 124 165 207 248 309 370
#     4  12  23  40  63  95 126 160 208 258 308 366
#     4  10  21  40  62  85 125 164 200 248 313 365
#     4  10  21  39  64  87 121 164 204 247 307 369
#     4  10  21  39  63  88 121 164 205 247 307 365
#     4  10  21  40  63  91 122 167 206 249 306 373
#     4  12  23  40  65  94 126 161 211 256 305 372
#     4  10  21  39  63  90 119 160 209 252 299 368
#
# _framework density 19.380347
#
# number of rings (size 3 to 8) (size 9 to 14) (size 15 to 20)
#    0.000    1.500    2.500    3.000    3.500    0.000 
#    6.750    1.875    0.000    0.000    0.000    0.000 
#    0.000    0.000    0.000    0.000    0.000    0.000 
#
# Total GULP energy -198330.887053 kJ/mol
# GULP energy per Si atom -12395.680441 kJ/mol
# Density = 1.933624 g / cm^3
# Si number density = 19.380347 Si / 1000 Ang^3
#
#
#
# Elastic Constant Matrix: (Units=GPa)
#
#
# Indices 1 2 3 4 5 6 
#
# 1 99.2537 62.7054 51.8848 -9.3946 -0.1025 -0.5758
# 2 62.7054 128.4457 35.1703 -11.8958 3.3513 -0.5307
# 3 51.8848 35.1703 104.6255 -1.1796 -4.7060 6.9691
# 4 -9.3946 -11.8958 -1.1796 32.0774 -0.0614 -3.7009
# 5 -0.1025 3.3513 -4.7060 -0.0614 31.1749 -5.9099
# 6 -0.5758 -0.5307 6.9691 -3.7009 -5.9099 41.1277
#
#
#
# Elastic Compliance Matrix: (Units=1/GPa)
#
#
# Indices 1 2 3 4 5 6 
#
# 1 0.018167 -0.006743 -0.006814 0.002752 0.000061 0.001578
# 2 -0.006743 0.011476 -0.000557 0.002277 -0.001304 0.000166
# 3 -0.006814 -0.000557 0.013328 -0.001975 0.001608 -0.002308
# 4 0.002752 0.002277 -0.001975 0.033146 0.000178 0.003411
# 5 0.000061 -0.001304 0.001608 0.000178 0.033316 0.004515
# 6 0.001578 0.000166 -0.002308 0.003411 0.004515 0.025685
#
#
# Mechanical properties :
#
#
# Convention : Reuss Voigt Hill
#
# Bulk Modulus (GPa) = 67.83591 70.20512 69.02051
# Shear Modulus (GPa) = 29.71558 33.04696 31.38127
#
# Velocity S-wave (km/s) = 3.91997 4.13386 4.02833
# Velocity P-wave (km/s) = 7.45430 7.68691 7.57150
#
# Compressibility (1/GPa) = 0.01474145
#
# Stress axis : x y z
#
# Youngs Moduli (GPa) = 55.04482 87.14101 75.02956
#
# Poissons Ratio (x) = 0.58763 0.51123
# Poissons Ratio (y) = 0.37119 0.04183
# Poissons Ratio (z) = 0.37506 0.04858
#
# Static dielectric constant tensor:
#      x y z
#    x 3.385430 -0.079750 -0.162790 
#    y -0.079750 3.533880 0.078100 
#    z -0.162790 0.078100 3.621360 
# 
# 
# High freq. dielectric constant tensor:
#      x y z
#    x 1.742380 -0.008680 -0.006560 
#    y -0.008680 1.762820 0.006040 
#    z -0.006560 0.006040 1.769000 
# 
# From -- ./inp_files/206821.got.cif
#   From: 2010.06.25/outbox.cif.g09.slc.cpg/sg2_104_cif.got.tgz:206821.got - 2010.06.27 13:26:56.
