data_PCOD8011636
_publ_section_title
;
Structure prediction by ZEFSAII (Michael W. Deem and Ramdas Pophale) SiO2 
 PCOD8011636
Probable space group: P -1
;
_chemical_formula_sum "Si O2"
_cell_formula_units_Z 16
_cell_length_a 9.451234
_cell_length_b 11.307290
_cell_length_c 15.068030
_cell_angle_alpha 128.577383
_cell_angle_beta 50.834054
_cell_angle_gamma 141.890431
_cell_volume 743.054015
_symmetry_space_group_name_H-M "P -1"
_symmetry_group_IT_number 2
_symmetry_cell_setting 'triclinic'
loop_
_space_group_symop_operation_xyz
x,y,z
-x,-y,-z
loop_
_atom_site_type_symbol
_atom_site_label
_atom_site_fract_x
_atom_site_fract_y
_atom_site_fract_z
Si Si1 0.531753 0.987957 0.379656
Si Si2 0.690137 0.850272 0.996429
Si Si3 0.477193 0.411857 0.327857
Si Si4 0.926238 0.778201 0.727211
Si Si5 0.768876 0.477509 0.068594
Si Si6 0.897239 0.718694 0.967268
Si Si7 0.871636 0.463081 0.711334
Si Si8 0.595358 0.331800 0.420370
O O1 0.504349 0.123603 0.395784
O O2 0.791858 0.055991 0.304729
O O3 0.500000 0.000000 0.500000
O O4 0.344558 0.770342 0.311618
O O5 0.853566 0.868710 0.864582
O O6 0.422153 0.725854 0.007227
O O7 0.703680 0.741394 0.023276
O O8 0.825992 0.081619 0.070314
O O9 0.200271 0.257678 0.333574
O O10 0.659374 0.479163 0.205178
O O11 0.509415 0.301356 0.338213
O O12 0.525129 0.602096 0.440911
O O13 0.833770 0.563464 0.694513
O O14 0.844964 0.662719 0.065657
O O15 0.000000 0.500000 0.000000
O O16 0.871077 0.546551 0.845181
O O17 0.116118 0.502680 0.615081
#
# Coordination Sequence:
#
# PCOD8011636 Si02
#       8
#     2   2   2   2   2   2   2   2
#     4  11  22  37  63  93 118 156 204 248 300 356
#     4   9  21  39  61  89 121 160 202 245 301 357
#     4  10  21  42  62  85 123 162 197 245 301 356
#     4   9  20  38  60  87 122 156 195 247 298 355
#     4  11  23  39  62  91 123 159 200 247 300 361
#     4  10  21  39  63  90 121 157 201 250 299 355
#     4  10  21  39  63  91 122 156 199 249 299 353
#     4  10  22  41  62  85 123 161 197 246 299 357
#
# _framework density 21.532754000000001
#
# number of rings (size 3 to 8) (size 9 to 14) (size 15 to 20)
#    0.000    2.000    0.000    2.625    0.000   10.500 
#    0.000   11.875    0.000    0.000    0.000    0.000 
#    0.000    0.000    0.000    0.000    0.000    0.000 
#
# Total GULP energy -198357.693545 kJ/mol
# GULP energy per Si atom -12397.355847 kJ/mol
# Density = 2.148374 g / cm^3
# Si number density = 21.532754 Si / 1000 Ang^3
#
#
#
# Elastic Constant Matrix: (Units=GPa)
#
#
# Indices 1 2 3 4 5 6 
#
# 1 154.8547 74.5672 60.6158 -3.5361 13.1358 1.5001
# 2 74.5672 156.3787 49.5866 9.2295 0.3902 2.2892
# 3 60.6158 49.5866 95.9361 -0.2794 8.3633 -7.9150
# 4 -3.5361 9.2295 -0.2794 26.2677 -2.0699 5.8839
# 5 13.1358 0.3902 8.3633 -2.0699 31.2836 -9.6613
# 6 1.5001 2.2892 -7.9150 5.8839 -9.6613 27.4593
#
#
#
# Elastic Compliance Matrix: (Units=1/GPa)
#
#
# Indices 1 2 3 4 5 6 
#
# 1 0.010501 -0.003639 -0.004699 0.003158 -0.004049 -0.003726
# 2 -0.003639 0.009162 -0.002603 -0.003616 0.001911 0.000132
# 3 -0.004699 -0.002603 0.015184 -0.000676 -0.000623 0.004776
# 4 0.003158 -0.003616 -0.000676 0.041778 -0.001258 -0.009460
# 5 -0.004049 0.001911 -0.000623 -0.001258 0.037889 0.013483
# 6 -0.003726 0.000132 0.004776 -0.009460 0.013483 0.044757
#
#
# Mechanical properties :
#
#
# Convention : Reuss Voigt Hill
#
# Bulk Modulus (GPa) = 77.12607 86.30097 81.71352
# Shear Modulus (GPa) = 26.95773 31.82879 29.39326
#
# Velocity S-wave (km/s) = 3.54212 3.84885 3.69866
# Velocity P-wave (km/s) = 7.25428 7.74064 7.50140
#
# Compressibility (1/GPa) = 0.01296579
#
# Stress axis : x y z
#
# Youngs Moduli (GPa) = 95.22797 109.14826 65.85706
#
# Poissons Ratio (x) = 0.39718 0.30948
# Poissons Ratio (y) = 0.34653 0.17140
# Poissons Ratio (z) = 0.44751 0.28406
#
# Static dielectric constant tensor:
#      x y z
#    x 4.023730 -0.019090 0.141160 
#    y -0.019090 3.726320 -0.026540 
#    z 0.141160 -0.026540 3.935310 
# 
# 
# High freq. dielectric constant tensor:
#      x y z
#    x 1.850790 0.004970 0.008250 
#    y 0.004970 1.838310 -0.005170 
#    z 0.008250 -0.005170 1.849800 
# 
# From -- ./inp_files/500795.got.cif
#   From: 2010.06.25/outbox.cif.g09.slc.cpg/sg2_251_cif.got.tgz:500795.got - 2010.06.27 13:26:56.
