data_PCOD8011201
_publ_section_title
;
Structure prediction by ZEFSAII (Michael W. Deem and Ramdas Pophale) SiO2 
 PCOD8011201
Probable space group: P -1
;
_chemical_formula_sum "Si O2"
_cell_formula_units_Z 14
_cell_length_a 12.263399
_cell_length_b 18.000132
_cell_length_c 17.429033
_cell_angle_alpha 162.436259
_cell_angle_beta 150.195551
_cell_angle_gamma 36.224126
_cell_volume 571.614449
_symmetry_space_group_name_H-M "P -1"
_symmetry_group_IT_number 2
_symmetry_cell_setting 'triclinic'
loop_
_space_group_symop_operation_xyz
x,y,z
-x,-y,-z
loop_
_atom_site_type_symbol
_atom_site_label
_atom_site_fract_x
_atom_site_fract_y
_atom_site_fract_z
Si Si1 0.441672 0.095266 0.324844
Si Si2 0.140133 0.396980 0.678052
Si Si3 0.466207 0.795577 0.342228
Si Si4 0.119185 0.763641 0.360523
Si Si5 0.291508 0.570837 0.648319
Si Si6 0.453320 0.306179 0.215177
Si Si7 0.149901 0.892047 0.671905
O O1 0.540417 0.083936 0.459376
O O2 0.635427 0.160918 0.447199
O O3 0.290024 0.320291 0.451377
O O4 0.303381 0.823767 0.955038
O O5 0.321261 0.351427 0.680692
O O6 0.930059 0.474738 0.582358
O O7 0.067298 0.160130 0.457697
O O8 0.237803 0.617895 0.012443
O O9 0.500000 0.000000 0.500000
O O10 0.131799 0.712641 0.409864
O O11 0.000000 0.000000 0.500000
O O12 0.000000 0.500000 0.000000
O O13 0.511178 0.585493 0.742361
O O14 0.500000 0.500000 0.500000
O O15 0.642454 0.125685 0.162261
O O16 0.201917 0.167955 0.937736
#
# Coordination Sequence:
#
# PCOD8011201 Si02
#       7
#     2   2   2   2   2   2   2
#     4  12  27  49  75 110 150 193 245 318 366 439
#     4  10  26  48  72 107 142 201 249 308 369 445
#     4  11  28  49  76  99 149 195 259 303 378 449
#     4  12  26  42  69 104 147 191 233 286 370 442
#     4  11  26  46  78 113 150 187 252 308 377 427
#     4  10  21  38  70 102 145 186 225 292 358 440
#     4  10  22  40  65 102 139 184 233 288 353 438
#
# _framework density 24.492032999999999
#
# number of rings (size 3 to 8) (size 9 to 14) (size 15 to 20)
#    0.000    1.143    1.429    2.571   14.000    2.286 
#    0.000    0.000    0.000    0.000    0.000    0.000 
#    0.000    0.000    0.000    0.000    0.000    0.000 
#
# Total GULP energy -173502.470083 kJ/mol
# GULP energy per Si atom -12393.033577 kJ/mol
# Density = 2.443629 g / cm^3
# Si number density = 24.492033 Si / 1000 Ang^3
#
#
#
# Elastic Constant Matrix: (Units=GPa)
#
#
# Indices 1 2 3 4 5 6 
#
# 1 72.7470 19.4106 39.7556 -10.1670 -17.4889 13.5904
# 2 19.4106 99.5831 45.9983 9.7339 0.9685 15.6010
# 3 39.7556 45.9983 174.9649 1.2412 -15.5739 -2.6722
# 4 -10.1670 9.7339 1.2412 41.6924 -3.5001 -2.7960
# 5 -17.4889 0.9685 -15.5739 -3.5001 42.2107 -5.7192
# 6 13.5904 15.6010 -2.6722 -2.7960 -5.7192 30.1007
#
#
#
# Elastic Compliance Matrix: (Units=1/GPa)
#
#
# Indices 1 2 3 4 5 6 
#
# 1 0.019707 -0.001746 -0.003584 0.005419 0.006440 -0.006583
# 2 -0.001746 0.013750 -0.003644 -0.004369 -0.003801 -0.007790
# 3 -0.003584 -0.003644 0.007744 0.000232 0.002100 0.004615
# 4 0.005419 -0.004369 0.000232 0.026972 0.005117 0.003316
# 5 0.006440 -0.003801 0.002100 0.005117 0.028337 0.005109
# 6 -0.006583 -0.007790 0.004615 0.003316 0.005109 0.041920
#
#
# Mechanical properties :
#
#
# Convention : Reuss Voigt Hill
#
# Bulk Modulus (GPa) = 43.01093 61.95823 52.48458
# Shear Modulus (GPa) = 30.46364 38.94279 34.70322
#
# Velocity S-wave (km/s) = 3.53061 3.99183 3.76828
# Velocity P-wave (km/s) = 5.84975 6.82631 6.35681
#
# Compressibility (1/GPa) = 0.02324991
#
# Stress axis : x y z
#
# Youngs Moduli (GPa) = 50.74456 72.72692 129.13616
#
# Poissons Ratio (x) = 0.12702 0.46287
# Poissons Ratio (y) = 0.08862 0.47062
# Poissons Ratio (z) = 0.18189 0.26505
#
# Static dielectric constant tensor:
#      x y z
#    x 4.827620 0.204090 0.123330 
#    y 0.204090 5.771230 -0.256020 
#    z 0.123330 -0.256020 4.825950 
# 
# 
# High freq. dielectric constant tensor:
#      x y z
#    x 1.969510 0.012670 -0.001510 
#    y 0.012670 1.970060 0.000350 
#    z -0.001510 0.000350 1.986560 
# 
# From -- ./inp_files/570417.got.cif
#   From: 2010.06.25/outbox.cif.g09.slc.cpg/sg2_286_cif.got.tgz:570417.got - 2010.06.27 13:26:56.
