data_PCOD8011253
_publ_section_title
;
Structure prediction by ZEFSAII (Michael W. Deem and Ramdas Pophale) SiO2 
 PCOD8011253
Probable space group: P -1
;
_chemical_formula_sum "Si O2"
_cell_formula_units_Z 16
_cell_length_a 29.023908
_cell_length_b 26.771649
_cell_length_c 11.686702
_cell_angle_alpha 30.826288
_cell_angle_beta 30.262287
_cell_angle_gamma 9.621665
_cell_volume 762.138035
_symmetry_space_group_name_H-M "P -1"
_symmetry_group_IT_number 2
_symmetry_cell_setting 'triclinic'
loop_
_space_group_symop_operation_xyz
x,y,z
-x,-y,-z
loop_
_atom_site_type_symbol
_atom_site_label
_atom_site_fract_x
_atom_site_fract_y
_atom_site_fract_z
Si Si1 0.285959 0.415114 0.210197
Si Si2 0.363349 0.949209 0.036226
Si Si3 0.924272 0.576870 0.379949
Si Si4 0.108223 0.103420 0.481854
Si Si5 0.440975 0.108018 0.080972
Si Si6 0.267206 0.352359 0.731592
Si Si7 0.642665 0.109238 0.263477
Si Si8 0.517598 0.596811 0.781372
O O1 0.305705 0.275663 0.446068
O O2 0.444593 0.304494 0.192873
O O3 0.425190 0.312186 0.995536
O O4 0.961671 0.772510 0.202952
O O5 0.533445 0.838054 0.983243
O O6 0.200978 0.028160 0.298822
O O7 0.165175 0.223851 0.853248
O O8 0.000000 0.500000 0.500000
O O9 0.205299 0.267988 0.313074
O O10 0.023273 0.293679 0.350176
O O11 0.842489 0.300400 0.661568
O O12 0.355277 0.808700 0.606171
O O13 0.330172 0.275920 0.879102
O O14 0.731083 0.754369 0.128468
O O15 0.531883 0.144695 0.524263
O O16 0.615117 0.240591 0.130195
O O17 0.500000 0.500000 0.000000
#
# Coordination Sequence:
#
# PCOD8011253 Si02
#       8
#     2   2   2   2   2   2   2   2
#     4  12  25  39  61  91 134 179 224 266 301 367
#     4  12  25  38  61  89 133 181 231 263 313 364
#     4  12  23  39  56  88 133 191 239 267 298 352
#     4  11  24  43  71  99 131 168 214 270 335 399
#     4  11  22  38  57  86 136 178 233 273 314 355
#     4  10  21  39  57  91 128 174 218 275 317 369
#     4  11  23  41  64  93 125 163 213 264 333 388
#     4  11  25  48  77 104 126 156 202 272 353 423
#
# _framework density 20.993570999999999
#
# number of rings (size 3 to 8) (size 9 to 14) (size 15 to 20)
#    0.000    0.750    3.750    5.250    0.000    0.500 
#    0.000    0.000    0.000    4.500    0.000    0.000 
#    0.000    0.000    0.000    0.000    0.000    0.000 
#
# Total GULP energy -198348.190089 kJ/mol
# GULP energy per Si atom -12396.761881 kJ/mol
# Density = 2.094579 g / cm^3
# Si number density = 20.993571 Si / 1000 Ang^3
#
#
#
# Elastic Constant Matrix: (Units=GPa)
#
#
# Indices 1 2 3 4 5 6 
#
# 1 130.2841 37.5598 50.8226 0.2451 15.2530 7.8170
# 2 37.5598 80.9315 27.0281 12.2231 18.2407 8.0201
# 3 50.8226 27.0281 76.0898 0.8002 8.5988 16.3839
# 4 0.2451 12.2231 0.8002 35.5187 7.2067 8.1768
# 5 15.2530 18.2407 8.5988 7.2067 33.1520 2.4806
# 6 7.8170 8.0201 16.3839 8.1768 2.4806 38.2280
#
#
#
# Elastic Compliance Matrix: (Units=1/GPa)
#
#
# Indices 1 2 3 4 5 6 
#
# 1 0.011212 -0.002824 -0.006442 0.001288 -0.002283 0.000933
# 2 -0.002824 0.016842 -0.003315 -0.004413 -0.006134 -0.000193
# 3 -0.006442 -0.003315 0.020184 0.002464 -0.000449 -0.007136
# 4 0.001288 -0.004413 0.002464 0.032285 -0.005302 -0.006955
# 5 -0.002283 -0.006134 -0.000449 -0.005302 0.035802 0.000757
# 6 0.000933 -0.000193 -0.007136 -0.006955 0.000757 0.030505
#
#
# Mechanical properties :
#
#
# Convention : Reuss Voigt Hill
#
# Bulk Modulus (GPa) = 43.33610 57.56961 50.45286
# Shear Modulus (GPa) = 27.82670 32.83939 30.33304
#
# Velocity S-wave (km/s) = 3.64467 3.95936 3.80527
# Velocity P-wave (km/s) = 6.19668 6.95587 6.58722
#
# Compressibility (1/GPa) = 0.02307545
#
# Stress axis : x y z
#
# Youngs Moduli (GPa) = 89.19396 59.37558 49.54455
#
# Poissons Ratio (x) = 0.16769 0.31916
# Poissons Ratio (y) = 0.25191 0.16423
# Poissons Ratio (z) = 0.57457 0.19682
#
# Static dielectric constant tensor:
#      x y z
#    x 3.847370 0.334270 -0.027200 
#    y 0.334270 4.021790 0.416960 
#    z -0.027200 0.416960 3.496490 
# 
# 
# High freq. dielectric constant tensor:
#      x y z
#    x 1.823540 0.000700 0.024930 
#    y 0.000700 1.836260 0.020530 
#    z 0.024930 0.020530 1.792080 
# 
# From -- ./inp_files/108849.got.cif
#   From: 2010.06.25/outbox.cif.g09.slc.cpg/sg2_55_cif.got.tgz:108849.got - 2010.06.27 13:26:56.
