data_PCOD8011057
_publ_section_title
;
Structure prediction by ZEFSAII (Michael W. Deem and Ramdas Pophale) SiO2 
 PCOD8011057
Probable space group: P -1
;
_chemical_formula_sum "Si O2"
_cell_formula_units_Z 14
_cell_length_a 5.547252
_cell_length_b 9.504948
_cell_length_c 14.399870
_cell_angle_alpha 107.761502
_cell_angle_beta 112.881328
_cell_angle_gamma 96.298175
_cell_volume 643.216496
_symmetry_space_group_name_H-M "P -1"
_symmetry_group_IT_number 2
_symmetry_cell_setting 'triclinic'
loop_
_space_group_symop_operation_xyz
x,y,z
-x,-y,-z
loop_
_atom_site_type_symbol
_atom_site_label
_atom_site_fract_x
_atom_site_fract_y
_atom_site_fract_z
Si Si1 0.227472 0.165039 0.740280
Si Si2 0.505843 0.587447 0.422944
Si Si3 0.137844 0.461455 0.702741
Si Si4 0.603455 0.976358 0.762561
Si Si5 0.625475 0.205286 0.143891
Si Si6 0.835600 0.929559 0.076332
Si Si7 0.287592 0.072918 0.433443
O O1 0.233538 0.337513 0.753334
O O2 0.201916 0.142029 0.841381
O O3 0.504998 0.124298 0.744609
O O4 0.003588 0.045927 0.620941
O O5 0.500000 0.500000 0.500000
O O6 0.669913 0.513683 0.356114
O O7 0.692192 0.761440 0.487144
O O8 0.190038 0.587045 0.361667
O O9 0.205022 0.619996 0.800938
O O10 0.385923 0.847364 0.760367
O O11 0.674732 0.897172 0.665296
O O12 0.843725 0.036252 0.886132
O O13 0.770836 0.094181 0.088546
O O14 0.334924 0.190564 0.047449
O O15 0.500000 0.000000 0.500000
#
# Coordination Sequence:
#
# PCOD8011057 Si02
#       7
#     2   2   2   2   2   2   2
#     4  10  23  40  64  97 128 171 220 268 323 397
#     4  12  28  44  65  97 136 177 222 268 329 386
#     4  12  27  44  65  99 137 171 218 277 328 390
#     4  10  21  38  66  93 125 168 227 268 320 396
#     4  10  22  41  66  94 129 168 215 280 327 393
#     4   9  21  42  68  94 124 168 222 265 337 390
#     4  11  22  40  64  89 130 176 217 266 318 390
#
# _framework density 21.765611
#
# number of rings (size 3 to 8) (size 9 to 14) (size 15 to 20)
#    0.000    1.429    1.429    2.571   12.000    1.714 
#    0.000    0.714    0.000    0.000    0.000    0.000 
#    0.000    0.000    0.000    0.000    0.000    0.000 
#
# Total GULP energy -173465.920366 kJ/mol
# GULP energy per Si atom -12390.422883 kJ/mol
# Density = 2.171607 g / cm^3
# Si number density = 21.765611 Si / 1000 Ang^3
#
#
#
# Elastic Constant Matrix: (Units=GPa)
#
#
# Indices 1 2 3 4 5 6 
#
# 1 89.3426 15.5545 17.3846 -0.4292 15.2692 -5.7773
# 2 15.5545 139.0904 45.4240 13.3493 17.7412 -1.5990
# 3 17.3846 45.4240 88.2469 2.9896 16.8507 -0.7221
# 4 -0.4292 13.3493 2.9896 31.9436 -4.4195 3.4924
# 5 15.2692 17.7412 16.8507 -4.4195 31.8555 -7.9841
# 6 -5.7773 -1.5990 -0.7221 3.4924 -7.9841 27.5192
#
#
#
# Elastic Compliance Matrix: (Units=1/GPa)
#
#
# Indices 1 2 3 4 5 6 
#
# 1 0.012406 -0.000277 -0.001356 -0.000390 -0.004827 0.001202
# 2 -0.000277 0.009348 -0.003937 -0.004022 -0.003586 -0.000148
# 3 -0.001356 -0.003937 0.014646 -0.000305 -0.005359 -0.001645
# 4 -0.000390 -0.004022 -0.000305 0.034229 0.006650 -0.002738
# 5 -0.004827 -0.003586 -0.005359 0.006650 0.041958 0.009967
# 6 0.001202 -0.000148 -0.001645 -0.002738 0.009967 0.039778
#
#
# Mechanical properties :
#
#
# Convention : Reuss Voigt Hill
#
# Bulk Modulus (GPa) = 39.59220 52.60068 46.09644
# Shear Modulus (GPa) = 29.08226 34.15144 31.61685
#
# Velocity S-wave (km/s) = 3.65931 3.96543 3.81544
# Velocity P-wave (km/s) = 6.00698 6.72202 6.37453
#
# Compressibility (1/GPa) = 0.02525750
#
# Stress axis : x y z
#
# Youngs Moduli (GPa) = 80.60646 106.97349 68.27818
#
# Poissons Ratio (x) = 0.02968 0.09261
# Poissons Ratio (y) = 0.02236 0.26884
# Poissons Ratio (z) = 0.10933 0.42121
#
# Static dielectric constant tensor:
#      x y z
#    x 4.269290 -0.098120 0.196180 
#    y -0.098120 3.940610 -0.068190 
#    z 0.196180 -0.068190 4.111330 
# 
# 
# High freq. dielectric constant tensor:
#      x y z
#    x 1.859020 -0.003180 0.007320 
#    y -0.003180 1.853030 -0.016460 
#    z 0.007320 -0.016460 1.858080 
# 
# From -- ./inp_files/26970.got.cif
#   From: 2010.06.25/outbox.cif.g09.slc.cpg/sg2_14_cif.got.tgz:26970.got - 2010.06.27 13:26:56.
