data_PCOD8011800
_publ_section_title
;
Structure prediction by ZEFSAII (Michael W. Deem and Ramdas Pophale) SiO2 
 PCOD8011800
Probable space group: P -1
;
_chemical_formula_sum "Si O2"
_cell_formula_units_Z 16
_cell_length_a 8.391989
_cell_length_b 20.443335
_cell_length_c 13.964294
_cell_angle_alpha 32.888936
_cell_angle_beta 38.449844
_cell_angle_gamma 41.051223
_cell_volume 775.208536
_symmetry_space_group_name_H-M "P -1"
_symmetry_group_IT_number 2
_symmetry_cell_setting 'triclinic'
loop_
_space_group_symop_operation_xyz
x,y,z
-x,-y,-z
loop_
_atom_site_type_symbol
_atom_site_label
_atom_site_fract_x
_atom_site_fract_y
_atom_site_fract_z
Si Si1 0.250066 0.426655 0.908169
Si Si2 0.305431 0.438875 0.461147
Si Si3 0.256933 0.150075 0.244451
Si Si4 0.061548 0.444541 0.759726
Si Si5 0.188575 0.016384 0.615324
Si Si6 0.820680 0.945698 0.218790
Si Si7 0.139414 0.782551 0.823798
Si Si8 0.324438 0.296021 0.449556
O O1 0.511716 0.469044 0.757186
O O2 0.183165 0.451592 0.797642
O O3 0.322425 0.279458 0.079655
O O4 0.000000 0.500000 0.000000
O O5 0.415478 0.319468 0.485904
O O6 0.000000 0.500000 0.500000
O O7 0.303467 0.403667 0.617955
O O8 0.084617 0.115105 0.455986
O O9 0.094294 0.160458 0.211120
O O10 0.523075 0.037607 0.243683
O O11 0.864531 0.579063 0.662062
O O12 0.894203 0.343418 0.958062
O O13 0.052324 0.068424 0.716504
O O14 0.500000 0.000000 0.500000
O O15 0.127852 0.884519 0.786100
O O16 0.832192 0.808397 0.343500
O O17 0.000000 0.000000 0.000000
O O18 0.421178 0.753397 0.675635
#
# Coordination Sequence:
#
# PCOD8011800 Si02
#       8
#     2   2   2   2   2   2   2   2
#     4  11  24  43  69  99 129 173 217 267 324 386
#     4  10  23  41  63  94 131 172 207 276 322 375
#     4  10  23  42  67  93 128 164 214 269 317 379
#     4  10  24  39  65  95 132 169 211 270 322 381
#     4  10  21  39  64  91 121 168 206 260 313 381
#     4  11  26  42  63  94 127 173 213 260 320 387
#     4  11  21  42  66  96 126 164 217 268 324 378
#     4  11  23  41  63  95 128 168 220 259 322 389
#
# _framework density 20.639609
#
# number of rings (size 3 to 8) (size 9 to 14) (size 15 to 20)
#    0.000    1.500    2.500    2.625    7.000    4.000 
#    0.000    0.625    0.000    0.000    0.000    0.000 
#    0.000    0.000    0.000    0.000    0.000    0.000 
#
# Total GULP energy -198388.292103 kJ/mol
# GULP energy per Si atom -12399.268256 kJ/mol
# Density = 2.059263 g / cm^3
# Si number density = 20.639609 Si / 1000 Ang^3
#
#
#
# Elastic Constant Matrix: (Units=GPa)
#
#
# Indices 1 2 3 4 5 6 
#
# 1 91.5326 46.2825 61.3164 -13.8151 -11.7986 23.8950
# 2 46.2825 65.8697 57.7085 -13.3517 0.2161 21.8006
# 3 61.3164 57.7085 168.8682 -11.5284 -15.0144 18.0886
# 4 -13.8151 -13.3517 -11.5284 40.8661 6.9079 -1.7991
# 5 -11.7986 0.2161 -15.0144 6.9079 45.2143 -3.0856
# 6 23.8950 21.8006 18.0886 -1.7991 -3.0856 41.3103
#
#
#
# Elastic Compliance Matrix: (Units=1/GPa)
#
#
# Indices 1 2 3 4 5 6 
#
# 1 0.019575 -0.009108 -0.003029 0.001980 0.003513 -0.004841
# 2 -0.009108 0.031551 -0.006693 0.006018 -0.006260 -0.008656
# 3 -0.003029 -0.006693 0.009328 -0.000956 0.002577 0.001351
# 4 0.001980 0.006018 -0.000956 0.027417 -0.004225 -0.003024
# 5 0.003513 -0.006260 0.002577 -0.004225 0.024688 0.001803
# 6 -0.004841 -0.008656 0.001351 -0.003024 0.001803 0.030987
#
#
# Mechanical properties :
#
#
# Convention : Reuss Voigt Hill
#
# Bulk Modulus (GPa) = 43.87381 72.98727 58.43054
# Shear Modulus (GPa) = 26.48226 36.20901 31.34563
#
# Velocity S-wave (km/s) = 3.58590 4.19303 3.90129
# Velocity P-wave (km/s) = 6.20065 7.67343 6.97602
#
# Compressibility (1/GPa) = 0.02279264
#
# Stress axis : x y z
#
# Youngs Moduli (GPa) = 51.08484 31.69489 107.20141
#
# Poissons Ratio (x) = 0.28869 0.32472
# Poissons Ratio (y) = 0.46531 0.71753
# Poissons Ratio (z) = 0.15474 0.21214
#
# Static dielectric constant tensor:
#      x y z
#    x 0.000000 0.000000 0.000000 
#    y 0.000000 0.000000 0.000000 
#    z 0.000000 0.000000 0.000000 
# 
# 
# High freq. dielectric constant tensor:
#      x y z
#    x 1.814070 0.021940 -0.000860 
#    y 0.021940 1.798850 -0.002190 
#    z -0.000860 -0.002190 1.822840 
# 
# From -- ./inp_files/507862.got.cif
#   From: 2010.06.25/outbox.cif.g09.slc.cpg/sg2_254_cif.got.tgz:507862.got - 2010.06.27 13:26:56.
