data_PCOD8011993
_publ_section_title
;
Structure prediction by ZEFSAII (Michael W. Deem and Ramdas Pophale) SiO2 
 PCOD8011993
Probable space group: P -1
;
_chemical_formula_sum "Si O2"
_cell_formula_units_Z 14
_cell_length_a 9.209574
_cell_length_b 17.375519
_cell_length_c 12.893555
_cell_angle_alpha 28.289042
_cell_angle_beta 48.710165
_cell_angle_gamma 39.876764
_cell_volume 626.053047
_symmetry_space_group_name_H-M "P -1"
_symmetry_group_IT_number 2
_symmetry_cell_setting 'triclinic'
loop_
_space_group_symop_operation_xyz
x,y,z
-x,-y,-z
loop_
_atom_site_type_symbol
_atom_site_label
_atom_site_fract_x
_atom_site_fract_y
_atom_site_fract_z
Si Si1 0.807598 0.291003 0.395135
Si Si2 0.871801 0.329890 0.813825
Si Si3 0.991571 0.599276 0.542670
Si Si4 0.683530 0.050035 0.885031
Si Si5 0.399891 0.391671 0.731802
Si Si6 0.740637 0.808907 0.602040
Si Si7 0.577771 0.527423 0.043055
O O1 0.705758 0.176877 0.634371
O O2 0.684316 0.513117 0.228852
O O3 0.739960 0.321249 0.268842
O O4 0.078152 0.186193 0.411275
O O5 0.851658 0.520189 0.644848
O O6 0.643462 0.338052 0.942654
O O7 0.890923 0.333514 0.676364
O O8 0.077003 0.137515 0.990570
O O9 0.830957 0.783896 0.470662
O O10 0.180229 0.428784 0.726454
O O11 0.591760 0.167144 0.898810
O O12 0.500000 0.000000 0.000000
O O13 0.500000 0.500000 0.500000
O O14 0.500000 0.000000 0.500000
O O15 0.723228 0.626092 0.849831
O O16 0.500000 0.500000 0.000000
#
# Coordination Sequence:
#
# PCOD8011993 Si02
#       7
#     2   2   2   2   2   2   2
#     4  10  24  44  66  96 138 183 226 277 346 413
#     4  11  22  38  65 100 133 170 227 279 336 390
#     4  10  21  39  65  94 136 174 214 279 340 400
#     4  11  21  36  65 104 137 168 229 285 335 401
#     4   9  18  37  60  90 132 174 209 271 342 401
#     4  11  24  47  71 101 138 179 228 282 341 414
#     4  12  25  45  71  95 135 188 228 279 346 409
#
# _framework density 22.362321999999999
#
# number of rings (size 3 to 8) (size 9 to 14) (size 15 to 20)
#    0.000    1.429    2.857    3.000    2.000    1.143 
#    0.000   12.143    0.000    0.000    0.000    0.000 
#    0.000    0.000    0.000    0.000    0.000    0.000 
#
# Total GULP energy -173516.783761 kJ/mol
# GULP energy per Si atom -12394.055983 kJ/mol
# Density = 2.231142 g / cm^3
# Si number density = 22.362322 Si / 1000 Ang^3
#
#
#
# Elastic Constant Matrix: (Units=GPa)
#
#
# Indices 1 2 3 4 5 6 
#
# 1 113.7065 40.1296 49.7407 4.9723 10.0079 -15.8970
# 2 40.1296 132.8784 35.6730 -0.1636 13.7921 -13.0719
# 3 49.7407 35.6730 100.7428 7.8690 11.2878 -1.6342
# 4 4.9723 -0.1636 7.8690 37.8011 -2.9586 -0.4757
# 5 10.0079 13.7921 11.2878 -2.9586 41.5406 5.0232
# 6 -15.8970 -13.0719 -1.6342 -0.4757 5.0232 35.0091
#
#
#
# Elastic Compliance Matrix: (Units=1/GPa)
#
#
# Indices 1 2 3 4 5 6 
#
# 1 0.012599 -0.001711 -0.005294 -0.000631 -0.001687 0.005069
# 2 -0.001711 0.009142 -0.002126 0.000559 -0.002354 0.002883
# 3 -0.005294 -0.002126 0.013613 -0.002301 -0.001596 -0.002365
# 4 -0.000631 0.000559 -0.002301 0.027216 0.002552 -0.000181
# 5 -0.001687 -0.002354 -0.001596 0.002552 0.026540 -0.005493
# 6 0.005069 0.002883 -0.002365 -0.000181 -0.005493 0.032617
#
#
# Mechanical properties :
#
#
# Convention : Reuss Voigt Hill
#
# Bulk Modulus (GPa) = 58.50523 66.49050 62.49786
# Shear Modulus (GPa) = 34.32037 37.65580 35.98808
#
# Velocity S-wave (km/s) = 3.92183 4.10798 4.01598
# Velocity P-wave (km/s) = 6.83570 7.23177 7.03652
#
# Compressibility (1/GPa) = 0.01709249
#
# Stress axis : x y z
#
# Youngs Moduli (GPa) = 79.37155 109.39053 73.45829
#
# Poissons Ratio (x) = 0.18713 0.38892
# Poissons Ratio (y) = 0.13578 0.15614
# Poissons Ratio (z) = 0.42023 0.23251
#
# Static dielectric constant tensor:
#      x y z
#    x 4.267080 0.209100 -0.103930 
#    y 0.209100 4.705770 0.013260 
#    z -0.103930 0.013260 3.975110 
# 
# 
# High freq. dielectric constant tensor:
#      x y z
#    x 1.889470 -0.013790 -0.004590 
#    y -0.013790 1.883320 0.011400 
#    z -0.004590 0.011400 1.861450 
# 
# From -- ./inp_files/189571.got.cif
#   From: 2010.06.25/outbox.cif.g09.slc.cpg/sg2_95_cif.got.tgz:189571.got - 2010.06.27 13:26:56.
