data_PCOD8011350
_publ_section_title
;
Structure prediction by ZEFSAII (Michael W. Deem and Ramdas Pophale) SiO2 
 PCOD8011350
Probable space group: P -1
;
_chemical_formula_sum "Si O2"
_cell_formula_units_Z 14
_cell_length_a 8.052024
_cell_length_b 6.142543
_cell_length_c 16.510803
_cell_angle_alpha 117.009011
_cell_angle_beta 104.200314
_cell_angle_gamma 57.011935
_cell_volume 610.261826
_symmetry_space_group_name_H-M "P -1"
_symmetry_group_IT_number 2
_symmetry_cell_setting 'triclinic'
loop_
_space_group_symop_operation_xyz
x,y,z
-x,-y,-z
loop_
_atom_site_type_symbol
_atom_site_label
_atom_site_fract_x
_atom_site_fract_y
_atom_site_fract_z
Si Si1 0.293256 0.409648 0.205790
Si Si2 0.960300 0.270468 0.915260
Si Si3 0.753701 0.183636 0.437189
Si Si4 0.606683 0.811065 0.557117
Si Si5 0.370691 0.741484 0.904514
Si Si6 0.618418 0.171963 0.903184
Si Si7 0.161582 0.905433 0.382718
O O1 0.104426 0.633006 0.168655
O O2 0.497728 0.281411 0.160085
O O3 0.289838 0.579647 0.314248
O O4 0.287888 0.128017 0.182629
O O5 0.780755 0.271355 0.940860
O O6 0.145836 0.953170 0.887015
O O7 0.000000 0.500000 0.000000
O O8 0.721851 0.495310 0.484286
O O9 0.555496 0.164519 0.390455
O O10 0.812131 0.061326 0.513943
O O11 0.926614 0.013847 0.362780
O O12 0.500000 0.000000 0.500000
O O13 0.760537 0.908194 0.625485
O O14 0.420204 0.419407 0.877313
O O15 0.423105 0.860699 0.012485
#
# Coordination Sequence:
#
# PCOD8011350 Si02
#       7
#     2   2   2   2   2   2   2
#     4  11  24  40  58  91 126 157 207 253 309 365
#     4  11  23  39  62  90 116 160 214 252 302 368
#     4   9  19  38  65  88 117 161 204 238 305 373
#     4   9  18  37  63  91 114 154 202 243 302 369
#     4  10  22  39  61  86 117 160 205 251 305 360
#     4  10  22  38  63  85 118 163 204 252 306 368
#     4  10  21  39  60  88 124 158 196 258 299 357
#
# _framework density 22.940974000000001
#
# number of rings (size 3 to 8) (size 9 to 14) (size 15 to 20)
#    0.000    2.000    1.429    1.286    4.000    2.286 
#   10.286    0.000    0.000    0.000    0.000    0.000 
#    0.000    0.000    0.000    0.000    0.000    0.000 
#
# Total GULP energy -173446.069191 kJ/mol
# GULP energy per Si atom -12389.004942 kJ/mol
# Density = 2.288876 g / cm^3
# Si number density = 22.940974 Si / 1000 Ang^3
#
#
#
# Elastic Constant Matrix: (Units=GPa)
#
#
# Indices 1 2 3 4 5 6 
#
# 1 147.6489 46.8143 53.2041 31.2505 -11.7590 5.8680
# 2 46.8143 134.4086 11.5092 29.8270 -0.9913 -14.2932
# 3 53.2041 11.5092 66.5388 33.3451 -8.8443 8.6816
# 4 31.2505 29.8270 33.3451 40.1343 -2.1139 7.8334
# 5 -11.7590 -0.9913 -8.8443 -2.1139 21.4330 9.3244
# 6 5.8680 -14.2932 8.6816 7.8334 9.3244 40.5495
#
#
#
# Elastic Compliance Matrix: (Units=1/GPa)
#
#
# Indices 1 2 3 4 5 6 
#
# 1 0.010897 -0.003677 -0.008113 0.001624 0.003613 -0.002280
# 2 -0.003677 0.011500 0.005585 -0.011732 -0.003110 0.006371
# 3 -0.008113 0.005585 0.034896 -0.026176 0.008121 -0.001139
# 4 0.001624 -0.011732 -0.026176 0.055902 -0.000865 -0.009366
# 5 0.003613 -0.003110 0.008121 -0.000865 0.059057 -0.016770
# 6 -0.002280 0.006371 -0.001139 -0.009366 -0.016770 0.033147
#
#
# Mechanical properties :
#
#
# Convention : Reuss Voigt Hill
#
# Bulk Modulus (GPa) = 22.27961 63.51685 42.89823
# Shear Modulus (GPa) = 21.48058 36.22795 28.85427
#
# Velocity S-wave (km/s) = 3.06329 3.97820 3.55034
# Velocity P-wave (km/s) = 4.71640 6.98918 5.96209
#
# Compressibility (1/GPa) = 0.04488410
#
# Stress axis : x y z
#
# Youngs Moduli (GPa) = 91.77059 86.95349 28.65673
#
# Poissons Ratio (x) = 0.31971 0.23249
# Poissons Ratio (y) = 0.33742 -0.16006
# Poissons Ratio (z) = 0.74453 -0.48566
#
# Static dielectric constant tensor:
#      x y z
#    x 4.481770 -0.552940 -0.206200 
#    y -0.552940 3.807450 -0.008510 
#    z -0.206200 -0.008510 3.613860 
# 
# 
# High freq. dielectric constant tensor:
#      x y z
#    x 1.909580 0.002140 -0.013530 
#    y 0.002140 1.921490 0.016550 
#    z -0.013530 0.016550 1.861410 
# 
# From -- ./inp_files/553048.got.cif
#   From: 2010.06.25/outbox.cif.g09.slc.cpg/sg2_277_cif.got.tgz:553048.got - 2010.06.27 13:26:56.
