data_PCOD8011422
_publ_section_title
;
Structure prediction by ZEFSAII (Michael W. Deem and Ramdas Pophale) SiO2 
 PCOD8011422
Probable space group: P -1
;
_chemical_formula_sum "Si O2"
_cell_formula_units_Z 16
_cell_length_a 26.357698
_cell_length_b 8.977534
_cell_length_c 11.592489
_cell_angle_alpha 136.335618
_cell_angle_beta 30.000621
_cell_angle_gamma 148.477108
_cell_volume 715.958707
_symmetry_space_group_name_H-M "P -1"
_symmetry_group_IT_number 2
_symmetry_cell_setting 'triclinic'
loop_
_space_group_symop_operation_xyz
x,y,z
-x,-y,-z
loop_
_atom_site_type_symbol
_atom_site_label
_atom_site_fract_x
_atom_site_fract_y
_atom_site_fract_z
Si Si1 0.949639 0.940740 0.869456
Si Si2 0.461978 0.429247 0.406596
Si Si3 0.615253 0.832594 0.935764
Si Si4 0.882680 0.059512 0.657969
Si Si5 0.085346 0.428988 0.057125
Si Si6 0.638842 0.077741 0.789906
Si Si7 0.615308 0.214653 0.307557
Si Si8 0.249412 0.321292 0.075508
O O1 0.934771 0.731513 0.875176
O O2 0.808835 0.812195 0.013361
O O3 0.036893 0.980216 0.610897
O O4 0.008654 0.229058 0.983822
O O5 0.500000 0.500000 0.500000
O O6 0.386501 0.535953 0.573702
O O7 0.352458 0.081936 0.421171
O O8 0.602402 0.576590 0.143142
O O9 0.746385 0.923388 0.786369
O O10 0.638915 0.903050 0.794726
O O11 0.500000 0.500000 0.000000
O O12 0.583002 0.028091 0.154108
O O13 0.961384 0.390798 0.722471
O O14 0.850777 0.893074 0.746909
O O15 0.242596 0.647555 0.837821
O O16 0.751980 0.417456 0.765193
O O17 0.500000 0.000000 0.000000
O O18 0.500000 0.000000 0.500000
#
# Coordination Sequence:
#
# PCOD8011422 Si02
#       8
#     2   2   2   2   2   2   2   2
#     4  11  24  45  71  90 139 179 228 275 333 400
#     4  11  22  39  63  94 131 172 211 264 337 391
#     4  11  22  39  66  96 131 172 220 278 328 404
#     4  11  24  43  67  97 132 174 229 275 341 392
#     4  10  24  45  66 102 130 173 231 279 328 406
#     4  10  21  39  61  89 130 171 216 263 326 393
#     4  11  22  39  64  99 132 161 211 277 334 390
#     4  11  23  45  62  98 134 174 223 277 326 412
#
# _framework density 22.347657999999999
#
# number of rings (size 3 to 8) (size 9 to 14) (size 15 to 20)
#    0.000    1.250    0.000    8.250    3.500    0.500 
#    6.750    0.000    0.000    0.000    0.000    0.000 
#    0.000    0.000    0.000    0.000    0.000    0.000 
#
# Total GULP energy -198277.161978 kJ/mol
# GULP energy per Si atom -12392.322624 kJ/mol
# Density = 2.229679 g / cm^3
# Si number density = 22.347658 Si / 1000 Ang^3
#
#
#
# Elastic Constant Matrix: (Units=GPa)
#
#
# Indices 1 2 3 4 5 6 
#
# 1 108.8277 41.3170 4.1889 15.5052 11.8556 8.5372
# 2 41.3170 129.1150 17.2041 31.1230 6.8144 11.4413
# 3 4.1889 17.2041 67.0764 17.4824 4.9408 10.4077
# 4 15.5052 31.1230 17.4824 41.1398 -1.8939 8.3968
# 5 11.8556 6.8144 4.9408 -1.8939 33.3937 1.9866
# 6 8.5372 11.4413 10.4077 8.3968 1.9866 42.2900
#
#
#
# Elastic Compliance Matrix: (Units=1/GPa)
#
#
# Indices 1 2 3 4 5 6 
#
# 1 0.011035 -0.002802 0.001101 -0.002450 -0.003583 -0.001086
# 2 -0.002802 0.010423 -0.000589 -0.006487 -0.001368 -0.000757
# 3 0.001101 -0.000589 0.017471 -0.006956 -0.003081 -0.002836
# 4 -0.002450 -0.006487 -0.006956 0.033959 0.005329 -0.003031
# 5 -0.003583 -0.001368 -0.003081 0.005329 0.032298 -0.000724
# 6 -0.001086 -0.000757 -0.002836 -0.003031 -0.000724 0.025404
#
#
# Mechanical properties :
#
#
# Convention : Reuss Voigt Hill
#
# Bulk Modulus (GPa) = 29.11418 47.82656 38.47037
# Shear Modulus (GPa) = 34.10164 39.51863 36.81013
#
# Velocity S-wave (km/s) = 3.91059 4.20975 4.06292
# Velocity P-wave (km/s) = 5.78329 6.71393 6.26591
#
# Compressibility (1/GPa) = 0.03434752
#
# Stress axis : x y z
#
# Youngs Moduli (GPa) = 90.62222 95.93978 57.23809
#
# Poissons Ratio (x) = 0.26881 -0.06299
# Poissons Ratio (y) = 0.25391 0.03373
# Poissons Ratio (z) = -0.09973 0.05654
#
# Static dielectric constant tensor:
#      x y z
#    x 3.217090 0.510730 0.463470 
#    y 0.510730 4.567220 0.180120 
#    z 0.463470 0.180120 4.225280 
# 
# 
# High freq. dielectric constant tensor:
#      x y z
#    x 1.887840 0.009370 0.001450 
#    y 0.009370 1.892080 0.014040 
#    z 0.001450 0.014040 1.877380 
# 
# From -- ./inp_files/206411.got.cif
#   From: 2010.06.25/outbox.cif.g09.slc.cpg/sg2_104_cif.got.tgz:206411.got - 2010.06.27 13:26:56.
