data_PCOD8011427
_publ_section_title
;
Structure prediction by ZEFSAII (Michael W. Deem and Ramdas Pophale) SiO2 
 PCOD8011427
Probable space group: P -1
;
_chemical_formula_sum "Si O2"
_cell_formula_units_Z 16
_cell_length_a 11.789579
_cell_length_b 13.648052
_cell_length_c 8.473868
_cell_angle_alpha 36.704697
_cell_angle_beta 99.929738
_cell_angle_gamma 88.033380
_cell_volume 767.477027
_symmetry_space_group_name_H-M "P -1"
_symmetry_group_IT_number 2
_symmetry_cell_setting 'triclinic'
loop_
_space_group_symop_operation_xyz
x,y,z
-x,-y,-z
loop_
_atom_site_type_symbol
_atom_site_label
_atom_site_fract_x
_atom_site_fract_y
_atom_site_fract_z
Si Si1 0.984562 0.151267 0.036993
Si Si2 0.256882 0.545497 0.348708
Si Si3 0.005266 0.793860 0.384245
Si Si4 0.839836 0.615780 0.721838
Si Si5 0.755249 0.385769 0.206771
Si Si6 0.367787 0.759897 0.886596
Si Si7 0.356364 0.332140 0.951074
Si Si8 0.210649 0.129312 0.333731
O O1 0.082022 0.136453 0.218364
O O2 0.952971 0.969930 0.245489
O O3 0.870489 0.307982 0.854145
O O4 0.037436 0.183332 0.837490
O O5 0.247492 0.383686 0.449103
O O6 0.304761 0.466766 0.627903
O O7 0.353152 0.629325 0.186903
O O8 0.962880 0.638147 0.650320
O O9 0.151755 0.740145 0.487860
O O10 0.792944 0.759092 0.655916
O O11 0.846603 0.432791 0.040289
O O12 0.667527 0.291986 0.227211
O O13 0.665152 0.553242 0.045280
O O14 0.277893 0.945224 0.657220
O O15 0.504022 0.766127 0.911996
O O16 0.286347 0.189367 0.136661
#
# Coordination Sequence:
#
# PCOD8011427 Si02
#       8
#     2   2   2   2   2   2   2   2
#     4  11  24  37  64  88 126 157 192 247 308 364
#     4  11  24  41  62  92 121 159 201 247 302 355
#     4  11  21  39  56  93 125 155 191 243 308 361
#     4  10  24  36  60  89 124 155 195 249 298 361
#     4  10  21  39  61  90 117 157 202 245 297 352
#     4  11  23  42  64  88 121 161 204 247 294 354
#     4  11  23  42  64  88 121 161 204 247 294 354
#     4  11  24  41  62  92 121 159 201 247 302 355
#
# _framework density 20.847529000000002
#
# number of rings (size 3 to 8) (size 9 to 14) (size 15 to 20)
#    0.000    1.250    2.500    3.000    7.000    2.000 
#    0.000    0.625    0.000    0.000    0.000    0.000 
#    0.000    0.000    0.000    0.000    0.000    0.000 
#
# Total GULP energy -198294.478440 kJ/mol
# GULP energy per Si atom -12393.404902 kJ/mol
# Density = 2.080008 g / cm^3
# Si number density = 20.847529 Si / 1000 Ang^3
#
#
#
# Elastic Constant Matrix: (Units=GPa)
#
#
# Indices 1 2 3 4 5 6 
#
# 1 75.7141 14.7112 22.4764 8.9690 2.9274 9.7980
# 2 14.7112 94.7761 7.9139 -3.7896 3.5383 -0.1540
# 3 22.4764 7.9139 47.2426 3.3921 10.4814 6.3724
# 4 8.9690 -3.7896 3.3921 14.6497 -1.7088 -5.6873
# 5 2.9274 3.5383 10.4814 -1.7088 31.7184 -2.1941
# 6 9.7980 -0.1540 6.3724 -5.6873 -2.1941 18.9388
#
#
#
# Elastic Compliance Matrix: (Units=1/GPa)
#
#
# Indices 1 2 3 4 5 6 
#
# 1 0.019141 -0.003166 -0.005245 -0.016679 -0.001502 -0.013346
# 2 -0.003166 0.011450 -0.001548 0.006979 0.000205 0.004371
# 3 -0.005245 -0.001548 0.028194 -0.008998 -0.009880 -0.010632
# 4 -0.016679 0.006979 -0.008998 0.100601 0.012151 0.043332
# 5 -0.001502 0.000205 -0.009880 0.012151 0.036391 0.011968
# 6 -0.013346 0.004371 -0.010632 0.043332 0.011968 0.077718
#
#
# Mechanical properties :
#
#
# Convention : Reuss Voigt Hill
#
# Bulk Modulus (GPa) = 25.72844 34.21509 29.97176
# Shear Modulus (GPa) = 16.32017 24.57013 20.44515
#
# Velocity S-wave (km/s) = 2.80095 3.43675 3.13501
# Velocity P-wave (km/s) = 4.77792 5.67415 5.24521
#
# Compressibility (1/GPa) = 0.03886750
#
# Stress axis : x y z
#
# Youngs Moduli (GPa) = 52.24457 87.33358 35.46798
#
# Poissons Ratio (x) = 0.27646 0.18604
# Poissons Ratio (y) = 0.16538 0.05491
# Poissons Ratio (z) = 0.27403 0.13522
#
# Static dielectric constant tensor:
#      x y z
#    x 3.674200 0.071440 -0.267110 
#    y 0.071440 3.899780 0.046750 
#    z -0.267110 0.046750 3.845380 
# 
# 
# High freq. dielectric constant tensor:
#      x y z
#    x 1.801910 0.002010 -0.013380 
#    y 0.002010 1.826440 0.003100 
#    z -0.013380 0.003100 1.817620 
# 
# From -- ./inp_files/188719.got.cif
#   From: 2010.06.25/outbox.cif.g09.slc.cpg/sg2_95_cif.got.tgz:188719.got - 2010.06.27 13:26:56.
