data_PCOD8011237
_publ_section_title
;
Structure prediction by ZEFSAII (Michael W. Deem and Ramdas Pophale) SiO2 
 PCOD8011237
Probable space group: P -1
;
_chemical_formula_sum "Si O2"
_cell_formula_units_Z 16
_cell_length_a 7.542710
_cell_length_b 8.749345
_cell_length_c 26.172017
_cell_angle_alpha 48.163434
_cell_angle_beta 76.342456
_cell_angle_gamma 111.711983
_cell_volume 856.599171
_symmetry_space_group_name_H-M "P -1"
_symmetry_group_IT_number 2
_symmetry_cell_setting 'triclinic'
loop_
_space_group_symop_operation_xyz
x,y,z
-x,-y,-z
loop_
_atom_site_type_symbol
_atom_site_label
_atom_site_fract_x
_atom_site_fract_y
_atom_site_fract_z
Si Si1 0.598928 0.165740 0.710584
Si Si2 0.399786 0.758319 0.414598
Si Si3 0.681277 0.464951 0.013263
Si Si4 0.440000 0.817406 0.177558
Si Si5 0.920643 0.162909 0.625842
Si Si6 0.987989 0.751575 0.727613
Si Si7 0.006523 0.603911 0.868152
Si Si8 0.065463 0.873987 0.985283
O O1 0.608665 0.331737 0.624145
O O2 0.617902 0.296126 0.734361
O O3 0.830574 0.182290 0.683004
O O4 0.319589 0.819632 0.801380
O O5 0.263105 0.875422 0.396654
O O6 0.231981 0.469600 0.526618
O O7 0.699261 0.016838 0.357663
O O8 0.510366 0.116039 0.104758
O O9 0.500000 0.500000 0.000000
O O10 0.921512 0.649505 0.915401
O O11 0.808044 0.616052 0.025745
O O12 0.166985 0.549605 0.226080
O O13 0.676359 0.873034 0.124420
O O14 0.881453 0.887584 0.688366
O O15 0.921697 0.664710 0.811127
O O16 0.867589 0.266879 0.952067
O O17 0.000000 0.000000 0.000000
#
# Coordination Sequence:
#
# PCOD8011237 Si02
#       8
#     2   2   2   2   2   2   2   2
#     4   9  17  38  61  78 114 155 190 237 290 348
#     4   8  19  39  65  84 117 149 200 239 294 360
#     4  11  24  39  58  80 120 159 199 238 298 345
#     4  11  23  38  54  86 122 150 193 250 288 338
#     4   9  19  38  66  85 111 160 194 237 305 351
#     4  11  23  34  62  91 119 147 204 245 285 353
#     4  10  21  39  56  83 117 156 197 242 283 348
#     4  11  24  39  60  80 118 158 197 244 292 345
#
# _framework density 18.678515000000001
#
# number of rings (size 3 to 8) (size 9 to 14) (size 15 to 20)
#    0.750    1.250    2.500    1.125    7.000    1.000 
#    0.000    1.250    0.000    0.000    0.000    0.000 
#    0.000    0.000    0.000    0.000    0.000    0.000 
#
# Total GULP energy -198247.925761 kJ/mol
# GULP energy per Si atom -12390.495360 kJ/mol
# Density = 1.863600 g / cm^3
# Si number density = 18.678515 Si / 1000 Ang^3
#
#
#
# Elastic Constant Matrix: (Units=GPa)
#
#
# Indices 1 2 3 4 5 6 
#
# 1 84.4097 41.7737 39.9379 -2.7028 -0.6609 -9.0648
# 2 41.7737 124.8313 61.2074 -1.2333 -8.2056 -4.5072
# 3 39.9379 61.2074 102.2575 10.1307 -10.3943 -3.5584
# 4 -2.7028 -1.2333 10.1307 25.0532 -3.7297 -4.9430
# 5 -0.6609 -8.2056 -10.3943 -3.7297 30.4233 3.3210
# 6 -9.0648 -4.5072 -3.5584 -4.9430 3.3210 28.1543
#
#
#
# Elastic Compliance Matrix: (Units=1/GPa)
#
#
# Indices 1 2 3 4 5 6 
#
# 1 0.016393 -0.002865 -0.005168 0.004415 -0.002209 0.005202
# 2 -0.002865 0.012232 -0.006356 0.003194 0.001388 0.000629
# 3 -0.005168 -0.006356 0.016593 -0.007560 0.003165 -0.002285
# 4 0.004415 0.003194 -0.007560 0.045765 0.003040 0.008654
# 5 -0.002209 0.001388 0.003165 0.003040 0.035053 -0.003690
# 6 0.005202 0.000629 -0.002285 0.008654 -0.003690 0.038960
#
#
# Mechanical properties :
#
#
# Convention : Reuss Voigt Hill
#
# Bulk Modulus (GPa) = 60.83049 66.37071 63.60060
# Shear Modulus (GPa) = 25.09355 27.96479 26.52917
#
# Velocity S-wave (km/s) = 3.66928 3.87352 3.77278
# Velocity P-wave (km/s) = 7.11261 7.45760 7.28715
#
# Compressibility (1/GPa) = 0.01643912
#
# Stress axis : x y z
#
# Youngs Moduli (GPa) = 61.00117 81.75603 60.26577
#
# Poissons Ratio (x) = 0.23427 0.31147
# Poissons Ratio (y) = 0.17480 0.38302
# Poissons Ratio (z) = 0.31527 0.51961
#
# Static dielectric constant tensor:
#      x y z
#    x 3.528470 -0.158310 -0.332990 
#    y -0.158310 3.511640 0.534300 
#    z -0.332990 0.534300 3.838220 
# 
# 
# High freq. dielectric constant tensor:
#      x y z
#    x 1.717420 0.003120 -0.012180 
#    y 0.003120 1.698850 0.017880 
#    z -0.012180 0.017880 1.731730 
# 
# From -- ./inp_files/616645.got.cif
#   From: 2010.06.25/outbox.cif.g09.slc.cpg/sg2_309_cif.got.tgz:616645.got - 2010.06.27 13:26:56.
