data_PCOD8011061
_publ_section_title
;
Structure prediction by ZEFSAII (Michael W. Deem and Ramdas Pophale) SiO2 
 PCOD8011061
Probable space group: P -1
;
_chemical_formula_sum "Si O2"
_cell_formula_units_Z 16
_cell_length_a 15.169129
_cell_length_b 9.826977
_cell_length_c 6.389191
_cell_angle_alpha 70.943532
_cell_angle_beta 65.607930
_cell_angle_gamma 87.055979
_cell_volume 816.003562
_symmetry_space_group_name_H-M "P -1"
_symmetry_group_IT_number 2
_symmetry_cell_setting 'triclinic'
loop_
_space_group_symop_operation_xyz
x,y,z
-x,-y,-z
loop_
_atom_site_type_symbol
_atom_site_label
_atom_site_fract_x
_atom_site_fract_y
_atom_site_fract_z
Si Si1 0.303898 0.780439 0.223115
Si Si2 0.202564 0.191357 0.603418
Si Si3 0.473338 0.575112 0.696375
Si Si4 0.647243 0.986855 0.259349
Si Si5 0.664069 0.535124 0.778633
Si Si6 0.952604 0.907279 0.905791
Si Si7 0.452865 0.866664 0.372585
Si Si8 0.864593 0.058117 0.535831
O O1 0.295617 0.608687 0.283209
O O2 0.406558 0.824481 0.215564
O O3 0.215627 0.827170 0.429439
O O4 0.301641 0.864859 0.963249
O O5 0.246201 0.341032 0.380411
O O6 0.277813 0.129514 0.719748
O O7 0.171777 0.078773 0.504675
O O8 0.114512 0.217962 0.839227
O O9 0.500000 0.500000 0.500000
O O10 0.570213 0.585860 0.732124
O O11 0.443723 0.733952 0.608479
O O12 0.376207 0.490861 0.933805
O O13 0.601349 0.010259 0.520481
O O14 0.566388 0.921605 0.203265
O O15 0.039218 0.853203 0.705603
O O16 0.888241 0.001692 0.772045
O O17 0.000000 0.000000 0.000000
#
# Coordination Sequence:
#
# PCOD8011061 Si02
#       8
#     2   2   2   2   2   2   2   2
#     4  12  22  38  60  91 121 161 204 252 299 352
#     4  11  21  39  62  92 121 157 200 251 297 362
#     4  11  22  39  55  77 124 174 204 239 292 348
#     4  11  22  36  57  86 122 161 209 253 289 343
#     4  11  25  37  57  88 126 163 203 243 302 356
#     4   9  20  40  66  91 118 147 197 256 305 358
#     4  11  22  36  55  85 121 166 211 249 287 341
#     4  10  21  38  66  94 113 153 204 246 305 365
#
# _framework density 19.607758
#
# number of rings (size 3 to 8) (size 9 to 14) (size 15 to 20)
#    0.000    1.250    6.250    0.375    0.000    2.000 
#    0.000    0.625    0.000    6.750    0.000    0.000 
#    0.000    0.000    0.000    0.000    0.000    0.000 
#
# Total GULP energy -198281.791827 kJ/mol
# GULP energy per Si atom -12392.611989 kJ/mol
# Density = 1.956313 g / cm^3
# Si number density = 19.607758 Si / 1000 Ang^3
#
#
#
# Elastic Constant Matrix: (Units=GPa)
#
#
# Indices 1 2 3 4 5 6 
#
# 1 79.1995 34.4882 30.4413 -0.1971 -6.8664 1.7867
# 2 34.4882 86.8812 43.2283 -2.1859 -7.6155 5.4839
# 3 30.4413 43.2283 119.0265 -8.1811 -19.2338 6.6327
# 4 -0.1971 -2.1859 -8.1811 33.6948 2.1266 -1.7896
# 5 -6.8664 -7.6155 -19.2338 2.1266 29.3826 -8.0549
# 6 1.7867 5.4839 6.6327 -1.7896 -8.0549 15.7665
#
#
#
# Elastic Compliance Matrix: (Units=1/GPa)
#
#
# Indices 1 2 3 4 5 6 
#
# 1 0.015781 -0.005241 -0.002032 -0.000752 0.001482 0.001561
# 2 -0.005241 0.015923 -0.004410 -0.000199 -0.000957 -0.003601
# 3 -0.002032 -0.004410 0.011611 0.002158 0.005859 0.000118
# 4 -0.000752 -0.000199 0.002158 0.030339 -0.000318 0.002528
# 5 0.001482 -0.000957 0.005859 -0.000318 0.043433 0.019853
# 6 0.001561 -0.003601 0.000118 0.002528 0.019853 0.074882
#
#
# Mechanical properties :
#
#
# Convention : Reuss Voigt Hill
#
# Bulk Modulus (GPa) = 50.12731 55.71363 52.92047
# Shear Modulus (GPa) = 22.52404 27.56541 25.04473
#
# Velocity S-wave (km/s) = 3.39297 3.75352 3.57779
# Velocity P-wave (km/s) = 6.40080 6.87466 6.64196
#
# Compressibility (1/GPa) = 0.01994921
#
# Stress axis : x y z
#
# Youngs Moduli (GPa) = 63.36770 62.80146 86.12211
#
# Poissons Ratio (x) = 0.32914 0.17498
# Poissons Ratio (y) = 0.33211 0.37983
# Poissons Ratio (z) = 0.12875 0.27698
#
# Static dielectric constant tensor:
#      x y z
#    x 3.748660 0.037450 -0.215310 
#    y 0.037450 3.268730 0.006120 
#    z -0.215310 0.006120 3.900960 
# 
# 
# High freq. dielectric constant tensor:
#      x y z
#    x 1.763970 -0.000420 -0.002440 
#    y -0.000420 1.732410 0.006060 
#    z -0.002440 0.006060 1.779880 
# 
# From -- ./inp_files/48212.got.cif
#   From: 2010.06.25/outbox.cif.g09.slc.cpg/sg2_25_cif.got.tgz:48212.got - 2010.06.27 13:26:56.
