data_PCOD8011132
_publ_section_title
;
Structure prediction by ZEFSAII (Michael W. Deem and Ramdas Pophale) SiO2 
 PCOD8011132
Probable space group: P -1
;
_chemical_formula_sum "Si O2"
_cell_formula_units_Z 14
_cell_length_a 23.698551
_cell_length_b 14.809154
_cell_length_c 8.283826
_cell_angle_alpha 39.330886
_cell_angle_beta 144.333212
_cell_angle_gamma 159.564243
_cell_volume 590.802708
_symmetry_space_group_name_H-M "P -1"
_symmetry_group_IT_number 2
_symmetry_cell_setting 'triclinic'
loop_
_space_group_symop_operation_xyz
x,y,z
-x,-y,-z
loop_
_atom_site_type_symbol
_atom_site_label
_atom_site_fract_x
_atom_site_fract_y
_atom_site_fract_z
Si Si1 0.580957 0.726318 0.772499
Si Si2 0.638634 0.788385 0.471155
Si Si3 0.766139 0.442026 0.570329
Si Si4 0.631972 0.035535 0.659652
Si Si5 0.041946 0.949451 0.315097
Si Si6 0.581160 0.201991 0.040781
Si Si7 0.215812 0.402556 0.274241
O O1 0.691656 0.820885 0.738784
O O2 0.706068 0.982723 0.820465
O O3 0.420536 0.620793 0.478141
O O4 0.500000 0.500000 0.000000
O O5 0.500000 0.500000 0.500000
O O6 0.558232 0.844932 0.173503
O O7 0.807542 0.977296 0.488157
O O8 0.564889 0.249528 0.348187
O O9 0.850234 0.586204 0.741147
O O10 0.873897 0.653117 0.388729
O O11 0.759283 0.258571 0.787206
O O12 0.623059 0.162591 0.348754
O O13 0.101916 0.120288 0.372037
O O14 0.000000 0.000000 0.000000
O O15 0.769060 0.490892 0.006030
O O16 0.500000 0.000000 0.000000
#
# Coordination Sequence:
#
# PCOD8011132 Si02
#       7
#     2   2   2   2   2   2   2
#     4  10  21  38  67  97 128 163 223 272 320 391
#     4  11  23  40  67  99 126 171 223 268 327 390
#     4  10  22  38  63  92 130 170 219 255 327 389
#     4  10  21  40  68  95 123 176 222 265 332 394
#     4  12  25  42  64  98 139 173 218 271 331 390
#     4  11  18  40  70  93 125 169 222 272 318 389
#     4  10  21  41  64  99 125 174 219 268 328 385
#
# _framework density 23.696573999999998
#
# number of rings (size 3 to 8) (size 9 to 14) (size 15 to 20)
#    0.000    1.429    7.143    1.286    4.000    1.143 
#    0.000    1.429    0.000    0.000    0.000    0.000 
#    0.000    0.000    0.000    0.000    0.000    0.000 
#
# Total GULP energy -173450.053432 kJ/mol
# GULP energy per Si atom -12389.289531 kJ/mol
# Density = 2.364264 g / cm^3
# Si number density = 23.696574 Si / 1000 Ang^3
#
#
#
# Elastic Constant Matrix: (Units=GPa)
#
#
# Indices 1 2 3 4 5 6 
#
# 1 176.8301 72.5946 36.9414 -22.5061 -0.4684 -32.6742
# 2 72.5946 125.5443 17.8135 -37.2193 4.9990 -3.4677
# 3 36.9414 17.8135 68.4003 -27.4512 5.5088 9.5151
# 4 -22.5061 -37.2193 -27.4512 30.3333 -0.9430 -2.8857
# 5 -0.4684 4.9990 5.5088 -0.9430 30.2981 -19.0416
# 6 -32.6742 -3.4677 9.5151 -2.8857 -19.0416 54.5529
#
#
#
# Elastic Compliance Matrix: (Units=1/GPa)
#
#
# Indices 1 2 3 4 5 6 
#
# 1 0.012603 -0.008761 -0.011113 -0.009945 0.011059 0.012264
# 2 -0.008761 0.019779 0.012922 0.028366 -0.010051 -0.008252
# 3 -0.011113 0.012922 0.036437 0.038456 -0.018081 -0.016467
# 4 -0.009945 0.028366 0.038456 0.093594 -0.016176 -0.011556
# 5 0.011059 -0.010051 -0.018081 -0.016176 0.054858 0.027431
# 6 0.012264 -0.008252 -0.016467 -0.011556 0.027431 0.036987
#
#
# Mechanical properties :
#
#
# Convention : Reuss Voigt Hill
#
# Bulk Modulus (GPa) = 18.20969 69.49707 43.85338
# Shear Modulus (GPa) = 17.45405 39.26523 28.35964
#
# Velocity S-wave (km/s) = 2.71692 4.07504 3.46321
# Velocity P-wave (km/s) = 4.18848 7.17864 5.87691
#
# Compressibility (1/GPa) = 0.05491581
#
# Stress axis : x y z
#
# Youngs Moduli (GPa) = 79.34718 50.55781 27.44471
#
# Poissons Ratio (x) = 0.44292 0.30499
# Poissons Ratio (y) = 0.69513 -0.35464
# Poissons Ratio (z) = 0.88177 -0.65330
#
# Static dielectric constant tensor:
#      x y z
#    x 5.594090 -0.363570 -0.730410 
#    y -0.363570 4.337730 -0.487230 
#    z -0.730410 -0.487230 4.386550 
# 
# 
# High freq. dielectric constant tensor:
#      x y z
#    x 1.969730 -0.027250 -0.019900 
#    y -0.027250 1.927320 -0.037480 
#    z -0.019900 -0.037480 1.903010 
# 
# From -- ./inp_files/277898.got.cif
#   From: 2010.06.25/outbox.cif.g09.slc.cpg/sg2_139_cif.got.tgz:277898.got - 2010.06.27 13:26:56.
