data_PCOD8011783
_publ_section_title
;
Structure prediction by ZEFSAII (Michael W. Deem and Ramdas Pophale) SiO2 
 PCOD8011783
Probable space group: P -1
;
_chemical_formula_sum "Si O2"
_cell_formula_units_Z 16
_cell_length_a 6.404826
_cell_length_b 14.006907
_cell_length_c 11.545292
_cell_angle_alpha 131.773333
_cell_angle_beta 88.138950
_cell_angle_gamma 111.750760
_cell_volume 682.223550
_symmetry_space_group_name_H-M "P -1"
_symmetry_group_IT_number 2
_symmetry_cell_setting 'triclinic'
loop_
_space_group_symop_operation_xyz
x,y,z
-x,-y,-z
loop_
_atom_site_type_symbol
_atom_site_label
_atom_site_fract_x
_atom_site_fract_y
_atom_site_fract_z
Si Si1 0.355895 0.314404 0.377774
Si Si2 0.436041 0.049631 0.201372
Si Si3 0.179895 0.566434 0.655500
Si Si4 0.357304 0.313565 0.630838
Si Si5 0.860205 0.158200 0.136300
Si Si6 0.879910 0.477658 0.808734
Si Si7 0.037600 0.310678 0.825853
Si Si8 0.321866 0.004955 0.414527
O O1 0.462758 0.209638 0.330288
O O2 0.580338 0.441295 0.401384
O O3 0.264776 0.340817 0.527544
O O4 0.132038 0.238550 0.235292
O O5 0.673553 0.052195 0.148656
O O6 0.434124 0.991982 0.281950
O O7 0.186332 0.944400 0.057124
O O8 0.234491 0.730050 0.807395
O O9 0.000000 0.500000 0.500000
O O10 0.079479 0.495089 0.724888
O O11 0.636074 0.412412 0.692149
O O12 0.267805 0.373231 0.788777
O O13 0.282639 0.146094 0.526999
O O14 0.858195 0.360852 0.811331
O O15 0.914447 0.624678 0.992265
O O16 0.930498 0.137626 0.685821
O O17 0.500000 0.000000 0.500000
#
# Coordination Sequence:
#
# PCOD8011783 Si02
#       8
#     2   2   2   2   2   2   2   2
#     4  10  22  37  66  98 122 163 209 260 322 381
#     4   9  21  40  61  93 128 161 202 261 320 380
#     4  11  23  39  62  91 129 162 211 260 314 374
#     4  11  23  41  67  98 129 165 219 270 315 386
#     4  10  21  39  64  89 129 165 203 258 319 381
#     4  11  24  45  63  92 132 174 214 265 320 384
#     4  11  25  42  67  90 129 175 216 261 324 379
#     4  11  22  41  67  94 129 168 214 268 322 380
#
# _framework density 23.452721
#
# number of rings (size 3 to 8) (size 9 to 14) (size 15 to 20)
#    0.000    1.500    2.500    1.875    3.500    1.500 
#    0.000    2.500    2.750    0.000    0.000    0.000 
#    0.000    0.000    0.000    0.000    0.000    0.000 
#
# Total GULP energy -198252.784235 kJ/mol
# GULP energy per Si atom -12390.799015 kJ/mol
# Density = 2.339934 g / cm^3
# Si number density = 23.452721 Si / 1000 Ang^3
#
#
#
# Elastic Constant Matrix: (Units=GPa)
#
#
# Indices 1 2 3 4 5 6 
#
# 1 82.1291 25.2339 34.4120 -8.3840 5.0744 31.3487
# 2 25.2339 103.4264 39.9989 -16.6344 -2.6105 15.9771
# 3 34.4120 39.9989 126.2306 -22.1026 -5.0653 22.7800
# 4 -8.3840 -16.6344 -22.1026 35.8146 2.7896 1.1780
# 5 5.0744 -2.6105 -5.0653 2.7896 42.4036 2.0781
# 6 31.3487 15.9771 22.7800 1.1780 2.0781 30.3845
#
#
#
# Elastic Compliance Matrix: (Units=1/GPa)
#
#
# Indices 1 2 3 4 5 6 
#
# 1 0.021520 -0.000878 -0.001029 0.004845 -0.002041 -0.021018
# 2 -0.000878 0.011996 -0.002081 0.004174 0.000518 -0.004039
# 3 -0.001029 -0.002081 0.011086 0.005748 0.001258 -0.006464
# 4 0.004845 0.004174 0.005748 0.035065 -0.001317 -0.012773
# 5 -0.002041 0.000518 0.001258 -0.001317 0.024131 -0.000709
# 6 -0.021018 -0.004039 -0.006464 -0.012773 -0.000709 0.062111
#
#
# Mechanical properties :
#
#
# Convention : Reuss Voigt Hill
#
# Bulk Modulus (GPa) = 27.30334 56.78621 42.04477
# Shear Modulus (GPa) = 26.86826 35.86327 31.36577
#
# Velocity S-wave (km/s) = 3.38840 3.91471 3.66102
# Velocity P-wave (km/s) = 5.19379 6.68572 5.98641
#
# Compressibility (1/GPa) = 0.03662556
#
# Stress axis : x y z
#
# Youngs Moduli (GPa) = 46.46792 83.35949 90.20761
#
# Poissons Ratio (x) = 0.07318 0.09282
# Poissons Ratio (y) = 0.04079 0.18775
# Poissons Ratio (z) = 0.04781 0.17350
#
# Static dielectric constant tensor:
#      x y z
#    x 4.108640 0.100760 -0.346250 
#    y 0.100760 4.480020 0.026680 
#    z -0.346250 0.026680 4.435190 
# 
# 
# High freq. dielectric constant tensor:
#      x y z
#    x 1.913730 0.005410 -0.014800 
#    y 0.005410 1.943150 -0.000880 
#    z -0.014800 -0.000880 1.940200 
# 
# From -- ./inp_files/368071.got.cif
#   From: 2010.06.25/outbox.cif.g09.slc.cpg/sg2_185_cif.got.tgz:368071.got - 2010.06.27 13:26:56.
