data_PCOD8011193
_publ_section_title
;
Structure prediction by ZEFSAII (Michael W. Deem and Ramdas Pophale) SiO2 
 PCOD8011193
Probable space group: P -1
;
_chemical_formula_sum "Si O2"
_cell_formula_units_Z 16
_cell_length_a 17.814944
_cell_length_b 7.740079
_cell_length_c 7.975783
_cell_angle_alpha 118.721257
_cell_angle_beta 74.124771
_cell_angle_gamma 61.606239
_cell_volume 644.191368
_symmetry_space_group_name_H-M "P -1"
_symmetry_group_IT_number 2
_symmetry_cell_setting 'triclinic'
loop_
_space_group_symop_operation_xyz
x,y,z
-x,-y,-z
loop_
_atom_site_type_symbol
_atom_site_label
_atom_site_fract_x
_atom_site_fract_y
_atom_site_fract_z
Si Si1 0.545556 0.891465 0.648407
Si Si2 0.172357 0.224871 0.905742
Si Si3 0.400155 0.438170 0.197707
Si Si4 0.928500 0.941236 0.977949
Si Si5 0.973084 0.313695 0.528853
Si Si6 0.433167 0.732900 0.508639
Si Si7 0.771213 0.509529 0.158968
Si Si8 0.168713 0.785440 0.350307
O O1 0.582931 0.709941 0.708337
O O2 0.483641 0.862741 0.534946
O O3 0.653222 0.788715 0.441580
O O4 0.465004 0.218036 0.901980
O O5 0.152968 0.422801 0.861048
O O6 0.302962 0.971058 0.748682
O O7 0.111095 0.121549 0.866951
O O8 0.119048 0.381423 0.189405
O O9 0.446127 0.579607 0.258560
O O10 0.266041 0.699093 0.367739
O O11 0.995699 0.682210 0.679719
O O12 0.817492 0.238410 0.102871
O O13 0.000000 0.000000 0.000000
O O14 0.917741 0.196335 0.486857
O O15 0.089787 0.096698 0.462124
O O16 0.500000 0.500000 0.500000
O O17 0.763706 0.463773 0.947530
#
# Coordination Sequence:
#
# PCOD8011193 Si02
#       8
#     2   2   2   2   2   2   2   2
#     4  10  21  41  67  97 139 182 226 285 350 404
#     4  11  23  44  68  96 131 183 227 271 346 414
#     4  10  21  38  69  99 133 185 231 279 343 420
#     4  11  24  41  67  99 136 177 224 288 341 404
#     4   9  20  39  66  93 131 178 226 276 342 406
#     4  10  22  41  65 101 136 171 228 286 336 406
#     4  10  23  44  67  99 138 180 223 283 350 403
#     4   9  19  38  64  97 135 177 223 284 342 399
#
# _framework density 24.837339
#
# number of rings (size 3 to 8) (size 9 to 14) (size 15 to 20)
#    0.000    2.000    0.000    4.125    3.500    2.500 
#    2.250    2.500    0.000    0.000    0.000    0.000 
#    0.000    0.000    0.000    0.000    0.000    0.000 
#
# Total GULP energy -198210.740870 kJ/mol
# GULP energy per Si atom -12388.171304 kJ/mol
# Density = 2.478081 g / cm^3
# Si number density = 24.837339 Si / 1000 Ang^3
#
#
#
# Elastic Constant Matrix: (Units=GPa)
#
#
# Indices 1 2 3 4 5 6 
#
# 1 155.3687 17.2137 44.5281 -2.9699 2.2786 19.5777
# 2 17.2137 21.3225 16.5456 -0.4540 -1.9229 19.2357
# 3 44.5281 16.5456 138.7131 11.3412 -12.5072 9.9414
# 4 -2.9699 -0.4540 11.3412 33.5811 4.8399 -10.1563
# 5 2.2786 -1.9229 -12.5072 4.8399 34.9935 -2.9075
# 6 19.5777 19.2357 9.9414 -10.1563 -2.9075 50.5283
#
#
#
# Elastic Compliance Matrix: (Units=1/GPa)
#
#
# Indices 1 2 3 4 5 6 
#
# 1 0.007655 -0.003751 -0.002211 0.001344 -0.001758 -0.000934
# 2 -0.003751 0.080870 -0.005715 -0.006363 0.001081 -0.029425
# 3 -0.002211 -0.005715 0.009185 -0.003695 0.003682 0.000694
# 4 0.001344 -0.006363 -0.003695 0.034697 -0.005787 0.009270
# 5 -0.001758 0.001081 0.003682 -0.005787 0.030880 0.000159
# 6 -0.000934 -0.029425 0.000694 0.009270 0.000159 0.033091
#
#
# Mechanical properties :
#
#
# Convention : Reuss Voigt Hill
#
# Bulk Modulus (GPa) = 13.44927 52.44212 32.94569
# Shear Modulus (GPa) = 20.44841 39.62838 30.03840
#
# Velocity S-wave (km/s) = 2.87242 3.99873 3.48142
# Velocity P-wave (km/s) = 4.05312 6.51765 5.42713
#
# Compressibility (1/GPa) = 0.07435349
#
# Stress axis : x y z
#
# Youngs Moduli (GPa) = 130.63646 12.36558 108.87294
#
# Poissons Ratio (x) = 0.04639 0.24075
# Poissons Ratio (y) = 0.49008 0.62223
# Poissons Ratio (z) = 0.28888 0.07067
#
# Static dielectric constant tensor:
#      x y z
#    x 4.648120 -0.000300 0.089140 
#    y -0.000300 3.174500 -0.015770 
#    z 0.089140 -0.015770 4.615940 
# 
# 
# High freq. dielectric constant tensor:
#      x y z
#    x 1.983900 0.014150 -0.004550 
#    y 0.014150 1.982320 0.012630 
#    z -0.004550 0.012630 2.003460 
# 
# From -- ./inp_files/299673.got.cif
#   From: 2010.06.25/outbox.cif.g09.slc.cpg/sg2_150_cif.got.tgz:299673.got - 2010.06.27 13:26:56.
