data_PCOD8011617
_publ_section_title
;
Structure prediction by ZEFSAII (Michael W. Deem and Ramdas Pophale) SiO2 
 PCOD8011617
Probable space group: P -1
;
_chemical_formula_sum "Si O2"
_cell_formula_units_Z 14
_cell_length_a 11.785911
_cell_length_b 7.121814
_cell_length_c 13.460024
_cell_angle_alpha 122.080563
_cell_angle_beta 136.237361
_cell_angle_gamma 59.402679
_cell_volume 646.780908
_symmetry_space_group_name_H-M "P -1"
_symmetry_group_IT_number 2
_symmetry_cell_setting 'triclinic'
loop_
_space_group_symop_operation_xyz
x,y,z
-x,-y,-z
loop_
_atom_site_type_symbol
_atom_site_label
_atom_site_fract_x
_atom_site_fract_y
_atom_site_fract_z
Si Si1 0.872069 0.290586 0.359688
Si Si2 0.688766 0.900982 0.123754
Si Si3 0.336469 0.834795 0.474289
Si Si4 0.072649 0.093090 0.240452
Si Si5 0.212431 0.251169 0.649564
Si Si6 0.287996 0.346316 0.323145
Si Si7 0.132553 0.266298 0.010731
O O1 0.752677 0.540363 0.338083
O O2 0.008970 0.279314 0.531221
O O3 0.759601 0.115110 0.265169
O O4 0.973745 0.236700 0.306784
O O5 0.710880 0.735708 0.187470
O O6 0.794321 0.765551 0.063016
O O7 0.500000 0.000000 0.000000
O O8 0.239606 0.924757 0.338324
O O9 0.269090 0.614032 0.404376
O O10 0.532868 0.778591 0.555279
O O11 0.303512 0.015079 0.592622
O O12 0.129860 0.268452 0.250909
O O13 0.953314 0.943046 0.072002
O O14 0.283515 0.279758 0.185255
O O15 0.000000 0.500000 0.000000
#
# Coordination Sequence:
#
# PCOD8011617 Si02
#       7
#     2   2   2   2   2   2   2
#     4   9  22  39  63  94 117 157 211 254 299 372
#     4  11  24  42  63  91 126 165 201 255 317 361
#     4  10  22  39  61  93 124 152 207 256 298 370
#     4  10  21  39  63  88 120 160 204 249 308 360
#     4  10  21  41  64  88 123 160 203 256 305 360
#     4  11  22  39  62  89 125 164 196 252 313 353
#     4  11  23  42  61  89 125 160 210 246 295 377
#
# _framework density 21.645661
#
# number of rings (size 3 to 8) (size 9 to 14) (size 15 to 20)
#    0.000    1.714    1.429    2.143    2.000    4.000 
#    2.571    0.000    0.000    0.000    0.000    0.000 
#    0.000    0.000    0.000    0.000    0.000    0.000 
#
# Total GULP energy -173586.759749 kJ/mol
# GULP energy per Si atom -12399.054268 kJ/mol
# Density = 2.159639 g / cm^3
# Si number density = 21.645661 Si / 1000 Ang^3
#
#
#
# Elastic Constant Matrix: (Units=GPa)
#
#
# Indices 1 2 3 4 5 6 
#
# 1 51.8384 20.0965 6.2749 5.5434 -1.7256 -2.6600
# 2 20.0965 96.9618 19.5887 2.8399 -3.7921 -14.1581
# 3 6.2749 19.5887 78.4457 -11.9432 -0.4290 -18.9325
# 4 5.5434 2.8399 -11.9432 36.3393 0.2127 -2.4775
# 5 -1.7256 -3.7921 -0.4290 0.2127 27.2392 1.4635
# 6 -2.6600 -14.1581 -18.9325 -2.4775 1.4635 21.7270
#
#
#
# Elastic Compliance Matrix: (Units=1/GPa)
#
#
# Indices 1 2 3 4 5 6 
#
# 1 0.021465 -0.004271 -0.001715 -0.003654 0.000881 -0.002126
# 2 -0.004271 0.012437 -0.001268 -0.000310 0.001101 0.006366
# 3 -0.001715 -0.001268 0.018092 0.007378 -0.000898 0.015631
# 4 -0.003654 -0.000310 0.007378 0.031171 -0.000907 0.009395
# 5 0.000881 0.001101 -0.000898 -0.000907 0.037051 -0.002556
# 6 -0.002126 0.006366 0.015631 0.009395 -0.002556 0.064778
#
#
# Mechanical properties :
#
#
# Convention : Reuss Voigt Hill
#
# Bulk Modulus (GPa) = 26.67781 35.46289 31.07035
# Shear Modulus (GPa) = 23.58506 29.14681 26.36593
#
# Velocity S-wave (km/s) = 3.30449 3.67351 3.49387
# Velocity P-wave (km/s) = 5.18759 5.86616 5.53728
#
# Compressibility (1/GPa) = 0.03748434
#
# Stress axis : x y z
#
# Youngs Moduli (GPa) = 46.58690 80.40753 55.27197
#
# Poissons Ratio (x) = 0.34345 0.09480
# Poissons Ratio (y) = 0.19899 0.07011
# Poissons Ratio (z) = 0.07990 0.10200
#
# Static dielectric constant tensor:
#      x y z
#    x 3.558540 -0.022110 0.034780 
#    y -0.022110 4.039190 0.102460 
#    z 0.034780 0.102460 4.195020 
# 
# 
# High freq. dielectric constant tensor:
#      x y z
#    x 1.824410 -0.004650 0.000560 
#    y -0.004650 1.861830 0.004180 
#    z 0.000560 0.004180 1.859080 
# 
# From -- ./inp_files/69466.got.cif
#   From: 2010.06.25/outbox.cif.g09.slc.cpg/sg2_35_cif.got.tgz:69466.got - 2010.06.27 13:26:56.
