data_PCOD8011084
_publ_section_title
;
Structure prediction by ZEFSAII (Michael W. Deem and Ramdas Pophale) SiO2 
 PCOD8011084
Probable space group: P -1
;
_chemical_formula_sum "Si O2"
_cell_formula_units_Z 16
_cell_length_a 19.575849
_cell_length_b 12.528568
_cell_length_c 21.663748
_cell_angle_alpha 35.057091
_cell_angle_beta 17.899956
_cell_angle_gamma 26.641468
_cell_volume 712.274552
_symmetry_space_group_name_H-M "P -1"
_symmetry_group_IT_number 2
_symmetry_cell_setting 'triclinic'
loop_
_space_group_symop_operation_xyz
x,y,z
-x,-y,-z
loop_
_atom_site_type_symbol
_atom_site_label
_atom_site_fract_x
_atom_site_fract_y
_atom_site_fract_z
Si Si1 0.009410 0.549726 0.836625
Si Si2 0.473898 0.958477 0.336356
Si Si3 0.662171 0.430097 0.238299
Si Si4 0.938060 0.105133 0.435052
Si Si5 0.316365 0.912805 0.699686
Si Si6 0.149879 0.804304 0.276139
Si Si7 0.160996 0.166438 0.029297
Si Si8 0.652235 0.235532 0.119546
O O1 0.351235 0.301392 0.654211
O O2 0.926915 0.763285 0.760371
O O3 0.957333 0.619767 0.921159
O O4 0.798176 0.485837 0.039071
O O5 0.564007 0.104805 0.218349
O O6 0.565646 0.904689 0.210864
O O7 0.127621 0.115400 0.563208
O O8 0.408837 0.678889 0.374153
O O9 0.544754 0.306726 0.364978
O O10 0.905561 0.242678 0.166922
O O11 0.000000 0.000000 0.500000
O O12 0.055113 0.888717 0.388942
O O13 0.349547 0.805144 0.788199
O O14 0.500000 0.000000 0.500000
O O15 0.975151 0.133082 0.871351
O O16 0.413047 0.520391 0.176502
O O17 0.269510 0.929552 0.086088
#
# Coordination Sequence:
#
# PCOD8011084 Si02
#       8
#     2   2   2   2   2   2   2   2
#     4  10  21  39  67  97 131 170 217 277 323 394
#     4  11  21  40  67  97 131 176 219 272 334 390
#     4  11  21  42  66  95 128 171 229 270 327 390
#     4  11  24  40  64  97 134 179 217 266 333 397
#     4  11  26  44  68  92 128 180 233 275 319 387
#     4  11  24  41  63 101 139 168 214 273 336 401
#     4  10  21  38  66  98 132 171 215 270 332 395
#     4  11  25  44  63  96 135 174 225 274 326 396
#
# _framework density 22.463249000000001
#
# number of rings (size 3 to 8) (size 9 to 14) (size 15 to 20)
#    0.000    1.250    2.500    4.875    3.500    4.000 
#    0.000    3.750    0.000    0.000    0.000    0.000 
#    0.000    0.000    0.000    0.000    0.000    0.000 
#
# Total GULP energy -198362.737532 kJ/mol
# GULP energy per Si atom -12397.671096 kJ/mol
# Density = 2.241212 g / cm^3
# Si number density = 22.463249 Si / 1000 Ang^3
#
#
#
# Elastic Constant Matrix: (Units=GPa)
#
#
# Indices 1 2 3 4 5 6 
#
# 1 77.3897 34.5804 10.1878 -12.0657 5.9437 6.3939
# 2 34.5804 125.1474 22.0090 10.5468 -7.0515 10.1236
# 3 10.1878 22.0090 57.6910 1.3180 -12.8352 4.5784
# 4 -12.0657 10.5468 1.3180 36.6570 5.1165 3.3452
# 5 5.9437 -7.0515 -12.8352 5.1165 32.1234 -8.2729
# 6 6.3939 10.1236 4.5784 3.3452 -8.2729 29.0576
#
#
#
# Elastic Compliance Matrix: (Units=1/GPa)
#
#
# Indices 1 2 3 4 5 6 
#
# 1 0.018239 -0.005382 -0.002865 0.009317 -0.008520 -0.005185
# 2 -0.005382 0.010522 -0.002214 -0.005084 0.003056 -0.000678
# 3 -0.002865 -0.002214 0.020647 -0.002381 0.008921 0.000962
# 4 0.009317 -0.005084 -0.002381 0.034067 -0.011010 -0.006960
# 5 -0.008520 0.003056 0.008921 -0.011010 0.041944 0.012614
# 6 -0.005185 -0.000678 0.000962 -0.006960 0.012614 0.040032
#
#
# Mechanical properties :
#
#
# Convention : Reuss Voigt Hill
#
# Bulk Modulus (GPa) = 35.10311 43.75363 39.42837
# Shear Modulus (GPa) = 25.52741 32.46433 28.99587
#
# Velocity S-wave (km/s) = 3.37472 3.80573 3.59669
# Velocity P-wave (km/s) = 5.55390 6.23150 5.90243
#
# Compressibility (1/GPa) = 0.02848750
#
# Stress axis : x y z
#
# Youngs Moduli (GPa) = 54.82800 95.03452 48.43316
#
# Poissons Ratio (x) = 0.51145 0.13874
# Poissons Ratio (y) = 0.29507 0.10723
# Poissons Ratio (z) = 0.15706 0.21041
#
# Static dielectric constant tensor:
#      x y z
#    x 3.966350 0.135140 0.199830 
#    y 0.135140 4.097870 0.021880 
#    z 0.199830 0.021880 4.055360 
# 
# 
# High freq. dielectric constant tensor:
#      x y z
#    x 1.880880 0.009190 0.009640 
#    y 0.009190 1.890570 -0.005560 
#    z 0.009640 -0.005560 1.885220 
# 
# From -- ./inp_files/600057.got.cif
#   From: 2010.06.25/outbox.cif.g09.slc.cpg/sg2_301_cif.got.tgz:600057.got - 2010.06.27 13:26:56.
