data_PCOD8011008
_publ_section_title
;
Structure prediction by ZEFSAII (Michael W. Deem and Ramdas Pophale) SiO2 
 PCOD8011008
Probable space group: P -1
;
_chemical_formula_sum "Si O2"
_cell_formula_units_Z 16
_cell_length_a 13.421296
_cell_length_b 11.640713
_cell_length_c 9.399235
_cell_angle_alpha 54.387282
_cell_angle_beta 80.133507
_cell_angle_gamma 42.585472
_cell_volume 713.984254
_symmetry_space_group_name_H-M "P -1"
_symmetry_group_IT_number 2
_symmetry_cell_setting 'triclinic'
loop_
_space_group_symop_operation_xyz
x,y,z
-x,-y,-z
loop_
_atom_site_type_symbol
_atom_site_label
_atom_site_fract_x
_atom_site_fract_y
_atom_site_fract_z
Si Si1 0.304970 0.335895 0.197795
Si Si2 0.848533 0.098825 0.881539
Si Si3 0.988879 0.076340 0.602987
Si Si4 0.511291 0.431181 0.389250
Si Si5 0.023728 0.336878 0.800665
Si Si6 0.156521 0.478589 0.589275
Si Si7 0.654209 0.398815 0.114980
Si Si8 0.514054 0.853930 0.409447
O O1 0.109910 0.526305 0.137779
O O2 0.399716 0.233291 0.396676
O O3 0.375305 0.130284 0.231515
O O4 0.334895 0.446570 0.024878
O O5 0.674331 0.359520 0.788512
O O6 0.867060 0.114005 0.699119
O O7 0.000000 0.000000 0.000000
O O8 0.842933 0.936788 0.018831
O O9 0.173447 0.868769 0.780122
O O10 0.000000 0.000000 0.500000
O O11 0.916114 0.315184 0.444805
O O12 0.500000 0.500000 0.500000
O O13 0.632205 0.395611 0.292057
O O14 0.575972 0.198099 0.542778
O O15 0.937602 0.417149 0.612049
O O16 0.124060 0.371470 0.761957
O O17 0.352977 0.276885 0.656646
O O18 0.500000 0.500000 0.000000
#
# Coordination Sequence:
#
# PCOD8011008 Si02
#       8
#     2   2   2   2   2   2   2   2
#     4  10  21  40  62  98 128 164 217 277 312 373
#     4  12  21  44  71  92 125 172 228 270 304 380
#     4  12  25  43  66  95 135 172 211 270 331 380
#     4  12  26  43  64  97 137 172 209 265 337 387
#     4  10  21  38  65  97 122 167 222 272 309 376
#     4  10  22  38  65  94 129 169 217 262 328 378
#     4  12  25  40  68 100 127 169 225 268 313 380
#     4  10  21  40  63  91 134 168 210 267 328 378
#
# _framework density 22.409459999999999
#
# number of rings (size 3 to 8) (size 9 to 14) (size 15 to 20)
#    0.000    1.000    5.000    2.250    3.500    1.000 
#    0.000    2.500    0.000    0.000    0.000    0.000 
#    0.000    0.000    0.000    0.000    0.000    0.000 
#
# Total GULP energy -198449.983146 kJ/mol
# GULP energy per Si atom -12403.123947 kJ/mol
# Density = 2.235846 g / cm^3
# Si number density = 22.409460 Si / 1000 Ang^3
#
#
#
# Elastic Constant Matrix: (Units=GPa)
#
#
# Indices 1 2 3 4 5 6 
#
# 1 82.4011 48.1407 47.5514 -8.8024 -47.6540 4.6161
# 2 48.1407 140.7013 40.1935 -18.7911 -36.7556 9.6831
# 3 47.5514 40.1935 82.8584 -8.5289 -52.9020 7.3042
# 4 -8.8024 -18.7911 -8.5289 38.5902 1.2672 -10.7942
# 5 -47.6540 -36.7556 -52.9020 1.2672 53.1571 -1.4937
# 6 4.6161 9.6831 7.3042 -10.7942 -1.4937 40.0310
#
#
#
# Elastic Compliance Matrix: (Units=1/GPa)
#
#
# Indices 1 2 3 4 5 6 
#
# 1 0.027169 -0.002933 0.001357 0.004103 0.023562 -0.000685
# 2 -0.002933 0.009697 -0.000101 0.003664 0.003863 -0.000857
# 3 0.001357 -0.000101 0.035215 0.005844 0.035950 -0.003640
# 4 0.004103 0.003664 0.005844 0.031355 0.011462 0.006457
# 5 0.023562 0.003863 0.035950 0.011462 0.077992 -0.004210
# 6 -0.000685 -0.000857 -0.003640 0.006457 -0.004210 0.027515
#
#
# Mechanical properties :
#
#
# Convention : Reuss Voigt Hill
#
# Bulk Modulus (GPa) = 14.55072 64.19246 39.37159
# Shear Modulus (GPa) = 21.25784 37.69401 29.47592
#
# Velocity S-wave (km/s) = 3.08329 4.10574 3.63069
# Velocity P-wave (km/s) = 4.37982 7.15427 5.93154
#
# Compressibility (1/GPa) = 0.06872512
#
# Stress axis : x y z
#
# Youngs Moduli (GPa) = 36.80618 103.12091 28.39727
#
# Poissons Ratio (x) = 0.30249 -0.03853
# Poissons Ratio (y) = 0.10796 0.00288
# Poissons Ratio (z) = -0.04993 0.01047
#
# Static dielectric constant tensor:
#      x y z
#    x 4.072960 -0.240880 -0.401130 
#    y -0.240880 4.421560 -0.179700 
#    z -0.401130 -0.179700 4.284880 
# 
# 
# High freq. dielectric constant tensor:
#      x y z
#    x 1.868800 -0.008810 -0.020690 
#    y -0.008810 1.896130 -0.002880 
#    z -0.020690 -0.002880 1.878550 
# 
# From -- ./inp_files/306488.got.cif
#   From: 2010.06.25/outbox.cif.g09.slc.cpg/sg2_154_cif.got.tgz:306488.got - 2010.06.27 13:26:56.
