data_PCOD8011758
_publ_section_title
;
Structure prediction by ZEFSAII (Michael W. Deem and Ramdas Pophale) SiO2 
 PCOD8011758
Probable space group: P -1
;
_chemical_formula_sum "Si O2"
_cell_formula_units_Z 14
_cell_length_a 14.637422
_cell_length_b 21.458115
_cell_length_c 11.762358
_cell_angle_alpha 30.399480
_cell_angle_beta 161.433739
_cell_angle_gamma 149.746639
_cell_volume 570.277840
_symmetry_space_group_name_H-M "P -1"
_symmetry_group_IT_number 2
_symmetry_cell_setting 'triclinic'
loop_
_space_group_symop_operation_xyz
x,y,z
-x,-y,-z
loop_
_atom_site_type_symbol
_atom_site_label
_atom_site_fract_x
_atom_site_fract_y
_atom_site_fract_z
Si Si1 0.816083 0.411273 0.018122
Si Si2 0.783921 0.472215 0.128504
Si Si3 0.951913 0.691653 0.144685
Si Si4 0.382184 0.150934 0.363525
Si Si5 0.257015 0.213108 0.646800
Si Si6 0.783238 0.758226 0.198832
Si Si7 0.610014 0.078836 0.119552
O O1 0.874254 0.494780 0.068807
O O2 0.908834 0.277942 0.354627
O O3 0.462009 0.362332 0.641446
O O4 0.000000 0.500000 0.000000
O O5 0.015386 0.408814 0.562984
O O6 0.812969 0.612841 0.992029
O O7 0.451782 0.377528 0.899574
O O8 0.262187 0.799458 0.315328
O O9 0.706084 0.757593 0.792596
O O10 0.289807 0.008220 0.530433
O O11 0.196102 0.146270 0.033833
O O12 0.315308 0.179476 0.901484
O O13 0.901723 0.195177 0.244514
O O14 0.349726 0.127621 0.793333
O O15 0.500000 0.000000 0.000000
#
# Coordination Sequence:
#
# PCOD8011758 Si02
#       7
#     2   2   2   2   2   2   2
#     4  11  23  44  68 104 138 178 219 274 337 407
#     4   9  21  36  65  96 142 175 215 276 324 402
#     4  10  21  39  64 101 134 179 220 266 335 389
#     4  11  24  42  70  98 135 179 225 279 328 388
#     4  11  25  48  72  98 136 175 227 280 337 395
#     4  10  22  44  68 101 139 166 229 276 332 405
#     4  12  27  50  69  98 134 178 228 283 334 399
#
# _framework density 24.549437000000001
#
# number of rings (size 3 to 8) (size 9 to 14) (size 15 to 20)
#    0.000    1.429    2.857    1.286    2.000    6.286 
#    5.143    0.000    0.000    0.000    0.000    0.000 
#    0.000    0.000    0.000    0.000    0.000    0.000 
#
# Total GULP energy -173578.383764 kJ/mol
# GULP energy per Si atom -12398.455983 kJ/mol
# Density = 2.449356 g / cm^3
# Si number density = 24.549437 Si / 1000 Ang^3
#
#
#
# Elastic Constant Matrix: (Units=GPa)
#
#
# Indices 1 2 3 4 5 6 
#
# 1 163.9298 39.8665 27.2817 8.2863 8.9318 -11.2262
# 2 39.8665 70.5941 -1.0500 23.9302 -3.8531 2.1074
# 3 27.2817 -1.0500 47.2194 14.0243 5.1619 8.3106
# 4 8.2863 23.9302 14.0243 35.2416 -1.5612 1.2864
# 5 8.9318 -3.8531 5.1619 -1.5612 32.3127 -5.1370
# 6 -11.2262 2.1074 8.3106 1.2864 -5.1370 48.1777
#
#
#
# Elastic Compliance Matrix: (Units=1/GPa)
#
#
# Indices 1 2 3 4 5 6 
#
# 1 0.009207 -0.007441 -0.007656 0.005746 -0.001377 0.003491
# 2 -0.007441 0.025463 0.011283 -0.019807 0.001684 -0.004085
# 3 -0.007656 0.011283 0.033343 -0.019019 -0.004048 -0.007953
# 4 0.005746 -0.019807 -0.019019 0.047975 0.002110 0.004430
# 5 -0.001377 0.001684 -0.004048 0.002110 0.032874 0.003753
# 6 0.003491 -0.004085 -0.007953 0.004430 0.003753 0.023402
#
#
# Mechanical properties :
#
#
# Convention : Reuss Voigt Hill
#
# Bulk Modulus (GPa) = 16.55992 45.99329 31.27660
# Shear Modulus (GPa) = 24.99749 37.52274 31.26011
#
# Velocity S-wave (km/s) = 3.19447 3.91379 3.57228
# Velocity P-wave (km/s) = 4.51291 6.26093 5.45736
#
# Compressibility (1/GPa) = 0.06038676
#
# Stress axis : x y z
#
# Youngs Moduli (GPa) = 108.60827 39.27211 29.99163
#
# Poissons Ratio (x) = 0.29221 0.22960
# Poissons Ratio (y) = 0.80811 -0.33839
# Poissons Ratio (z) = 0.83146 -0.44310
#
# Static dielectric constant tensor:
#      x y z
#    x 4.718730 -0.118850 -0.018430 
#    y -0.118850 4.340220 0.204200 
#    z -0.018430 0.204200 4.425480 
# 
# 
# High freq. dielectric constant tensor:
#      x y z
#    x 1.998660 -0.008500 0.005190 
#    y -0.008500 1.968520 0.015980 
#    z 0.005190 0.015980 1.957000 
# 
# From -- ./inp_files/70018.got.cif
#   From: 2010.06.25/outbox.cif.g09.slc.cpg/sg2_36_cif.got.tgz:70018.got - 2010.06.27 13:26:56.
