data_PCOD8011985
_publ_section_title
;
Structure prediction by ZEFSAII (Michael W. Deem and Ramdas Pophale) SiO2 
 PCOD8011985
Probable space group: P -1
;
_chemical_formula_sum "Si O2"
_cell_formula_units_Z 14
_cell_length_a 17.999689
_cell_length_b 16.438004
_cell_length_c 16.044240
_cell_angle_alpha 157.578219
_cell_angle_beta 21.552388
_cell_angle_gamma 155.726478
_cell_volume 617.982252
_symmetry_space_group_name_H-M "P -1"
_symmetry_group_IT_number 2
_symmetry_cell_setting 'triclinic'
loop_
_space_group_symop_operation_xyz
x,y,z
-x,-y,-z
loop_
_atom_site_type_symbol
_atom_site_label
_atom_site_fract_x
_atom_site_fract_y
_atom_site_fract_z
Si Si1 0.187516 0.732686 0.057450
Si Si2 0.429954 0.895404 0.259211
Si Si3 0.465059 0.168997 0.085022
Si Si4 0.978402 0.003200 0.199084
Si Si5 0.928337 0.762543 0.504320
Si Si6 0.178592 0.672025 0.695381
Si Si7 0.614075 0.597363 0.887578
O O1 0.388204 0.694965 0.861177
O O2 0.084643 0.853117 0.347435
O O3 0.000000 0.500000 0.000000
O O4 0.294121 0.912561 0.043351
O O5 0.373654 0.840636 0.167932
O O6 0.660580 0.101771 0.213481
O O7 0.449482 0.675837 0.077840
O O8 0.249274 0.974612 0.566615
O O9 0.321124 0.307649 0.332715
O O10 0.019628 0.050667 0.300127
O O11 0.164269 0.185978 0.122078
O O12 0.987221 0.751610 0.932249
O O13 0.941132 0.527231 0.303245
O O14 0.316279 0.596022 0.411687
O O15 0.500000 0.500000 0.000000
#
# Coordination Sequence:
#
# PCOD8011985 Si02
#       7
#     2   2   2   2   2   2   2
#     4  11  25  39  64  96 132 176 224 277 338 385
#     4  11  21  41  65  94 127 171 219 267 322 393
#     4  11  22  43  62  93 134 171 224 282 318 390
#     4  10  22  38  66  94 125 168 213 269 322 389
#     4  11  21  42  63  89 132 169 219 275 327 381
#     4  10  21  39  65  94 123 169 218 257 331 395
#     4  10  23  43  65  94 133 164 205 270 328 391
#
# _framework density 22.654373
#
# number of rings (size 3 to 8) (size 9 to 14) (size 15 to 20)
#    0.000    1.429    5.714    1.286    0.000    6.857 
#    0.000    1.429    0.000    0.000    0.000    0.000 
#    0.000    0.000    0.000    0.000    0.000    0.000 
#
# Total GULP energy -173514.790667 kJ/mol
# GULP energy per Si atom -12393.913619 kJ/mol
# Density = 2.260281 g / cm^3
# Si number density = 22.654373 Si / 1000 Ang^3
#
#
#
# Elastic Constant Matrix: (Units=GPa)
#
#
# Indices 1 2 3 4 5 6 
#
# 1 73.9419 43.2589 37.8118 0.6409 0.0738 -20.3915
# 2 43.2589 102.1438 35.7346 -5.1132 0.1028 -16.5527
# 3 37.8118 35.7346 160.4262 -1.4006 -26.9651 -23.7650
# 4 0.6409 -5.1132 -1.4006 37.8800 0.8590 5.2992
# 5 0.0738 0.1028 -26.9651 0.8590 29.4336 -7.4617
# 6 -20.3915 -16.5527 -23.7650 5.2992 -7.4617 42.4428
#
#
#
# Elastic Compliance Matrix: (Units=1/GPa)
#
#
# Indices 1 2 3 4 5 6 
#
# 1 0.020548 -0.006959 -0.002594 -0.002178 -0.000863 0.005826
# 2 -0.006959 0.013442 -0.001454 0.001818 -0.001253 0.000637
# 3 -0.002594 -0.001454 0.009724 -0.000804 0.010351 0.005551
# 4 -0.002178 0.001818 -0.000804 0.027369 -0.002724 -0.004684
# 5 -0.000863 -0.001253 0.010351 -0.002724 0.046963 0.013489
# 6 0.005826 0.000637 0.005551 -0.004684 0.013489 0.032673
#
#
# Mechanical properties :
#
#
# Convention : Reuss Voigt Hill
#
# Bulk Modulus (GPa) = 46.08476 63.34694 54.71585
# Shear Modulus (GPa) = 27.78295 36.59841 32.19068
#
# Velocity S-wave (km/s) = 3.50578 4.02370 3.77364
# Velocity P-wave (km/s) = 6.06416 7.04343 6.57206
#
# Compressibility (1/GPa) = 0.02169915
#
# Stress axis : x y z
#
# Youngs Moduli (GPa) = 48.66553 74.39591 102.83958
#
# Poissons Ratio (x) = 0.51772 0.26678
# Poissons Ratio (y) = 0.33866 0.14956
# Poissons Ratio (z) = 0.12625 0.10819
#
# Static dielectric constant tensor:
#      x y z
#    x 3.952150 -0.020360 -0.260410 
#    y -0.020360 3.896420 -0.153880 
#    z -0.260410 -0.153880 4.316270 
# 
# 
# High freq. dielectric constant tensor:
#      x y z
#    x 1.874730 -0.004100 -0.017290 
#    y -0.004100 1.887710 -0.018820 
#    z -0.017290 -0.018820 1.903120 
# 
# From -- ./inp_files/112335.got.cif
#   From: 2010.06.25/outbox.cif.g09.slc.cpg/sg2_57_cif.got.tgz:112335.got - 2010.06.27 13:26:56.
