data_PCOD8011890
_publ_section_title
;
Structure prediction by ZEFSAII (Michael W. Deem and Ramdas Pophale) SiO2 
 PCOD8011890
Probable space group: P -1
;
_chemical_formula_sum "Si O2"
_cell_formula_units_Z 12
_cell_length_a 11.979382
_cell_length_b 13.566791
_cell_length_c 12.858896
_cell_angle_alpha 43.439297
_cell_angle_beta 136.065337
_cell_angle_gamma 158.237030
_cell_volume 524.114126
_symmetry_space_group_name_H-M "P -1"
_symmetry_group_IT_number 2
_symmetry_cell_setting 'triclinic'
loop_
_space_group_symop_operation_xyz
x,y,z
-x,-y,-z
loop_
_atom_site_type_symbol
_atom_site_label
_atom_site_fract_x
_atom_site_fract_y
_atom_site_fract_z
Si Si1 0.593392 0.652430 0.343027
Si Si2 0.657443 0.270438 0.411429
Si Si3 0.697525 0.277591 0.208916
Si Si4 0.596945 0.192783 0.729956
Si Si5 0.306113 0.188853 0.405094
Si Si6 0.644482 0.245122 0.974930
O O1 0.500000 0.500000 0.500000
O O2 0.411814 0.434435 0.295080
O O3 0.496321 0.747874 0.208002
O O4 0.948946 0.909165 0.359810
O O5 0.646732 0.329021 0.240788
O O6 0.487164 0.253675 0.382420
O O7 0.000000 0.500000 0.500000
O O8 0.500000 0.000000 0.500000
O O9 0.491430 0.975200 0.300257
O O10 0.609315 0.292287 0.030774
O O11 0.051692 0.495597 0.274198
O O12 0.390502 0.177690 0.582075
O O13 0.521396 0.042650 0.901893
O O14 0.000000 0.500000 0.000000
#
# Coordination Sequence:
#
# PCOD8011890 Si02
#       6
#     2   2   2   2   2   2
#     4  12  28  45  65  98 138 171 219 280 342 387
#     4  12  20  38  69 101 133 173 221 271 320 396
#     4  10  21  39  64  99 125 164 229 262 316 382
#     4  10  21  39  68  90 132 164 223 260 326 382
#     4  12  24  43  67 102 135 170 217 279 338 381
#     4  10  25  44  69  90 129 179 227 268 326 402
#
# _framework density 22.895778
#
# number of rings (size 3 to 8) (size 9 to 14) (size 15 to 20)
#    1.000    0.000    3.333    3.500    4.667    0.667 
#    0.000    1.667    0.000    0.000    0.000    0.000 
#    0.000    0.000    0.000    0.000    0.000    0.000 
#
# Total GULP energy -148697.447032 kJ/mol
# GULP energy per Si atom -12391.453919 kJ/mol
# Density = 2.284367 g / cm^3
# Si number density = 22.895778 Si / 1000 Ang^3
#
#
#
# Elastic Constant Matrix: (Units=GPa)
#
#
# Indices 1 2 3 4 5 6 
#
# 1 119.9872 40.2935 64.6344 -13.6985 4.4925 1.3330
# 2 40.2935 143.5262 14.9878 -2.9216 15.5064 0.1011
# 3 64.6344 14.9878 125.5256 -0.7205 -5.8800 2.5531
# 4 -13.6985 -2.9216 -0.7205 23.7387 -2.6487 7.8095
# 5 4.4925 15.5064 -5.8800 -2.6487 37.5266 -0.4850
# 6 1.3330 0.1011 2.5531 7.8095 -0.4850 40.8376
#
#
#
# Elastic Compliance Matrix: (Units=1/GPa)
#
#
# Indices 1 2 3 4 5 6 
#
# 1 0.013931 -0.002934 -0.006792 0.007868 -0.000984 -0.001539
# 2 -0.002934 0.008050 0.000399 -0.001098 -0.002987 0.000225
# 3 -0.006792 0.000399 0.011498 -0.003328 0.002217 0.000165
# 4 0.007868 -0.001098 -0.003328 0.049837 0.002384 -0.009548
# 5 -0.000984 -0.002987 0.002217 0.002384 0.028513 -0.000216
# 6 -0.001539 0.000225 0.000165 -0.009548 -0.000216 0.026350
#
#
# Mechanical properties :
#
#
# Convention : Reuss Voigt Hill
#
# Bulk Modulus (GPa) = 67.46309 69.87448 68.66878
# Shear Modulus (GPa) = 30.90748 38.36213 34.63481
#
# Velocity S-wave (km/s) = 3.67811 4.09774 3.89358
# Velocity P-wave (km/s) = 6.89690 7.27828 7.09016
#
# Compressibility (1/GPa) = 0.01482292
#
# Stress axis : x y z
#
# Youngs Moduli (GPa) = 71.78461 124.22942 86.97380
#
# Poissons Ratio (x) = 0.36449 0.59075
# Poissons Ratio (y) = 0.21062 -0.03469
# Poissons Ratio (z) = 0.48758 -0.04954
#
# Static dielectric constant tensor:
#      x y z
#    x 4.983320 -0.756450 -0.737110 
#    y -0.756450 5.394230 0.370070 
#    z -0.737110 0.370070 4.806480 
# 
# 
# High freq. dielectric constant tensor:
#      x y z
#    x 1.925480 -0.027720 -0.030500 
#    y -0.027720 1.921570 -0.008270 
#    z -0.030500 -0.008270 1.890980 
# 
# From -- ./inp_files/521488.got.cif
#   From: 2010.06.25/outbox.cif.g09.slc.cpg/sg2_261_cif.got.tgz:521488.got - 2010.06.27 13:26:56.
