data_PCOD8011655
_publ_section_title
;
Structure prediction by ZEFSAII (Michael W. Deem and Ramdas Pophale) SiO2 
 PCOD8011655
Probable space group: P -1
;
_chemical_formula_sum "Si O2"
_cell_formula_units_Z 12
_cell_length_a 9.851666
_cell_length_b 15.440653
_cell_length_c 9.748240
_cell_angle_alpha 65.237852
_cell_angle_beta 125.420411
_cell_angle_gamma 153.797064
_cell_volume 512.059436
_symmetry_space_group_name_H-M "P -1"
_symmetry_group_IT_number 2
_symmetry_cell_setting 'triclinic'
loop_
_space_group_symop_operation_xyz
x,y,z
-x,-y,-z
loop_
_atom_site_type_symbol
_atom_site_label
_atom_site_fract_x
_atom_site_fract_y
_atom_site_fract_z
Si Si1 0.290055 0.922338 0.561226
Si Si2 0.468822 0.740872 0.903236
Si Si3 0.796662 0.496576 0.592773
Si Si4 0.243583 0.182795 0.713942
Si Si5 0.736422 0.776802 0.771214
Si Si6 0.693526 0.060534 0.939151
O O1 0.999682 0.699226 0.592585
O O2 0.095976 0.920666 0.410905
O O3 0.500000 0.000000 0.500000
O O4 0.596052 0.089735 0.747003
O O5 0.709550 0.826871 0.860182
O O6 0.059315 0.539757 0.743816
O O7 0.567365 0.895049 0.913572
O O8 0.511478 0.688183 0.090047
O O9 0.477934 0.328339 0.625064
O O10 0.636748 0.413952 0.400265
O O11 0.053590 0.982911 0.725769
O O12 0.881220 0.742034 0.913395
O O13 0.500000 0.000000 0.000000
#
# Coordination Sequence:
#
# PCOD8011655 Si02
#       6
#     2   2   2   2   2   2
#     4  11  23  42  62  89 127 167 204 253 310 366
#     4  10  22  41  63  90 125 165 205 251 305 367
#     4  11  23  39  61  94 125 160 205 256 307 365
#     4  11  21  39  64  91 124 164 205 255 306 362
#     4  11  22  42  66  93 124 163 206 253 306 368
#     4  10  21  39  63  91 123 161 204 252 306 364
#
# _framework density 23.43478
#
# number of rings (size 3 to 8) (size 9 to 14) (size 15 to 20)
#    0.000    1.333    0.000    8.000    0.000    2.667 
#    0.000    8.333    0.000    0.000    0.000    0.000 
#    0.000    0.000    0.000    0.000    0.000    0.000 
#
# Total GULP energy -148693.726157 kJ/mol
# GULP energy per Si atom -12391.143846 kJ/mol
# Density = 2.338144 g / cm^3
# Si number density = 23.434780 Si / 1000 Ang^3
#
#
#
# Elastic Constant Matrix: (Units=GPa)
#
#
# Indices 1 2 3 4 5 6 
#
# 1 110.4008 -8.1232 48.3425 8.5587 8.0066 23.4356
# 2 -8.1232 38.3549 -0.6930 1.7758 2.5723 8.5297
# 3 48.3425 -0.6930 221.5119 31.8316 28.0484 7.7441
# 4 8.5587 1.7758 31.8316 29.3676 16.2001 1.3048
# 5 8.0066 2.5723 28.0484 16.2001 47.7575 1.9448
# 6 23.4356 8.5297 7.7441 1.3048 1.9448 27.2041
#
#
#
# Elastic Compliance Matrix: (Units=1/GPa)
#
#
# Indices 1 2 3 4 5 6 
#
# 1 0.013183 0.005578 -0.002237 -0.001012 -0.000349 -0.012396
# 2 0.005578 0.030572 -0.000189 -0.001963 -0.001229 -0.014155
# 3 -0.002237 -0.000189 0.005869 -0.004950 -0.001409 0.000654
# 4 -0.001012 -0.001963 -0.004950 0.046796 -0.012755 0.001563
# 5 -0.000349 -0.001229 -0.001409 -0.012755 0.026226 -0.000176
# 6 -0.012396 -0.014155 0.000654 0.001563 -0.000176 0.051627
#
#
# Mechanical properties :
#
#
# Convention : Reuss Voigt Hill
#
# Bulk Modulus (GPa) = 17.88009 49.92448 33.90229
# Shear Modulus (GPa) = 26.79384 42.91528 34.85456
#
# Velocity S-wave (km/s) = 3.38499 4.28397 3.86074
# Velocity P-wave (km/s) = 4.78789 6.76902 5.86275
#
# Compressibility (1/GPa) = 0.05592813
#
# Stress axis : x y z
#
# Youngs Moduli (GPa) = 75.85664 32.71012 170.39236
#
# Poissons Ratio (x) = -0.18247 0.38110
# Poissons Ratio (y) = -0.42316 0.03226
# Poissons Ratio (z) = 0.16966 0.00619
#
# Static dielectric constant tensor:
#      x y z
#    x 4.190750 0.150270 0.513570 
#    y 0.150270 3.878580 0.330310 
#    z 0.513570 0.330310 5.644410 
# 
# 
# High freq. dielectric constant tensor:
#      x y z
#    x 1.924930 0.022360 0.013530 
#    y 0.022360 1.886100 0.011700 
#    z 0.013530 0.011700 1.974380 
# 
# From -- ./inp_files/147775.got.cif
#   From: 2010.06.25/outbox.cif.g09.slc.cpg/sg2_74_cif.got.tgz:147775.got - 2010.06.27 13:26:56.
