data_PCOD8011249
_publ_section_title
;
Structure prediction by ZEFSAII (Michael W. Deem and Ramdas Pophale) SiO2 
 PCOD8011249
Probable space group: P -1
;
_chemical_formula_sum "Si O2"
_cell_formula_units_Z 14
_cell_length_a 5.276356
_cell_length_b 29.788042
_cell_length_c 10.258362
_cell_angle_alpha 148.380295
_cell_angle_beta 68.547088
_cell_angle_gamma 119.137385
_cell_volume 734.121337
_symmetry_space_group_name_H-M "P -1"
_symmetry_group_IT_number 2
_symmetry_cell_setting 'triclinic'
loop_
_space_group_symop_operation_xyz
x,y,z
-x,-y,-z
loop_
_atom_site_type_symbol
_atom_site_label
_atom_site_fract_x
_atom_site_fract_y
_atom_site_fract_z
Si Si1 0.417990 0.820101 0.440068
Si Si2 0.095408 0.732325 0.806305
Si Si3 0.652163 0.461591 0.986597
Si Si4 0.596985 0.556016 0.488778
Si Si5 0.503365 0.733203 0.948650
Si Si6 0.934872 0.899435 0.711193
Si Si7 0.422810 0.743010 0.511507
O O1 0.752613 0.884444 0.572099
O O2 0.278484 0.754237 0.427722
O O3 0.239015 0.884892 0.597519
O O4 0.402622 0.753935 0.159131
O O5 0.353630 0.772969 0.962682
O O6 0.213280 0.751246 0.685093
O O7 0.938688 0.622601 0.590722
O O8 0.856047 0.781095 0.988007
O O9 0.526147 0.352312 0.728391
O O10 0.500000 0.500000 0.000000
O O11 0.546556 0.486745 0.206902
O O12 0.000000 0.500000 0.000000
O O13 0.500000 0.500000 0.500000
O O14 0.409292 0.622780 0.675490
O O15 0.737778 0.824958 0.668999
O O16 0.000000 0.000000 0.000000
#
# Coordination Sequence:
#
# PCOD8011249 Si02
#       7
#     2   2   2   2   2   2   2
#     4  10  22  38  68  91 122 154 209 250 309 366
#     4  10  22  37  57  84 121 161 198 244 298 355
#     4  12  24  39  58  89 127 162 211 247 290 354
#     4  10  23  38  55  83 122 163 204 246 293 353
#     4  10  21  39  57  87 121 163 199 241 303 362
#     4  10  23  40  68  97 117 151 207 263 313 361
#     4  10  24  39  66  89 122 168 205 258 303 353
#
# _framework density 19.070415000000001
#
# number of rings (size 3 to 8) (size 9 to 14) (size 15 to 20)
#    1.714    0.000    1.429    3.000    4.000    0.571 
#    0.000    0.000    0.000    5.143    0.000    0.000 
#    0.000    0.000    0.000    0.000    0.000    0.000 
#
# Total GULP energy -173481.464081 kJ/mol
# GULP energy per Si atom -12391.533149 kJ/mol
# Density = 1.902701 g / cm^3
# Si number density = 19.070415 Si / 1000 Ang^3
#
#
#
# Elastic Constant Matrix: (Units=GPa)
#
#
# Indices 1 2 3 4 5 6 
#
# 1 153.3700 44.5062 46.4825 -12.6597 -0.8567 -11.4726
# 2 44.5062 95.9192 71.7067 -28.7488 -3.2105 2.1659
# 3 46.4825 71.7067 93.9524 -6.5129 -8.8143 -1.5268
# 4 -12.6597 -28.7488 -6.5129 47.2077 -1.0552 2.2326
# 5 -0.8567 -3.2105 -8.8143 -1.0552 27.8575 -3.2176
# 6 -11.4726 2.1659 -1.5268 2.2326 -3.2176 17.6251
#
#
#
# Elastic Compliance Matrix: (Units=1/GPa)
#
#
# Indices 1 2 3 4 5 6 
#
# 1 0.008281 -0.002004 -0.002464 0.000405 -0.000123 0.005350
# 2 -0.002004 0.036820 -0.026450 0.018666 -0.004792 -0.011360
# 3 -0.002464 -0.026450 0.031993 -0.012538 0.007373 0.007352
# 4 0.000405 0.018666 -0.012538 0.031244 -0.001468 -0.007342
# 5 -0.000123 -0.004792 0.007373 -0.001468 0.038586 0.008378
# 6 0.005350 -0.011360 0.007352 -0.007342 0.008378 0.064712
#
#
# Mechanical properties :
#
#
# Convention : Reuss Voigt Hill
#
# Bulk Modulus (GPa) = 65.54671 74.29249 69.91960
# Shear Modulus (GPa) = 17.94961 30.57447 24.26204
#
# Velocity S-wave (km/s) = 3.07127 4.00839 3.57071
# Velocity P-wave (km/s) = 6.85729 7.77589 7.33099
#
# Compressibility (1/GPa) = 0.01525630
#
# Stress axis : x y z
#
# Youngs Moduli (GPa) = 120.75167 27.15942 31.25726
#
# Poissons Ratio (x) = 0.05442 0.07703
# Poissons Ratio (y) = 0.24197 0.82677
# Poissons Ratio (z) = 0.29757 0.71838
#
# Static dielectric constant tensor:
#      x y z
#    x 3.504920 -0.003600 0.048500 
#    y -0.003600 3.254850 -0.178920 
#    z 0.048500 -0.178920 3.553230 
# 
# 
# High freq. dielectric constant tensor:
#      x y z
#    x 1.748120 0.000140 -0.002740 
#    y 0.000140 1.721880 -0.019590 
#    z -0.002740 -0.019590 1.730530 
# 
# From -- ./inp_files/143156.got.cif
#   From: 2010.06.25/outbox.cif.g09.slc.cpg/sg2_72_cif.got.tgz:143156.got - 2010.06.27 13:26:56.
