data_PCOD8011465
_publ_section_title
;
Structure prediction by ZEFSAII (Michael W. Deem and Ramdas Pophale) SiO2 
 PCOD8011465
Probable space group: P -1
;
_chemical_formula_sum "Si O2"
_cell_formula_units_Z 16
_cell_length_a 15.230507
_cell_length_b 7.354467
_cell_length_c 19.368921
_cell_angle_alpha 104.259976
_cell_angle_beta 160.920412
_cell_angle_gamma 73.587582
_cell_volume 678.805124
_symmetry_space_group_name_H-M "P -1"
_symmetry_group_IT_number 2
_symmetry_cell_setting 'triclinic'
loop_
_space_group_symop_operation_xyz
x,y,z
-x,-y,-z
loop_
_atom_site_type_symbol
_atom_site_label
_atom_site_fract_x
_atom_site_fract_y
_atom_site_fract_z
Si Si1 0.025985 0.377893 0.339621
Si Si2 0.301412 0.767160 0.369309
Si Si3 0.346770 0.974511 0.558358
Si Si4 0.077365 0.108700 0.662729
Si Si5 0.872499 0.591361 0.734901
Si Si6 0.182579 0.602007 0.595984
Si Si7 0.437120 0.703412 0.917475
Si Si8 0.084309 0.939491 0.980449
O O1 0.009092 0.462185 0.258131
O O2 0.226169 0.483220 0.546028
O O3 0.717405 0.396782 0.145099
O O4 0.148307 0.159058 0.402478
O O5 0.428278 0.840991 0.540448
O O6 0.558301 0.695012 0.504551
O O7 0.123518 0.601618 0.236852
O O8 0.105813 0.935289 0.203454
O O9 0.184851 0.861792 0.480484
O O10 0.605682 0.029285 0.796193
O O11 0.963600 0.179736 0.508921
O O12 0.248086 0.902971 0.777294
O O13 0.261239 0.270830 0.834699
O O14 0.059414 0.720410 0.926750
O O15 0.452432 0.601206 0.843615
O O16 0.000000 0.500000 0.500000
O O17 0.000000 0.000000 0.000000
#
# Coordination Sequence:
#
# PCOD8011465 Si02
#       8
#     2   2   2   2   2   2   2   2
#     4  10  21  42  64  93 133 173 217 274 326 389
#     4  11  24  45  71  98 137 171 218 271 333 388
#     4  11  23  44  65  97 133 173 220 271 328 392
#     4  10  21  41  65  92 128 169 222 272 322 395
#     4  11  23  45  71  99 135 175 217 274 327 393
#     4  10  21  39  61  94 127 168 219 275 326 385
#     4   9  21  41  66  88 126 175 219 269 335 379
#     4  12  24  44  70  97 133 180 215 271 331 391
#
# _framework density 23.570830000000001
#
# number of rings (size 3 to 8) (size 9 to 14) (size 15 to 20)
#    0.000    1.500    2.500    2.250    0.000    3.500 
#   18.000    0.000    0.000    0.000    0.000    0.000 
#    0.000    0.000    0.000    0.000    0.000    0.000 
#
# Total GULP energy -198371.096743 kJ/mol
# GULP energy per Si atom -12398.193546 kJ/mol
# Density = 2.351718 g / cm^3
# Si number density = 23.570830 Si / 1000 Ang^3
#
#
#
# Elastic Constant Matrix: (Units=GPa)
#
#
# Indices 1 2 3 4 5 6 
#
# 1 128.8547 28.1485 48.0958 18.2259 -10.4969 7.8444
# 2 28.1485 74.9414 7.2116 25.0134 6.6993 11.0308
# 3 48.0958 7.2116 110.3350 27.9683 0.2294 10.3350
# 4 18.2259 25.0134 27.9683 43.0175 -5.6588 -3.5339
# 5 -10.4969 6.6993 0.2294 -5.6588 31.8891 7.6573
# 6 7.8444 11.0308 10.3350 -3.5339 7.6573 39.2074
#
#
#
# Elastic Compliance Matrix: (Units=1/GPa)
#
#
# Indices 1 2 3 4 5 6 
#
# 1 0.010722 -0.004574 -0.004824 0.001873 0.004950 -0.000385
# 2 -0.004574 0.021204 0.005056 -0.015142 -0.007159 -0.006350
# 3 -0.004824 0.005056 0.014005 -0.010840 -0.003613 -0.004420
# 4 0.001873 -0.015142 -0.010840 0.040189 0.008937 0.008620
# 5 0.004950 -0.007159 -0.003613 0.008937 0.037180 -0.004480
# 6 -0.000385 -0.006350 -0.004420 0.008620 -0.004480 0.030186
#
#
# Mechanical properties :
#
#
# Convention : Reuss Voigt Hill
#
# Bulk Modulus (GPa) = 26.84780 53.44920 40.14850
# Shear Modulus (GPa) = 28.63935 38.20114 33.42025
#
# Velocity S-wave (km/s) = 3.48952 4.03015 3.76954
# Velocity P-wave (km/s) = 5.25838 6.66194 6.00133
#
# Compressibility (1/GPa) = 0.03724700
#
# Stress axis : x y z
#
# Youngs Moduli (GPa) = 93.26475 47.16132 71.40344
#
# Poissons Ratio (x) = 0.21572 0.34444
# Poissons Ratio (y) = 0.42659 -0.36101
# Poissons Ratio (z) = 0.44989 -0.23844
#
# Static dielectric constant tensor:
#      x y z
#    x 4.445590 -0.090230 -0.474020 
#    y -0.090230 5.016120 1.128220 
#    z -0.474020 1.128220 5.776300 
# 
# 
# High freq. dielectric constant tensor:
#      x y z
#    x 1.930960 0.008440 -0.006600 
#    y 0.008440 1.960310 0.008000 
#    z -0.006600 0.008000 1.928860 
# 
# From -- ./inp_files/572697.got.cif
#   From: 2010.06.25/outbox.cif.g09.slc.cpg/sg2_287_cif.got.tgz:572697.got - 2010.06.27 13:26:56.
