data_PCOD8011841
_publ_section_title
;
Structure prediction by ZEFSAII (Michael W. Deem and Ramdas Pophale) SiO2 
 PCOD8011841
Probable space group: P -1
;
_chemical_formula_sum "Si O2"
_cell_formula_units_Z 16
_cell_length_a 19.820568
_cell_length_b 9.750493
_cell_length_c 11.691798
_cell_angle_alpha 138.152504
_cell_angle_beta 151.359189
_cell_angle_gamma 45.491631
_cell_volume 714.627288
_symmetry_space_group_name_H-M "P -1"
_symmetry_group_IT_number 2
_symmetry_cell_setting 'triclinic'
loop_
_space_group_symop_operation_xyz
x,y,z
-x,-y,-z
loop_
_atom_site_type_symbol
_atom_site_label
_atom_site_fract_x
_atom_site_fract_y
_atom_site_fract_z
Si Si1 0.499912 0.288366 0.798895
Si Si2 0.972049 0.708025 0.017204
Si Si3 0.746085 0.197358 0.589424
Si Si4 0.797651 0.359919 0.005214
Si Si5 0.494288 0.542002 0.740053
Si Si6 0.186181 0.875099 0.883910
Si Si7 0.657702 0.792980 0.285540
Si Si8 0.926103 0.506819 0.584615
O O1 0.454250 0.347008 0.635183
O O2 0.389613 0.159189 0.621141
O O3 0.500000 0.500000 0.000000
O O4 0.653564 0.149615 0.938717
O O5 0.116125 0.810163 0.289052
O O6 0.866176 0.878003 0.036666
O O7 0.915862 0.642499 0.769640
O O8 0.000000 0.500000 0.000000
O O9 0.629079 0.385898 0.489200
O O10 0.685109 0.982231 0.364655
O O11 0.796390 0.216515 0.804621
O O12 0.832040 0.207004 0.066805
O O13 0.923927 0.498189 0.260297
O O14 0.643245 0.496339 0.866427
O O15 0.518142 0.721052 0.976463
O O16 0.098096 0.734267 0.583217
O O17 0.795615 0.612609 0.374467
#
# Coordination Sequence:
#
# PCOD8011841 Si02
#       8
#     2   2   2   2   2   2   2   2
#     4   9  19  39  66  99 127 169 228 266 319 395
#     4  11  28  45  63 100 134 175 223 271 336 394
#     4  11  24  41  61  92 141 169 205 284 329 382
#     4  10  21  40  63 100 122 167 227 261 333 392
#     4  10  21  39  64  93 131 174 214 267 332 392
#     4  11  21  43  72  92 130 179 221 270 331 388
#     4  11  21  39  67  99 125 171 223 270 324 389
#     4  11  22  41  71  94 132 167 223 284 313 393
#
# _framework density 22.389294
#
# number of rings (size 3 to 8) (size 9 to 14) (size 15 to 20)
#    0.000    1.500    3.750    2.625    3.500    2.500 
#    6.750    1.875    0.000    0.000    0.000    0.000 
#    0.000    0.000    0.000    0.000    0.000    0.000 
#
# Total GULP energy -198290.779383 kJ/mol
# GULP energy per Si atom -12393.173711 kJ/mol
# Density = 2.233833 g / cm^3
# Si number density = 22.389294 Si / 1000 Ang^3
#
#
#
# Elastic Constant Matrix: (Units=GPa)
#
#
# Indices 1 2 3 4 5 6 
#
# 1 109.0361 46.8829 13.9815 2.1215 23.8090 -6.5907
# 2 46.8829 119.8401 21.0530 4.2208 14.2122 -13.6297
# 3 13.9815 21.0530 58.9944 -1.5339 4.3978 -2.0649
# 4 2.1215 4.2208 -1.5339 26.6869 -1.8395 4.1628
# 5 23.8090 14.2122 4.3978 -1.8395 22.5045 3.2384
# 6 -6.5907 -13.6297 -2.0649 4.1628 3.2384 38.6036
#
#
#
# Elastic Compliance Matrix: (Units=1/GPa)
#
#
# Indices 1 2 3 4 5 6 
#
# 1 0.013684 -0.003328 -0.001077 -0.001865 -0.012657 0.002366
# 2 -0.003328 0.011098 -0.002830 -0.002496 -0.003682 0.003777
# 3 -0.001077 -0.002830 0.018281 0.001605 -0.000465 -0.000339
# 4 -0.001865 -0.002496 0.001605 0.039547 0.007331 -0.005993
# 5 -0.012657 -0.003682 -0.000465 0.007331 0.062209 -0.009495
# 6 0.002366 0.003777 -0.000339 -0.005993 -0.009495 0.029067
#
#
# Mechanical properties :
#
#
# Convention : Reuss Voigt Hill
#
# Bulk Modulus (GPa) = 34.97575 50.18947 42.58261
# Shear Modulus (GPa) = 25.26721 31.28921 28.27821
#
# Velocity S-wave (km/s) = 3.36302 3.74238 3.55776
# Velocity P-wave (km/s) = 5.54395 6.41399 5.99478
#
# Compressibility (1/GPa) = 0.02859124
#
# Stress axis : x y z
#
# Youngs Moduli (GPa) = 73.08032 90.10900 54.70302
#
# Poissons Ratio (x) = 0.29988 0.05894
# Poissons Ratio (y) = 0.24321 0.15480
# Poissons Ratio (z) = 0.07874 0.25500
#
# Static dielectric constant tensor:
#      x y z
#    x 4.670870 0.186480 0.112800 
#    y 0.186480 3.809300 0.080160 
#    z 0.112800 0.080160 4.134320 
# 
# 
# High freq. dielectric constant tensor:
#      x y z
#    x 1.895330 -0.001610 0.010060 
#    y -0.001610 1.859470 0.001710 
#    z 0.010060 0.001710 1.877210 
# 
# From -- ./inp_files/470169.got.cif
#   From: 2010.06.25/outbox.cif.g09.slc.cpg/sg2_236_cif.got.tgz:470169.got - 2010.06.27 13:26:56.
