data_PCOD8011766
_publ_section_title
;
Structure prediction by ZEFSAII (Michael W. Deem and Ramdas Pophale) SiO2 
 PCOD8011766
Probable space group: P -1
;
_chemical_formula_sum "Si O2"
_cell_formula_units_Z 16
_cell_length_a 8.784960
_cell_length_b 10.594804
_cell_length_c 12.533834
_cell_angle_alpha 40.707983
_cell_angle_beta 79.760317
_cell_angle_gamma 72.770758
_cell_volume 724.659957
_symmetry_space_group_name_H-M "P -1"
_symmetry_group_IT_number 2
_symmetry_cell_setting 'triclinic'
loop_
_space_group_symop_operation_xyz
x,y,z
-x,-y,-z
loop_
_atom_site_type_symbol
_atom_site_label
_atom_site_fract_x
_atom_site_fract_y
_atom_site_fract_z
Si Si1 0.531443 0.363605 0.936197
Si Si2 0.646533 0.974544 0.776638
Si Si3 0.412020 0.090355 0.557991
Si Si4 0.021468 0.043684 0.347011
Si Si5 0.934696 0.747937 0.239081
Si Si6 0.909484 0.677972 0.523683
Si Si7 0.251123 0.892045 0.099392
Si Si8 0.702325 0.289135 0.168465
O O1 0.627162 0.285933 0.865832
O O2 0.407004 0.585054 0.802204
O O3 0.419948 0.219767 0.076252
O O4 0.656863 0.395323 0.991446
O O5 0.813739 0.907119 0.736768
O O6 0.528471 0.130353 0.611929
O O7 0.660219 0.076527 0.823128
O O8 0.266864 0.282301 0.425121
O O9 0.500000 0.000000 0.500000
O O10 0.321890 0.928399 0.712938
O O11 0.889436 0.246111 0.200269
O O12 0.000000 0.000000 0.500000
O O13 0.010624 0.840106 0.422231
O O14 0.992847 0.536625 0.304750
O O15 0.085711 0.840060 0.180299
O O16 0.868838 0.684035 0.398839
O O17 0.791766 0.901722 0.096025
#
# Coordination Sequence:
#
# PCOD8011766 Si02
#       8
#     2   2   2   2   2   2   2   2
#     4  10  22  39  63  88 124 159 203 249 309 371
#     4  11  22  38  62  94 124 160 205 264 312 358
#     4  10  21  39  64  86 121 164 204 252 309 368
#     4  11  22  40  61  87 126 157 203 260 307 363
#     4  10  22  39  66  89 120 169 209 250 308 371
#     4  10  21  42  63  88 121 167 213 247 301 382
#     4  11  22  39  64  93 127 162 204 264 314 360
#     4   9  21  40  59  86 120 161 205 242 296 376
#
# _framework density 22.079321
#
# number of rings (size 3 to 8) (size 9 to 14) (size 15 to 20)
#    0.000    1.750    1.250    4.125    3.500    1.500 
#    2.250    1.875    0.000    0.000    0.000    0.000 
#    0.000    0.000    0.000    0.000    0.000    0.000 
#
# Total GULP energy -198262.514729 kJ/mol
# GULP energy per Si atom -12391.407171 kJ/mol
# Density = 2.202907 g / cm^3
# Si number density = 22.079321 Si / 1000 Ang^3
#
#
#
# Elastic Constant Matrix: (Units=GPa)
#
#
# Indices 1 2 3 4 5 6 
#
# 1 95.5407 30.7041 7.4247 4.6897 6.9381 -7.1227
# 2 30.7041 120.0292 26.0848 5.5479 17.9739 -12.5401
# 3 7.4247 26.0848 44.3978 -0.2203 10.4371 1.5693
# 4 4.6897 5.5479 -0.2203 41.4104 -8.7808 4.5537
# 5 6.9381 17.9739 10.4371 -8.7808 15.4333 3.4172
# 6 -7.1227 -12.5401 1.5693 4.5537 3.4172 34.0897
#
#
#
# Elastic Compliance Matrix: (Units=1/GPa)
#
#
# Indices 1 2 3 4 5 6 
#
# 1 0.011750 -0.001894 0.000277 -0.002475 -0.005249 0.002602
# 2 -0.001894 0.013180 -0.003726 -0.005945 -0.016936 0.007116
# 3 0.000277 -0.003726 0.028574 -0.002834 -0.016591 -0.000587
# 4 -0.002475 -0.005945 -0.002834 0.032864 0.030877 -0.010059
# 5 -0.005249 -0.016936 -0.016591 0.030877 0.120712 -0.022788
# 6 0.002602 0.007116 -0.000587 -0.010059 -0.022788 0.036151
#
#
# Mechanical properties :
#
#
# Convention : Reuss Voigt Hill
#
# Bulk Modulus (GPa) = 23.35485 43.15496 33.25491
# Shear Modulus (GPa) = 18.64359 31.23694 24.94027
#
# Velocity S-wave (km/s) = 2.90899 3.76541 3.36456
# Velocity P-wave (km/s) = 4.67800 6.20421 5.49436
#
# Compressibility (1/GPa) = 0.04281766
#
# Stress axis : x y z
#
# Youngs Moduli (GPa) = 85.10304 75.87298 34.99743
#
# Poissons Ratio (x) = 0.14369 -0.00970
# Poissons Ratio (y) = 0.16117 0.13042
# Poissons Ratio (z) = -0.02359 0.28274
#
# Static dielectric constant tensor:
#      x y z
#    x 4.025270 -0.370320 0.247130 
#    y -0.370320 3.457580 -0.066300 
#    z 0.247130 -0.066300 4.098830 
# 
# 
# High freq. dielectric constant tensor:
#      x y z
#    x 1.870270 -0.014870 0.006380 
#    y -0.014870 1.872580 0.000870 
#    z 0.006380 0.000870 1.851610 
# 
# From -- ./inp_files/377975.got.cif
#   From: 2010.06.25/outbox.cif.g09.slc.cpg/sg2_189_cif.got.tgz:377975.got - 2010.06.27 13:26:56.
