data_PCOD8011737
_publ_section_title
;
Structure prediction by ZEFSAII (Michael W. Deem and Ramdas Pophale) SiO2 
 PCOD8011737
Probable space group: P -1
;
_chemical_formula_sum "Si O2"
_cell_formula_units_Z 16
_cell_length_a 8.717483
_cell_length_b 19.795384
_cell_length_c 10.008136
_cell_angle_alpha 113.859977
_cell_angle_beta 115.163793
_cell_angle_gamma 30.290407
_cell_volume 785.787896
_symmetry_space_group_name_H-M "P -1"
_symmetry_group_IT_number 2
_symmetry_cell_setting 'triclinic'
loop_
_space_group_symop_operation_xyz
x,y,z
-x,-y,-z
loop_
_atom_site_type_symbol
_atom_site_label
_atom_site_fract_x
_atom_site_fract_y
_atom_site_fract_z
Si Si1 0.268053 0.079150 0.597106
Si Si2 0.301375 0.091210 0.126805
Si Si3 0.278304 0.501289 0.530286
Si Si4 0.178381 0.305162 0.253501
Si Si5 0.873967 0.368432 0.679933
Si Si6 0.852015 0.628890 0.003525
Si Si7 0.844080 0.134803 0.076602
Si Si8 0.714858 0.205483 0.389265
O O1 0.073695 0.223345 0.628505
O O2 0.019333 0.102543 0.511801
O O3 0.500000 0.000000 0.500000
O O4 0.459274 0.001551 0.739018
O O5 0.147490 0.228135 0.172806
O O6 0.025212 0.132876 0.063897
O O7 0.500000 0.000000 0.000000
O O8 0.511200 0.482122 0.642341
O O9 0.070731 0.600881 0.405726
O O10 0.463161 0.360675 0.448082
O O11 0.053931 0.572464 0.630076
O O12 0.532471 0.195305 0.339681
O O13 0.110904 0.368187 0.137117
O O14 0.972271 0.370848 0.854462
O O15 0.498087 0.751322 0.015647
O O16 0.000000 0.500000 0.000000
O O17 0.838682 0.162665 0.249873
O O18 0.000000 0.000000 0.000000
#
# Coordination Sequence:
#
# PCOD8011737 Si02
#       8
#     2   2   2   2   2   2   2   2
#     4  11  21  39  66  92 126 171 220 264 319 401
#     4  12  25  43  64  97 134 171 220 277 333 384
#     4  10  22  39  69  93 134 166 213 273 336 385
#     4  11  24  42  66  95 134 169 213 281 333 383
#     4  10  21  39  63  97 125 170 217 264 324 401
#     4  11  25  44  67  96 131 174 226 269 328 406
#     4  11  23  44  70  93 134 182 215 267 336 400
#     4  10  22  41  66  93 129 170 221 265 329 398
#
# _framework density 20.361726999999998
#
# number of rings (size 3 to 8) (size 9 to 14) (size 15 to 20)
#    0.000    1.250    1.250    5.625    5.250    1.000 
#    6.750    0.000    0.000    0.000    0.000    0.000 
#    0.000    0.000    0.000    0.000    0.000    0.000 
#
# Total GULP energy -198376.791897 kJ/mol
# GULP energy per Si atom -12398.549494 kJ/mol
# Density = 2.031538 g / cm^3
# Si number density = 20.361727 Si / 1000 Ang^3
#
#
#
# Elastic Constant Matrix: (Units=GPa)
#
#
# Indices 1 2 3 4 5 6 
#
# 1 122.9740 37.8822 45.7252 6.4316 -5.3573 -8.5648
# 2 37.8822 102.9411 41.7552 5.3831 -11.7634 3.1952
# 3 45.7252 41.7552 119.9873 1.2045 -10.6682 -17.2534
# 4 6.4316 5.3831 1.2045 43.7532 -2.6477 -2.7424
# 5 -5.3573 -11.7634 -10.6682 -2.6477 39.9315 3.8759
# 6 -8.5648 3.1952 -17.2534 -2.7424 3.8759 29.5827
#
#
#
# Elastic Compliance Matrix: (Units=1/GPa)
#
#
# Indices 1 2 3 4 5 6 
#
# 1 0.010109 -0.002654 -0.002725 -0.001008 -0.000374 0.001580
# 2 -0.002654 0.012800 -0.003888 -0.001217 0.002770 -0.004894
# 3 -0.002725 -0.003888 0.011735 0.001024 0.001068 0.006430
# 4 -0.001008 -0.001217 0.001024 0.023345 0.001089 0.002458
# 5 -0.000374 0.002770 0.001068 0.001089 0.026472 -0.003152
# 6 0.001580 -0.004894 0.006430 0.002458 -0.003152 0.039181
#
#
# Mechanical properties :
#
#
# Convention : Reuss Voigt Hill
#
# Bulk Modulus (GPa) = 62.07246 66.29196 64.18221
# Shear Modulus (GPa) = 33.88764 37.35613 35.62188
#
# Velocity S-wave (km/s) = 4.08399 4.28790 4.18718
# Velocity P-wave (km/s) = 7.26565 7.55927 7.41391
#
# Compressibility (1/GPa) = 0.01611020
#
# Stress axis : x y z
#
# Youngs Moduli (GPa) = 98.92236 78.12346 85.21505
#
# Poissons Ratio (x) = 0.20733 0.23219
# Poissons Ratio (y) = 0.26253 0.33135
# Poissons Ratio (z) = 0.26954 0.30377
#
# Static dielectric constant tensor:
#      x y z
#    x 4.031150 -0.292360 0.568870 
#    y -0.292360 3.824940 -0.330460 
#    z 0.568870 -0.330460 4.571420 
# 
# 
# High freq. dielectric constant tensor:
#      x y z
#    x 1.801700 -0.009440 0.012040 
#    y -0.009440 1.801300 0.005920 
#    z 0.012040 0.005920 1.808040 
# 
# From -- ./inp_files/223873.got.cif
#   From: 2010.06.25/outbox.cif.g09.slc.cpg/sg2_112_cif.got.tgz:223873.got - 2010.06.27 13:26:56.
