data_PCOD8011523
_publ_section_title
;
Structure prediction by ZEFSAII (Michael W. Deem and Ramdas Pophale) SiO2 
 PCOD8011523
Probable space group: P -1
;
_chemical_formula_sum "Si O2"
_cell_formula_units_Z 16
_cell_length_a 8.459038
_cell_length_b 12.101389
_cell_length_c 15.790951
_cell_angle_alpha 29.115667
_cell_angle_beta 87.940838
_cell_angle_gamma 94.954778
_cell_volume 762.621150
_symmetry_space_group_name_H-M "P -1"
_symmetry_group_IT_number 2
_symmetry_cell_setting 'triclinic'
loop_
_space_group_symop_operation_xyz
x,y,z
-x,-y,-z
loop_
_atom_site_type_symbol
_atom_site_label
_atom_site_fract_x
_atom_site_fract_y
_atom_site_fract_z
Si Si1 0.161299 0.099559 0.086334
Si Si2 0.653713 0.117612 0.329683
Si Si3 0.735479 0.273238 0.558830
Si Si4 0.416860 0.209936 0.862728
Si Si5 0.387597 0.306629 0.507563
Si Si6 0.171960 0.237494 0.713912
Si Si7 0.723572 0.978920 0.594098
Si Si8 0.842709 0.597445 0.951959
O O1 0.143381 0.277528 0.041134
O O2 0.235491 0.895856 0.256334
O O3 0.287518 0.226685 0.927826
O O4 0.984894 0.979003 0.131498
O O5 0.468179 0.116786 0.353670
O O6 0.671897 0.904474 0.414132
O O7 0.772897 0.098946 0.420598
O O8 0.701660 0.362030 0.115258
O O9 0.549194 0.284600 0.569561
O O10 0.859636 0.526778 0.400196
O O11 0.765975 0.185003 0.524061
O O12 0.561183 0.446221 0.708034
O O13 0.320116 0.169981 0.803730
O O14 0.500000 0.000000 0.000000
O O15 0.232310 0.297199 0.576598
O O16 0.807397 0.769262 0.762100
O O17 0.000000 0.500000 0.000000
#
# Coordination Sequence:
#
# PCOD8011523 Si02
#       8
#     2   2   2   2   2   2   2   2
#     4  11  23  38  61  92 124 164 204 253 319 371
#     4  10  21  40  66  88 125 159 220 262 308 371
#     4   9  19  37  62  86 119 157 204 253 308 372
#     4  11  23  40  61  94 125 156 206 260 311 370
#     4  10  21  39  62  90 118 163 206 255 312 368
#     4  11  21  38  62  88 126 160 201 251 316 379
#     4   9  21  39  64  95 113 167 212 265 311 368
#     4  11  24  41  61  91 134 168 209 259 319 381
#
# _framework density 20.980274000000001
#
# number of rings (size 3 to 8) (size 9 to 14) (size 15 to 20)
#    0.000    1.750    0.000    4.875    7.000    0.500 
#    4.500    0.000    0.000    0.000    0.000    0.000 
#    0.000    0.000    0.000    0.000    0.000    0.000 
#
# Total GULP energy -198282.456957 kJ/mol
# GULP energy per Si atom -12392.653560 kJ/mol
# Density = 2.093252 g / cm^3
# Si number density = 20.980274 Si / 1000 Ang^3
#
#
#
# Elastic Constant Matrix: (Units=GPa)
#
#
# Indices 1 2 3 4 5 6 
#
# 1 66.5085 41.6199 41.1292 -4.8635 8.7684 -15.8485
# 2 41.6199 88.0329 43.5225 -9.7752 6.5232 1.2162
# 3 41.1292 43.5225 109.0508 -14.5040 14.4147 -5.9844
# 4 -4.8635 -9.7752 -14.5040 38.4747 -1.3543 0.0918
# 5 8.7684 6.5232 14.4147 -1.3543 35.2578 -6.4284
# 6 -15.8485 1.2162 -5.9844 0.0918 -6.4284 25.6612
#
#
#
# Elastic Compliance Matrix: (Units=1/GPa)
#
#
# Indices 1 2 3 4 5 6 
#
# 1 0.030194 -0.011768 -0.005941 -0.001445 0.000306 0.017902
# 2 -0.011768 0.018943 -0.003233 0.002099 -0.000842 -0.009138
# 3 -0.005941 -0.003233 0.013558 0.003416 -0.003566 -0.001260
# 4 -0.001445 0.002099 0.003416 0.027615 -0.000438 -0.000404
# 5 0.000306 -0.000842 -0.003566 -0.000438 0.031199 0.007214
# 6 0.017902 -0.009138 -0.001260 -0.000404 0.007214 0.051974
#
#
# Mechanical properties :
#
#
# Convention : Reuss Voigt Hill
#
# Bulk Modulus (GPa) = 48.05378 57.34841 52.70109
# Shear Modulus (GPa) = 22.49180 29.03344 25.76262
#
# Velocity S-wave (km/s) = 3.27776 3.72404 3.50801
# Velocity P-wave (km/s) = 6.10565 6.77385 6.44841
#
# Compressibility (1/GPa) = 0.02081002
#
# Stress axis : x y z
#
# Youngs Moduli (GPa) = 33.11911 52.78980 73.75928
#
# Poissons Ratio (x) = 0.62124 0.43823
# Poissons Ratio (y) = 0.38975 0.23845
# Poissons Ratio (z) = 0.19677 0.17066
#
# Static dielectric constant tensor:
#      x y z
#    x 3.599960 0.072790 0.161620 
#    y 0.072790 3.931350 0.037930 
#    z 0.161620 0.037930 4.122930 
# 
# 
# High freq. dielectric constant tensor:
#      x y z
#    x 1.810220 -0.000690 0.006930 
#    y -0.000690 1.828330 -0.006640 
#    z 0.006930 -0.006640 1.829690 
# 
# From -- ./inp_files/314648.got.cif
#   From: 2010.06.25/outbox.cif.g09.slc.cpg/sg2_158_cif.got.tgz:314648.got - 2010.06.27 13:26:56.
