data_PCOD8011345
_publ_section_title
;
Structure prediction by ZEFSAII (Michael W. Deem and Ramdas Pophale) SiO2 
 PCOD8011345
Probable space group: P -1
;
_chemical_formula_sum "Si O2"
_cell_formula_units_Z 16
_cell_length_a 11.288199
_cell_length_b 10.116423
_cell_length_c 8.196529
_cell_angle_alpha 85.392761
_cell_angle_beta 56.089267
_cell_angle_gamma 74.879257
_cell_volume 747.421891
_symmetry_space_group_name_H-M "P -1"
_symmetry_group_IT_number 2
_symmetry_cell_setting 'triclinic'
loop_
_space_group_symop_operation_xyz
x,y,z
-x,-y,-z
loop_
_atom_site_type_symbol
_atom_site_label
_atom_site_fract_x
_atom_site_fract_y
_atom_site_fract_z
Si Si1 0.410505 0.946150 0.359901
Si Si2 0.400773 0.470767 0.433576
Si Si3 0.107439 0.580016 0.829293
Si Si4 0.446537 0.834684 0.686648
Si Si5 0.665637 0.276764 0.746783
Si Si6 0.189858 0.752008 0.011595
Si Si7 0.973024 0.183339 0.365610
Si Si8 0.921914 0.906607 0.372954
O O1 0.504408 0.056708 0.242541
O O2 0.249450 0.035001 0.535190
O O3 0.482161 0.855139 0.468681
O O4 0.419400 0.844282 0.206754
O O5 0.500000 0.500000 0.500000
O O6 0.229362 0.489955 0.619906
O O7 0.460906 0.319758 0.325302
O O8 0.420363 0.572116 0.261474
O O9 0.999628 0.712050 0.804420
O O10 0.202661 0.622157 0.897878
O O11 0.000000 0.500000 0.000000
O O12 0.270599 0.853840 0.846214
O O13 0.718889 0.287426 0.887621
O O14 0.798513 0.227598 0.523175
O O15 0.013574 0.812566 0.168135
O O16 0.062105 0.186323 0.464818
O O17 0.012746 0.023670 0.299220
#
# Coordination Sequence:
#
# PCOD8011345 Si02
#       8
#     2   2   2   2   2   2   2   2
#     4  10  21  39  60  88 117 159 194 242 289 357
#     4  11  20  43  63  79 116 172 189 231 302 359
#     4  11  24  40  59  88 120 150 202 247 284 349
#     4  11  23  38  60  87 122 156 198 235 298 351
#     4   9  19  38  64  83 119 153 197 239 294 351
#     4  11  22  38  59  92 115 151 196 247 290 343
#     4   8  17  38  60  83 116 155 185 239 303 349
#     4   9  18  36  63  85 112 151 196 238 297 344
#
# _framework density 21.406918000000001
#
# number of rings (size 3 to 8) (size 9 to 14) (size 15 to 20)
#    0.000    2.000    2.500    2.250    1.750    3.000 
#    4.500    1.875    0.000    0.000    0.000    0.000 
#    0.000    0.000    0.000    0.000    0.000    0.000 
#
# Total GULP energy -198255.785985 kJ/mol
# GULP energy per Si atom -12390.986624 kJ/mol
# Density = 2.135819 g / cm^3
# Si number density = 21.406918 Si / 1000 Ang^3
#
#
#
# Elastic Constant Matrix: (Units=GPa)
#
#
# Indices 1 2 3 4 5 6 
#
# 1 67.5663 46.3565 17.8509 -8.0849 1.3126 9.9114
# 2 46.3565 117.1568 30.0697 -18.6387 11.6927 6.1266
# 3 17.8509 30.0697 62.1290 -9.8936 2.9152 8.7598
# 4 -8.0849 -18.6387 -9.8936 28.9094 -0.0065 -4.4789
# 5 1.3126 11.6927 2.9152 -0.0065 32.6173 -5.5920
# 6 9.9114 6.1266 8.7598 -4.4789 -5.5920 36.9034
#
#
#
# Elastic Compliance Matrix: (Units=1/GPa)
#
#
# Indices 1 2 3 4 5 6 
#
# 1 0.021208 -0.007933 -0.001859 -0.000401 0.001512 -0.003757
# 2 -0.007933 0.013833 -0.003418 0.005636 -0.004215 0.000691
# 3 -0.001859 -0.003418 0.019329 0.003386 -0.000986 -0.003260
# 4 -0.000401 0.005636 0.003386 0.039723 -0.001799 0.002917
# 5 0.001512 -0.004215 -0.000986 -0.001799 0.033109 0.005326
# 6 -0.003757 0.000691 -0.003260 0.002917 0.005326 0.029927
#
#
# Mechanical properties :
#
#
# Convention : Reuss Voigt Hill
#
# Bulk Modulus (GPa) = 35.77790 48.37848 42.07819
# Shear Modulus (GPa) = 25.92493 29.85769 27.89131
#
# Velocity S-wave (km/s) = 3.48380 3.73871 3.61350
# Velocity P-wave (km/s) = 5.73864 6.42540 6.09171
#
# Compressibility (1/GPa) = 0.02795021
#
# Stress axis : x y z
#
# Youngs Moduli (GPa) = 47.15280 72.29233 51.73578
#
# Poissons Ratio (x) = 0.57346 0.09619
# Poissons Ratio (y) = 0.37404 0.17682
# Poissons Ratio (z) = 0.08767 0.24708
#
# Static dielectric constant tensor:
#      x y z
#    x 3.713680 -0.107470 0.005930 
#    y -0.107470 4.108800 -0.055120 
#    z 0.005930 -0.055120 3.718350 
# 
# 
# High freq. dielectric constant tensor:
#      x y z
#    x 1.827240 -0.009250 0.008730 
#    y -0.009250 1.837730 -0.001260 
#    z 0.008730 -0.001260 1.823080 
# 
# From -- ./inp_files/238896.got.cif
#   From: 2010.06.25/outbox.cif.g09.slc.cpg/sg2_120_cif.got.tgz:238896.got - 2010.06.27 13:26:56.
