data_PCOD8011544
_publ_section_title
;
Structure prediction by ZEFSAII (Michael W. Deem and Ramdas Pophale) SiO2 
 PCOD8011544
Probable space group: P -1
;
_chemical_formula_sum "Si O2"
_cell_formula_units_Z 14
_cell_length_a 21.824588
_cell_length_b 10.003921
_cell_length_c 8.738444
_cell_angle_alpha 132.619438
_cell_angle_beta 45.416400
_cell_angle_gamma 152.874810
_cell_volume 611.431486
_symmetry_space_group_name_H-M "P -1"
_symmetry_group_IT_number 2
_symmetry_cell_setting 'triclinic'
loop_
_space_group_symop_operation_xyz
x,y,z
-x,-y,-z
loop_
_atom_site_type_symbol
_atom_site_label
_atom_site_fract_x
_atom_site_fract_y
_atom_site_fract_z
Si Si1 0.035603 0.208985 0.762935
Si Si2 0.492395 0.285399 0.791521
Si Si3 0.221009 0.778790 0.059289
Si Si4 0.222740 0.698107 0.338775
Si Si5 0.593657 0.716088 0.362966
Si Si6 0.043782 0.825583 0.438635
Si Si7 0.288969 0.425385 0.136029
O O1 0.065442 0.338722 0.641455
O O2 0.107260 0.131258 0.602301
O O3 0.867898 0.907217 0.824110
O O4 0.089425 0.435335 0.972754
O O5 0.487818 0.284593 0.613702
O O6 0.629247 0.411450 0.717745
O O7 0.500000 0.500000 0.000000
O O8 0.349313 0.958118 0.857553
O O9 0.265516 0.802691 0.170104
O O10 0.173376 0.909580 0.241648
O O11 0.052966 0.405946 0.430883
O O12 0.295445 0.629527 0.200043
O O13 0.273704 0.951194 0.548517
O O14 0.500000 0.500000 0.500000
O O15 0.635366 0.599119 0.117870
#
# Coordination Sequence:
#
# PCOD8011544 Si02
#       7
#     2   2   2   2   2   2   2
#     4  10  22  40  66  92 121 166 207 254 310 363
#     4  10  22  42  65  90 123 166 205 251 315 367
#     4  12  23  39  65  92 127 166 205 253 307 367
#     4  11  24  39  62  95 126 163 206 256 309 360
#     4  11  23  40  63  90 123 163 206 254 309 367
#     4  10  21  39  62  91 124 159 210 255 302 368
#     4  10  23  44  63  89 130 162 204 257 307 369
#
# _framework density 22.897086999999999
#
# number of rings (size 3 to 8) (size 9 to 14) (size 15 to 20)
#    0.000    1.429    0.000    6.000    0.000    6.286 
#    0.000    5.714    0.000    0.000    0.000    0.000 
#    0.000    0.000    0.000    0.000    0.000    0.000 
#
# Total GULP energy -173573.681846 kJ/mol
# GULP energy per Si atom -12398.120132 kJ/mol
# Density = 2.284497 g / cm^3
# Si number density = 22.897087 Si / 1000 Ang^3
#
#
#
# Elastic Constant Matrix: (Units=GPa)
#
#
# Indices 1 2 3 4 5 6 
#
# 1 132.7040 51.3374 40.3344 6.1748 11.2568 -9.6586
# 2 51.3374 99.0913 25.6805 -7.2549 4.6564 -4.0193
# 3 40.3344 25.6805 79.0093 -2.3582 3.7030 -7.0719
# 4 6.1748 -7.2549 -2.3582 13.6165 -11.6513 -1.1776
# 5 11.2568 4.6564 3.7030 -11.6513 43.9731 -4.2385
# 6 -9.6586 -4.0193 -7.0719 -1.1776 -4.2385 35.1078
#
#
#
# Elastic Compliance Matrix: (Units=1/GPa)
#
#
# Indices 1 2 3 4 5 6 
#
# 1 0.012508 -0.006087 -0.004511 -0.014816 -0.006045 0.000609
# 2 -0.006087 0.014418 -0.001297 0.013505 0.003779 0.000624
# 3 -0.004511 -0.001297 0.015666 0.005703 0.001692 0.002162
# 4 -0.014816 0.013505 0.005703 0.117779 0.033730 0.006641
# 5 -0.006045 0.003779 0.001692 0.033730 0.033091 0.004237
# 6 0.000609 0.000624 0.002162 0.006641 0.004237 0.029892
#
#
# Mechanical properties :
#
#
# Convention : Reuss Voigt Hill
#
# Bulk Modulus (GPa) = 53.18888 60.61215 56.90051
# Shear Modulus (GPa) = 19.73071 31.43629 25.58350
#
# Velocity S-wave (km/s) = 2.93868 3.70934 3.34627
# Velocity P-wave (km/s) = 5.89868 6.69885 6.31146
#
# Compressibility (1/GPa) = 0.01880092
#
# Stress axis : x y z
#
# Youngs Moduli (GPa) = 79.94871 69.35807 63.83362
#
# Poissons Ratio (x) = 0.42219 0.28797
# Poissons Ratio (y) = 0.48665 0.08279
# Poissons Ratio (z) = 0.36067 0.08996
#
# Static dielectric constant tensor:
#      x y z
#    x 4.688720 -0.014400 0.172320 
#    y -0.014400 4.365020 0.054740 
#    z 0.172320 0.054740 4.342270 
# 
# 
# High freq. dielectric constant tensor:
#      x y z
#    x 1.907510 -0.012900 0.001200 
#    y -0.012900 1.910080 0.003130 
#    z 0.001200 0.003130 1.896950 
# 
# From -- ./inp_files/292205.got.cif
#   From: 2010.06.25/outbox.cif.g09.slc.cpg/sg2_147_cif.got.tgz:292205.got - 2010.06.27 13:26:56.
