data_PCOD8011312
_publ_section_title
;
Structure prediction by ZEFSAII (Michael W. Deem and Ramdas Pophale) SiO2 
 PCOD8011312
Probable space group: P -1
;
_chemical_formula_sum "Si O2"
_cell_formula_units_Z 16
_cell_length_a 17.941924
_cell_length_b 13.060103
_cell_length_c 9.100916
_cell_angle_alpha 79.885320
_cell_angle_beta 89.959064
_cell_angle_gamma 21.271952
_cell_volume 677.776254
_symmetry_space_group_name_H-M "P -1"
_symmetry_group_IT_number 2
_symmetry_cell_setting 'triclinic'
loop_
_space_group_symop_operation_xyz
x,y,z
-x,-y,-z
loop_
_atom_site_type_symbol
_atom_site_label
_atom_site_fract_x
_atom_site_fract_y
_atom_site_fract_z
Si Si1 0.978182 0.598889 0.333274
Si Si2 0.580262 0.120300 0.993998
Si Si3 0.758982 0.260051 0.110603
Si Si4 0.853689 0.098681 0.843610
Si Si5 0.031739 0.183777 0.572123
Si Si6 0.540916 0.331282 0.482717
Si Si7 0.165581 0.204571 0.212890
Si Si8 0.854856 0.433049 0.201497
O O1 0.060671 0.608668 0.363903
O O2 0.000000 0.500000 0.500000
O O3 0.153833 0.325413 0.277410
O O4 0.710169 0.945581 0.193690
O O5 0.467901 0.384739 0.912623
O O6 0.389413 0.279637 0.939094
O O7 0.787022 0.831308 0.947946
O O8 0.895542 0.018871 0.297567
O O9 0.726664 0.234776 0.965887
O O10 0.904258 0.163921 0.068623
O O11 0.691097 0.390884 0.675734
O O12 0.918296 0.910940 0.797498
O O13 0.856134 0.394292 0.383151
O O14 0.255407 0.942690 0.565822
O O15 0.500000 0.500000 0.500000
O O16 0.602945 0.165099 0.647675
O O17 0.916938 0.473609 0.174622
#
# Coordination Sequence:
#
# PCOD8011312 Si02
#       8
#     2   2   2   2   2   2   2   2
#     4  12  25  48  67  97 138 180 228 280 330 396
#     4  11  26  44  72 101 130 181 226 276 342 400
#     4  10  24  39  66 104 134 167 218 284 334 404
#     4  10  21  39  60 101 141 168 210 276 349 396
#     4  11  23  41  68  98 138 174 224 275 334 398
#     4  11  19  34  64  95 125 172 212 270 334 389
#     4  11  24  44  70  95 136 177 231 276 330 401
#     4  10  23  43  68 103 135 177 220 279 335 403
#
# _framework density 23.60661
#
# number of rings (size 3 to 8) (size 9 to 14) (size 15 to 20)
#    0.000    1.250    5.000    1.875    3.500    2.500 
#    0.000    0.625    2.750    0.000    0.000    0.000 
#    0.000    0.000    0.000    0.000    0.000    0.000 
#
# Total GULP energy -198276.881374 kJ/mol
# GULP energy per Si atom -12392.305086 kJ/mol
# Density = 2.355288 g / cm^3
# Si number density = 23.606610 Si / 1000 Ang^3
#
#
#
# Elastic Constant Matrix: (Units=GPa)
#
#
# Indices 1 2 3 4 5 6 
#
# 1 51.3084 26.1642 18.4199 7.9894 2.7905 16.6939
# 2 26.1642 92.6918 21.7796 19.2603 10.8521 19.5556
# 3 18.4199 21.7796 128.3394 6.5083 7.6120 -0.2084
# 4 7.9894 19.2603 6.5083 39.0004 -1.3976 9.3258
# 5 2.7905 10.8521 7.6120 -1.3976 33.7463 0.3925
# 6 16.6939 19.5556 -0.2084 9.3258 0.3925 36.9868
#
#
#
# Elastic Compliance Matrix: (Units=1/GPa)
#
#
# Indices 1 2 3 4 5 6 
#
# 1 0.025948 -0.004636 -0.002941 -0.000333 0.000102 -0.009194
# 2 -0.004636 0.014956 -0.001357 -0.005302 -0.004288 -0.004441
# 3 -0.002941 -0.001357 0.008564 -0.000753 -0.001310 0.002297
# 4 -0.000333 -0.005302 -0.000753 0.029658 0.003184 -0.004562
# 5 0.000102 -0.004288 -0.001310 0.003184 0.031418 0.001078
# 6 -0.009194 -0.004441 0.002297 -0.004562 0.001078 0.034686
#
#
# Mechanical properties :
#
#
# Convention : Reuss Voigt Hill
#
# Bulk Modulus (GPa) = 31.64628 45.00744 38.32686
# Shear Modulus (GPa) = 28.79647 35.67843 32.23745
#
# Velocity S-wave (km/s) = 3.49642 3.89186 3.69943
# Velocity P-wave (km/s) = 5.45296 6.26916 5.87525
#
# Compressibility (1/GPa) = 0.03159929
#
# Stress axis : x y z
#
# Youngs Moduli (GPa) = 38.53881 66.86075 116.76979
#
# Poissons Ratio (x) = 0.30998 0.34347
# Poissons Ratio (y) = 0.17867 0.15843
# Poissons Ratio (z) = 0.11336 0.09071
#
# Static dielectric constant tensor:
#      x y z
#    x 4.026570 0.530350 0.237130 
#    y 0.530350 4.506940 0.136230 
#    z 0.237130 0.136230 4.549170 
# 
# 
# High freq. dielectric constant tensor:
#      x y z
#    x 1.909830 0.027370 0.010760 
#    y 0.027370 1.934390 0.002280 
#    z 0.010760 0.002280 1.948700 
# 
# From -- ./inp_files/328875.got.cif
#   From: 2010.06.25/outbox.cif.g09.slc.cpg/sg2_165_cif.got.tgz:328875.got - 2010.06.27 13:26:56.
