data_PCOD8011683
_publ_section_title
;
Structure prediction by ZEFSAII (Michael W. Deem and Ramdas Pophale) SiO2 
 PCOD8011683
Probable space group: P -1
;
_chemical_formula_sum "Si O2"
_cell_formula_units_Z 14
_cell_length_a 15.331774
_cell_length_b 18.167696
_cell_length_c 4.977338
_cell_angle_alpha 83.693753
_cell_angle_beta 100.164988
_cell_angle_gamma 152.829794
_cell_volume 619.702906
_symmetry_space_group_name_H-M "P -1"
_symmetry_group_IT_number 2
_symmetry_cell_setting 'triclinic'
loop_
_space_group_symop_operation_xyz
x,y,z
-x,-y,-z
loop_
_atom_site_type_symbol
_atom_site_label
_atom_site_fract_x
_atom_site_fract_y
_atom_site_fract_z
Si Si1 0.281343 0.848230 0.532710
Si Si2 0.616799 0.734618 0.102207
Si Si3 0.965807 0.063561 0.982943
Si Si4 0.078008 0.639582 0.996452
Si Si5 0.334585 0.323370 0.369507
Si Si6 0.017719 0.786842 0.412164
Si Si7 0.183946 0.423683 0.124711
O O1 0.254845 0.787381 0.828384
O O2 0.219141 0.889267 0.501198
O O3 0.500000 0.000000 0.500000
O O4 0.143802 0.704450 0.306783
O O5 0.735689 0.774737 0.369863
O O6 0.414988 0.603898 0.186604
O O7 0.750219 0.907309 0.061505
O O8 0.580017 0.663014 0.832761
O O9 0.146120 0.227720 0.193145
O O10 0.947368 0.100782 0.691515
O O11 0.000000 0.000000 0.000000
O O12 0.899745 0.559066 0.843912
O O13 0.000000 0.500000 0.000000
O O14 0.500000 0.500000 0.500000
O O15 0.899875 0.698730 0.661656
O O16 0.880980 0.647027 0.176576
#
# Coordination Sequence:
#
# PCOD8011683 Si02
#       7
#     2   2   2   2   2   2   2
#     4  10  21  39  64  94 123 161 204 246 308 374
#     4  11  23  39  61  89 119 154 205 262 304 357
#     4  10  24  42  60  89 122 158 206 261 307 350
#     4  10  21  39  63  92 126 159 198 255 307 365
#     4  11  23  40  62  88 118 160 204 253 311 369
#     4  10  22  41  62  85 125 165 202 251 304 372
#     4  10  22  40  62  89 120 163 208 244 306 377
#
# _framework density 22.591470000000001
#
# number of rings (size 3 to 8) (size 9 to 14) (size 15 to 20)
#    0.000    1.714    0.000    3.429    0.000    9.143 
#    0.000    2.857    0.000    0.000    0.000    0.000 
#    0.000    0.000    0.000    0.000    0.000    0.000 
#
# Total GULP energy -173498.267385 kJ/mol
# GULP energy per Si atom -12392.733385 kJ/mol
# Density = 2.254005 g / cm^3
# Si number density = 22.591470 Si / 1000 Ang^3
#
#
#
# Elastic Constant Matrix: (Units=GPa)
#
#
# Indices 1 2 3 4 5 6 
#
# 1 101.8327 63.4122 25.6069 -15.5347 7.6923 -4.1479
# 2 63.4122 126.9964 16.9777 -16.4415 10.0898 28.3116
# 3 25.6069 16.9777 92.8797 -5.2987 1.9930 -2.1377
# 4 -15.5347 -16.4415 -5.2987 34.6181 -6.1303 2.1839
# 5 7.6923 10.0898 1.9930 -6.1303 35.4918 -6.8882
# 6 -4.1479 28.3116 -2.1377 2.1839 -6.8882 35.2558
#
#
#
# Elastic Compliance Matrix: (Units=1/GPa)
#
#
# Indices 1 2 3 4 5 6 
#
# 1 0.017883 -0.010892 -0.002608 0.002091 0.001848 0.010924
# 2 -0.010892 0.018103 -0.000369 0.003772 -0.005440 -0.017138
# 3 -0.002608 -0.000369 0.011589 0.000424 0.000231 0.000711
# 4 0.002091 0.003772 0.000424 0.032520 0.003266 -0.004133
# 5 0.001848 -0.005440 0.000231 0.003266 0.031937 0.010637
# 6 0.010924 -0.017138 0.000711 -0.004133 0.010637 0.045789
#
#
# Mechanical properties :
#
#
# Convention : Reuss Voigt Hill
#
# Bulk Modulus (GPa) = 50.41199 59.30027 54.85613
# Shear Modulus (GPa) = 26.01844 35.45394 30.73619
#
# Velocity S-wave (km/s) = 3.39734 3.96580 3.69253
# Velocity P-wave (km/s) = 6.14429 6.87576 6.52029
#
# Compressibility (1/GPa) = 0.01983655
#
# Stress axis : x y z
#
# Youngs Moduli (GPa) = 55.91946 55.23853 86.29082
#
# Poissons Ratio (x) = 0.60167 0.22507
# Poissons Ratio (y) = 0.60909 0.03182
# Poissons Ratio (z) = 0.14585 0.02037
#
# Static dielectric constant tensor:
#      x y z
#    x 4.382240 0.165680 0.240100 
#    y 0.165680 4.198750 -0.120210 
#    z 0.240100 -0.120210 4.434890 
# 
# 
# High freq. dielectric constant tensor:
#      x y z
#    x 1.882460 0.007150 -0.001910 
#    y 0.007150 1.885640 -0.010800 
#    z -0.001910 -0.010800 1.909370 
# 
# From -- ./inp_files/99134.got.cif
#   From: 2010.06.25/outbox.cif.g09.slc.cpg/sg2_50_cif.got.tgz:99134.got - 2010.06.27 13:26:56.
