data_PCOD8011011
_publ_section_title
;
Structure prediction by ZEFSAII (Michael W. Deem and Ramdas Pophale) SiO2 
 PCOD8011011
Probable space group: P -1
;
_chemical_formula_sum "Si O2"
_cell_formula_units_Z 16
_cell_length_a 18.876884
_cell_length_b 10.907836
_cell_length_c 9.593482
_cell_angle_alpha 131.765897
_cell_angle_beta 151.258840
_cell_angle_gamma 46.128185
_cell_volume 674.948326
_symmetry_space_group_name_H-M "P -1"
_symmetry_group_IT_number 2
_symmetry_cell_setting 'triclinic'
loop_
_space_group_symop_operation_xyz
x,y,z
-x,-y,-z
loop_
_atom_site_type_symbol
_atom_site_label
_atom_site_fract_x
_atom_site_fract_y
_atom_site_fract_z
Si Si1 0.644255 0.747401 0.650661
Si Si2 0.074577 0.154468 0.753676
Si Si3 0.901075 0.770891 0.458711
Si Si4 0.397722 0.313923 0.148765
Si Si5 0.195520 0.646475 0.403101
Si Si6 0.607347 0.319130 0.994457
Si Si7 0.760532 0.340457 0.987936
Si Si8 0.268256 0.852660 0.451332
O O1 0.585504 0.730690 0.692848
O O2 0.748185 0.558165 0.638994
O O3 0.497162 0.799886 0.330151
O O4 0.743163 0.885047 0.916040
O O5 0.063949 0.247893 0.658707
O O6 0.983347 0.290260 0.814365
O O7 0.000000 0.000000 0.500000
O O8 0.061085 0.658465 0.721481
O O9 0.846097 0.970772 0.557073
O O10 0.758583 0.704366 0.204618
O O11 0.547158 0.183666 0.230526
O O12 0.372787 0.513806 0.216540
O O13 0.218199 0.700973 0.326951
O O14 0.281063 0.752161 0.735237
O O15 0.500000 0.500000 0.000000
O O16 0.716646 0.342207 0.074585
O O17 0.756962 0.164683 0.771026
#
# Coordination Sequence:
#
# PCOD8011011 Si02
#       8
#     2   2   2   2   2   2   2   2
#     4  10  21  39  64  96 121 167 222 268 314 385
#     4  11  22  41  64  87 130 174 213 263 327 390
#     4  11  25  41  63  93 136 171 211 268 326 384
#     4  11  22  40  66  97 125 168 223 264 317 384
#     4  11  21  40  65  94 126 166 217 268 322 378
#     4  10  21  38  65  97 129 161 214 275 318 368
#     4  12  22  42  67  97 129 168 218 268 317 385
#     4  12  23  41  68  93 133 170 212 264 331 386
#
# _framework density 23.705518999999999
#
# number of rings (size 3 to 8) (size 9 to 14) (size 15 to 20)
#    0.000    1.000    5.000    3.375    0.000    0.000 
#    0.000    1.875    2.750    0.000    0.000    0.000 
#    0.000    0.000    0.000    0.000    0.000    0.000 
#
# Total GULP energy -198222.228630 kJ/mol
# GULP energy per Si atom -12388.889289 kJ/mol
# Density = 2.365156 g / cm^3
# Si number density = 23.705519 Si / 1000 Ang^3
#
#
#
# Elastic Constant Matrix: (Units=GPa)
#
#
# Indices 1 2 3 4 5 6 
#
# 1 107.1994 14.6479 17.7984 -2.6192 10.2584 -26.1456
# 2 14.6479 33.0306 5.4138 -10.8616 4.7632 -17.3101
# 3 17.7984 5.4138 107.6519 -4.2116 6.9647 -12.7019
# 4 -2.6192 -10.8616 -4.2116 37.6982 -1.0883 8.2813
# 5 10.2584 4.7632 6.9647 -1.0883 33.6846 -7.4086
# 6 -26.1456 -17.3101 -12.7019 8.2813 -7.4086 26.6939
#
#
#
# Elastic Compliance Matrix: (Units=1/GPa)
#
#
# Indices 1 2 3 4 5 6 
#
# 1 0.012478 0.000787 -0.000605 -0.001796 -0.001049 0.012710
# 2 0.000787 0.047978 0.001326 0.007402 -0.000440 0.030096
# 3 -0.000605 0.001326 0.009947 0.000414 -0.001038 0.004583
# 4 -0.001796 0.007402 0.000414 0.029942 -0.001011 -0.006332
# 5 -0.001049 -0.000440 -0.001038 -0.001011 0.031868 0.007351
# 6 0.012710 0.030096 0.004583 -0.006332 0.007351 0.075612
#
#
# Mechanical properties :
#
#
# Convention : Reuss Voigt Hill
#
# Bulk Modulus (GPa) = 13.62053 35.95580 24.78817
# Shear Modulus (GPa) = 21.80721 33.61678 27.71199
#
# Velocity S-wave (km/s) = 3.03631 3.76985 3.42279
# Velocity P-wave (km/s) = 4.24858 5.84377 5.10882
#
# Compressibility (1/GPa) = 0.07341856
#
# Stress axis : x y z
#
# Youngs Moduli (GPa) = 80.14249 20.84285 100.53520
#
# Poissons Ratio (x) = -0.01641 0.06086
# Poissons Ratio (y) = -0.06309 -0.13332
# Poissons Ratio (z) = 0.04851 -0.02764
#
# Static dielectric constant tensor:
#      x y z
#    x 3.812700 0.205240 -0.335800 
#    y 0.205240 3.242860 0.543570 
#    z -0.335800 0.543570 4.174880 
# 
# 
# High freq. dielectric constant tensor:
#      x y z
#    x 1.939160 -0.032670 0.010480 
#    y -0.032670 1.914520 -0.007170 
#    z 0.010480 -0.007170 1.954120 
# 
# From -- ./inp_files/262457.got.cif
#   From: 2010.06.25/outbox.cif.g09.slc.cpg/sg2_132_cif.got.tgz:262457.got - 2010.06.27 13:26:56.
