data_PCOD8011003
_publ_section_title
;
Structure prediction by ZEFSAII (Michael W. Deem and Ramdas Pophale) SiO2 
 PCOD8011003
Probable space group: P -1
;
_chemical_formula_sum "Si O2"
_cell_formula_units_Z 16
_cell_length_a 15.041484
_cell_length_b 8.838495
_cell_length_c 22.485929
_cell_angle_alpha 133.929414
_cell_angle_beta 21.149188
_cell_angle_gamma 133.091012
_cell_volume 769.232018
_symmetry_space_group_name_H-M "P -1"
_symmetry_group_IT_number 2
_symmetry_cell_setting 'triclinic'
loop_
_space_group_symop_operation_xyz
x,y,z
-x,-y,-z
loop_
_atom_site_type_symbol
_atom_site_label
_atom_site_fract_x
_atom_site_fract_y
_atom_site_fract_z
Si Si1 0.946364 0.045362 0.418858
Si Si2 0.414824 0.931286 0.869747
Si Si3 0.215259 0.462200 0.054115
Si Si4 0.826039 0.295707 0.741994
Si Si5 0.751918 0.098758 0.902243
Si Si6 0.220152 0.388576 0.425240
Si Si7 0.498826 0.233272 0.717792
Si Si8 0.972152 0.026152 0.093156
O O1 0.654208 0.060008 0.602420
O O2 0.098743 0.252365 0.409135
O O3 0.997778 0.841470 0.368384
O O4 0.038017 0.031345 0.289673
O O5 0.610607 0.146086 0.800430
O O6 0.558952 0.727983 0.716114
O O7 0.196814 0.927894 0.957237
O O8 0.275840 0.928931 0.018510
O O9 0.302829 0.556306 0.090620
O O10 0.156164 0.653507 0.101689
O O11 0.983276 0.280250 0.166220
O O12 0.411130 0.350017 0.863002
O O13 0.009722 0.425251 0.614996
O O14 0.500000 0.000000 0.000000
O O15 0.328896 0.612217 0.391039
O O16 0.293425 0.114559 0.767542
O O17 0.000000 0.000000 0.000000
#
# Coordination Sequence:
#
# PCOD8011003 Si02
#       8
#     2   2   2   2   2   2   2   2
#     4  10  21  38  65  96 130 159 199 270 326 367
#     4  11  21  41  66  94 131 164 211 259 319 383
#     4  10  21  43  62  93 127 165 212 257 316 376
#     4  10  23  38  66  98 125 156 209 268 327 367
#     4  11  18  40  67  99 125 160 205 266 323 375
#     4  11  22  37  65  99 125 160 211 265 323 367
#     4  11  23  43  63  89 130 170 213 249 313 383
#     4  10  26  42  62  87 130 179 213 252 305 381
#
# _framework density 20.799966999999999
#
# number of rings (size 3 to 8) (size 9 to 14) (size 15 to 20)
#    0.000    1.500    5.000    1.875    7.000    2.000 
#    0.000    5.000    0.000    0.000    0.000    0.000 
#    0.000    0.000    0.000    0.000    0.000    0.000 
#
# Total GULP energy -198240.756226 kJ/mol
# GULP energy per Si atom -12390.047264 kJ/mol
# Density = 2.075263 g / cm^3
# Si number density = 20.799967 Si / 1000 Ang^3
#
#
#
# Elastic Constant Matrix: (Units=GPa)
#
#
# Indices 1 2 3 4 5 6 
#
# 1 92.6183 6.7367 50.2103 1.0340 -5.4126 -1.0447
# 2 6.7367 67.3556 28.0941 -5.0161 0.9385 0.1563
# 3 50.2103 28.0941 116.2057 -2.1452 1.3379 2.4013
# 4 1.0340 -5.0161 -2.1452 23.5827 -5.6725 8.7672
# 5 -5.4126 0.9385 1.3379 -5.6725 49.9140 -6.7818
# 6 -1.0447 0.1563 2.4013 8.7672 -6.7818 19.3328
#
#
#
# Elastic Compliance Matrix: (Units=1/GPa)
#
#
# Indices 1 2 3 4 5 6 
#
# 1 0.014489 0.001171 -0.006659 -0.001650 0.001952 0.003034
# 2 0.001171 0.016872 -0.004499 0.003571 0.000191 -0.001066
# 3 -0.006659 -0.004499 0.012668 0.001272 -0.001227 -0.002904
# 4 -0.001650 0.003571 0.001272 0.052602 0.002540 -0.023239
# 5 0.001952 0.000191 -0.001227 0.002540 0.021466 0.006634
# 6 0.003034 -0.001066 -0.002904 -0.023239 0.006634 0.065125
#
#
# Mechanical properties :
#
#
# Convention : Reuss Voigt Hill
#
# Bulk Modulus (GPa) = 41.57266 49.58463 45.57865
# Shear Modulus (GPa) = 23.67280 31.30846 27.49063
#
# Velocity S-wave (km/s) = 3.37726 3.88392 3.63942
# Velocity P-wave (km/s) = 5.93617 6.63353 6.29451
#
# Compressibility (1/GPa) = 0.02405427
#
# Stress axis : x y z
#
# Youngs Moduli (GPa) = 69.02011 59.27055 78.93890
#
# Poissons Ratio (x) = -0.06942 0.52565
# Poissons Ratio (y) = -0.08084 0.35517
# Poissons Ratio (z) = 0.45961 0.26667
#
# Static dielectric constant tensor:
#      x y z
#    x 4.113100 1.256780 -0.291610 
#    y 1.256780 6.804140 -1.323290 
#    z -0.291610 -1.323290 4.561890 
# 
# 
# High freq. dielectric constant tensor:
#      x y z
#    x 1.806090 -0.010660 0.017200 
#    y -0.010660 1.813750 -0.000660 
#    z 0.017200 -0.000660 1.806650 
# 
# From -- ./inp_files/401650.got.cif
#   From: 2010.06.25/outbox.cif.g09.slc.cpg/sg2_201_cif.got.tgz:401650.got - 2010.06.27 13:26:56.
