data_PCOD8011484
_publ_section_title
;
Structure prediction by ZEFSAII (Michael W. Deem and Ramdas Pophale) SiO2 
 PCOD8011484
Probable space group: P -1
;
_chemical_formula_sum "Si O2"
_cell_formula_units_Z 16
_cell_length_a 8.501738
_cell_length_b 13.793464
_cell_length_c 13.057439
_cell_angle_alpha 110.923704
_cell_angle_beta 74.725114
_cell_angle_gamma 145.808345
_cell_volume 802.257927
_symmetry_space_group_name_H-M "P -1"
_symmetry_group_IT_number 2
_symmetry_cell_setting 'triclinic'
loop_
_space_group_symop_operation_xyz
x,y,z
-x,-y,-z
loop_
_atom_site_type_symbol
_atom_site_label
_atom_site_fract_x
_atom_site_fract_y
_atom_site_fract_z
Si Si1 0.921411 0.019801 0.266338
Si Si2 0.662080 0.022797 0.143595
Si Si3 0.232320 0.551696 0.806060
Si Si4 0.440404 0.433183 0.371730
Si Si5 0.760484 0.909306 0.931356
Si Si6 0.053432 0.744897 0.122759
Si Si7 0.388977 0.324325 0.739341
Si Si8 0.049946 0.381602 0.135977
O O1 0.696681 0.957832 0.205028
O O2 0.750552 0.864259 0.323668
O O3 0.132363 0.218632 0.345295
O O4 0.098791 0.020121 0.178544
O O5 0.376822 0.942443 0.164532
O O6 0.930979 0.236417 0.182621
O O7 0.651590 0.963887 0.009384
O O8 0.320274 0.525707 0.685083
O O9 0.500222 0.695072 0.891336
O O10 0.979900 0.375926 0.849379
O O11 0.137161 0.614326 0.808112
O O12 0.500000 0.500000 0.500000
O O13 0.470933 0.552082 0.339280
O O14 0.000000 0.000000 0.000000
O O15 0.845443 0.722589 0.192697
O O16 0.982549 0.680903 0.994812
O O17 0.626022 0.431277 0.825156
#
# Coordination Sequence:
#
# PCOD8011484 Si02
#       8
#     2   2   2   2   2   2   2   2
#     4  10  21  39  62  85 123 158 200 253 300 353
#     4  11  21  35  55  87 131 167 198 235 287 361
#     4  10  22  37  57  87 122 161 204 248 298 356
#     4  10  23  46  66  88 116 151 206 266 313 356
#     4   9  19  31  54  84 122 168 198 232 290 353
#     4  11  23  34  55  91 129 168 199 236 289 362
#     4  11  24  39  62  92 121 160 206 246 302 361
#     4  12  22  35  57  90 131 167 200 236 295 362
#
# _framework density 19.943711
#
# number of rings (size 3 to 8) (size 9 to 14) (size 15 to 20)
#    0.000    1.500    2.500    2.625    8.750    0.500 
#    0.000    0.625    0.000    3.750    0.000    0.000 
#    0.000    0.000    0.000    0.000    0.000    0.000 
#
# Total GULP energy -198221.115594 kJ/mol
# GULP energy per Si atom -12388.819725 kJ/mol
# Density = 1.989832 g / cm^3
# Si number density = 19.943711 Si / 1000 Ang^3
#
#
#
# Elastic Constant Matrix: (Units=GPa)
#
#
# Indices 1 2 3 4 5 6 
#
# 1 76.3590 44.5317 34.9226 -4.2486 9.6870 -0.7755
# 2 44.5317 139.8641 42.0931 3.0560 9.0179 -12.8179
# 3 34.9226 42.0931 84.1604 8.0440 10.0814 -3.8862
# 4 -4.2486 3.0560 8.0440 17.6100 0.9495 4.3925
# 5 9.6870 9.0179 10.0814 0.9495 11.1637 -3.1169
# 6 -0.7755 -12.8179 -3.8862 4.3925 -3.1169 48.2302
#
#
#
# Elastic Compliance Matrix: (Units=1/GPa)
#
#
# Indices 1 2 3 4 5 6 
#
# 1 0.020241 -0.004456 -0.006010 0.009669 -0.010164 -0.002880
# 2 -0.004456 0.009662 -0.002577 -0.002142 -0.000750 0.002435
# 3 -0.006010 -0.002577 0.017441 -0.008804 -0.007441 0.000945
# 4 0.009669 -0.002142 -0.008804 0.065734 -0.006400 -0.007523
# 5 -0.010164 -0.000750 -0.007441 -0.006400 0.108109 0.006607
# 6 -0.002880 0.002435 0.000945 -0.007523 0.006607 0.022523
#
#
# Mechanical properties :
#
#
# Convention : Reuss Voigt Hill
#
# Bulk Modulus (GPa) = 47.03803 60.38648 53.71226
# Shear Modulus (GPa) = 18.05815 27.32319 22.69067
#
# Velocity S-wave (km/s) = 3.01234 3.70539 3.37669
# Velocity P-wave (km/s) = 5.97792 6.97501 6.49562
#
# Compressibility (1/GPa) = 0.02125939
#
# Stress axis : x y z
#
# Youngs Moduli (GPa) = 49.40350 103.49515 57.33518
#
# Poissons Ratio (x) = 0.46115 0.34460
# Poissons Ratio (y) = 0.22013 0.14774
# Poissons Ratio (z) = 0.29693 0.26668
#
# Static dielectric constant tensor:
#      x y z
#    x 3.719850 -0.088770 -0.143220 
#    y -0.088770 4.049120 -0.095860 
#    z -0.143220 -0.095860 3.266300 
# 
# 
# High freq. dielectric constant tensor:
#      x y z
#    x 1.784790 -0.002390 -0.000740 
#    y -0.002390 1.803190 -0.003540 
#    z -0.000740 -0.003540 1.720310 
# 
# From -- ./inp_files/177387.got.cif
#   From: 2010.06.25/outbox.cif.g09.slc.cpg/sg2_89_cif.got.tgz:177387.got - 2010.06.27 13:26:56.
