data_PCOD8011763
_publ_section_title
;
Structure prediction by ZEFSAII (Michael W. Deem and Ramdas Pophale) SiO2 
 PCOD8011763
Probable space group: P -1
;
_chemical_formula_sum "Si O2"
_cell_formula_units_Z 16
_cell_length_a 12.794994
_cell_length_b 9.129830
_cell_length_c 18.560633
_cell_angle_alpha 125.066973
_cell_angle_beta 152.408194
_cell_angle_gamma 55.426203
_cell_volume 812.177612
_symmetry_space_group_name_H-M "P -1"
_symmetry_group_IT_number 2
_symmetry_cell_setting 'triclinic'
loop_
_space_group_symop_operation_xyz
x,y,z
-x,-y,-z
loop_
_atom_site_type_symbol
_atom_site_label
_atom_site_fract_x
_atom_site_fract_y
_atom_site_fract_z
Si Si1 0.536059 0.445704 0.796584
Si Si2 0.501569 0.430947 0.561126
Si Si3 0.854626 0.075331 0.712373
Si Si4 0.086445 0.859395 0.074879
Si Si5 0.645091 0.393294 0.120901
Si Si6 0.170360 0.327146 0.434386
Si Si7 0.635881 0.990067 0.006584
Si Si8 0.672665 0.698110 0.841473
O O1 0.688190 0.255469 0.854989
O O2 0.472539 0.561178 0.861597
O O3 0.306710 0.418052 0.605372
O O4 0.709469 0.546494 0.883994
O O5 0.500000 0.500000 0.500000
O O6 0.696567 0.258786 0.643977
O O7 0.268919 0.365269 0.426535
O O8 0.521252 0.616241 0.667369
O O9 0.840133 0.044140 0.780876
O O10 0.105202 0.107332 0.849071
O O11 0.795614 0.889196 0.589125
O O12 0.900181 0.736009 0.951227
O O13 0.000000 0.000000 0.000000
O O14 0.907767 0.423422 0.297924
O O15 0.640557 0.189124 0.036584
O O16 0.500000 0.500000 0.000000
O O17 0.536489 0.878535 0.849294
O O18 0.500000 0.000000 0.000000
#
# Coordination Sequence:
#
# PCOD8011763 Si02
#       8
#     2   2   2   2   2   2   2   2
#     4  11  22  40  67  86 129 172 204 263 320 379
#     4  11  24  39  65  90 126 171 206 264 313 379
#     4  10  22  40  60  92 126 162 211 254 320 374
#     4  11  24  36  65  98 124 163 209 270 315 372
#     4  11  25  41  63  95 120 162 220 264 312 378
#     4  10  23  43  62  88 129 166 211 256 322 383
#     4  10  21  39  64  85 122 164 201 263 314 371
#     4  10  22  40  60  92 126 157 218 247 321 371
#
# _framework density 19.700125
#
# number of rings (size 3 to 8) (size 9 to 14) (size 15 to 20)
#    0.000    1.500    3.750    1.125    8.750    1.000 
#    0.000    0.000    0.000    2.250    0.000    0.000 
#    0.000    0.000    0.000    0.000    0.000    0.000 
#
# Total GULP energy -198245.625752 kJ/mol
# GULP energy per Si atom -12390.351610 kJ/mol
# Density = 1.965529 g / cm^3
# Si number density = 19.700125 Si / 1000 Ang^3
#
#
#
# Elastic Constant Matrix: (Units=GPa)
#
#
# Indices 1 2 3 4 5 6 
#
# 1 127.2737 49.5858 50.5720 -12.2415 -4.6708 -0.8068
# 2 49.5858 98.9499 65.8107 -7.9192 -7.0087 -1.3480
# 3 50.5720 65.8107 87.6161 -4.4122 -1.1148 4.8279
# 4 -12.2415 -7.9192 -4.4122 39.1486 -2.7412 -5.3482
# 5 -4.6708 -7.0087 -1.1148 -2.7412 35.8298 -1.6211
# 6 -0.8068 -1.3480 4.8279 -5.3482 -1.6211 37.5143
#
#
#
# Elastic Compliance Matrix: (Units=1/GPa)
#
#
# Indices 1 2 3 4 5 6 
#
# 1 0.010789 -0.002018 -0.004628 0.002685 0.001127 0.001187
# 2 -0.002018 0.021735 -0.015151 0.002774 0.003876 0.003250
# 3 -0.004628 -0.015151 0.025544 -0.002458 -0.003160 -0.004418
# 4 0.002685 0.002774 -0.002458 0.027505 0.003125 0.004530
# 5 0.001127 0.003876 -0.003160 0.003125 0.029058 0.002272
# 6 0.001187 0.003250 -0.004418 0.004530 0.002272 0.028111
#
#
# Mechanical properties :
#
#
# Convention : Reuss Voigt Hill
#
# Bulk Modulus (GPa) = 69.08363 71.75296 70.41829
# Shear Modulus (GPa) = 26.15587 32.35663 29.25625
#
# Velocity S-wave (km/s) = 3.64772 4.05712 3.85785
# Velocity P-wave (km/s) = 7.27220 7.64517 7.46101
#
# Compressibility (1/GPa) = 0.01447521
#
# Stress axis : x y z
#
# Youngs Moduli (GPa) = 92.68537 46.00857 39.14780
#
# Poissons Ratio (x) = 0.09285 0.18116
# Poissons Ratio (y) = 0.18705 0.59313
# Poissons Ratio (z) = 0.42890 0.69708
#
# Static dielectric constant tensor:
#      x y z
#    x 3.777640 -0.246100 0.149100 
#    y -0.246100 3.942860 -0.128470 
#    z 0.149100 -0.128470 4.764950 
# 
# 
# High freq. dielectric constant tensor:
#      x y z
#    x 1.775700 -0.010680 0.006860 
#    y -0.010680 1.774120 0.019690 
#    z 0.006860 0.019690 1.756820 
# 
# From -- ./inp_files/271839.got.cif
#   From: 2010.06.25/outbox.cif.g09.slc.cpg/sg2_136_cif.got.tgz:271839.got - 2010.06.27 13:26:56.
