data_PCOD8011263
_publ_section_title
;
Structure prediction by ZEFSAII (Michael W. Deem and Ramdas Pophale) SiO2 
 PCOD8011263
Probable space group: P -1
;
_chemical_formula_sum "Si O2"
_cell_formula_units_Z 10
_cell_length_a 4.987213
_cell_length_b 12.605507
_cell_length_c 9.730397
_cell_angle_alpha 62.266878
_cell_angle_beta 117.061426
_cell_angle_gamma 86.878463
_cell_volume 453.844425
_symmetry_space_group_name_H-M "P -1"
_symmetry_group_IT_number 2
_symmetry_cell_setting 'triclinic'
loop_
_space_group_symop_operation_xyz
x,y,z
-x,-y,-z
loop_
_atom_site_type_symbol
_atom_site_label
_atom_site_fract_x
_atom_site_fract_y
_atom_site_fract_z
Si Si1 0.913363 0.357538 0.902312
Si Si2 0.953416 0.920711 0.909850
Si Si3 0.198789 0.498497 0.681955
Si Si4 0.276822 0.914038 0.713279
Si Si5 0.241268 0.642163 0.838954
O O1 0.171168 0.394392 0.849692
O O2 0.563412 0.462396 0.739268
O O3 0.000564 0.341768 0.096780
O O4 0.908368 0.225054 0.920719
O O5 0.591859 0.953240 0.748984
O O6 0.163796 0.946533 0.822330
O O7 0.000000 0.000000 0.000000
O O8 0.000000 0.500000 0.500000
O O9 0.081740 0.634079 0.656730
O O10 0.366340 0.762590 0.793016
O O11 0.000000 0.000000 0.500000
O O12 0.500000 0.500000 0.000000
#
# Coordination Sequence:
#
# PCOD8011263 Si02
#       5
#     2   2   2   2   2
#     4  10  21  39  58  84 118 159 205 243 298 371
#     4  11  23  41  64  87 120 166 208 250 303 369
#     4  11  22  36  58  91 120 152 198 259 306 347
#     4  11  24  41  62  94 125 159 206 257 307 358
#     4   9  20  39  63  84 118 162 199 239 297 371
#
# _framework density 22.033984
#
# number of rings (size 3 to 8) (size 9 to 14) (size 15 to 20)
#    0.000    1.600    0.000    6.000    0.000    8.000 
#    0.000    0.000    0.000    0.000    0.000    0.000 
#    0.000    0.000    0.000    0.000    0.000    0.000 
#
# Total GULP energy -123894.778814 kJ/mol
# GULP energy per Si atom -12389.477881 kJ/mol
# Density = 2.198383 g / cm^3
# Si number density = 22.033984 Si / 1000 Ang^3
#
#
#
# Elastic Constant Matrix: (Units=GPa)
#
#
# Indices 1 2 3 4 5 6 
#
# 1 63.3226 19.0330 1.7019 0.1582 1.1451 -3.3787
# 2 19.0330 169.3172 58.9414 32.0413 -5.3981 -11.5072
# 3 1.7019 58.9414 79.8139 21.2835 11.8275 -5.7215
# 4 0.1582 32.0413 21.2835 46.9645 0.7643 -1.6266
# 5 1.1451 -5.3981 11.8275 0.7643 31.9852 2.4975
# 6 -3.3787 -11.5072 -5.7215 -1.6266 2.4975 28.2853
#
#
#
# Elastic Compliance Matrix: (Units=1/GPa)
#
#
# Indices 1 2 3 4 5 6 
#
# 1 0.016639 -0.002603 0.001659 0.001048 -0.001789 0.001483
# 2 -0.002603 0.009308 -0.006366 -0.003465 0.003973 0.001638
# 3 0.001659 -0.006366 0.019785 -0.004417 -0.008509 0.002108
# 4 0.001048 -0.003465 -0.004417 0.025622 0.000457 -0.000745
# 5 -0.001789 0.003973 -0.008509 0.000457 0.035401 -0.003418
# 6 0.001483 0.001638 0.002108 -0.000745 -0.003418 0.036883
#
#
# Mechanical properties :
#
#
# Convention : Reuss Voigt Hill
#
# Bulk Modulus (GPa) = 32.14095 52.42293 42.28194
# Shear Modulus (GPa) = 29.65111 36.96548 33.30829
#
# Velocity S-wave (km/s) = 3.67236 4.10037 3.89225
# Velocity P-wave (km/s) = 5.70966 6.80153 6.27937
#
# Compressibility (1/GPa) = 0.03111296
#
# Stress axis : x y z
#
# Youngs Moduli (GPa) = 60.10107 107.42997 50.54373
#
# Poissons Ratio (x) = 0.27959 -0.08386
# Poissons Ratio (y) = 0.15641 0.32176
# Poissons Ratio (z) = -0.09971 0.68390
#
# Static dielectric constant tensor:
#      x y z
#    x 4.087020 -0.095260 -0.160990 
#    y -0.095260 4.539390 0.393520 
#    z -0.160990 0.393520 4.012900 
# 
# 
# High freq. dielectric constant tensor:
#      x y z
#    x 1.877200 -0.004610 -0.008560 
#    y -0.004610 1.878610 0.017660 
#    z -0.008560 0.017660 1.843020 
# 
# From -- ./inp_files/57854.got.cif
#   From: 2010.06.25/outbox.cif.g09.slc.cpg/sg2_29_cif.got.tgz:57854.got - 2010.06.27 13:26:56.
