data_PCOD8011151
_publ_section_title
;
Structure prediction by ZEFSAII (Michael W. Deem and Ramdas Pophale) SiO2 
 PCOD8011151
Probable space group: P -1
;
_chemical_formula_sum "Si O2"
_cell_formula_units_Z 16
_cell_length_a 12.657479
_cell_length_b 11.795588
_cell_length_c 11.798890
_cell_angle_alpha 99.360517
_cell_angle_beta 78.505649
_cell_angle_gamma 155.478781
_cell_volume 715.701408
_symmetry_space_group_name_H-M "P -1"
_symmetry_group_IT_number 2
_symmetry_cell_setting 'triclinic'
loop_
_space_group_symop_operation_xyz
x,y,z
-x,-y,-z
loop_
_atom_site_type_symbol
_atom_site_label
_atom_site_fract_x
_atom_site_fract_y
_atom_site_fract_z
Si Si1 0.654482 0.805997 0.464327
Si Si2 0.601647 0.990556 0.411024
Si Si3 0.020852 0.128685 0.245672
Si Si4 0.603138 0.650688 0.681197
Si Si5 0.677965 0.519840 0.088054
Si Si6 0.801538 0.958144 0.037670
Si Si7 0.156733 0.507788 0.268901
Si Si8 0.946100 0.568304 0.964912
O O1 0.540619 0.822944 0.477517
O O2 0.704749 0.834813 0.592041
O O3 0.470430 0.535580 0.400084
O O4 0.920015 0.057663 0.381701
O O5 0.423087 0.808566 0.310456
O O6 0.500000 0.000000 0.500000
O O7 0.902102 0.290483 0.362131
O O8 0.189353 0.402636 0.218792
O O9 0.187947 0.175187 0.236777
O O10 0.796034 0.904069 0.160911
O O11 0.372307 0.489040 0.772759
O O12 0.930964 0.832232 0.039894
O O13 0.444718 0.326536 0.022035
O O14 0.730872 0.432833 0.059505
O O15 0.811622 0.108777 0.052438
O O16 0.147333 0.561560 0.159566
O O17 0.000000 0.500000 0.000000
#
# Coordination Sequence:
#
# PCOD8011151 Si02
#       8
#     2   2   2   2   2   2   2   2
#     4  10  24  41  65  94 127 181 212 269 329 389
#     4  11  23  44  67  96 124 165 225 268 320 377
#     4  10  21  38  68  88 130 173 215 264 325 390
#     4  11  23  42  63  93 138 171 222 263 330 390
#     4  10  24  41  62  97 128 168 217 270 319 384
#     4   9  23  41  62  95 130 163 223 261 321 383
#     4  10  22  40  65  93 127 166 213 266 325 385
#     4   9  22  41  64  94 128 172 211 264 332 384
#
# _framework density 22.355691
#
# number of rings (size 3 to 8) (size 9 to 14) (size 15 to 20)
#    0.750    1.250    1.250    0.750    8.750    2.500 
#    2.250    0.000    0.000    0.000    0.000    0.000 
#    0.000    0.000    0.000    0.000    0.000    0.000 
#
# Total GULP energy -198230.740930 kJ/mol
# GULP energy per Si atom -12389.421308 kJ/mol
# Density = 2.230481 g / cm^3
# Si number density = 22.355691 Si / 1000 Ang^3
#
#
#
# Elastic Constant Matrix: (Units=GPa)
#
#
# Indices 1 2 3 4 5 6 
#
# 1 138.5290 27.5910 75.5131 -12.0641 14.5534 3.2249
# 2 27.5910 55.7439 6.4419 2.2426 12.8005 16.4049
# 3 75.5131 6.4419 105.2704 -18.3144 19.3425 0.7190
# 4 -12.0641 2.2426 -18.3144 31.7178 3.4805 2.6519
# 5 14.5534 12.8005 19.3425 3.4805 43.4454 -3.0415
# 6 3.2249 16.4049 0.7190 2.6519 -3.0415 29.4201
#
#
#
# Elastic Compliance Matrix: (Units=1/GPa)
#
#
# Indices 1 2 3 4 5 6 
#
# 1 0.013633 -0.006913 -0.009843 -0.000478 0.002091 0.002860
# 2 -0.006913 0.027481 0.005223 0.000775 -0.009269 -0.015722
# 3 -0.009843 0.005223 0.019074 0.008058 -0.007646 -0.003816
# 4 -0.000478 0.000775 0.008058 0.037095 -0.006952 -0.004639
# 5 0.002091 -0.009269 -0.007646 -0.006952 0.029626 0.008816
# 6 0.002860 -0.015722 -0.003816 -0.004639 0.008816 0.043866
#
#
# Mechanical properties :
#
#
# Convention : Reuss Voigt Hill
#
# Bulk Modulus (GPa) = 26.93938 57.62614 42.28276
# Shear Modulus (GPa) = 24.24624 33.58316 28.91470
#
# Velocity S-wave (km/s) = 3.29685 3.88005 3.60028
# Velocity P-wave (km/s) = 5.15449 6.77540 6.01975
#
# Compressibility (1/GPa) = 0.03712038
#
# Stress axis : x y z
#
# Youngs Moduli (GPa) = 73.34892 36.38819 52.42858
#
# Poissons Ratio (x) = 0.25156 0.51608
# Poissons Ratio (y) = 0.50707 -0.27381
# Poissons Ratio (z) = 0.72201 -0.19004
#
# Static dielectric constant tensor:
#      x y z
#    x 3.973470 0.065180 0.218220 
#    y 0.065180 3.743270 -0.148210 
#    z 0.218220 -0.148210 3.188970 
# 
# 
# High freq. dielectric constant tensor:
#      x y z
#    x 1.874140 0.007880 -0.001000 
#    y 0.007880 1.862990 -0.000550 
#    z -0.001000 -0.000550 1.884750 
# 
# From -- ./inp_files/426185.got.cif
#   From: 2010.06.25/outbox.cif.g09.slc.cpg/sg2_214_cif.got.tgz:426185.got - 2010.06.27 13:26:56.
