data_PCOD8011703
_publ_section_title
;
Structure prediction by ZEFSAII (Michael W. Deem and Ramdas Pophale) SiO2 
 PCOD8011703
Probable space group: P -1
;
_chemical_formula_sum "Si O2"
_cell_formula_units_Z 16
_cell_length_a 11.622581
_cell_length_b 9.122397
_cell_length_c 12.724230
_cell_angle_alpha 90.941069
_cell_angle_beta 120.978631
_cell_angle_gamma 128.300114
_cell_volume 786.869631
_symmetry_space_group_name_H-M "P -1"
_symmetry_group_IT_number 2
_symmetry_cell_setting 'triclinic'
loop_
_space_group_symop_operation_xyz
x,y,z
-x,-y,-z
loop_
_atom_site_type_symbol
_atom_site_label
_atom_site_fract_x
_atom_site_fract_y
_atom_site_fract_z
Si Si1 0.042784 0.629577 0.871784
Si Si2 0.281513 0.321302 0.111049
Si Si3 0.091626 0.488111 0.690007
Si Si4 0.927406 0.014772 0.359209
Si Si5 0.626927 0.548201 0.156168
Si Si6 0.239244 0.843261 0.620294
Si Si7 0.681080 0.309411 0.844162
Si Si8 0.977852 0.911352 0.825799
O O1 0.040966 0.566150 0.753904
O O2 0.073698 0.828873 0.888673
O O3 0.832634 0.414556 0.819740
O O4 0.233339 0.719323 0.021746
O O5 0.478902 0.386106 0.179980
O O6 0.326731 0.529274 0.120392
O O7 0.223396 0.238585 0.203042
O O8 0.118913 0.148720 0.944209
O O9 0.219870 0.457698 0.797138
O O10 0.223444 0.669475 0.662754
O O11 0.883381 0.257246 0.547463
O O12 0.880804 0.147114 0.356973
O O13 0.064896 0.101945 0.319771
O O14 0.724133 0.776579 0.237129
O O15 0.000000 0.000000 0.500000
O O16 0.500000 0.500000 0.000000
O O17 0.464012 0.074539 0.708197
#
# Coordination Sequence:
#
# PCOD8011703 Si02
#       8
#     2   2   2   2   2   2   2   2
#     4  10  22  40  63  94 127 160 209 255 319 370
#     4  10  21  39  63  93 128 156 210 261 317 369
#     4  11  25  41  62  90 129 169 207 259 309 380
#     4  12  23  41  63  89 125 166 213 260 315 373
#     4  12  23  38  64  97 122 162 215 264 313 369
#     4  11  24  42  62  90 127 169 212 251 317 378
#     4  10  22  39  65  94 124 163 204 265 308 378
#     4  10  22  40  63  92 127 164 202 267 316 377
#
# _framework density 20.333736999999999
#
# number of rings (size 3 to 8) (size 9 to 14) (size 15 to 20)
#    0.000    1.250    5.000    0.750    1.750    1.000 
#    0.000    0.625    5.500    0.000    0.000    0.000 
#    0.000    0.000    0.000    0.000    0.000    0.000 
#
# Total GULP energy -198270.756249 kJ/mol
# GULP energy per Si atom -12391.922266 kJ/mol
# Density = 2.028746 g / cm^3
# Si number density = 20.333737 Si / 1000 Ang^3
#
#
#
# Elastic Constant Matrix: (Units=GPa)
#
#
# Indices 1 2 3 4 5 6 
#
# 1 90.4860 31.2928 47.2007 3.7843 -3.3247 14.6310
# 2 31.2928 99.5407 56.8626 8.5871 5.7865 4.4574
# 3 47.2007 56.8626 134.0521 2.6725 0.8253 5.8808
# 4 3.7843 8.5871 2.6725 37.2930 4.7914 -7.5360
# 5 -3.3247 5.7865 0.8253 4.7914 28.1877 -2.5763
# 6 14.6310 4.4574 5.8808 -7.5360 -2.5763 32.3918
#
#
#
# Elastic Compliance Matrix: (Units=1/GPa)
#
#
# Indices 1 2 3 4 5 6 
#
# 1 0.015084 -0.002023 -0.004151 -0.002284 0.002143 -0.006142
# 2 -0.002023 0.014020 -0.005130 -0.002495 -0.002622 -0.000873
# 3 -0.004151 -0.005130 0.011042 0.000956 0.000152 0.000811
# 4 -0.002284 -0.002495 0.000956 0.029652 -0.004115 0.007773
# 5 0.002143 -0.002622 0.000152 -0.004115 0.037087 0.001358
# 6 -0.006142 -0.000873 0.000811 0.007773 0.001358 0.035536
#
#
# Mechanical properties :
#
#
# Convention : Reuss Voigt Hill
#
# Bulk Modulus (GPa) = 57.02454 66.08789 61.55621
# Shear Modulus (GPa) = 29.26129 32.15601 30.70865
#
# Velocity S-wave (km/s) = 3.79760 3.98101 3.89039
# Velocity P-wave (km/s) = 6.87998 7.32826 7.10766
#
# Compressibility (1/GPa) = 0.01753631
#
# Stress axis : x y z
#
# Youngs Moduli (GPa) = 66.29602 71.32871 90.56233
#
# Poissons Ratio (x) = 0.14430 0.37594
# Poissons Ratio (y) = 0.13412 0.46462
# Poissons Ratio (z) = 0.27521 0.36594
#
# Static dielectric constant tensor:
#      x y z
#    x 3.985760 0.095400 -0.136370 
#    y 0.095400 3.850590 0.049270 
#    z -0.136370 0.049270 3.511420 
# 
# 
# High freq. dielectric constant tensor:
#      x y z
#    x 1.798520 -0.003200 -0.016690 
#    y -0.003200 1.804550 0.005570 
#    z -0.016690 0.005570 1.781390 
# 
# From -- ./inp_files/357396.got.cif
#   From: 2010.06.25/outbox.cif.g09.slc.cpg/sg2_179_cif.got.tgz:357396.got - 2010.06.27 13:26:56.
