data_PCOD8011585
_publ_section_title
;
Structure prediction by ZEFSAII (Michael W. Deem and Ramdas Pophale) SiO2 
 PCOD8011585
Probable space group: P -1
;
_chemical_formula_sum "Si O2"
_cell_formula_units_Z 16
_cell_length_a 11.933045
_cell_length_b 19.786135
_cell_length_c 11.222914
_cell_angle_alpha 146.752860
_cell_angle_beta 140.831188
_cell_angle_gamma 29.124937
_cell_volume 697.087712
_symmetry_space_group_name_H-M "P -1"
_symmetry_group_IT_number 2
_symmetry_cell_setting 'triclinic'
loop_
_space_group_symop_operation_xyz
x,y,z
-x,-y,-z
loop_
_atom_site_type_symbol
_atom_site_label
_atom_site_fract_x
_atom_site_fract_y
_atom_site_fract_z
Si Si1 0.785439 0.410980 0.374921
Si Si2 0.595733 0.856455 0.124712
Si Si3 0.268610 0.948374 0.397653
Si Si4 0.981717 0.525064 0.880789
Si Si5 0.456026 0.264694 0.458726
Si Si6 0.848580 0.808525 0.841330
Si Si7 0.116219 0.984648 0.693917
Si Si8 0.496516 0.704518 0.014208
O O1 0.875845 0.452140 0.620682
O O2 0.625783 0.558350 0.366455
O O3 0.010267 0.261858 0.268486
O O4 0.631078 0.366148 0.227401
O O5 0.515795 0.774412 0.012994
O O6 0.685719 0.926171 0.387392
O O7 0.382918 0.004384 0.092290
O O8 0.803456 0.720586 0.004470
O O9 0.409304 0.817577 0.427943
O O10 0.338462 0.854059 0.193801
O O11 0.990509 0.054312 0.347014
O O12 0.245596 0.434338 0.919353
O O13 0.000000 0.500000 0.000000
O O14 0.215381 0.295041 0.310307
O O15 0.606352 0.157843 0.308196
O O16 0.971219 0.835976 0.084230
O O17 0.000000 0.000000 0.500000
#
# Coordination Sequence:
#
# PCOD8011585 Si02
#       8
#     2   2   2   2   2   2   2   2
#     4  12  25  43  69 100 136 178 219 271 341 397
#     4  10  23  42  70  92 129 179 218 279 326 389
#     4  10  21  43  64 100 131 171 225 271 331 390
#     4  10  24  45  66  97 133 178 221 275 329 392
#     4  10  23  40  66  94 134 175 217 273 331 395
#     4  11  22  44  65  96 132 171 226 270 329 395
#     4  10  21  39  62  96 130 171 219 270 325 394
#     4  11  24  45  68  99 137 174 223 274 334 397
#
# _framework density 22.952634
#
# number of rings (size 3 to 8) (size 9 to 14) (size 15 to 20)
#    0.000    1.500    1.250    3.375    1.750    6.000 
#    6.750    0.000    0.000    0.000    0.000    0.000 
#    0.000    0.000    0.000    0.000    0.000    0.000 
#
# Total GULP energy -198292.349504 kJ/mol
# GULP energy per Si atom -12393.271844 kJ/mol
# Density = 2.290039 g / cm^3
# Si number density = 22.952634 Si / 1000 Ang^3
#
#
#
# Elastic Constant Matrix: (Units=GPa)
#
#
# Indices 1 2 3 4 5 6 
#
# 1 100.4909 22.6671 37.9653 0.7920 18.9154 -23.0649
# 2 22.6671 62.5682 27.5205 10.6325 2.7122 -14.7619
# 3 37.9653 27.5205 158.7671 -5.2021 5.3640 -10.2996
# 4 0.7920 10.6325 -5.2021 33.1394 -5.5256 3.4422
# 5 18.9154 2.7122 5.3640 -5.5256 49.4359 4.3978
# 6 -23.0649 -14.7619 -10.2996 3.4422 4.3978 34.6714
#
#
#
# Elastic Compliance Matrix: (Units=1/GPa)
#
#
# Indices 1 2 3 4 5 6 
#
# 1 0.014565 -0.001264 -0.002515 -0.002375 -0.006336 0.009444
# 2 -0.001264 0.021306 -0.003053 -0.008503 -0.002054 0.008428
# 3 -0.002515 -0.003053 0.007414 0.002434 0.000695 -0.001100
# 4 -0.002375 -0.008503 0.002434 0.035218 0.005822 -0.008712
# 5 -0.006336 -0.002054 0.000695 0.005822 0.024098 -0.008518
# 6 0.009444 0.008428 -0.001100 -0.008712 -0.008518 0.040331
#
#
# Mechanical properties :
#
#
# Convention : Reuss Voigt Hill
#
# Bulk Modulus (GPa) = 33.76046 55.34798 44.55422
# Shear Modulus (GPa) = 30.03513 39.02757 34.53135
#
# Velocity S-wave (km/s) = 3.62134 4.12801 3.88295
# Velocity P-wave (km/s) = 5.67681 6.84740 6.28940
#
# Compressibility (1/GPa) = 0.02962045
#
# Stress axis : x y z
#
# Youngs Moduli (GPa) = 68.65593 46.93521 134.87928
#
# Poissons Ratio (x) = 0.05934 0.33921
# Poissons Ratio (y) = 0.08680 0.41183
# Poissons Ratio (z) = 0.17266 0.14331
#
# Static dielectric constant tensor:
#      x y z
#    x 4.615180 -0.783040 0.125520 
#    y -0.783040 4.583290 0.153230 
#    z 0.125520 0.153230 4.478390 
# 
# 
# High freq. dielectric constant tensor:
#      x y z
#    x 1.905200 -0.026260 -0.003060 
#    y -0.026260 1.896700 0.000830 
#    z -0.003060 0.000830 1.921920 
# 
# From -- ./inp_files/260723.got.cif
#   From: 2010.06.25/outbox.cif.g09.slc.cpg/sg2_131_cif.got.tgz:260723.got - 2010.06.27 13:26:56.
