data_PCOD8011765
_publ_section_title
;
Structure prediction by ZEFSAII (Michael W. Deem and Ramdas Pophale) SiO2 
 PCOD8011765
Probable space group: P -1
;
_chemical_formula_sum "Si O2"
_cell_formula_units_Z 14
_cell_length_a 17.274924
_cell_length_b 19.964029
_cell_length_c 8.936475
_cell_angle_alpha 139.206297
_cell_angle_beta 129.129920
_cell_angle_gamma 20.762052
_cell_volume 673.376171
_symmetry_space_group_name_H-M "P -1"
_symmetry_group_IT_number 2
_symmetry_cell_setting 'triclinic'
loop_
_space_group_symop_operation_xyz
x,y,z
-x,-y,-z
loop_
_atom_site_type_symbol
_atom_site_label
_atom_site_fract_x
_atom_site_fract_y
_atom_site_fract_z
Si Si1 0.750740 0.381639 0.605676
Si Si2 0.244605 0.849095 0.251993
Si Si3 0.608717 0.061547 0.400551
Si Si4 0.249472 0.203449 0.598503
Si Si5 0.959568 0.383989 0.991328
Si Si6 0.913509 0.472305 0.407094
Si Si7 0.476502 0.538060 0.286968
O O1 0.811215 0.444630 0.809866
O O2 0.566090 0.542065 0.517982
O O3 0.656281 0.425813 0.721237
O O4 0.970474 0.114143 0.364553
O O5 0.375817 0.834409 0.357474
O O6 0.304185 0.752152 0.324981
O O7 0.314192 0.706318 0.964783
O O8 0.341183 0.283140 0.416712
O O9 0.721770 0.884893 0.364931
O O10 0.765531 0.892408 0.160292
O O11 0.103180 0.263678 0.409974
O O12 0.500000 0.000000 0.500000
O O13 0.103974 0.442741 0.846409
O O14 0.904609 0.409519 0.142118
O O15 0.000000 0.500000 0.500000
#
# Coordination Sequence:
#
# PCOD8011765 Si02
#       7
#     2   2   2   2   2   2   2
#     4  10  21  40  61  91 119 153 201 240 297 350
#     4  10  22  39  61  89 121 154 198 242 295 352
#     4  11  22  40  61  90 120 158 200 245 293 355
#     4  11  22  41  61  85 122 159 197 244 297 352
#     4  10  22  40  61  89 123 155 199 250 290 355
#     4  10  21  40  58  83 119 157 198 243 295 346
#     4  10  21  39  64  86 121 157 191 248 297 349
#
# _framework density 20.790755999999998
#
# number of rings (size 3 to 8) (size 9 to 14) (size 15 to 20)
#    0.000    1.714    2.857    2.143    0.000    4.571 
#    7.714    1.429    0.000    0.000    0.000    0.000 
#    0.000    0.000    0.000    0.000    0.000    0.000 
#
# Total GULP energy -173569.154117 kJ/mol
# GULP energy per Si atom -12397.796723 kJ/mol
# Density = 2.074344 g / cm^3
# Si number density = 20.790756 Si / 1000 Ang^3
#
#
#
# Elastic Constant Matrix: (Units=GPa)
#
#
# Indices 1 2 3 4 5 6 
#
# 1 62.1236 21.1451 21.9714 -13.4007 -19.9653 11.6244
# 2 21.1451 91.6136 19.2539 -8.1138 -13.2376 -2.1828
# 3 21.9714 19.2539 77.1148 -7.2204 0.0539 -4.6496
# 4 -13.4007 -8.1138 -7.2204 24.0369 -13.1589 2.4079
# 5 -19.9653 -13.2376 0.0539 -13.1589 12.9767 22.5095
# 6 11.6244 -2.1828 -4.6496 2.4079 22.5095 15.6492
#
#
#
# Elastic Compliance Matrix: (Units=1/GPa)
#
#
# Indices 1 2 3 4 5 6 
#
# 1 0.010386 -0.004201 -0.001642 -0.004886 -0.013838 0.011867
# 2 -0.004201 0.012412 -0.001559 0.001009 0.000078 0.004121
# 3 -0.001642 -0.001559 0.014217 0.005346 0.004278 -0.001749
# 4 -0.004886 0.001009 0.005346 0.030181 -0.015289 0.022705
# 5 -0.013838 0.000078 0.004278 -0.015289 -0.010833 0.029495
# 6 0.011867 0.004121 -0.001749 0.022705 0.029495 0.009223
#
#
# Mechanical properties :
#
#
# Convention : Reuss Voigt Hill
#
# Bulk Modulus (GPa) = 45.02657 39.51030 42.26844
# Shear Modulus (GPa) = 56.95103 21.76465 39.35784
#
# Velocity S-wave (km/s) = 5.23946 3.23900 4.35563
# Velocity P-wave (km/s) = 7.63588 5.74746 6.75795
#
# Compressibility (1/GPa) = 0.02220911
#
# Stress axis : x y z
#
# Youngs Moduli (GPa) = 96.28043 80.56940 70.33833
#
# Poissons Ratio (x) = 0.33851 0.11553
# Poissons Ratio (y) = 0.40452 0.10965
# Poissons Ratio (z) = 0.15814 0.12560
#
# Static dielectric constant tensor:
#      x y z
#    x 4.345860 0.304030 -0.299280 
#    y 0.304030 4.181280 -0.238670 
#    z -0.299280 -0.238670 4.014800 
# 
# 
# High freq. dielectric constant tensor:
#      x y z
#    x 1.811540 -0.009670 -0.012790 
#    y -0.009670 1.816760 0.000050 
#    z -0.012790 0.000050 1.814910 
# 
# From -- ./inp_files/312801.got.cif
#   From: 2010.06.25/outbox.cif.g09.slc.cpg/sg2_157_cif.got.tgz:312801.got - 2010.06.27 13:26:56.
