data_PCOD8011851
_publ_section_title
;
Structure prediction by ZEFSAII (Michael W. Deem and Ramdas Pophale) SiO2 
 PCOD8011851
Probable space group: P -1
;
_chemical_formula_sum "Si O2"
_cell_formula_units_Z 14
_cell_length_a 6.638378
_cell_length_b 20.627917
_cell_length_c 8.759424
_cell_angle_alpha 141.760698
_cell_angle_beta 120.945362
_cell_angle_gamma 76.499872
_cell_volume 603.026400
_symmetry_space_group_name_H-M "P -1"
_symmetry_group_IT_number 2
_symmetry_cell_setting 'triclinic'
loop_
_space_group_symop_operation_xyz
x,y,z
-x,-y,-z
loop_
_atom_site_type_symbol
_atom_site_label
_atom_site_fract_x
_atom_site_fract_y
_atom_site_fract_z
Si Si1 0.710899 0.445736 0.959764
Si Si2 0.734426 0.719496 0.118669
Si Si3 0.950862 0.129717 0.068995
Si Si4 0.922460 0.339973 0.614190
Si Si5 0.778599 0.388799 0.204452
Si Si6 0.362484 0.105814 0.381003
Si Si7 0.098275 0.812356 0.167909
O O1 0.697259 0.368102 0.956895
O O2 0.961269 0.551690 0.245335
O O3 0.500000 0.500000 0.000000
O O4 0.688630 0.364470 0.653200
O O5 0.683043 0.824789 0.366468
O O6 0.898928 0.666832 0.188594
O O7 0.856863 0.766477 0.093036
O O8 0.467817 0.621759 0.810089
O O9 0.862497 0.230944 0.285514
O O10 0.234895 0.142050 0.250315
O O11 0.937721 0.112356 0.847897
O O12 0.761706 0.023594 0.878170
O O13 0.000000 0.500000 0.500000
O O14 0.879139 0.291043 0.110941
O O15 0.659013 0.127863 0.522437
#
# Coordination Sequence:
#
# PCOD8011851 Si02
#       7
#     2   2   2   2   2   2   2
#     4  11  21  39  66  90 125 175 213 266 326 385
#     4  10  21  41  65  93 133 173 216 269 336 382
#     4  10  21  43  69  98 134 170 223 270 325 400
#     4  10  21  39  64  94 126 172 218 261 330 390
#     4  11  23  40  61  93 131 170 221 273 323 392
#     4   9  22  43  68  95 135 171 218 276 325 390
#     4  11  22  42  66  95 136 174 211 280 332 382
#
# _framework density 23.216231000000001
#
# number of rings (size 3 to 8) (size 9 to 14) (size 15 to 20)
#    0.000    1.714    2.857    1.286    0.000    1.143 
#    0.000   22.143    0.000    0.000    0.000    0.000 
#    0.000    0.000    0.000    0.000    0.000    0.000 
#
# Total GULP energy -173447.058569 kJ/mol
# GULP energy per Si atom -12389.075612 kJ/mol
# Density = 2.316339 g / cm^3
# Si number density = 23.216231 Si / 1000 Ang^3
#
#
#
# Elastic Constant Matrix: (Units=GPa)
#
#
# Indices 1 2 3 4 5 6 
#
# 1 143.7520 40.9398 38.8148 -6.6192 15.8484 18.1017
# 2 40.9398 82.0530 14.2837 -1.9659 -3.0670 12.4471
# 3 38.8148 14.2837 91.5941 5.7576 18.5941 -2.1609
# 4 -6.6192 -1.9659 5.7576 29.9175 -5.0426 -0.2853
# 5 15.8484 -3.0670 18.5941 -5.0426 29.0194 6.1892
# 6 18.1017 12.4471 -2.1609 -0.2853 6.1892 26.2936
#
#
#
# Elastic Compliance Matrix: (Units=1/GPa)
#
#
# Indices 1 2 3 4 5 6 
#
# 1 0.009859 -0.003619 -0.003426 0.002192 -0.002162 -0.004823
# 2 -0.003619 0.015812 -0.002665 0.001891 0.007150 -0.006875
# 3 -0.003426 -0.002665 0.015538 -0.005696 -0.010937 0.007410
# 4 0.002192 0.001891 -0.005696 0.036783 0.010077 -0.004846
# 5 -0.002162 0.007150 -0.010937 0.010077 0.048145 -0.014019
# 6 -0.004823 -0.006875 0.007410 -0.004846 -0.014019 0.048463
#
#
# Mechanical properties :
#
#
# Convention : Reuss Voigt Hill
#
# Bulk Modulus (GPa) = 45.89419 56.16396 51.02907
# Shear Modulus (GPa) = 24.84052 31.93684 28.38868
#
# Velocity S-wave (km/s) = 3.27458 3.71297 3.50064
# Velocity P-wave (km/s) = 5.84022 6.52884 6.19411
#
# Compressibility (1/GPa) = 0.02178925
#
# Stress axis : x y z
#
# Youngs Moduli (GPa) = 101.43125 63.24138 64.35715
#
# Poissons Ratio (x) = 0.22889 0.22050
# Poissons Ratio (y) = 0.36711 0.17149
# Poissons Ratio (z) = 0.34753 0.16852
#
# Static dielectric constant tensor:
#      x y z
#    x 4.452590 0.377890 0.191780 
#    y 0.377890 5.496350 0.167570 
#    z 0.191780 0.167570 4.101250 
# 
# 
# High freq. dielectric constant tensor:
#      x y z
#    x 1.909110 0.002840 0.004460 
#    y 0.002840 1.931520 0.015870 
#    z 0.004460 0.015870 1.900100 
# 
# From -- ./inp_files/45833.got.cif
#   From: 2010.06.25/outbox.cif.g09.slc.cpg/sg2_23_cif.got.tgz:45833.got - 2010.06.27 13:26:56.
