data_PCOD8011956
_publ_section_title
;
Structure prediction by ZEFSAII (Michael W. Deem and Ramdas Pophale) SiO2 
 PCOD8011956
Probable space group: P -1
;
_chemical_formula_sum "Si O2"
_cell_formula_units_Z 14
_cell_length_a 14.567820
_cell_length_b 27.095628
_cell_length_c 14.736850
_cell_angle_alpha 158.221324
_cell_angle_beta 19.994566
_cell_angle_gamma 156.751261
_cell_volume 687.409404
_symmetry_space_group_name_H-M "P -1"
_symmetry_group_IT_number 2
_symmetry_cell_setting 'triclinic'
loop_
_space_group_symop_operation_xyz
x,y,z
-x,-y,-z
loop_
_atom_site_type_symbol
_atom_site_label
_atom_site_fract_x
_atom_site_fract_y
_atom_site_fract_z
Si Si1 0.801831 0.641883 0.369680
Si Si2 0.814770 0.353042 0.613403
Si Si3 0.634529 0.140079 0.055456
Si Si4 0.055392 0.395098 0.198591
Si Si5 0.810043 0.772044 0.068696
Si Si6 0.158836 0.462715 0.656886
Si Si7 0.948178 0.896383 0.546034
O O1 0.473276 0.569596 0.515752
O O2 0.807199 0.642405 0.475328
O O3 0.962777 0.803737 0.462121
O O4 0.977731 0.551874 0.013461
O O5 0.816379 0.508302 0.844355
O O6 0.477022 0.258143 0.775653
O O7 0.985905 0.365410 0.568808
O O8 0.950957 0.273039 0.280448
O O9 0.387970 0.164099 0.267545
O O10 0.760684 0.271025 0.230951
O O11 0.881608 0.130018 0.742839
O O12 0.500000 0.000000 0.000000
O O13 0.000000 0.500000 0.500000
O O14 0.259327 0.318780 0.926391
O O15 0.940708 0.938769 0.251105
#
# Coordination Sequence:
#
# PCOD8011956 Si02
#       7
#     2   2   2   2   2   2   2
#     4  10  21  39  65  92 118 158 196 263 311 362
#     4  11  22  39  59  86 119 162 203 247 308 354
#     4  12  25  41  63  90 125 164 205 254 299 370
#     4  10  23  39  60  86 121 159 205 247 303 357
#     4  11  24  38  57  86 123 163 198 251 295 375
#     4  10  21  40  64  92 121 149 210 256 309 362
#     4  12  24  41  63  88 127 159 208 244 319 356
#
# _framework density 20.366319000000001
#
# number of rings (size 3 to 8) (size 9 to 14) (size 15 to 20)
#    0.000    1.143    1.429    5.143    2.000    3.429 
#    0.000    1.429    0.000    0.000    0.000    0.000 
#    0.000    0.000    0.000    0.000    0.000    0.000 
#
# Total GULP energy -173581.914922 kJ/mol
# GULP energy per Si atom -12398.708209 kJ/mol
# Density = 2.031996 g / cm^3
# Si number density = 20.366319 Si / 1000 Ang^3
#
#
#
# Elastic Constant Matrix: (Units=GPa)
#
#
# Indices 1 2 3 4 5 6 
#
# 1 114.6909 53.5255 20.4498 26.4460 -5.5466 17.2686
# 2 53.5255 106.8889 46.9345 21.1704 5.8737 15.2354
# 3 20.4498 46.9345 75.4939 17.9617 -5.7032 12.6550
# 4 26.4460 21.1704 17.9617 29.1767 3.5865 -11.8177
# 5 -5.5466 5.8737 -5.7032 3.5865 31.8377 -2.0859
# 6 17.2686 15.2354 12.6550 -11.8177 -2.0859 44.6521
#
#
#
# Elastic Compliance Matrix: (Units=1/GPa)
#
#
# Indices 1 2 3 4 5 6 
#
# 1 0.017309 -0.006140 0.006563 -0.020843 0.006908 -0.011653
# 2 -0.006140 0.017118 -0.008822 -0.001362 -0.005759 -0.001595
# 3 0.006563 -0.008822 0.024310 -0.020175 0.008655 -0.011353
# 4 -0.020843 -0.001362 -0.020175 0.082659 -0.013982 0.035467
# 5 0.006908 -0.005759 0.008655 -0.013982 0.036463 -0.005157
# 6 -0.011653 -0.001595 -0.011353 0.035467 -0.005157 0.039810
#
#
# Mechanical properties :
#
#
# Convention : Reuss Voigt Hill
#
# Bulk Modulus (GPa) = 23.84460 59.87700 41.86080
# Shear Modulus (GPa) = 20.12497 32.87757 26.50127
#
# Velocity S-wave (km/s) = 3.14689 4.02221 3.61117
# Velocity P-wave (km/s) = 4.99372 7.14386 6.16327
#
# Compressibility (1/GPa) = 0.04193821
#
# Stress axis : x y z
#
# Youngs Moduli (GPa) = 57.77296 58.41944 41.13474
#
# Poissons Ratio (x) = 0.35869 -0.26996
# Poissons Ratio (y) = 0.35472 0.36291
# Poissons Ratio (z) = -0.37915 0.51540
#
# Static dielectric constant tensor:
#      x y z
#    x 4.148800 -0.088550 -0.225480 
#    y -0.088550 3.739470 -0.033030 
#    z -0.225480 -0.033030 3.703080 
# 
# 
# High freq. dielectric constant tensor:
#      x y z
#    x 1.798950 0.004480 -0.010270 
#    y 0.004480 1.798000 -0.003270 
#    z -0.010270 -0.003270 1.797650 
# 
# From -- ./inp_files/45059.got.cif
#   From: 2010.06.25/outbox.cif.g09.slc.cpg/sg2_23_cif.got.tgz:45059.got - 2010.06.27 13:26:56.
