data_PCOD8011590
_publ_section_title
;
Structure prediction by ZEFSAII (Michael W. Deem and Ramdas Pophale) SiO2 
 PCOD8011590
Probable space group: P -1
;
_chemical_formula_sum "Si O2"
_cell_formula_units_Z 16
_cell_length_a 8.288124
_cell_length_b 20.798114
_cell_length_c 12.579294
_cell_angle_alpha 150.308295
_cell_angle_beta 139.488206
_cell_angle_gamma 50.009493
_cell_volume 696.655234
_symmetry_space_group_name_H-M "P -1"
_symmetry_group_IT_number 2
_symmetry_cell_setting 'triclinic'
loop_
_space_group_symop_operation_xyz
x,y,z
-x,-y,-z
loop_
_atom_site_type_symbol
_atom_site_label
_atom_site_fract_x
_atom_site_fract_y
_atom_site_fract_z
Si Si1 0.352105 0.549427 0.093016
Si Si2 0.203130 0.044089 0.253224
Si Si3 0.973186 0.226281 0.743118
Si Si4 0.250024 0.288042 0.766473
Si Si5 0.731123 0.237231 0.056580
Si Si6 0.712072 0.712758 0.658087
Si Si7 0.443242 0.219137 0.099602
Si Si8 0.512945 0.062921 0.247648
O O1 0.184151 0.660851 0.122090
O O2 0.541142 0.607237 0.359337
O O3 0.500000 0.500000 0.000000
O O4 0.197491 0.422100 0.874670
O O5 0.134986 0.164555 0.464890
O O6 0.444540 0.097196 0.384437
O O7 0.261204 0.918904 0.172742
O O8 0.000000 0.000000 0.000000
O O9 0.803735 0.102791 0.440447
O O10 0.089820 0.299200 0.806056
O O11 0.182850 0.175043 0.850616
O O12 0.539073 0.277761 0.928384
O O13 0.638731 0.275818 0.187351
O O14 0.998519 0.305795 0.255081
O O15 0.631126 0.687635 0.705844
O O16 0.654477 0.860220 0.808264
O O17 0.548131 0.090513 0.021287
#
# Coordination Sequence:
#
# PCOD8011590 Si02
#       8
#     2   2   2   2   2   2   2   2
#     4  11  26  47  65  92 126 175 225 267 328 394
#     4  11  22  39  66  99 133 166 216 269 320 389
#     4  10  23  43  64  96 128 172 220 267 330 387
#     4  11  24  44  66  93 135 174 213 271 329 390
#     4  10  24  42  65 105 132 172 217 264 336 386
#     4  11  23  42  68  96 132 175 222 268 325 384
#     4  10  23  40  66 100 137 167 215 276 322 393
#     4  10  21  39  62  99 135 172 213 259 332 390
#
# _framework density 22.966884
#
# number of rings (size 3 to 8) (size 9 to 14) (size 15 to 20)
#    0.000    1.500    1.250    3.000    5.250    4.500 
#    2.250    1.250    0.000    0.000    0.000    0.000 
#    0.000    0.000    0.000    0.000    0.000    0.000 
#
# Total GULP energy -198265.249084 kJ/mol
# GULP energy per Si atom -12391.578068 kJ/mol
# Density = 2.291461 g / cm^3
# Si number density = 22.966884 Si / 1000 Ang^3
#
#
#
# Elastic Constant Matrix: (Units=GPa)
#
#
# Indices 1 2 3 4 5 6 
#
# 1 113.0482 5.3482 37.7819 -2.9188 -14.7001 -9.3105
# 2 5.3482 44.4325 11.0478 3.7959 3.1419 -1.1735
# 3 37.7819 11.0478 74.2318 -2.6961 -11.4900 -3.9132
# 4 -2.9188 3.7959 -2.6961 27.7553 -0.5378 6.4045
# 5 -14.7001 3.1419 -11.4900 -0.5378 35.2138 -4.1528
# 6 -9.3105 -1.1735 -3.9132 6.4045 -4.1528 32.0388
#
#
#
# Elastic Compliance Matrix: (Units=1/GPa)
#
#
# Indices 1 2 3 4 5 6 
#
# 1 0.011225 -0.000286 -0.004971 0.000095 0.003453 0.003073
# 2 -0.000286 0.024174 -0.004121 -0.003950 -0.003608 0.000621
# 3 -0.004971 -0.004121 0.017341 0.001638 0.004061 0.000722
# 4 0.000095 -0.003950 0.001638 0.038488 0.000626 -0.007530
# 5 0.003453 -0.003608 0.004061 0.000626 0.032134 0.005407
# 6 0.003073 0.000621 0.000722 -0.007530 0.005407 0.034422
#
#
# Mechanical properties :
#
#
# Convention : Reuss Voigt Hill
#
# Bulk Modulus (GPa) = 29.42610 37.78535 33.60572
# Shear Modulus (GPa) = 26.61431 30.83721 28.72576
#
# Velocity S-wave (km/s) = 3.40783 3.66824 3.54043
# Velocity P-wave (km/s) = 5.32209 5.86763 5.60150
#
# Compressibility (1/GPa) = 0.03398344
#
# Stress axis : x y z
#
# Youngs Moduli (GPa) = 89.08516 41.36634 57.66765
#
# Poissons Ratio (x) = 0.01184 0.28665
# Poissons Ratio (y) = 0.02551 0.23767
# Poissons Ratio (z) = 0.44282 0.17048
#
# Static dielectric constant tensor:
#      x y z
#    x 4.599270 -0.033860 -0.023010 
#    y -0.033860 4.108810 -0.155170 
#    z -0.023010 -0.155170 3.746750 
# 
# 
# High freq. dielectric constant tensor:
#      x y z
#    x 1.927580 -0.001890 0.001610 
#    y -0.001890 1.901390 -0.004180 
#    z 0.001610 -0.004180 1.882920 
# 
# From -- ./inp_files/185874.got.cif
#   From: 2010.06.25/outbox.cif.g09.slc.cpg/sg2_93_cif.got.tgz:185874.got - 2010.06.27 13:26:56.
