data_PCOD8011502
_publ_section_title
;
Structure prediction by ZEFSAII (Michael W. Deem and Ramdas Pophale) SiO2 
 PCOD8011502
Probable space group: P -1
;
_chemical_formula_sum "Si O2"
_cell_formula_units_Z 12
_cell_length_a 9.657684
_cell_length_b 8.816904
_cell_length_c 9.026673
_cell_angle_alpha 98.227385
_cell_angle_beta 44.554052
_cell_angle_gamma 100.955667
_cell_volume 529.395128
_symmetry_space_group_name_H-M "P -1"
_symmetry_group_IT_number 2
_symmetry_cell_setting 'triclinic'
loop_
_space_group_symop_operation_xyz
x,y,z
-x,-y,-z
loop_
_atom_site_type_symbol
_atom_site_label
_atom_site_fract_x
_atom_site_fract_y
_atom_site_fract_z
Si Si1 0.070505 0.302016 0.124719
Si Si2 0.326933 0.576173 0.061145
Si Si3 0.915105 0.991392 0.349601
Si Si4 0.712694 0.390395 0.250206
Si Si5 0.334363 0.273249 0.669729
Si Si6 0.710649 0.087248 0.804138
O O1 0.126850 0.452210 0.207438
O O2 0.960169 0.165014 0.283224
O O3 0.931248 0.340115 0.098284
O O4 0.280963 0.267352 0.885620
O O5 0.301536 0.732256 0.191237
O O6 0.500000 0.500000 0.000000
O O7 0.363520 0.618818 0.863911
O O8 0.783314 0.996135 0.596679
O O9 0.788137 0.881324 0.318277
O O10 0.123737 0.923796 0.198230
O O11 0.566325 0.274567 0.451260
O O12 0.721736 0.564957 0.331319
O O13 0.500000 0.000000 0.000000
#
# Coordination Sequence:
#
# PCOD8011502 Si02
#       6
#     2   2   2   2   2   2
#     4  11  23  40  64  94 124 161 209 258 310 366
#     4  11  23  42  67  92 125 168 211 256 309 371
#     4  11  24  39  63  96 126 166 207 254 317 373
#     4  10  22  40  65  91 121 165 209 256 309 363
#     4  10  21  39  62  88 124 160 206 258 307 364
#     4  11  24  42  62  90 132 168 206 256 311 374
#
# _framework density 22.667377999999999
#
# number of rings (size 3 to 8) (size 9 to 14) (size 15 to 20)
#    0.000    1.333    0.000    6.500    0.000    8.000 
#    0.000    0.000    0.000    0.000    0.000    0.000 
#    0.000    0.000    0.000    0.000    0.000    0.000 
#
# Total GULP energy -148719.129562 kJ/mol
# GULP energy per Si atom -12393.260797 kJ/mol
# Density = 2.261579 g / cm^3
# Si number density = 22.667378 Si / 1000 Ang^3
#
#
#
# Elastic Constant Matrix: (Units=GPa)
#
#
# Indices 1 2 3 4 5 6 
#
# 1 99.7855 23.9580 18.5144 1.2837 -13.7828 -10.0753
# 2 23.9580 138.6226 25.0364 -14.9073 -17.2093 13.9125
# 3 18.5144 25.0364 85.8984 -17.7765 -19.1015 5.8616
# 4 1.2837 -14.9073 -17.7765 41.9191 1.8043 -5.0758
# 5 -13.7828 -17.2093 -19.1015 1.8043 25.2053 -2.1419
# 6 -10.0753 13.9125 5.8616 -5.0758 -2.1419 35.3610
#
#
#
# Elastic Compliance Matrix: (Units=1/GPa)
#
#
# Indices 1 2 3 4 5 6 
#
# 1 0.011834 -0.001783 -0.001607 -0.001337 0.004507 0.004421
# 2 -0.001783 0.008710 -0.000526 0.002356 0.004127 -0.003259
# 3 -0.001607 -0.000526 0.015714 0.005921 0.010128 -0.001392
# 4 -0.001337 0.002356 0.005921 0.027316 0.003567 0.001847
# 5 0.004507 0.004127 0.010128 0.003567 0.052519 0.001675
# 6 0.004421 -0.003259 -0.001392 0.001847 0.001675 0.031419
#
#
# Mechanical properties :
#
#
# Convention : Reuss Voigt Hill
#
# Bulk Modulus (GPa) = 35.17997 51.03600 43.10798
# Shear Modulus (GPa) = 30.33615 37.61693 33.97654
#
# Velocity S-wave (km/s) = 3.66227 4.07814 3.87579
# Velocity P-wave (km/s) = 5.78245 6.68872 6.25203
#
# Compressibility (1/GPa) = 0.02842527
#
# Stress axis : x y z
#
# Youngs Moduli (GPa) = 84.50352 114.81116 63.63683
#
# Poissons Ratio (x) = 0.20469 0.10226
# Poissons Ratio (y) = 0.15066 0.03350
# Poissons Ratio (z) = 0.13580 0.06045
#
# Static dielectric constant tensor:
#      x y z
#    x 3.948880 0.084000 -0.215110 
#    y 0.084000 4.209280 -0.034500 
#    z -0.215110 -0.034500 4.092300 
# 
# 
# High freq. dielectric constant tensor:
#      x y z
#    x 1.877320 0.009350 -0.013030 
#    y 0.009350 1.911100 -0.006290 
#    z -0.013030 -0.006290 1.893580 
# 
# From -- ./inp_files/159044.got.cif
#   From: 2010.06.25/outbox.cif.g09.slc.cpg/sg2_80_cif.got.tgz:159044.got - 2010.06.27 13:26:56.
