data_PCOD8011669
_publ_section_title
;
Structure prediction by ZEFSAII (Michael W. Deem and Ramdas Pophale) SiO2 
 PCOD8011669
Probable space group: P -1
;
_chemical_formula_sum "Si O2"
_cell_formula_units_Z 16
_cell_length_a 22.108509
_cell_length_b 8.784012
_cell_length_c 16.239253
_cell_angle_alpha 138.211946
_cell_angle_beta 21.812372
_cell_angle_gamma 138.843554
_cell_volume 757.053378
_symmetry_space_group_name_H-M "P -1"
_symmetry_group_IT_number 2
_symmetry_cell_setting 'triclinic'
loop_
_space_group_symop_operation_xyz
x,y,z
-x,-y,-z
loop_
_atom_site_type_symbol
_atom_site_label
_atom_site_fract_x
_atom_site_fract_y
_atom_site_fract_z
Si Si1 0.821074 0.366442 0.606306
Si Si2 0.889021 0.477945 0.816501
Si Si3 0.214609 0.121413 0.087943
Si Si4 0.545215 0.299271 0.807458
Si Si5 0.689403 0.833403 0.202084
Si Si6 0.913046 0.725016 0.377919
Si Si7 0.658224 0.316053 0.490127
Si Si8 0.301977 0.930509 0.204808
O O1 0.794135 0.613963 0.772424
O O2 0.691505 0.227254 0.644896
O O3 0.804196 0.180865 0.626098
O O4 0.007911 0.415208 0.352788
O O5 0.737487 0.256585 0.894723
O O6 0.015656 0.403809 0.689914
O O7 0.798330 0.674155 0.045171
O O8 0.378836 0.086468 0.916913
O O9 0.240773 0.090411 0.946047
O O10 0.058238 0.918276 0.230172
O O11 0.611321 0.389923 0.670170
O O12 0.500000 0.500000 0.000000
O O13 0.493408 0.690642 0.384901
O O14 0.705559 0.064786 0.330359
O O15 0.822790 0.525679 0.344899
O O16 0.770010 0.848608 0.642961
O O17 0.500000 0.000000 0.000000
#
# Coordination Sequence:
#
# PCOD8011669 Si02
#       8
#     2   2   2   2   2   2   2   2
#     4  11  21  40  61  90 129 167 212 251 319 387
#     4  12  23  40  64  94 129 169 207 263 320 377
#     4  10  21  39  63  91 129 167 207 257 320 374
#     4   9  20  36  65  91 121 164 203 256 317 374
#     4  10  22  43  71  84 123 177 215 252 313 389
#     4  12  25  38  60  98 133 157 212 276 314 364
#     4  10  22  44  65  95 122 164 222 259 307 382
#     4  12  26  37  62  95 132 163 209 265 325 373
#
# _framework density 21.134571999999999
#
# number of rings (size 3 to 8) (size 9 to 14) (size 15 to 20)
#    0.000    1.250    3.750    2.250    5.250    1.000 
#    0.000    0.000    0.000    2.250    0.000    0.000 
#    0.000    0.000    0.000    0.000    0.000    0.000 
#
# Total GULP energy -198292.095050 kJ/mol
# GULP energy per Si atom -12393.255941 kJ/mol
# Density = 2.108647 g / cm^3
# Si number density = 21.134572 Si / 1000 Ang^3
#
#
#
# Elastic Constant Matrix: (Units=GPa)
#
#
# Indices 1 2 3 4 5 6 
#
# 1 64.8377 45.5322 35.4571 -1.8519 -16.6598 8.0728
# 2 45.5322 127.5096 62.9221 -5.3733 -15.9949 17.1834
# 3 35.4571 62.9221 108.4971 5.6317 -26.8230 8.8273
# 4 -1.8519 -5.3733 5.6317 36.1187 1.7796 -8.1209
# 5 -16.6598 -15.9949 -26.8230 1.7796 37.8669 -1.3304
# 6 8.0728 17.1834 8.8273 -8.1209 -1.3304 33.3349
#
#
#
# Elastic Compliance Matrix: (Units=1/GPa)
#
#
# Indices 1 2 3 4 5 6 
#
# 1 0.022562 -0.005958 -0.002396 0.000022 0.005658 -0.001527
# 2 -0.005958 0.013247 -0.005906 0.001887 -0.001418 -0.003418
# 3 -0.002396 -0.005906 0.015632 -0.004088 0.007674 -0.001205
# 4 0.000022 0.001887 -0.004088 0.030427 -0.003259 0.007387
# 5 0.005658 -0.001418 0.007674 -0.003259 0.033813 -0.002116
# 6 -0.001527 -0.003418 -0.001205 0.007387 -0.002116 0.034165
#
#
# Mechanical properties :
#
#
# Convention : Reuss Voigt Hill
#
# Bulk Modulus (GPa) = 43.62740 65.40747 54.51744
# Shear Modulus (GPa) = 26.88095 31.92630 29.40363
#
# Velocity S-wave (km/s) = 3.57023 3.89089 3.73400
# Velocity P-wave (km/s) = 6.13864 7.15546 6.66646
#
# Compressibility (1/GPa) = 0.02292137
#
# Stress axis : x y z
#
# Youngs Moduli (GPa) = 44.32274 75.49143 63.97013
#
# Poissons Ratio (x) = 0.44975 0.15330
# Poissons Ratio (y) = 0.26406 0.37778
# Poissons Ratio (z) = 0.10622 0.44582
#
# Static dielectric constant tensor:
#      x y z
#    x 4.013860 0.274680 -0.420550 
#    y 0.274680 3.873870 -0.178180 
#    z -0.420550 -0.178180 4.092880 
# 
# 
# High freq. dielectric constant tensor:
#      x y z
#    x 1.819020 0.017430 -0.027730 
#    y 0.017430 1.819100 -0.015370 
#    z -0.027730 -0.015370 1.831380 
# 
# From -- ./inp_files/216554.got.cif
#   From: 2010.06.25/outbox.cif.g09.slc.cpg/sg2_109_cif.got.tgz:216554.got - 2010.06.27 13:26:56.
