data_PCOD8011767
_publ_section_title
;
Structure prediction by ZEFSAII (Michael W. Deem and Ramdas Pophale) SiO2 
 PCOD8011767
Probable space group: P -1
;
_chemical_formula_sum "Si O2"
_cell_formula_units_Z 16
_cell_length_a 14.929554
_cell_length_b 7.831874
_cell_length_c 6.448953
_cell_angle_alpha 103.601121
_cell_angle_beta 81.572694
_cell_angle_gamma 88.935725
_cell_volume 723.888993
_symmetry_space_group_name_H-M "P -1"
_symmetry_group_IT_number 2
_symmetry_cell_setting 'triclinic'
loop_
_space_group_symop_operation_xyz
x,y,z
-x,-y,-z
loop_
_atom_site_type_symbol
_atom_site_label
_atom_site_fract_x
_atom_site_fract_y
_atom_site_fract_z
Si Si1 0.155912 0.341455 0.839832
Si Si2 0.912973 0.410571 0.426783
Si Si3 0.787832 0.872317 0.619957
Si Si4 0.394156 0.953164 0.185303
Si Si5 0.564908 0.386405 0.709082
Si Si6 0.475744 0.743372 0.760347
Si Si7 0.956200 0.852826 0.849357
Si Si8 0.248172 0.466795 0.221448
O O1 0.120970 0.498022 0.747858
O O2 0.188466 0.172163 0.640641
O O3 0.080987 0.289006 0.017975
O O4 0.238254 0.413620 0.967853
O O5 0.837837 0.412800 0.631934
O O6 0.000000 0.500000 0.500000
O O7 0.952120 0.214435 0.318965
O O8 0.877866 0.917000 0.730952
O O9 0.742024 0.706775 0.690814
O O10 0.711066 0.032651 0.702866
O O11 0.458006 0.797558 0.227953
O O12 0.435789 0.141921 0.266659
O O13 0.399861 0.881436 0.925381
O O14 0.501995 0.564051 0.835012
O O15 0.563711 0.338567 0.454802
O O16 0.666028 0.419507 0.754327
O O17 0.000000 0.000000 0.000000
#
# Coordination Sequence:
#
# PCOD8011767 Si02
#       8
#     2   2   2   2   2   2   2   2
#     4  10  21  39  64  86 121 177 201 259 315 367
#     4  11  20  40  64  88 122 165 218 250 307 372
#     4  10  22  41  58  89 129 164 207 261 317 373
#     4  11  23  43  67  96 127 171 207 257 329 376
#     4  11  23  43  66 100 125 167 214 254 323 383
#     4  10  24  44  68  93 135 159 208 271 310 383
#     4  11  24  38  59  93 127 160 208 266 311 364
#     4  10  22  38  63  91 126 165 213 262 307 374
#
# _framework density 22.102837000000001
#
# number of rings (size 3 to 8) (size 9 to 14) (size 15 to 20)
#    0.000    1.500    5.000    1.125    0.000    7.500 
#    2.250    0.000    0.000    0.000    0.000    0.000 
#    0.000    0.000    0.000    0.000    0.000    0.000 
#
# Total GULP energy -198216.571396 kJ/mol
# GULP energy per Si atom -12388.535712 kJ/mol
# Density = 2.205253 g / cm^3
# Si number density = 22.102837 Si / 1000 Ang^3
#
#
#
# Elastic Constant Matrix: (Units=GPa)
#
#
# Indices 1 2 3 4 5 6 
#
# 1 86.1210 19.3856 42.9892 27.3390 3.9021 -20.5953
# 2 19.3856 86.0210 21.2449 17.2053 10.9286 -12.0904
# 3 42.9892 21.2449 122.1743 25.8524 17.1297 -12.6435
# 4 27.3390 17.2053 25.8524 40.3647 -0.2892 -4.7734
# 5 3.9021 10.9286 17.1297 -0.2892 34.1526 12.7696
# 6 -20.5953 -12.0904 -12.6435 -4.7734 12.7696 34.0581
#
#
#
# Elastic Compliance Matrix: (Units=1/GPa)
#
#
# Indices 1 2 3 4 5 6 
#
# 1 0.018965 0.000678 -0.002749 -0.010079 -0.005301 0.011263
# 2 0.000678 0.014731 0.000452 -0.006144 -0.008048 0.007963
# 3 -0.002749 0.000452 0.011798 -0.005350 -0.007663 0.005001
# 4 -0.010079 -0.006144 -0.005350 0.036694 0.009334 -0.008619
# 5 -0.005301 -0.008048 -0.007663 0.009334 0.045621 -0.024704
# 6 0.011263 0.007963 0.005001 -0.008619 -0.024704 0.048910
#
#
# Mechanical properties :
#
#
# Convention : Reuss Voigt Hill
#
# Bulk Modulus (GPa) = 23.66579 51.28396 37.47488
# Shear Modulus (GPa) = 25.76763 35.76152 30.76457
#
# Velocity S-wave (km/s) = 3.41809 4.02675 3.73484
# Velocity P-wave (km/s) = 5.12915 6.69869 5.96576
#
# Compressibility (1/GPa) = 0.04225508
#
# Stress axis : x y z
#
# Youngs Moduli (GPa) = 52.72987 67.88337 84.76066
#
# Poissons Ratio (x) = -0.04599 0.23304
# Poissons Ratio (y) = -0.03573 -0.03835
# Poissons Ratio (z) = 0.14497 -0.03072
#
# Static dielectric constant tensor:
#      x y z
#    x 3.877610 -0.016270 -0.019250 
#    y -0.016270 3.972670 0.024360 
#    z -0.019250 0.024360 4.005130 
# 
# 
# High freq. dielectric constant tensor:
#      x y z
#    x 1.858840 -0.009600 0.001690 
#    y -0.009600 1.861990 0.015330 
#    z 0.001690 0.015330 1.886560 
# 
# From -- ./inp_files/90999.got.cif
#   From: 2010.06.25/outbox.cif.g09.slc.cpg/sg2_46_cif.got.tgz:90999.got - 2010.06.27 13:26:56.
