data_PCOD8011893
_publ_section_title
;
Structure prediction by ZEFSAII (Michael W. Deem and Ramdas Pophale) SiO2 
 PCOD8011893
Probable space group: P -1
;
_chemical_formula_sum "Si O2"
_cell_formula_units_Z 14
_cell_length_a 14.406727
_cell_length_b 11.205731
_cell_length_c 14.280400
_cell_angle_alpha 49.829885
_cell_angle_beta 20.519161
_cell_angle_gamma 53.836162
_cell_volume 616.638916
_symmetry_space_group_name_H-M "P -1"
_symmetry_group_IT_number 2
_symmetry_cell_setting 'triclinic'
loop_
_space_group_symop_operation_xyz
x,y,z
-x,-y,-z
loop_
_atom_site_type_symbol
_atom_site_label
_atom_site_fract_x
_atom_site_fract_y
_atom_site_fract_z
Si Si1 0.565584 0.353646 0.254985
Si Si2 0.338984 0.535838 0.224853
Si Si3 0.315227 0.063840 0.270375
Si Si4 0.957301 0.755661 0.413875
Si Si5 0.779860 0.866975 0.884993
Si Si6 0.725736 0.527717 0.197015
Si Si7 0.026483 0.159610 0.839519
O O1 0.505607 0.513054 0.173827
O O2 0.673920 0.399836 0.230628
O O3 0.305076 0.240643 0.567273
O O4 0.786973 0.266527 0.034924
O O5 0.107744 0.398117 0.511009
O O6 0.218527 0.709702 0.250270
O O7 0.500000 0.500000 0.000000
O O8 0.276510 0.198859 0.316665
O O9 0.297774 0.143263 0.145361
O O10 0.083368 0.930265 0.575540
O O11 0.597831 0.986769 0.052195
O O12 0.996552 0.883435 0.229106
O O13 0.732860 0.699922 0.060337
O O14 0.500000 0.500000 0.500000
O O15 0.000000 0.500000 0.000000
O O16 0.000000 0.000000 0.000000
#
# Coordination Sequence:
#
# PCOD8011893 Si02
#       7
#     2   2   2   2   2   2   2
#     4  11  25  44  69  95 133 179 220 281 339 382
#     4  10  21  39  64  99 132 161 218 272 333 405
#     4  10  23  41  67  95 130 175 213 285 342 394
#     4  10  23  37  64  99 131 172 217 264 341 407
#     4  10  24  43  63  95 131 168 232 279 336 388
#     4  12  27  46  70  97 132 183 239 281 332 404
#     4  11  24  43  65 100 139 176 216 267 332 419
#
# _framework density 22.703724999999999
#
# number of rings (size 3 to 8) (size 9 to 14) (size 15 to 20)
#    0.000    1.429    1.429    2.143    4.000    6.857 
#    0.000    0.000    0.000    0.000    0.000    0.000 
#    0.000    0.000    0.000    0.000    0.000    0.000 
#
# Total GULP energy -173575.129372 kJ/mol
# GULP energy per Si atom -12398.223527 kJ/mol
# Density = 2.265205 g / cm^3
# Si number density = 22.703725 Si / 1000 Ang^3
#
#
#
# Elastic Constant Matrix: (Units=GPa)
#
#
# Indices 1 2 3 4 5 6 
#
# 1 148.4587 59.3249 50.9485 13.0218 15.9403 -11.9386
# 2 59.3249 128.2266 47.0854 3.8037 10.5738 -22.7868
# 3 50.9485 47.0854 139.5962 19.0291 16.4701 -11.7064
# 4 13.0218 3.8037 19.0291 47.3129 4.0069 11.9430
# 5 15.9403 10.5738 16.4701 4.0069 41.8121 5.0058
# 6 -11.9386 -22.7868 -11.7064 11.9430 5.0058 46.7694
#
#
#
# Elastic Compliance Matrix: (Units=1/GPa)
#
#
# Indices 1 2 3 4 5 6 
#
# 1 0.009009 -0.003171 -0.001690 -0.001622 -0.001925 0.000952
# 2 -0.003171 0.010837 -0.001986 -0.000141 -0.001231 0.004141
# 3 -0.001690 -0.001986 0.009392 -0.003474 -0.002472 0.002103
# 4 -0.001622 -0.000141 -0.003474 0.024905 0.000566 -0.007772
# 5 -0.001925 -0.001231 -0.002472 0.000566 0.026442 -0.004685
# 6 0.000952 0.004141 0.002103 -0.007772 -0.004685 0.026655
#
#
# Mechanical properties :
#
#
# Convention : Reuss Voigt Hill
#
# Bulk Modulus (GPa) = 64.34089 81.22213 72.78151
# Shear Modulus (GPa) = 39.64636 44.44038 42.04337
#
# Velocity S-wave (km/s) = 4.18335 4.42906 4.30795
# Velocity P-wave (km/s) = 7.19269 7.87451 7.54131
#
# Compressibility (1/GPa) = 0.01554222
#
# Stress axis : x y z
#
# Youngs Moduli (GPa) = 111.00380 92.27809 106.47470
#
# Poissons Ratio (x) = 0.29264 0.17996
# Poissons Ratio (y) = 0.35203 0.21147
# Poissons Ratio (z) = 0.18762 0.18327
#
# Static dielectric constant tensor:
#      x y z
#    x 4.264810 -0.180970 0.012910 
#    y -0.180970 4.446360 -0.172630 
#    z 0.012910 -0.172630 4.351320 
# 
# 
# High freq. dielectric constant tensor:
#      x y z
#    x 1.899160 -0.008590 0.003330 
#    y -0.008590 1.891250 0.001290 
#    z 0.003330 0.001290 1.917500 
# 
# From -- ./inp_files/531691.got.cif
#   From: 2010.06.25/outbox.cif.g09.slc.cpg/sg2_266_cif.got.tgz:531691.got - 2010.06.27 13:26:56.
