data_PCOD8011748
_publ_section_title
;
Structure prediction by ZEFSAII (Michael W. Deem and Ramdas Pophale) SiO2 
 PCOD8011748
Probable space group: P -1
;
_chemical_formula_sum "Si O2"
_cell_formula_units_Z 14
_cell_length_a 5.217977
_cell_length_b 12.470942
_cell_length_c 10.002748
_cell_angle_alpha 118.640207
_cell_angle_beta 103.523881
_cell_angle_gamma 85.722614
_cell_volume 554.892367
_symmetry_space_group_name_H-M "P -1"
_symmetry_group_IT_number 2
_symmetry_cell_setting 'triclinic'
loop_
_space_group_symop_operation_xyz
x,y,z
-x,-y,-z
loop_
_atom_site_type_symbol
_atom_site_label
_atom_site_fract_x
_atom_site_fract_y
_atom_site_fract_z
Si Si1 0.466125 0.873035 0.245019
Si Si2 0.214748 0.353345 0.834564
Si Si3 0.265812 0.350411 0.310915
Si Si4 0.916798 0.137175 0.055084
Si Si5 0.186258 0.732385 0.628314
Si Si6 0.318070 0.534559 0.196839
Si Si7 0.785405 0.094560 0.494657
O O1 0.719717 0.787808 0.213118
O O2 0.325587 0.842159 0.349961
O O3 0.555414 0.016637 0.339601
O O4 0.260263 0.843062 0.084556
O O5 0.396943 0.402211 0.762401
O O6 0.907190 0.365435 0.769861
O O7 0.270903 0.429328 0.019970
O O8 0.542538 0.331498 0.407246
O O9 0.306306 0.473519 0.304537
O O10 0.170553 0.233784 0.136193
O O11 0.046517 0.364237 0.409536
O O12 0.752247 0.168891 0.186739
O O13 0.000000 0.000000 0.000000
O O14 0.091080 0.800208 0.523776
O O15 0.000000 0.000000 0.500000
#
# Coordination Sequence:
#
# PCOD8011748 Si02
#       7
#     2   2   2   2   2   2   2
#     4  11  25  41  65  98 133 175 219 273 326 389
#     4  10  23  37  64  96 135 168 214 271 329 386
#     4  10  22  39  66  93 130 168 208 268 328 388
#     4  10  22  37  64  97 129 167 212 270 325 390
#     4  10  23  40  65  93 128 171 214 262 328 389
#     4  10  21  39  63  99 131 168 213 271 333 383
#     4  11  26  43  66  92 135 181 221 264 328 399
#
# _framework density 25.230118999999998
#
# number of rings (size 3 to 8) (size 9 to 14) (size 15 to 20)
#    0.857    0.857    0.000    3.429   12.000    4.571 
#    0.000    0.000    0.000    5.143    0.000    0.000 
#    0.000    0.000    0.000    0.000    0.000    0.000 
#
# Total GULP energy -173556.887567 kJ/mol
# GULP energy per Si atom -12396.920540 kJ/mol
# Density = 2.517269 g / cm^3
# Si number density = 25.230119 Si / 1000 Ang^3
#
#
#
# Elastic Constant Matrix: (Units=GPa)
#
#
# Indices 1 2 3 4 5 6 
#
# 1 133.3853 28.7760 30.1463 -12.7929 -19.9644 -11.4041
# 2 28.7760 112.3136 36.9759 -18.6256 -6.8940 -13.7059
# 3 30.1463 36.9759 76.5451 -16.1825 -21.0770 -0.8513
# 4 -12.7929 -18.6256 -16.1825 45.0498 1.3724 -1.9799
# 5 -19.9644 -6.8940 -21.0770 1.3724 30.6140 -6.3657
# 6 -11.4041 -13.7059 -0.8513 -1.9799 -6.3657 54.1392
#
#
#
# Elastic Compliance Matrix: (Units=1/GPa)
#
#
# Indices 1 2 3 4 5 6 
#
# 1 0.009156 -0.001045 -0.001276 0.001651 0.005266 0.002324
# 2 -0.001045 0.011474 -0.004758 0.002882 -0.000961 0.002602
# 3 -0.001276 -0.004758 0.020078 0.004541 0.011798 0.000396
# 4 0.001651 0.002882 0.004541 0.025473 0.004247 0.002580
# 5 0.005266 -0.000961 0.011798 0.004247 0.045170 0.006518
# 6 0.002324 0.002602 0.000396 0.002580 0.006518 0.020486
#
#
# Mechanical properties :
#
#
# Convention : Reuss Voigt Hill
#
# Bulk Modulus (GPa) = 37.66379 57.11559 47.38969
# Shear Modulus (GPa) = 32.29007 41.05032 36.67020
#
# Velocity S-wave (km/s) = 3.58134 4.03803 3.81652
# Velocity P-wave (km/s) = 5.66232 6.66543 6.18425
#
# Compressibility (1/GPa) = 0.02655070
#
# Stress axis : x y z
#
# Youngs Moduli (GPa) = 109.21510 87.15228 49.80535
#
# Poissons Ratio (x) = 0.09109 0.06356
# Poissons Ratio (y) = 0.11414 0.23696
# Poissons Ratio (z) = 0.13938 0.41464
#
# Static dielectric constant tensor:
#      x y z
#    x 4.695860 -0.002330 -0.029890 
#    y -0.002330 4.452130 0.116770 
#    z -0.029890 0.116770 4.589380 
# 
# 
# High freq. dielectric constant tensor:
#      x y z
#    x 2.007450 0.001880 -0.002990 
#    y 0.001880 2.006660 0.008410 
#    z -0.002990 0.008410 2.011790 
# 
# From -- ./inp_files/134506.got.cif
#   From: 2010.06.25/outbox.cif.g09.slc.cpg/sg2_68_cif.got.tgz:134506.got - 2010.06.27 13:26:56.
