data_PCOD8011095
_publ_section_title
;
Structure prediction by ZEFSAII (Michael W. Deem and Ramdas Pophale) SiO2 
 PCOD8011095
Probable space group: P -1
;
_chemical_formula_sum "Si O2"
_cell_formula_units_Z 16
_cell_length_a 12.262282
_cell_length_b 12.132687
_cell_length_c 7.749627
_cell_angle_alpha 94.173449
_cell_angle_beta 121.299662
_cell_angle_gamma 47.943124
_cell_volume 659.036309
_symmetry_space_group_name_H-M "P -1"
_symmetry_group_IT_number 2
_symmetry_cell_setting 'triclinic'
loop_
_space_group_symop_operation_xyz
x,y,z
-x,-y,-z
loop_
_atom_site_type_symbol
_atom_site_label
_atom_site_fract_x
_atom_site_fract_y
_atom_site_fract_z
Si Si1 0.071198 0.329461 0.028359
Si Si2 0.281340 0.170800 0.821959
Si Si3 0.941744 0.760874 0.665193
Si Si4 0.970654 0.994372 0.756115
Si Si5 0.421832 0.512994 0.698114
Si Si6 0.689752 0.604798 0.182861
Si Si7 0.791694 0.309070 0.803984
Si Si8 0.702897 0.191529 0.246505
O O1 0.192992 0.226536 0.946752
O O2 0.891989 0.362947 0.895081
O O3 0.181642 0.225684 0.286899
O O4 0.000000 0.500000 0.000000
O O5 0.171721 0.155830 0.600922
O O6 0.246673 0.310764 0.716750
O O7 0.500000 0.000000 0.000000
O O8 0.137992 0.568429 0.785309
O O9 0.998564 0.844873 0.805409
O O10 0.920949 0.112483 0.884791
O O11 0.790980 0.104054 0.492255
O O12 0.151802 0.932602 0.801520
O O13 0.367256 0.422275 0.691283
O O14 0.648393 0.381893 0.853642
O O15 0.323970 0.616503 0.457741
O O16 0.344383 0.647044 0.796098
O O17 0.500046 0.740428 0.924585
#
# Coordination Sequence:
#
# PCOD8011095 Si02
#       8
#     2   2   2   2   2   2   2   2
#     4  12  28  48  75 107 151 197 247 305 364 445
#     4  12  30  51  75 109 147 199 250 309 369 440
#     4  12  26  49  77 111 145 199 250 303 372 444
#     4  10  23  42  69 103 149 189 239 304 372 425
#     4  10  21  39  69 103 142 189 244 298 364 438
#     4  12  23  41  74 104 142 192 252 294 359 452
#     4  10  24  43  66 107 150 188 236 309 369 426
#     4  10  21  38  67 101 138 189 236 303 364 431
#
# _framework density 24.277873
#
# number of rings (size 3 to 8) (size 9 to 14) (size 15 to 20)
#    0.000    1.000    2.500    3.000    8.750    2.000 
#    2.250    0.000    0.000    0.000    0.000    0.000 
#    0.000    0.000    0.000    0.000    0.000    0.000 
#
# Total GULP energy -198326.435607 kJ/mol
# GULP energy per Si atom -12395.402225 kJ/mol
# Density = 2.422262 g / cm^3
# Si number density = 24.277873 Si / 1000 Ang^3
#
#
#
# Elastic Constant Matrix: (Units=GPa)
#
#
# Indices 1 2 3 4 5 6 
#
# 1 137.5224 63.8424 23.6222 0.3085 -10.5264 -0.9719
# 2 63.8424 160.3053 55.1669 5.5793 1.0454 0.8878
# 3 23.6222 55.1669 95.8075 -2.7035 9.7951 -15.1071
# 4 0.3085 5.5793 -2.7035 35.6480 0.4260 -1.6293
# 5 -10.5264 1.0454 9.7951 0.4260 33.3208 1.2255
# 6 -0.9719 0.8878 -15.1071 -1.6293 1.2255 48.4209
#
#
#
# Elastic Compliance Matrix: (Units=1/GPa)
#
#
# Indices 1 2 3 4 5 6 
#
# 1 0.009248 -0.003522 -0.000566 0.000390 0.003193 0.000006
# 2 -0.003522 0.009404 -0.004903 -0.001899 0.000125 -0.001840
# 3 -0.000566 -0.004903 0.014691 0.002162 -0.004550 0.004850
# 4 0.000390 -0.001899 0.002162 0.028598 -0.000881 0.001702
# 5 0.003193 0.000125 -0.004550 -0.000881 0.032446 -0.002209
# 6 0.000006 -0.001840 0.004850 0.001702 -0.002209 0.022312
#
#
# Mechanical properties :
#
#
# Convention : Reuss Voigt Hill
#
# Bulk Modulus (GPa) = 65.10656 75.43313 70.26985
# Shear Modulus (GPa) = 35.76491 40.21153 37.98822
#
# Velocity S-wave (km/s) = 3.84233 4.07419 3.95995
# Velocity P-wave (km/s) = 6.82349 7.29864 7.06506
#
# Compressibility (1/GPa) = 0.01535944
#
# Stress axis : x y z
#
# Youngs Moduli (GPa) = 108.13562 106.34260 68.06802
#
# Poissons Ratio (x) = 0.37459 0.03855
# Poissons Ratio (y) = 0.38090 0.33371
# Poissons Ratio (z) = 0.06124 0.52136
#
# Static dielectric constant tensor:
#      x y z
#    x 4.506820 -0.047030 -0.338360 
#    y -0.047030 4.786620 -0.039890 
#    z -0.338360 -0.039890 4.898610 
# 
# 
# High freq. dielectric constant tensor:
#      x y z
#    x 1.961840 0.006080 -0.018870 
#    y 0.006080 1.979550 -0.002910 
#    z -0.018870 -0.002910 1.990710 
# 
# From -- ./inp_files/262551.got.cif
#   From: 2010.06.25/outbox.cif.g09.slc.cpg/sg2_132_cif.got.tgz:262551.got - 2010.06.27 13:26:56.
