data_PCOD8011419
_publ_section_title
;
Structure prediction by ZEFSAII (Michael W. Deem and Ramdas Pophale) SiO2 
 PCOD8011419
Probable space group: P -1
;
_chemical_formula_sum "Si O2"
_cell_formula_units_Z 16
_cell_length_a 11.629973
_cell_length_b 6.291166
_cell_length_c 25.812559
_cell_angle_alpha 50.037760
_cell_angle_beta 28.630935
_cell_angle_gamma 55.528057
_cell_volume 693.605502
_symmetry_space_group_name_H-M "P -1"
_symmetry_group_IT_number 2
_symmetry_cell_setting 'triclinic'
loop_
_space_group_symop_operation_xyz
x,y,z
-x,-y,-z
loop_
_atom_site_type_symbol
_atom_site_label
_atom_site_fract_x
_atom_site_fract_y
_atom_site_fract_z
Si Si1 0.539572 0.943050 0.434647
Si Si2 0.705611 0.287202 0.173920
Si Si3 0.759235 0.294953 0.790334
Si Si4 0.028390 0.817610 0.819440
Si Si5 0.740075 0.106335 0.605745
Si Si6 0.696224 0.380714 0.049746
Si Si7 0.790959 0.390557 0.443689
Si Si8 0.435594 0.826706 0.221832
O O1 0.689159 0.659574 0.412956
O O2 0.292341 0.893022 0.508578
O O3 0.500000 0.000000 0.500000
O O4 0.704844 0.193285 0.309384
O O5 0.913178 0.137693 0.149371
O O6 0.817407 0.319045 0.067377
O O7 0.628766 0.578648 0.184574
O O8 0.461982 0.115174 0.292545
O O9 0.504576 0.381794 0.899916
O O10 0.741786 0.183649 0.755737
O O11 0.920625 0.576030 0.680071
O O12 0.866070 0.060466 0.822188
O O13 0.895145 0.521038 0.911616
O O14 0.699784 0.375148 0.542117
O O15 0.724417 0.185021 0.660331
O O16 0.000000 0.000000 0.500000
O O17 0.587685 0.107127 0.110752
#
# Coordination Sequence:
#
# PCOD8011419 Si02
#       8
#     2   2   2   2   2   2   2   2
#     4  10  23  40  60  91 129 159 198 257 317 376
#     4  10  22  41  62  95 127 162 215 267 319 374
#     4  10  23  42  65  94 127 168 214 266 317 377
#     4  11  22  41  67  94 126 169 211 263 329 372
#     4  11  22  37  65  90 123 172 214 255 313 377
#     4  10  22  43  66  90 127 169 216 265 316 379
#     4  10  21  39  61  89 122 161 207 251 313 375
#     4  10  23  41  60  94 129 166 220 259 313 379
#
# _framework density 23.067867
#
# number of rings (size 3 to 8) (size 9 to 14) (size 15 to 20)
#    0.000    1.750    1.250    3.000    1.750    7.000 
#    0.000   11.250    0.000    0.000    0.000    0.000 
#    0.000    0.000    0.000    0.000    0.000    0.000 
#
# Total GULP energy -198280.846548 kJ/mol
# GULP energy per Si atom -12392.552909 kJ/mol
# Density = 2.301536 g / cm^3
# Si number density = 23.067867 Si / 1000 Ang^3
#
#
#
# Elastic Constant Matrix: (Units=GPa)
#
#
# Indices 1 2 3 4 5 6 
#
# 1 164.1834 42.8992 55.7395 -12.0089 -3.4575 -4.3671
# 2 42.8992 39.6997 23.7909 -9.9555 1.7325 9.1901
# 3 55.7395 23.7909 173.1140 -30.5817 6.0264 17.4611
# 4 -12.0089 -9.9555 -30.5817 21.8082 -4.8078 0.1592
# 5 -3.4575 1.7325 6.0264 -4.8078 27.9945 -7.6254
# 6 -4.3671 9.1901 17.4611 0.1592 -7.6254 30.7181
#
#
#
# Elastic Compliance Matrix: (Units=1/GPa)
#
#
# Indices 1 2 3 4 5 6 
#
# 1 0.010470 -0.012314 -0.003279 -0.003551 0.004369 0.008140
# 2 -0.012314 0.045656 0.002753 0.016462 -0.007249 -0.018860
# 3 -0.003279 0.002753 0.009433 0.012179 -0.002514 -0.007339
# 4 -0.003551 0.016462 0.012179 0.069620 0.004735 -0.011538
# 5 0.004369 -0.007249 -0.002514 0.004735 0.042049 0.014632
# 6 0.008140 -0.018860 -0.007339 -0.011538 0.014632 0.047218
#
#
# Mechanical properties :
#
#
# Convention : Reuss Voigt Hill
#
# Bulk Modulus (GPa) = 25.07575 69.09514 47.08544
# Shear Modulus (GPa) = 18.98097 33.07531 26.02814
#
# Velocity S-wave (km/s) = 2.87162 3.79070 3.36270
# Velocity P-wave (km/s) = 4.67856 7.01265 5.96096
#
# Compressibility (1/GPa) = 0.03987917
#
# Stress axis : x y z
#
# Youngs Moduli (GPa) = 95.50688 21.90271 106.00774
#
# Poissons Ratio (x) = 0.26972 0.34763
# Poissons Ratio (y) = 1.17611 -0.29186
# Poissons Ratio (z) = 0.31319 -0.06030
#
# Static dielectric constant tensor:
#      x y z
#    x 4.595130 -0.283780 0.107570 
#    y -0.283780 3.992680 -0.497420 
#    z 0.107570 -0.497420 4.703750 
# 
# 
# High freq. dielectric constant tensor:
#      x y z
#    x 1.926510 -0.012830 -0.003470 
#    y -0.012830 1.873690 -0.020480 
#    z -0.003470 -0.020480 1.932640 
# 
# From -- ./inp_files/364034.got.cif
#   From: 2010.06.25/outbox.cif.g09.slc.cpg/sg2_183_cif.got.tgz:364034.got - 2010.06.27 13:26:56.
