data_PCOD8011916
_publ_section_title
;
Structure prediction by ZEFSAII (Michael W. Deem and Ramdas Pophale) SiO2 
 PCOD8011916
Probable space group: P -1
;
_chemical_formula_sum "Si O2"
_cell_formula_units_Z 16
_cell_length_a 12.288829
_cell_length_b 11.082648
_cell_length_c 8.819425
_cell_angle_alpha 48.808443
_cell_angle_beta 54.476332
_cell_angle_gamma 52.944375
_cell_volume 686.573269
_symmetry_space_group_name_H-M "P -1"
_symmetry_group_IT_number 2
_symmetry_cell_setting 'triclinic'
loop_
_space_group_symop_operation_xyz
x,y,z
-x,-y,-z
loop_
_atom_site_type_symbol
_atom_site_label
_atom_site_fract_x
_atom_site_fract_y
_atom_site_fract_z
Si Si1 0.881211 0.772900 0.715364
Si Si2 0.479537 0.688358 0.806817
Si Si3 0.561546 0.992971 0.283653
Si Si4 0.678847 0.115970 0.500693
Si Si5 0.225827 0.476746 0.419207
Si Si6 0.188283 0.767509 0.428098
Si Si7 0.842361 0.885002 0.974339
Si Si8 0.051434 0.581842 0.197146
O O1 0.800274 0.816592 0.906304
O O2 0.042421 0.762645 0.620643
O O3 0.874659 0.593495 0.811808
O O4 0.807443 0.930771 0.527658
O O5 0.455952 0.804824 0.882022
O O6 0.348378 0.769887 0.725910
O O7 0.626050 0.680894 0.605292
O O8 0.500000 0.500000 0.000000
O O9 0.500000 0.000000 0.500000
O O10 0.460492 0.933038 0.304661
O O11 0.725906 0.883418 0.197390
O O12 0.708266 0.223862 0.526170
O O13 0.263451 0.593004 0.418316
O O14 0.100192 0.410687 0.619176
O O15 0.165964 0.591152 0.221256
O O16 0.153379 0.926872 0.209519
O O17 0.003544 0.756833 0.993566
#
# Coordination Sequence:
#
# PCOD8011916 Si02
#       8
#     2   2   2   2   2   2   2   2
#     4  10  22  40  61  91 125 159 200 248 309 369
#     4  11  23  39  61  90 120 158 208 251 296 362
#     4  10  22  39  62  88 121 160 203 249 300 362
#     4  10  21  40  61  83 125 166 193 247 310 354
#     4  10  22  40  58  87 121 158 203 249 307 361
#     4  10  23  40  61  90 125 160 200 249 308 369
#     4  11  21  38  63  93 119 156 206 250 301 367
#     4  10  21  39  65  88 118 157 201 256 302 353
#
# _framework density 23.304141000000001
#
# number of rings (size 3 to 8) (size 9 to 14) (size 15 to 20)
#    0.000    1.750    0.000    4.875    0.000   10.000 
#    0.000    6.250    0.000    0.000    0.000    0.000 
#    0.000    0.000    0.000    0.000    0.000    0.000 
#
# Total GULP energy -198255.687729 kJ/mol
# GULP energy per Si atom -12390.980483 kJ/mol
# Density = 2.325110 g / cm^3
# Si number density = 23.304141 Si / 1000 Ang^3
#
#
#
# Elastic Constant Matrix: (Units=GPa)
#
#
# Indices 1 2 3 4 5 6 
#
# 1 131.7381 49.5390 10.5568 -7.9383 17.3208 17.1322
# 2 49.5390 137.6911 16.9062 6.4142 13.0452 -0.6770
# 3 10.5568 16.9062 62.8629 2.2037 16.3547 1.0114
# 4 -7.9383 6.4142 2.2037 35.6235 -8.9507 3.1090
# 5 17.3208 13.0452 16.3547 -8.9507 25.3697 -10.1911
# 6 17.1322 -0.6770 1.0114 3.1090 -10.1911 29.5080
#
#
#
# Elastic Compliance Matrix: (Units=1/GPa)
#
#
# Indices 1 2 3 4 5 6 
#
# 1 0.011802 -0.003509 0.002150 0.001159 -0.011720 -0.011176
# 2 -0.003509 0.008982 -0.001359 -0.002880 -0.001534 0.002064
# 3 0.002150 -0.001359 0.021278 -0.004767 -0.019475 -0.008233
# 4 0.001159 -0.002880 -0.004767 0.033037 0.016010 0.001473
# 5 -0.011720 -0.001534 -0.019475 0.016010 0.079791 0.033307
# 6 -0.011176 0.002064 -0.008233 0.001473 0.033307 0.052056
#
#
# Mechanical properties :
#
#
# Convention : Reuss Voigt Hill
#
# Bulk Modulus (GPa) = 27.30318 54.03290 40.66804
# Shear Modulus (GPa) = 22.26268 35.11957 28.69113
#
# Velocity S-wave (km/s) = 3.09416 3.88623 3.51260
# Velocity P-wave (km/s) = 4.95041 6.58585 5.82580
#
# Compressibility (1/GPa) = 0.03662578
#
# Stress axis : x y z
#
# Youngs Moduli (GPa) = 84.72942 111.33874 46.99586
#
# Poissons Ratio (x) = 0.39067 -0.10104
# Poissons Ratio (y) = 0.29730 0.06389
# Poissons Ratio (z) = -0.18217 0.15136
#
# Static dielectric constant tensor:
#      x y z
#    x 4.298160 0.093890 -0.046100 
#    y 0.093890 4.616910 -0.185540 
#    z -0.046100 -0.185540 4.130650 
# 
# 
# High freq. dielectric constant tensor:
#      x y z
#    x 1.911330 0.000870 -0.001430 
#    y 0.000870 1.940110 -0.012740 
#    z -0.001430 -0.012740 1.907570 
# 
# From -- ./inp_files/261467.got.cif
#   From: 2010.06.25/outbox.cif.g09.slc.cpg/sg2_131_cif.got.tgz:261467.got - 2010.06.27 13:26:56.
