data_PCOD8011941
_publ_section_title
;
Structure prediction by ZEFSAII (Michael W. Deem and Ramdas Pophale) SiO2 
 PCOD8011941
Probable space group: P -1
;
_chemical_formula_sum "Si O2"
_cell_formula_units_Z 16
_cell_length_a 11.096573
_cell_length_b 12.516087
_cell_length_c 6.457295
_cell_angle_alpha 107.826049
_cell_angle_beta 122.087437
_cell_angle_gamma 88.392039
_cell_volume 713.209089
_symmetry_space_group_name_H-M "P -1"
_symmetry_group_IT_number 2
_symmetry_cell_setting 'triclinic'
loop_
_space_group_symop_operation_xyz
x,y,z
-x,-y,-z
loop_
_atom_site_type_symbol
_atom_site_label
_atom_site_fract_x
_atom_site_fract_y
_atom_site_fract_z
Si Si1 0.821976 0.360867 0.772002
Si Si2 0.504920 0.374034 0.508523
Si Si3 0.058158 0.439393 0.706613
Si Si4 0.113175 0.213411 0.480598
Si Si5 0.525261 0.231314 0.819885
Si Si6 0.699220 0.922313 0.697963
Si Si7 0.180819 0.825337 0.022605
Si Si8 0.319441 0.192224 0.990358
O O1 0.653376 0.336015 0.537436
O O2 0.920585 0.375277 0.668685
O O3 0.841334 0.474279 0.000015
O O4 0.871448 0.256065 0.879504
O O5 0.500000 0.500000 0.500000
O O6 0.504863 0.346834 0.741924
O O7 0.357336 0.300280 0.242003
O O8 0.147500 0.350122 0.627435
O O9 0.000000 0.500000 0.500000
O O10 0.203457 0.169224 0.351166
O O11 0.944788 0.172273 0.258477
O O12 0.164498 0.169419 0.722094
O O13 0.460944 0.117912 0.561865
O O14 0.692568 0.226545 0.006972
O O15 0.448482 0.218836 0.961345
O O16 0.686638 0.918644 0.935070
O O17 0.767871 0.048412 0.765500
#
# Coordination Sequence:
#
# PCOD8011941 Si02
#       8
#     2   2   2   2   2   2   2   2
#     4  10  24  40  65  96 127 167 210 265 319 371
#     4  10  21  39  65  91 124 165 212 259 314 381
#     4  11  23  42  62  93 130 164 205 263 323 377
#     4  11  24  40  64  93 127 170 212 261 314 380
#     4   9  22  42  63  93 124 166 212 261 320 372
#     4  10  23  44  63  91 131 171 211 262 317 373
#     4  11  22  43  65  94 130 164 217 266 310 378
#     4  10  23  41  61  91 130 166 211 260 320 372
#
# _framework density 22.433814000000002
#
# number of rings (size 3 to 8) (size 9 to 14) (size 15 to 20)
#    0.000    1.750    1.250    1.500    3.500    4.500 
#    4.500    0.000    0.000    0.000    0.000    0.000 
#    0.000    0.000    0.000    0.000    0.000    0.000 
#
# Total GULP energy -198233.455145 kJ/mol
# GULP energy per Si atom -12389.590947 kJ/mol
# Density = 2.238275 g / cm^3
# Si number density = 22.433814 Si / 1000 Ang^3
#
#
#
# Elastic Constant Matrix: (Units=GPa)
#
#
# Indices 1 2 3 4 5 6 
#
# 1 87.6145 36.0097 35.6100 -13.7811 -2.7312 7.2541
# 2 36.0097 100.7088 16.5384 6.2451 -19.1849 18.2200
# 3 35.6100 16.5384 89.4495 -13.7432 11.7421 6.9433
# 4 -13.7811 6.2451 -13.7432 27.0501 3.6050 -1.7397
# 5 -2.7312 -19.1849 11.7421 3.6050 45.7568 -0.3049
# 6 7.2541 18.2200 6.9433 -1.7397 -0.3049 31.0744
#
#
#
# Elastic Compliance Matrix: (Units=1/GPa)
#
#
# Indices 1 2 3 4 5 6 
#
# 1 0.016855 -0.006256 -0.004244 0.008102 -0.001159 0.001124
# 2 -0.006256 0.016030 -0.002342 -0.009605 0.007653 -0.007878
# 3 -0.004244 -0.002342 0.015140 0.006781 -0.005659 -0.000695
# 4 0.008102 -0.009605 0.006781 0.048277 -0.009055 0.004839
# 5 -0.001159 0.007653 -0.005659 -0.009055 0.027139 -0.003193
# 6 0.001124 -0.007878 -0.000695 0.004839 -0.003193 0.036932
#
#
# Mechanical properties :
#
#
# Convention : Reuss Voigt Hill
#
# Bulk Modulus (GPa) = 44.75915 50.45433 47.60674
# Shear Modulus (GPa) = 25.83928 33.41724 29.62826
#
# Velocity S-wave (km/s) = 3.39750 3.86371 3.63808
# Velocity P-wave (km/s) = 5.94858 6.51487 6.23815
#
# Compressibility (1/GPa) = 0.02234180
#
# Stress axis : x y z
#
# Youngs Moduli (GPa) = 59.32953 62.38329 66.04804
#
# Poissons Ratio (x) = 0.39030 0.28028
# Poissons Ratio (y) = 0.37119 0.15468
# Poissons Ratio (z) = 0.25177 0.14609
#
# Static dielectric constant tensor:
#      x y z
#    x 4.237000 -0.244760 0.215650 
#    y -0.244760 4.626470 -0.100840 
#    z 0.215650 -0.100840 4.249720 
# 
# 
# High freq. dielectric constant tensor:
#      x y z
#    x 1.875010 0.012120 0.012680 
#    y 0.012120 1.877970 -0.008720 
#    z 0.012680 -0.008720 1.891920 
# 
# From -- ./inp_files/71510.got.cif
#   From: 2010.06.25/outbox.cif.g09.slc.cpg/sg2_36_cif.got.tgz:71510.got - 2010.06.27 13:26:56.
