data_PCOD8011177
_publ_section_title
;
Structure prediction by ZEFSAII (Michael W. Deem and Ramdas Pophale) SiO2 
 PCOD8011177
Probable space group: P -1
;
_chemical_formula_sum "Si O2"
_cell_formula_units_Z 16
_cell_length_a 19.694699
_cell_length_b 11.085476
_cell_length_c 11.816468
_cell_angle_alpha 114.193199
_cell_angle_beta 21.637713
_cell_angle_gamma 126.405083
_cell_volume 672.501505
_symmetry_space_group_name_H-M "P -1"
_symmetry_group_IT_number 2
_symmetry_cell_setting 'triclinic'
loop_
_space_group_symop_operation_xyz
x,y,z
-x,-y,-z
loop_
_atom_site_type_symbol
_atom_site_label
_atom_site_fract_x
_atom_site_fract_y
_atom_site_fract_z
Si Si1 0.274709 0.650158 0.651281
Si Si2 0.690962 0.476486 0.664651
Si Si3 0.566604 0.660716 0.393259
Si Si4 0.025581 0.970783 0.714380
Si Si5 0.448312 0.201311 0.308450
Si Si6 0.797385 0.128721 0.776372
Si Si7 0.812808 0.499517 0.722202
Si Si8 0.839572 0.153774 0.977747
O O1 0.404500 0.670490 0.339339
O O2 0.365166 0.593109 0.586413
O O3 0.330321 0.827328 0.673897
O O4 0.000000 0.500000 0.000000
O O5 0.753194 0.417213 0.656824
O O6 0.917518 0.655255 0.333763
O O7 0.500000 0.500000 0.000000
O O8 0.500000 0.500000 0.500000
O O9 0.569226 0.783004 0.524999
O O10 0.829091 0.770363 0.973399
O O11 0.195392 0.002971 0.359002
O O12 0.877766 0.034145 0.936736
O O13 0.187555 0.066493 0.609796
O O14 0.606544 0.141677 0.021175
O O15 0.571601 0.385396 0.126337
O O16 0.736231 0.076616 0.982807
O O17 0.069521 0.304680 0.408309
O O18 0.000000 0.500000 0.500000
#
# Coordination Sequence:
#
# PCOD8011177 Si02
#       8
#     2   2   2   2   2   2   2   2
#     4  10  24  46  69 103 136 184 229 284 353 408
#     4  10  21  38  69 104 133 170 228 283 337 407
#     4  12  28  47  72  98 139 185 237 290 349 421
#     4  12  26  43  68 105 137 188 232 287 351 409
#     4  11  23  46  67 102 145 181 230 288 345 415
#     4  10  21  44  68 101 141 185 231 281 346 408
#     4   9  20  38  70  99 133 178 224 280 336 402
#     4  10  22  44  67  94 146 178 227 282 344 418
#
# _framework density 23.791768000000001
#
# number of rings (size 3 to 8) (size 9 to 14) (size 15 to 20)
#    0.000    1.500    1.250    2.625   10.500    0.500 
#    2.250    0.000    0.000    0.000    0.000    0.000 
#    0.000    0.000    0.000    0.000    0.000    0.000 
#
# Total GULP energy -198337.997825 kJ/mol
# GULP energy per Si atom -12396.124864 kJ/mol
# Density = 2.373762 g / cm^3
# Si number density = 23.791768 Si / 1000 Ang^3
#
#
#
# Elastic Constant Matrix: (Units=GPa)
#
#
# Indices 1 2 3 4 5 6 
#
# 1 204.9401 53.2391 55.6519 17.3521 -3.5600 16.8233
# 2 53.2391 59.6500 24.4280 25.3217 1.2074 4.4105
# 3 55.6519 24.4280 81.3593 21.1479 4.1954 5.3106
# 4 17.3521 25.3217 21.1479 50.7909 12.1321 7.5636
# 5 -3.5600 1.2074 4.1954 12.1321 41.7369 9.6293
# 6 16.8233 4.4105 5.3106 7.5636 9.6293 38.1298
#
#
#
# Elastic Compliance Matrix: (Units=1/GPa)
#
#
# Indices 1 2 3 4 5 6 
#
# 1 0.007505 -0.005828 -0.003795 0.002045 0.001249 -0.002830
# 2 -0.005828 0.027375 -0.001369 -0.011763 0.001936 0.001440
# 3 -0.003795 -0.001369 0.016550 -0.004845 -0.000692 0.000664
# 4 0.002045 -0.011763 -0.004845 0.028913 -0.006733 -0.002902
# 5 0.001249 0.001936 -0.000692 -0.006733 0.027487 -0.006284
# 6 -0.002830 0.001440 0.000664 -0.002902 -0.006284 0.029378
#
#
# Mechanical properties :
#
#
# Convention : Reuss Voigt Hill
#
# Bulk Modulus (GPa) = 33.96066 68.06527 51.01296
# Shear Modulus (GPa) = 29.58477 40.30688 34.94583
#
# Velocity S-wave (km/s) = 3.53014 4.12047 3.83668
# Velocity P-wave (km/s) = 5.56066 7.16300 6.41208
#
# Compressibility (1/GPa) = 0.02944584
#
# Stress axis : x y z
#
# Youngs Moduli (GPa) = 133.24688 36.52981 60.42394
#
# Poissons Ratio (x) = 0.21291 0.22930
# Poissons Ratio (y) = 0.77661 0.08270
# Poissons Ratio (z) = 0.50565 0.05000
#
# Static dielectric constant tensor:
#      x y z
#    x 3.661840 -0.640150 -0.425100 
#    y -0.640150 3.221260 -0.634980 
#    z -0.425100 -0.634980 3.798090 
# 
# 
# High freq. dielectric constant tensor:
#      x y z
#    x 1.958270 0.015600 0.005340 
#    y 0.015600 1.927210 0.004560 
#    z 0.005340 0.004560 1.944910 
# 
# From -- ./inp_files/298962.got.cif
#   From: 2010.06.25/outbox.cif.g09.slc.cpg/sg2_150_cif.got.tgz:298962.got - 2010.06.27 13:26:56.
