data_PCOD8011939
_publ_section_title
;
Structure prediction by ZEFSAII (Michael W. Deem and Ramdas Pophale) SiO2 
 PCOD8011939
Probable space group: P -1
;
_chemical_formula_sum "Si O2"
_cell_formula_units_Z 14
_cell_length_a 7.012678
_cell_length_b 23.260292
_cell_length_c 14.163282
_cell_angle_alpha 21.428792
_cell_angle_beta 72.977270
_cell_angle_gamma 86.500268
_cell_volume 642.395602
_symmetry_space_group_name_H-M "P -1"
_symmetry_group_IT_number 2
_symmetry_cell_setting 'triclinic'
loop_
_space_group_symop_operation_xyz
x,y,z
-x,-y,-z
loop_
_atom_site_type_symbol
_atom_site_label
_atom_site_fract_x
_atom_site_fract_y
_atom_site_fract_z
Si Si1 0.752905 0.968206 0.280784
Si Si2 0.561501 0.899298 0.863038
Si Si3 0.722569 0.688548 0.042778
Si Si4 0.782807 0.638379 0.478006
Si Si5 0.501792 0.613733 0.737087
Si Si6 0.094521 0.513882 0.571520
Si Si7 0.916370 0.768073 0.690798
O O1 0.578046 0.824520 0.438226
O O2 0.778175 0.844036 0.542755
O O3 0.610538 0.041675 0.243469
O O4 0.019852 0.149813 0.923178
O O5 0.674396 0.839269 0.859132
O O6 0.377229 0.713528 0.241875
O O7 0.790530 0.089401 0.596747
O O8 0.455769 0.482356 0.372247
O O9 0.883454 0.659168 0.138887
O O10 0.894381 0.787677 0.775081
O O11 0.707814 0.659485 0.560359
O O12 0.904692 0.522209 0.652176
O O13 0.500000 0.500000 0.000000
O O14 0.221159 0.462993 0.963125
O O15 0.000000 0.500000 0.500000
#
# Coordination Sequence:
#
# PCOD8011939 Si02
#       7
#     2   2   2   2   2   2   2
#     4  10  22  39  63  89 120 161 209 243 303 351
#     4  11  23  37  60  89 122 163 196 247 298 363
#     4  11  23  38  60  91 127 158 200 245 307 361
#     4  10  21  39  65  91 120 161 199 254 299 357
#     4   9  20  41  63  88 121 161 204 253 300 348
#     4  11  23  39  62  91 120 162 200 246 302 361
#     4  10  23  39  59  88 125 164 198 253 298 358
#
# _framework density 21.793424000000002
#
# number of rings (size 3 to 8) (size 9 to 14) (size 15 to 20)
#    0.000    1.714    1.429    2.143    4.000    4.571 
#    0.000    4.286    0.000   15.429    0.000    0.000 
#    0.000    0.000    0.000    0.000    0.000    0.000 
#
# Total GULP energy -173464.859324 kJ/mol
# GULP energy per Si atom -12390.347095 kJ/mol
# Density = 2.174382 g / cm^3
# Si number density = 21.793424 Si / 1000 Ang^3
#
#
#
# Elastic Constant Matrix: (Units=GPa)
#
#
# Indices 1 2 3 4 5 6 
#
# 1 102.9275 44.8827 51.0778 4.3437 -1.8645 0.5207
# 2 44.8827 86.4143 34.3117 1.7528 5.4170 2.9787
# 3 51.0778 34.3117 105.9833 -8.8059 -11.7253 2.0870
# 4 4.3437 1.7528 -8.8059 24.6089 4.7280 2.1307
# 5 -1.8645 5.4170 -11.7253 4.7280 31.4011 -2.3361
# 6 0.5207 2.9787 2.0870 2.1307 -2.3361 20.3881
#
#
#
# Elastic Compliance Matrix: (Units=1/GPa)
#
#
# Indices 1 2 3 4 5 6 
#
# 1 0.015284 -0.005575 -0.005926 -0.004648 0.000473 0.001571
# 2 -0.005575 0.015991 -0.002937 -0.000167 -0.004338 -0.002373
# 3 -0.005926 -0.002937 0.014227 0.005550 0.004562 -0.000933
# 4 -0.004648 -0.000167 0.005550 0.044984 -0.005375 -0.005742
# 5 0.000473 -0.004338 0.004562 -0.005375 0.035491 0.004783
# 6 0.001571 -0.002373 -0.000933 -0.005742 0.004783 0.050598
#
#
# Mechanical properties :
#
#
# Convention : Reuss Voigt Hill
#
# Bulk Modulus (GPa) = 60.14916 61.76330 60.95623
# Shear Modulus (GPa) = 23.69738 26.28313 24.99025
#
# Velocity S-wave (km/s) = 3.30110 3.47654 3.38995
# Velocity P-wave (km/s) = 6.49533 6.67210 6.58431
#
# Compressibility (1/GPa) = 0.01662534
#
# Stress axis : x y z
#
# Youngs Moduli (GPa) = 65.42712 62.53452 70.29079
#
# Poissons Ratio (x) = 0.34863 0.41654
# Poissons Ratio (y) = 0.36476 0.20647
# Poissons Ratio (z) = 0.38772 0.18368
#
# Static dielectric constant tensor:
#      x y z
#    x 3.955770 -0.014140 -0.376290 
#    y -0.014140 4.037100 -0.383520 
#    z -0.376290 -0.383520 4.407870 
# 
# 
# High freq. dielectric constant tensor:
#      x y z
#    x 1.845590 -0.005110 -0.020850 
#    y -0.005110 1.842630 -0.010570 
#    z -0.020850 -0.010570 1.873960 
# 
# From -- ./inp_files/52751.got.cif
#   From: 2010.06.25/outbox.cif.g09.slc.cpg/sg2_27_cif.got.tgz:52751.got - 2010.06.27 13:26:56.
