data_PCOD8011228
_publ_section_title
;
Structure prediction by ZEFSAII (Michael W. Deem and Ramdas Pophale) SiO2 
 PCOD8011228
Probable space group: P -1
;
_chemical_formula_sum "Si O2"
_cell_formula_units_Z 12
_cell_length_a 7.548625
_cell_length_b 11.829510
_cell_length_c 9.880946
_cell_angle_alpha 119.066010
_cell_angle_beta 65.515735
_cell_angle_gamma 75.033801
_cell_volume 572.860132
_symmetry_space_group_name_H-M "P -1"
_symmetry_group_IT_number 2
_symmetry_cell_setting 'triclinic'
loop_
_space_group_symop_operation_xyz
x,y,z
-x,-y,-z
loop_
_atom_site_type_symbol
_atom_site_label
_atom_site_fract_x
_atom_site_fract_y
_atom_site_fract_z
Si Si1 0.723186 0.581087 0.504997
Si Si2 0.429534 0.588775 0.377701
Si Si3 0.065346 0.914608 0.572722
Si Si4 0.050088 0.586942 0.922974
Si Si5 0.638656 0.896759 0.768738
Si Si6 0.686397 0.952242 0.293816
O O1 0.478760 0.656084 0.537731
O O2 0.724146 0.477177 0.567338
O O3 0.944252 0.474986 0.267777
O O4 0.746703 0.711529 0.644476
O O5 0.287256 0.728593 0.392919
O O6 0.687806 0.450201 0.151725
O O7 0.839822 0.925346 0.703309
O O8 0.126648 0.007452 0.707778
O O9 0.000000 0.000000 0.500000
O O10 0.000000 0.500000 0.000000
O O11 0.836349 0.768414 0.106109
O O12 0.463240 0.951206 0.731188
O O13 0.500000 0.000000 0.000000
O O14 0.500000 0.000000 0.500000
#
# Coordination Sequence:
#
# PCOD8011228 Si02
#       6
#     2   2   2   2   2   2
#     4   9  21  45  66  97 144 182 231 287 354 414
#     4   9  21  43  70  96 140 186 235 280 361 411
#     4  12  26  44  74 101 142 192 233 292 362 418
#     4  10  21  38  75  99 130 199 225 286 366 399
#     4  12  28  42  72 110 139 187 240 290 362 424
#     4  12  24  48  71 100 153 177 236 301 344 429
#
# _framework density 20.947520999999998
#
# number of rings (size 3 to 8) (size 9 to 14) (size 15 to 20)
#    1.000    0.333    3.333    2.000    4.667    1.333 
#    0.000    0.833    0.000    0.000    0.000    0.000 
#    0.000    0.000    0.000    0.000    0.000    0.000 
#
# Total GULP energy -148714.209430 kJ/mol
# GULP energy per Si atom -12392.850786 kJ/mol
# Density = 2.089984 g / cm^3
# Si number density = 20.947521 Si / 1000 Ang^3
#
#
#
# Elastic Constant Matrix: (Units=GPa)
#
#
# Indices 1 2 3 4 5 6 
#
# 1 111.1263 31.1774 34.6515 -4.3228 7.2811 20.0611
# 2 31.1774 109.4768 44.2828 0.5833 -0.7561 16.5206
# 3 34.6515 44.2828 145.2184 8.1701 -2.9725 23.3923
# 4 -4.3228 0.5833 8.1701 37.8408 4.3596 -1.8993
# 5 7.2811 -0.7561 -2.9725 4.3596 31.0110 -0.1441
# 6 20.0611 16.5206 23.3923 -1.8993 -0.1441 48.0052
#
#
#
# Elastic Compliance Matrix: (Units=1/GPa)
#
#
# Indices 1 2 3 4 5 6 
#
# 1 0.010892 -0.002006 -0.001672 0.001837 -0.003039 -0.002983
# 2 -0.002006 0.011015 -0.002601 0.000023 0.000479 -0.001683
# 3 -0.001672 -0.002601 0.008678 -0.002331 0.001476 -0.002723
# 4 0.001837 0.000023 -0.002331 0.027736 -0.004547 0.001444
# 5 -0.003039 0.000479 0.001476 -0.004547 0.033754 0.000307
# 6 -0.002983 -0.001683 -0.002723 0.001444 0.000307 0.024042
#
#
# Mechanical properties :
#
#
# Convention : Reuss Voigt Hill
#
# Bulk Modulus (GPa) = 55.47214 65.11608 60.29411
# Shear Modulus (GPa) = 37.12423 40.41872 38.77148
#
# Velocity S-wave (km/s) = 4.21438 4.39740 4.30686
# Velocity P-wave (km/s) = 7.08663 7.54557 7.31970
#
# Compressibility (1/GPa) = 0.01802707
#
# Stress axis : x y z
#
# Youngs Moduli (GPa) = 91.80972 90.78786 115.23120
#
# Poissons Ratio (x) = 0.18213 0.19270
# Poissons Ratio (y) = 0.18418 0.29966
# Poissons Ratio (z) = 0.15354 0.23610
#
# Static dielectric constant tensor:
#      x y z
#    x 3.812600 0.017680 -0.071090 
#    y 0.017680 4.221350 0.070450 
#    z -0.071090 0.070450 3.618650 
# 
# 
# High freq. dielectric constant tensor:
#      x y z
#    x 1.819870 0.005140 -0.011690 
#    y 0.005140 1.837410 -0.000750 
#    z -0.011690 -0.000750 1.804680 
# 
# From -- ./inp_files/189002.got.cif
#   From: 2010.06.25/outbox.cif.g09.slc.cpg/sg2_95_cif.got.tgz:189002.got - 2010.06.27 13:26:56.
