data_PCOD8011404
_publ_section_title
;
Structure prediction by ZEFSAII (Michael W. Deem and Ramdas Pophale) SiO2 
 PCOD8011404
Probable space group: P -1
;
_chemical_formula_sum "Si O2"
_cell_formula_units_Z 12
_cell_length_a 16.855956
_cell_length_b 8.924866
_cell_length_c 9.326177
_cell_angle_alpha 87.254503
_cell_angle_beta 60.388982
_cell_angle_gamma 137.934252
_cell_volume 573.858265
_symmetry_space_group_name_H-M "P -1"
_symmetry_group_IT_number 2
_symmetry_cell_setting 'triclinic'
loop_
_space_group_symop_operation_xyz
x,y,z
-x,-y,-z
loop_
_atom_site_type_symbol
_atom_site_label
_atom_site_fract_x
_atom_site_fract_y
_atom_site_fract_z
Si Si1 0.058786 0.751441 0.898976
Si Si2 0.520226 0.161171 0.085003
Si Si3 0.178462 0.167881 0.271943
Si Si4 0.685270 0.692547 0.153534
Si Si5 0.286371 0.079800 0.398708
Si Si6 0.338609 0.672850 0.744399
O O1 0.239664 0.068009 0.820440
O O2 0.117557 0.841070 0.676998
O O3 0.000000 0.500000 0.000000
O O4 0.875299 0.590208 0.100355
O O5 0.323780 0.959140 0.325433
O O6 0.634009 0.257046 0.114202
O O7 0.635049 0.458172 0.887106
O O8 0.500000 0.000000 0.000000
O O9 0.208822 0.056370 0.331982
O O10 0.155749 0.103122 0.124425
O O11 0.000000 0.000000 0.500000
O O12 0.481598 0.440287 0.271630
O O13 0.647141 0.485301 0.289474
O O14 0.500000 0.000000 0.500000
#
# Coordination Sequence:
#
# PCOD8011404 Si02
#       6
#     2   2   2   2   2   2
#     4  12  24  38  59  90 121 157 203 251 298 355
#     4  10  22  39  60  87 117 155 198 248 301 353
#     4  10  21  39  61  88 119 157 199 243 298 359
#     4  10  22  40  60  86 120 161 199 246 300 353
#     4  10  21  41  62  86 119 158 201 248 299 358
#     4  10  22  41  60  87 122 160 201 244 297 360
#
# _framework density 20.911086000000001
#
# number of rings (size 3 to 8) (size 9 to 14) (size 15 to 20)
#    0.000    2.000    0.000    7.000    0.000    6.667 
#    0.000    2.500    0.000    0.000    0.000    0.000 
#    0.000    0.000    0.000    0.000    0.000    0.000 
#
# Total GULP energy -148762.302439 kJ/mol
# GULP energy per Si atom -12396.858537 kJ/mol
# Density = 2.086349 g / cm^3
# Si number density = 20.911086 Si / 1000 Ang^3
#
#
#
# Elastic Constant Matrix: (Units=GPa)
#
#
# Indices 1 2 3 4 5 6 
#
# 1 106.8110 35.2403 26.7018 -1.9384 10.3635 0.7313
# 2 35.2403 121.5300 14.2014 5.5076 13.1686 -24.3280
# 3 26.7018 14.2014 114.5894 8.8309 8.9446 -4.7342
# 4 -1.9384 5.5076 8.8309 23.5432 0.2981 -1.5078
# 5 10.3635 13.1686 8.9446 0.2981 44.3699 -4.5754
# 6 0.7313 -24.3280 -4.7342 -1.5078 -4.5754 25.7343
#
#
#
# Elastic Compliance Matrix: (Units=1/GPa)
#
#
# Indices 1 2 3 4 5 6 
#
# 1 0.011493 -0.003916 -0.002458 0.002509 -0.001518 -0.004604
# 2 -0.003916 0.011792 0.000205 -0.002442 -0.001487 0.010889
# 3 -0.002458 0.000205 0.009730 -0.003781 -0.001257 0.001609
# 4 0.002509 -0.002442 -0.003781 0.044641 0.000564 -0.000359
# 5 -0.001518 -0.001487 -0.001257 0.000564 0.023860 0.002681
# 6 -0.004604 0.010889 0.001609 -0.000359 0.002681 0.050035
#
#
# Mechanical properties :
#
#
# Convention : Reuss Voigt Hill
#
# Bulk Modulus (GPa) = 48.36231 55.02413 51.69322
# Shear Modulus (GPa) = 29.27728 36.51525 32.89627
#
# Velocity S-wave (km/s) = 3.74583 4.18331 3.97060
# Velocity P-wave (km/s) = 6.47195 7.05010 6.76720
#
# Compressibility (1/GPa) = 0.02067726
#
# Stress axis : x y z
#
# Youngs Moduli (GPa) = 87.00752 84.80636 102.77399
#
# Poissons Ratio (x) = 0.33213 0.25260
# Poissons Ratio (y) = 0.34075 -0.02110
# Poissons Ratio (z) = 0.21385 -0.01741
#
# Static dielectric constant tensor:
#      x y z
#    x 3.956570 0.047030 -0.062700 
#    y 0.047030 3.181800 0.006570 
#    z -0.062700 0.006570 4.095910 
# 
# 
# High freq. dielectric constant tensor:
#      x y z
#    x 1.825090 -0.000740 0.003440 
#    y -0.000740 1.796490 0.009680 
#    z 0.003440 0.009680 1.831140 
# 
# From -- ./inp_files/146758.got.cif
#   From: 2010.06.25/outbox.cif.g09.slc.cpg/sg2_74_cif.got.tgz:146758.got - 2010.06.27 13:26:56.
