data_PCOD8011786
_publ_section_title
;
Structure prediction by ZEFSAII (Michael W. Deem and Ramdas Pophale) SiO2 
 PCOD8011786
Probable space group: P -1
;
_chemical_formula_sum "Si O2"
_cell_formula_units_Z 16
_cell_length_a 9.571415
_cell_length_b 15.811951
_cell_length_c 8.633021
_cell_angle_alpha 98.166521
_cell_angle_beta 57.568988
_cell_angle_gamma 60.877640
_cell_volume 806.698361
_symmetry_space_group_name_H-M "P -1"
_symmetry_group_IT_number 2
_symmetry_cell_setting 'triclinic'
loop_
_space_group_symop_operation_xyz
x,y,z
-x,-y,-z
loop_
_atom_site_type_symbol
_atom_site_label
_atom_site_fract_x
_atom_site_fract_y
_atom_site_fract_z
Si Si1 0.422128 0.439114 0.094109
Si Si2 0.955965 0.422405 0.438984
Si Si3 0.185490 0.172429 0.333215
Si Si4 0.151004 0.417044 0.027863
Si Si5 0.630063 0.948010 0.122506
Si Si6 0.877976 0.985139 0.195281
Si Si7 0.435321 0.839681 0.331701
Si Si8 0.837681 0.180361 0.734659
O O1 0.305024 0.502248 0.345387
O O2 0.241102 0.464764 0.087228
O O3 0.500000 0.500000 0.000000
O O4 0.627120 0.304212 0.962030
O O5 0.000000 0.500000 0.500000
O O6 0.112455 0.296467 0.393620
O O7 0.003961 0.405320 0.222150
O O8 0.002431 0.185557 0.545508
O O9 0.430439 0.085075 0.243836
O O10 0.207541 0.120063 0.139040
O O11 0.357513 0.294729 0.799752
O O12 0.000000 0.500000 0.000000
O O13 0.515540 0.899539 0.224073
O O14 0.784269 0.930527 0.162850
O O15 0.671177 0.109381 0.423047
O O16 0.045089 0.903100 0.211294
O O17 0.000000 0.000000 0.000000
O O18 0.248524 0.864836 0.336570
#
# Coordination Sequence:
#
# PCOD8011786 Si02
#       8
#     2   2   2   2   2   2   2   2
#     4  10  21  39  64  90 120 162 214 250 310 376
#     4  10  21  40  64  94 122 164 211 258 305 377
#     4  11  22  41  68  91 128 166 216 255 322 373
#     4  10  23  40  62  91 125 163 204 262 314 365
#     4  11  25  40  67  98 123 167 210 265 312 379
#     4  12  27  41  61  95 132 162 210 261 317 368
#     4  11  23  43  65  91 129 166 218 249 319 385
#     4  11  24  41  65  91 127 173 203 264 316 374
#
# _framework density 19.833932000000001
#
# number of rings (size 3 to 8) (size 9 to 14) (size 15 to 20)
#    0.000    1.250    3.750    1.500    3.500    4.000 
#    0.000    0.625    0.000    0.000    0.000    0.000 
#    0.000    0.000    0.000    0.000    0.000    0.000 
#
# Total GULP energy -198392.779642 kJ/mol
# GULP energy per Si atom -12399.548728 kJ/mol
# Density = 1.978879 g / cm^3
# Si number density = 19.833932 Si / 1000 Ang^3
#
#
#
# Elastic Constant Matrix: (Units=GPa)
#
#
# Indices 1 2 3 4 5 6 
#
# 1 82.8438 52.7360 40.2630 2.6410 0.2447 -3.5522
# 2 52.7360 134.2067 57.0185 -8.6359 -3.8938 -2.4204
# 3 40.2630 57.0185 141.5963 -10.0769 -10.8808 -10.1795
# 4 2.6410 -8.6359 -10.0769 38.6864 4.7396 -3.2224
# 5 0.2447 -3.8938 -10.8808 4.7396 22.8515 -3.6535
# 6 -3.5522 -2.4204 -10.1795 -3.2224 -3.6535 32.1550
#
#
#
# Elastic Compliance Matrix: (Units=1/GPa)
#
#
# Indices 1 2 3 4 5 6 
#
# 1 0.017293 -0.005792 -0.002947 -0.003001 -0.001950 0.000019
# 2 -0.005792 0.010983 -0.002643 0.002103 0.000172 -0.000420
# 3 -0.002947 -0.002643 0.009659 0.001867 0.004306 0.003210
# 4 -0.003001 0.002103 0.001867 0.027732 -0.004035 0.002739
# 5 -0.001950 0.000172 0.004306 -0.004035 0.047685 0.006175
# 6 0.000019 -0.000420 0.003210 0.002739 0.006175 0.033062
#
#
# Mechanical properties :
#
#
# Convention : Reuss Voigt Hill
#
# Bulk Modulus (GPa) = 65.91718 73.18686 69.55202
# Shear Modulus (GPa) = 28.69700 32.64722 30.67211
#
# Velocity S-wave (km/s) = 3.80789 4.06153 3.93675
# Velocity P-wave (km/s) = 7.25535 7.67949 7.47043
#
# Compressibility (1/GPa) = 0.01517055
#
# Stress axis : x y z
#
# Youngs Moduli (GPa) = 57.82839 91.05092 103.53091
#
# Poissons Ratio (x) = 0.52741 0.30506
# Poissons Ratio (y) = 0.33497 0.27362
# Poissons Ratio (z) = 0.17040 0.24063
#
# Static dielectric constant tensor:
#      x y z
#    x 3.500380 0.097630 -0.092890 
#    y 0.097630 3.606270 -0.041770 
#    z -0.092890 -0.041770 4.240490 
# 
# 
# High freq. dielectric constant tensor:
#      x y z
#    x 1.756840 0.012520 -0.005830 
#    y 0.012520 1.776590 0.002940 
#    z -0.005830 0.002940 1.804190 
# 
# From -- ./inp_files/189545.got.cif
#   From: 2010.06.25/outbox.cif.g09.slc.cpg/sg2_95_cif.got.tgz:189545.got - 2010.06.27 13:26:56.
