data_PCOD8011565
_publ_section_title
;
Structure prediction by ZEFSAII (Michael W. Deem and Ramdas Pophale) SiO2 
 PCOD8011565
Probable space group: P -1
;
_chemical_formula_sum "Si O2"
_cell_formula_units_Z 14
_cell_length_a 15.230994
_cell_length_b 9.248735
_cell_length_c 9.238219
_cell_angle_alpha 46.509591
_cell_angle_beta 123.229621
_cell_angle_gamma 132.870434
_cell_volume 684.114747
_symmetry_space_group_name_H-M "P -1"
_symmetry_group_IT_number 2
_symmetry_cell_setting 'triclinic'
loop_
_space_group_symop_operation_xyz
x,y,z
-x,-y,-z
loop_
_atom_site_type_symbol
_atom_site_label
_atom_site_fract_x
_atom_site_fract_y
_atom_site_fract_z
Si Si1 0.723677 0.473676 0.660403
Si Si2 0.947660 0.133962 0.769231
Si Si3 0.552916 0.528190 0.261602
Si Si4 0.664581 0.360980 0.242441
Si Si5 0.721494 0.681185 0.810229
Si Si6 0.462773 0.032876 0.101593
Si Si7 0.117549 0.508000 0.453928
O O1 0.643068 0.567210 0.447723
O O2 0.758744 0.577427 0.780199
O O3 0.846592 0.545077 0.633642
O O4 0.648356 0.198255 0.780575
O O5 0.943716 0.331964 0.726659
O O6 0.029212 0.260116 0.615789
O O7 0.813904 0.952222 0.716971
O O8 0.000000 0.000000 0.000000
O O9 0.577889 0.416234 0.222936
O O10 0.414693 0.366273 0.300232
O O11 0.577982 0.777667 0.066521
O O12 0.578798 0.116815 0.254790
O O13 0.763706 0.346871 0.439450
O O14 0.733300 0.559604 0.048652
O O15 0.500000 0.000000 0.000000
#
# Coordination Sequence:
#
# PCOD8011565 Si02
#       7
#     2   2   2   2   2   2   2
#     4  11  24  39  61  96 127 157 197 250 305 369
#     4  11  24  44  68  84 118 161 209 262 294 351
#     4  10  23  38  59  95 129 158 201 240 301 374
#     4  10  21  39  62  93 123 159 204 241 302 372
#     4  11  21  39  64  88 127 164 194 248 311 346
#     4  11  21  34  58  90 131 160 190 239 301 361
#     4  10  25  42  64  93 113 157 219 246 301 361
#
# _framework density 20.464403999999998
#
# number of rings (size 3 to 8) (size 9 to 14) (size 15 to 20)
#    0.000    1.429    4.286    2.143    6.000    1.714 
#    0.000    0.714    0.000    0.000    0.000    0.000 
#    0.000    0.000    0.000    0.000    0.000    0.000 
#
# Total GULP energy -173628.382196 kJ/mol
# GULP energy per Si atom -12402.027300 kJ/mol
# Density = 2.041783 g / cm^3
# Si number density = 20.464404 Si / 1000 Ang^3
#
#
#
# Elastic Constant Matrix: (Units=GPa)
#
#
# Indices 1 2 3 4 5 6 
#
# 1 130.6389 23.7498 40.9942 -4.5010 -22.5037 -6.8420
# 2 23.7498 75.6552 16.9299 -15.5427 -14.8384 -2.7793
# 3 40.9942 16.9299 76.4646 -12.1688 -2.3891 -4.1520
# 4 -4.5010 -15.5427 -12.1688 31.5464 -0.6787 -14.0289
# 5 -22.5037 -14.8384 -2.3891 -0.6787 38.8349 1.7310
# 6 -6.8420 -2.7793 -4.1520 -14.0289 1.7310 28.9125
#
#
#
# Elastic Compliance Matrix: (Units=1/GPa)
#
#
# Indices 1 2 3 4 5 6 
#
# 1 0.010434 -0.001150 -0.005198 -0.000501 0.005231 0.001056
# 2 -0.001150 0.017418 -0.000981 0.010928 0.005842 0.006214
# 3 -0.005198 -0.000981 0.017516 0.007745 -0.002401 0.005093
# 4 -0.000501 0.010928 0.007745 0.052138 0.004065 0.027099
# 5 0.005231 0.005842 -0.002401 0.004065 0.030866 0.001579
# 6 0.001056 0.006214 0.005093 0.027099 0.001579 0.049220
#
#
# Mechanical properties :
#
#
# Convention : Reuss Voigt Hill
#
# Bulk Modulus (GPa) = 32.56333 49.56737 41.06535
# Shear Modulus (GPa) = 24.69286 33.26443 28.97864
#
# Velocity S-wave (km/s) = 3.47742 4.03609 3.76713
# Velocity P-wave (km/s) = 5.66304 6.78188 6.24756
#
# Compressibility (1/GPa) = 0.03070939
#
# Stress axis : x y z
#
# Youngs Moduli (GPa) = 95.83900 57.41297 57.09065
#
# Poissons Ratio (x) = 0.06605 0.29677
# Poissons Ratio (y) = 0.11026 0.05598
# Poissons Ratio (z) = 0.49820 0.05629
#
# Static dielectric constant tensor:
#      x y z
#    x 3.836190 -0.149450 0.097990 
#    y -0.149450 4.399290 -0.801890 
#    z 0.097990 -0.801890 4.593950 
# 
# 
# High freq. dielectric constant tensor:
#      x y z
#    x 1.805800 -0.001850 -0.009220 
#    y -0.001850 1.792530 -0.006840 
#    z -0.009220 -0.006840 1.799690 
# 
# From -- ./inp_files/186331.got.cif
#   From: 2010.06.25/outbox.cif.g09.slc.cpg/sg2_94_cif.got.tgz:186331.got - 2010.06.27 13:26:56.
