data_PCOD8011804
_publ_section_title
;
Structure prediction by ZEFSAII (Michael W. Deem and Ramdas Pophale) SiO2 
 PCOD8011804
Probable space group: P -1
;
_chemical_formula_sum "Si O2"
_cell_formula_units_Z 14
_cell_length_a 11.636997
_cell_length_b 8.818818
_cell_length_c 9.496742
_cell_angle_alpha 61.010366
_cell_angle_beta 126.122984
_cell_angle_gamma 94.104749
_cell_volume 656.215341
_symmetry_space_group_name_H-M "P -1"
_symmetry_group_IT_number 2
_symmetry_cell_setting 'triclinic'
loop_
_space_group_symop_operation_xyz
x,y,z
-x,-y,-z
loop_
_atom_site_type_symbol
_atom_site_label
_atom_site_fract_x
_atom_site_fract_y
_atom_site_fract_z
Si Si1 0.091081 0.613438 0.434529
Si Si2 0.578785 0.114177 0.347585
Si Si3 0.569533 0.486627 0.210214
Si Si4 0.606676 0.123771 0.047161
Si Si5 0.109562 0.974625 0.900344
Si Si6 0.996939 0.356380 0.945907
Si Si7 0.274237 0.087508 0.200337
O O1 0.254052 0.543244 0.652616
O O2 0.108888 0.566515 0.300051
O O3 0.000000 0.500000 0.500000
O O4 0.014399 0.830703 0.304163
O O5 0.546948 0.299329 0.335733
O O6 0.422950 0.073373 0.226782
O O7 0.692083 0.961160 0.590358
O O8 0.651247 0.119743 0.245831
O O9 0.483449 0.666970 0.155603
O O10 0.500000 0.500000 0.000000
O O11 0.762416 0.053932 0.111240
O O12 0.500000 0.000000 0.000000
O O13 0.037089 0.811791 0.922310
O O14 0.186445 0.964887 0.113991
O O15 0.000000 0.500000 0.000000
O O16 0.163366 0.292220 0.028460
#
# Coordination Sequence:
#
# PCOD8011804 Si02
#       7
#     2   2   2   2   2   2   2
#     4  11  24  45  72  96 135 183 227 271 338 404
#     4  10  21  39  64  91 126 172 217 264 333 392
#     4  10  23  39  64  95 133 166 222 267 330 386
#     4  11  22  39  64  97 130 165 220 275 328 392
#     4  11  23  44  68  94 137 174 221 278 339 391
#     4  11  26  42  66  97 139 173 229 271 337 396
#     4  10  21  41  65  88 129 174 214 269 331 398
#
# _framework density 21.334458000000001
#
# number of rings (size 3 to 8) (size 9 to 14) (size 15 to 20)
#    0.000    1.429    1.429    4.286    8.000    3.429 
#    0.000    5.714    0.000    0.000    0.000    0.000 
#    0.000    0.000    0.000    0.000    0.000    0.000 
#
# Total GULP energy -173494.232923 kJ/mol
# GULP energy per Si atom -12392.445209 kJ/mol
# Density = 2.128590 g / cm^3
# Si number density = 21.334458 Si / 1000 Ang^3
#
#
#
# Elastic Constant Matrix: (Units=GPa)
#
#
# Indices 1 2 3 4 5 6 
#
# 1 76.5210 33.5996 49.9149 4.8959 1.8808 -8.0579
# 2 33.5996 134.9359 34.5399 2.9783 2.8586 -0.1870
# 3 49.9149 34.5399 106.0510 11.0916 16.0919 -4.8213
# 4 4.8959 2.9783 11.0916 24.2802 1.8335 -2.5040
# 5 1.8808 2.8586 16.0919 1.8335 38.8163 -1.5288
# 6 -8.0579 -0.1870 -4.8213 -2.5040 -1.5288 40.0009
#
#
#
# Elastic Compliance Matrix: (Units=1/GPa)
#
#
# Indices 1 2 3 4 5 6 
#
# 1 0.020467 -0.002843 -0.009080 0.000463 0.003085 0.003162
# 2 -0.002843 0.008494 -0.001488 0.000132 0.000095 -0.000701
# 3 -0.009080 -0.001488 0.015519 -0.004696 -0.005681 -0.000477
# 4 0.000463 0.000132 -0.004696 0.043457 -0.000049 0.002246
# 5 0.003085 0.000095 -0.005681 -0.000049 0.028003 0.001004
# 6 0.003162 -0.000701 -0.000477 0.002246 0.001004 0.025755
#
#
# Mechanical properties :
#
#
# Convention : Reuss Voigt Hill
#
# Bulk Modulus (GPa) = 56.63332 61.51297 59.07314
# Shear Modulus (GPa) = 28.66904 33.91638 31.29271
#
# Velocity S-wave (km/s) = 3.66975 3.99149 3.83400
# Velocity P-wave (km/s) = 6.67527 7.08081 6.88103
#
# Compressibility (1/GPa) = 0.01765745
#
# Stress axis : x y z
#
# Youngs Moduli (GPa) = 48.85862 117.73032 64.43589
#
# Poissons Ratio (x) = 0.33475 0.58507
# Poissons Ratio (y) = 0.13892 0.09590
# Poissons Ratio (z) = 0.44363 0.17521
#
# Static dielectric constant tensor:
#      x y z
#    x 3.877470 0.107690 -0.025240 
#    y 0.107690 4.310120 -0.284290 
#    z -0.025240 -0.284290 4.221050 
# 
# 
# High freq. dielectric constant tensor:
#      x y z
#    x 1.833500 0.010810 0.009410 
#    y 0.010810 1.838020 -0.000460 
#    z 0.009410 -0.000460 1.844890 
# 
# From -- ./inp_files/237631.got.cif
#   From: 2010.06.25/outbox.cif.g09.slc.cpg/sg2_119_cif.got.tgz:237631.got - 2010.06.27 13:26:56.
