data_PCOD8011198
_publ_section_title
;
Structure prediction by ZEFSAII (Michael W. Deem and Ramdas Pophale) SiO2 
 PCOD8011198
Probable space group: P -1
;
_chemical_formula_sum "Si O2"
_cell_formula_units_Z 16
_cell_length_a 8.775329
_cell_length_b 12.505395
_cell_length_c 8.722372
_cell_angle_alpha 103.345460
_cell_angle_beta 79.419468
_cell_angle_gamma 130.582117
_cell_volume 706.600587
_symmetry_space_group_name_H-M "P -1"
_symmetry_group_IT_number 2
_symmetry_cell_setting 'triclinic'
loop_
_space_group_symop_operation_xyz
x,y,z
-x,-y,-z
loop_
_atom_site_type_symbol
_atom_site_label
_atom_site_fract_x
_atom_site_fract_y
_atom_site_fract_z
Si Si1 0.380309 0.219345 0.297737
Si Si2 0.230321 0.947451 0.403927
Si Si3 0.211623 0.528448 0.367732
Si Si4 0.785522 0.658452 0.442301
Si Si5 0.772618 0.868580 0.027371
Si Si6 0.416948 0.393537 0.839807
Si Si7 0.395955 0.015126 0.717459
Si Si8 0.781626 0.300029 0.334154
O O1 0.353997 0.311985 0.443425
O O2 0.612719 0.288732 0.267100
O O3 0.237563 0.055009 0.325155
O O4 0.317580 0.224429 0.140740
O O5 0.329844 0.036012 0.573196
O O6 0.005568 0.805394 0.419657
O O7 0.368890 0.911413 0.299124
O O8 0.204342 0.442143 0.485209
O O9 0.397384 0.596325 0.245667
O O10 0.224144 0.657747 0.474863
O O11 0.007269 0.422841 0.270055
O O12 0.677357 0.578347 0.273817
O O13 0.756919 0.767737 0.125796
O O14 0.647575 0.920068 0.116386
O O15 0.000000 0.000000 0.000000
O O16 0.500000 0.500000 0.000000
O O17 0.256658 0.846104 0.711063
#
# Coordination Sequence:
#
# PCOD8011198 Si02
#       8
#     2   2   2   2   2   2   2   2
#     4  11  23  42  69 101 133 178 230 277 335 400
#     4  10  21  38  70 102 129 172 225 276 334 398
#     4  11  24  44  70  97 134 181 226 280 337 404
#     4  12  22  43  74  98 133 177 231 272 337 408
#     4  12  27  45  69 100 142 180 222 284 343 395
#     4  12  28  44  67 103 140 173 225 285 339 401
#     4  10  22  41  68  99 139 170 226 281 337 396
#     4  10  23  42  71  98 134 177 231 274 337 399
#
# _framework density 22.643626999999999
#
# number of rings (size 3 to 8) (size 9 to 14) (size 15 to 20)
#    0.000    1.000    2.500    3.750    7.000    2.000 
#    2.250    0.625    0.000    0.000    0.000    0.000 
#    0.000    0.000    0.000    0.000    0.000    0.000 
#
# Total GULP energy -198417.670424 kJ/mol
# GULP energy per Si atom -12401.104402 kJ/mol
# Density = 2.259209 g / cm^3
# Si number density = 22.643627 Si / 1000 Ang^3
#
#
#
# Elastic Constant Matrix: (Units=GPa)
#
#
# Indices 1 2 3 4 5 6 
#
# 1 77.7652 18.2301 30.6945 -3.5562 3.7679 12.7161
# 2 18.2301 74.4676 21.1160 -3.0484 3.0797 12.1061
# 3 30.6945 21.1160 102.9914 7.7778 1.8148 1.8578
# 4 -3.5562 -3.0484 7.7778 34.4424 2.0645 -6.8109
# 5 3.7679 3.0797 1.8148 2.0645 30.8470 3.7816
# 6 12.7161 12.1061 1.8578 -6.8109 3.7816 40.9297
#
#
#
# Elastic Compliance Matrix: (Units=1/GPa)
#
#
# Indices 1 2 3 4 5 6 
#
# 1 0.015772 -0.001898 -0.004358 0.001773 -0.001141 -0.003741
# 2 -0.001898 0.015277 -0.002570 0.001079 -0.000778 -0.003561
# 3 -0.004358 -0.002570 0.011750 -0.003135 0.000180 0.001042
# 4 0.001773 0.001079 -0.003135 0.031120 -0.002800 0.004709
# 5 -0.001141 -0.000778 0.000180 -0.002800 0.033174 -0.002955
# 6 -0.003741 -0.003561 0.001042 0.004709 -0.002955 0.027657
#
#
# Mechanical properties :
#
#
# Convention : Reuss Voigt Hill
#
# Bulk Modulus (GPa) = 39.76429 43.92282 41.84356
# Shear Modulus (GPa) = 31.09756 33.58940 32.34348
#
# Velocity S-wave (km/s) = 3.70989 3.85566 3.78348
# Velocity P-wave (km/s) = 5.99584 6.26586 6.13234
#
# Compressibility (1/GPa) = 0.02514819
#
# Stress axis : x y z
#
# Youngs Moduli (GPa) = 63.40279 65.45670 85.10546
#
# Poissons Ratio (x) = 0.12421 0.37088
# Poissons Ratio (y) = 0.12031 0.21874
# Poissons Ratio (z) = 0.27630 0.16824
#
# Static dielectric constant tensor:
#      x y z
#    x 4.273210 0.116770 -0.083740 
#    y 0.116770 4.245590 -0.049520 
#    z -0.083740 -0.049520 4.023260 
# 
# 
# High freq. dielectric constant tensor:
#      x y z
#    x 1.901280 0.009300 -0.005280 
#    y 0.009300 1.908630 0.001160 
#    z -0.005280 0.001160 1.870580 
# 
# From -- ./inp_files/188464.got.cif
#   From: 2010.06.25/outbox.cif.g09.slc.cpg/sg2_95_cif.got.tgz:188464.got - 2010.06.27 13:26:56.
