data_PCOD8011715
_publ_section_title
;
Structure prediction by ZEFSAII (Michael W. Deem and Ramdas Pophale) SiO2 
 PCOD8011715
Probable space group: P -1
;
_chemical_formula_sum "Si O2"
_cell_formula_units_Z 16
_cell_length_a 19.801721
_cell_length_b 11.852376
_cell_length_c 8.832596
_cell_angle_alpha 100.611063
_cell_angle_beta 43.049915
_cell_angle_gamma 133.698882
_cell_volume 777.617203
_symmetry_space_group_name_H-M "P -1"
_symmetry_group_IT_number 2
_symmetry_cell_setting 'triclinic'
loop_
_space_group_symop_operation_xyz
x,y,z
-x,-y,-z
loop_
_atom_site_type_symbol
_atom_site_label
_atom_site_fract_x
_atom_site_fract_y
_atom_site_fract_z
Si Si1 0.668954 0.600882 0.176314
Si Si2 0.440644 0.118939 0.021047
Si Si3 0.160159 0.665741 0.890996
Si Si4 0.975639 0.044614 0.703523
Si Si5 0.434915 0.007204 0.306648
Si Si6 0.634852 0.538401 0.855492
Si Si7 0.245503 0.946713 0.006286
Si Si8 0.622598 0.313972 0.313541
O O1 0.500000 0.500000 0.500000
O O2 0.697446 0.509652 0.195099
O O3 0.641300 0.556424 0.031047
O O4 0.847957 0.847323 0.974215
O O5 0.368572 0.025652 0.284838
O O6 0.274669 0.980097 0.148265
O O7 0.547534 0.107671 0.798331
O O8 0.574152 0.353640 0.860556
O O9 0.291617 0.875442 0.638710
O O10 0.233655 0.611051 0.797993
O O11 0.139534 0.725689 0.089143
O O12 0.000000 0.500000 0.000000
O O13 0.175365 0.258527 0.488322
O O14 0.881617 0.074405 0.838500
O O15 0.000000 0.000000 0.500000
O O16 0.607588 0.226223 0.160103
O O17 0.500000 0.500000 0.000000
O O18 0.440554 0.148136 0.664054
#
# Coordination Sequence:
#
# PCOD8011715 Si02
#       8
#     2   2   2   2   2   2   2   2
#     4  11  22  43  70  97 130 178 226 272 334 399
#     4  11  20  38  67  93 123 168 218 263 334 392
#     4  11  24  42  61  97 134 171 223 272 331 395
#     4  10  23  42  62  97 132 170 222 273 330 395
#     4  10  21  39  63  94 125 165 215 265 321 404
#     4  11  25  43  67  94 136 174 222 277 337 394
#     4  11  21  40  71  88 129 179 214 273 336 397
#     4  11  20  43  67  92 133 175 220 268 336 393
#
# _framework density 20.575676999999999
#
# number of rings (size 3 to 8) (size 9 to 14) (size 15 to 20)
#    0.000    1.250    5.000    2.250    1.750    0.000 
#    6.750    1.250    0.000    0.000    0.000    0.000 
#    0.000    0.000    0.000    0.000    0.000    0.000 
#
# Total GULP energy -198270.120515 kJ/mol
# GULP energy per Si atom -12391.882532 kJ/mol
# Density = 2.052885 g / cm^3
# Si number density = 20.575677 Si / 1000 Ang^3
#
#
#
# Elastic Constant Matrix: (Units=GPa)
#
#
# Indices 1 2 3 4 5 6 
#
# 1 165.3895 67.2819 61.0101 -21.2651 -14.8842 -6.6398
# 2 67.2819 127.2311 47.6433 -17.3206 -12.4849 -12.5567
# 3 61.0101 47.6433 83.7405 -10.0967 -15.9479 -11.1645
# 4 -21.2651 -17.3206 -10.0967 28.6162 0.4624 2.2595
# 5 -14.8842 -12.4849 -15.9479 0.4624 36.0612 3.5490
# 6 -6.6398 -12.5567 -11.1645 2.2595 3.5490 41.4843
#
#
#
# Elastic Compliance Matrix: (Units=1/GPa)
#
#
# Indices 1 2 3 4 5 6 
#
# 1 0.009452 -0.002667 -0.004871 0.003747 0.000863 -0.000883
# 2 -0.002667 0.011397 -0.003702 0.003456 0.000991 0.001754
# 3 -0.004871 -0.003702 0.018943 0.000528 0.004807 0.002758
# 4 0.003747 0.003456 0.000528 0.040015 0.002523 -0.000607
# 5 0.000863 0.000991 0.004807 0.002523 0.030624 -0.001026
# 6 -0.000883 0.001754 0.002758 -0.000607 -0.001026 0.025358
#
#
# Mechanical properties :
#
#
# Convention : Reuss Voigt Hill
#
# Bulk Modulus (GPa) = 57.75953 80.91462 69.33708
# Shear Modulus (GPa) = 30.48037 34.59406 32.53722
#
# Velocity S-wave (km/s) = 3.85304 4.10482 3.98093
# Velocity P-wave (km/s) = 6.92295 7.86618 7.40959
#
# Compressibility (1/GPa) = 0.01731316
#
# Stress axis : x y z
#
# Youngs Moduli (GPa) = 105.79851 87.74203 52.78876
#
# Poissons Ratio (x) = 0.23399 0.25712
# Poissons Ratio (y) = 0.28215 0.19543
# Poissons Ratio (z) = 0.51531 0.32483
#
# Static dielectric constant tensor:
#      x y z
#    x 3.858130 -0.123470 0.230940 
#    y -0.123470 3.701980 -0.086820 
#    z 0.230940 -0.086820 3.796220 
# 
# 
# High freq. dielectric constant tensor:
#      x y z
#    x 1.808520 -0.007760 0.003970 
#    y -0.007760 1.822110 0.006270 
#    z 0.003970 0.006270 1.782130 
# 
# From -- ./inp_files/215813.got.cif
#   From: 2010.06.25/outbox.cif.g09.slc.cpg/sg2_108_cif.got.tgz:215813.got - 2010.06.27 13:26:56.
