data_PCOD8011088
_publ_section_title
;
Structure prediction by ZEFSAII (Michael W. Deem and Ramdas Pophale) SiO2 
 PCOD8011088
Probable space group: P -1
;
_chemical_formula_sum "Si O2"
_cell_formula_units_Z 16
_cell_length_a 13.011875
_cell_length_b 13.997627
_cell_length_c 15.103556
_cell_angle_alpha 28.344226
_cell_angle_beta 140.780920
_cell_angle_gamma 148.000722
_cell_volume 687.670335
_symmetry_space_group_name_H-M "P -1"
_symmetry_group_IT_number 2
_symmetry_cell_setting 'triclinic'
loop_
_space_group_symop_operation_xyz
x,y,z
-x,-y,-z
loop_
_atom_site_type_symbol
_atom_site_label
_atom_site_fract_x
_atom_site_fract_y
_atom_site_fract_z
Si Si1 0.572289 0.392298 0.365795
Si Si2 0.960215 0.671077 0.504582
Si Si3 0.543943 0.102888 0.229657
Si Si4 0.492690 0.269328 0.719400
Si Si5 0.072291 0.929597 0.778006
Si Si6 0.666071 0.256409 0.368645
Si Si7 0.303751 0.563008 0.093750
Si Si8 0.779475 0.196670 0.860073
O O1 0.751125 0.567983 0.405913
O O2 0.666875 0.434327 0.296521
O O3 0.425877 0.476781 0.194459
O O4 0.447500 0.119799 0.544754
O O5 0.947656 0.468368 0.725193
O O6 0.131794 0.732116 0.501266
O O7 0.012560 0.902037 0.410615
O O8 0.610187 0.290195 0.203763
O O9 0.319241 0.982933 0.144374
O O10 0.689884 0.244862 0.127759
O O11 0.500000 0.500000 0.500000
O O12 0.595732 0.314767 0.846154
O O13 0.599662 0.191968 0.788534
O O14 0.266496 0.048124 0.751865
O O15 0.915726 0.666621 0.846899
O O16 0.121979 0.903745 0.932708
O O17 0.500000 0.000000 0.500000
#
# Coordination Sequence:
#
# PCOD8011088 Si02
#       8
#     2   2   2   2   2   2   2   2
#     4  10  21  42  67  94 134 175 212 279 325 384
#     4  11  21  42  65  95 134 172 219 265 330 389
#     4  10  21  41  63  93 132 169 211 270 324 375
#     4  12  24  47  65  97 134 175 219 273 321 388
#     4  12  24  41  67  95 130 177 216 266 326 382
#     4  10  21  38  66  99 129 170 219 267 328 394
#     4  12  25  43  68  97 135 172 221 271 323 389
#     4  11  23  43  68  91 136 174 216 272 323 384
#
# _framework density 23.266960999999998
#
# number of rings (size 3 to 8) (size 9 to 14) (size 15 to 20)
#    0.000    1.000    3.750    3.750    0.000    1.500 
#    2.250    2.500    0.000   10.500    0.000    0.000 
#    0.000    0.000    0.000    0.000    0.000    0.000 
#
# Total GULP energy -198309.906806 kJ/mol
# GULP energy per Si atom -12394.369175 kJ/mol
# Density = 2.321400 g / cm^3
# Si number density = 23.266961 Si / 1000 Ang^3
#
#
#
# Elastic Constant Matrix: (Units=GPa)
#
#
# Indices 1 2 3 4 5 6 
#
# 1 92.2401 30.9795 8.9573 -3.7281 -10.2128 15.8306
# 2 30.9795 96.6380 26.6394 -6.9284 -13.0970 20.3807
# 3 8.9573 26.6394 77.6434 -3.2599 -23.4551 7.2896
# 4 -3.7281 -6.9284 -3.2599 38.1582 2.0009 -10.6952
# 5 -10.2128 -13.0970 -23.4551 2.0009 32.4792 2.3720
# 6 15.8306 20.3807 7.2896 -10.6952 2.3720 40.5506
#
#
#
# Elastic Compliance Matrix: (Units=1/GPa)
#
#
# Indices 1 2 3 4 5 6 
#
# 1 0.012880 -0.003088 0.001123 -0.000549 0.003946 -0.004054
# 2 -0.003088 0.013653 -0.003004 0.000323 0.002724 -0.005190
# 3 0.001123 -0.003004 0.017717 -0.000381 0.012173 -0.002926
# 4 -0.000549 0.000323 -0.000381 0.028502 -0.002642 0.007792
# 5 0.003946 0.002724 0.012173 -0.002642 0.042687 -0.008292
# 6 -0.004054 -0.005190 -0.002926 0.007792 -0.008292 0.031918
#
#
# Mechanical properties :
#
#
# Convention : Reuss Voigt Hill
#
# Bulk Modulus (GPa) = 29.14557 44.40821 36.77689
# Shear Modulus (GPa) = 29.63273 35.56728 32.60000
#
# Velocity S-wave (km/s) = 3.57262 3.91405 3.74723
# Velocity P-wave (km/s) = 5.43801 6.28921 5.87904
#
# Compressibility (1/GPa) = 0.03431054
#
# Stress axis : x y z
#
# Youngs Moduli (GPa) = 77.64117 73.24355 56.44412
#
# Poissons Ratio (x) = 0.22620 -0.06340
# Poissons Ratio (y) = 0.23978 0.16958
# Poissons Ratio (z) = -0.08720 0.22005
#
# Static dielectric constant tensor:
#      x y z
#    x 4.930810 -0.333510 -0.485020 
#    y -0.333510 4.696850 -0.015860 
#    z -0.485020 -0.015860 4.366610 
# 
# 
# High freq. dielectric constant tensor:
#      x y z
#    x 1.902270 0.001870 -0.013600 
#    y 0.001870 1.935700 -0.006630 
#    z -0.013600 -0.006630 1.917530 
# 
# From -- ./inp_files/534152.got.cif
#   From: 2010.06.25/outbox.cif.g09.slc.cpg/sg2_268_cif.got.tgz:534152.got - 2010.06.27 13:26:56.
