data_PCOD8011401
_publ_section_title
;
Structure prediction by ZEFSAII (Michael W. Deem and Ramdas Pophale) SiO2 
 PCOD8011401
Probable space group: P -1
;
_chemical_formula_sum "Si O2"
_cell_formula_units_Z 16
_cell_length_a 16.130692
_cell_length_b 19.681712
_cell_length_c 8.897222
_cell_angle_alpha 53.195921
_cell_angle_beta 116.608009
_cell_angle_gamma 158.855522
_cell_volume 753.346931
_symmetry_space_group_name_H-M "P -1"
_symmetry_group_IT_number 2
_symmetry_cell_setting 'triclinic'
loop_
_space_group_symop_operation_xyz
x,y,z
-x,-y,-z
loop_
_atom_site_type_symbol
_atom_site_label
_atom_site_fract_x
_atom_site_fract_y
_atom_site_fract_z
Si Si1 0.922772 0.684003 0.807884
Si Si2 0.753699 0.166215 0.964421
Si Si3 0.842960 0.793919 0.725749
Si Si4 0.456018 0.686867 0.767071
Si Si5 0.970946 0.187799 0.597941
Si Si6 0.248577 0.679039 0.659393
Si Si7 0.679750 0.072718 0.703005
Si Si8 0.305370 0.396484 0.839411
O O1 0.964616 0.813853 0.729324
O O2 0.879542 0.649469 0.639798
O O3 0.678560 0.438035 0.014632
O O4 0.170147 0.838147 0.841245
O O5 0.728903 0.089647 0.893035
O O6 0.961621 0.416119 0.804935
O O7 0.500000 0.000000 0.000000
O O8 0.548714 0.553280 0.770301
O O9 0.851693 0.794422 0.915639
O O10 0.000000 0.000000 0.500000
O O11 0.364356 0.702239 0.617188
O O12 0.383521 0.552290 0.771075
O O13 0.751270 0.938772 0.694740
O O14 0.876581 0.189421 0.608265
O O15 0.144423 0.276089 0.721846
O O16 0.269920 0.784239 0.448194
O O17 0.400901 0.815486 0.760260
#
# Coordination Sequence:
#
# PCOD8011401 Si02
#       8
#     2   2   2   2   2   2   2   2
#     4  10  23  42  60  92 128 161 210 258 305 376
#     4  11  24  40  62  91 125 166 210 259 313 366
#     4  10  21  42  65  92 128 159 205 256 310 372
#     4   9  20  41  62  86 129 162 200 259 305 363
#     4  11  22  40  66  91 126 166 207 252 313 363
#     4   9  20  38  61  85 123 162 209 255 307 365
#     4  10  21  39  61  87 123 165 207 255 311 372
#     4  10  22  40  66  93 120 165 206 249 311 376
#
# _framework density 21.238555000000002
#
# number of rings (size 3 to 8) (size 9 to 14) (size 15 to 20)
#    0.000    2.000    0.000    3.375    5.250    2.000 
#    6.750    8.750    0.000    0.000    0.000    0.000 
#    0.000    0.000    0.000    0.000    0.000    0.000 
#
# Total GULP energy -198324.152226 kJ/mol
# GULP energy per Si atom -12395.259514 kJ/mol
# Density = 2.119022 g / cm^3
# Si number density = 21.238555 Si / 1000 Ang^3
#
#
#
# Elastic Constant Matrix: (Units=GPa)
#
#
# Indices 1 2 3 4 5 6 
#
# 1 79.3953 23.3871 30.5731 -2.3610 3.7539 15.7929
# 2 23.3871 99.4829 35.8813 8.1706 -0.4890 19.7958
# 3 30.5731 35.8813 85.1507 13.7387 -2.6070 5.7160
# 4 -2.3610 8.1706 13.7387 37.9661 -2.0316 6.8264
# 5 3.7539 -0.4890 -2.6070 -2.0316 39.0563 0.8664
# 6 15.7929 19.7958 5.7160 6.8264 0.8664 31.4884
#
#
#
# Elastic Compliance Matrix: (Units=1/GPa)
#
#
# Indices 1 2 3 4 5 6 
#
# 1 0.016928 -0.000581 -0.006110 0.004741 -0.001618 -0.007999
# 2 -0.000581 0.013421 -0.004987 0.000193 0.000063 -0.007284
# 3 -0.006110 -0.004987 0.016764 -0.006107 0.001228 0.004447
# 4 0.004741 0.000193 -0.006107 0.030285 0.000892 -0.007981
# 5 -0.001618 0.000063 0.001228 0.000892 0.025897 -0.000356
# 6 -0.007999 -0.007284 0.004447 -0.007981 -0.000356 0.041282
#
#
# Mechanical properties :
#
#
# Convention : Reuss Voigt Hill
#
# Bulk Modulus (GPa) = 42.09601 49.30133 45.69867
# Shear Modulus (GPa) = 28.43296 33.31463 30.87379
#
# Velocity S-wave (km/s) = 3.66285 3.96484 3.81684
# Velocity P-wave (km/s) = 6.14429 6.65007 6.40218
#
# Compressibility (1/GPa) = 0.02375522
#
# Stress axis : x y z
#
# Youngs Moduli (GPa) = 59.07398 74.50832 59.65266
#
# Poissons Ratio (x) = 0.04331 0.36450
# Poissons Ratio (y) = 0.03434 0.29750
# Poissons Ratio (z) = 0.36097 0.37158
#
# Static dielectric constant tensor:
#      x y z
#    x 3.986650 0.109090 0.136890 
#    y 0.109090 3.874420 0.049330 
#    z 0.136890 0.049330 3.997560 
# 
# 
# High freq. dielectric constant tensor:
#      x y z
#    x 1.841660 0.010690 0.010970 
#    y 0.010690 1.823570 0.003090 
#    z 0.010970 0.003090 1.828720 
# 
# From -- ./inp_files/337601.got.cif
#   From: 2010.06.25/outbox.cif.g09.slc.cpg/sg2_169_cif.got.tgz:337601.got - 2010.06.27 13:26:56.
