data_PCOD8011817
_publ_section_title
;
Structure prediction by ZEFSAII (Michael W. Deem and Ramdas Pophale) SiO2 
 PCOD8011817
Probable space group: P -1
;
_chemical_formula_sum "Si O2"
_cell_formula_units_Z 16
_cell_length_a 6.607472
_cell_length_b 8.392645
_cell_length_c 16.157531
_cell_angle_alpha 87.700108
_cell_angle_beta 113.645029
_cell_angle_gamma 115.415983
_cell_volume 731.846432
_symmetry_space_group_name_H-M "P -1"
_symmetry_group_IT_number 2
_symmetry_cell_setting 'triclinic'
loop_
_space_group_symop_operation_xyz
x,y,z
-x,-y,-z
loop_
_atom_site_type_symbol
_atom_site_label
_atom_site_fract_x
_atom_site_fract_y
_atom_site_fract_z
Si Si1 0.144205 0.579604 0.276100
Si Si2 0.101509 0.317811 0.628522
Si Si3 0.358366 0.084656 0.681893
Si Si4 0.560135 0.579886 0.599007
Si Si5 0.369561 0.848724 0.547661
Si Si6 0.837977 0.511588 0.899580
Si Si7 0.895686 0.092143 0.043281
Si Si8 0.535275 0.859037 0.120221
O O1 0.402728 0.756843 0.323683
O O2 0.183163 0.417147 0.328125
O O3 0.061950 0.532509 0.168562
O O4 0.939640 0.616507 0.289487
O O5 0.128132 0.134356 0.644648
O O6 0.355373 0.469059 0.634653
O O7 0.883542 0.298855 0.530880
O O8 0.414377 0.042709 0.784941
O O9 0.292229 0.911550 0.618380
O O10 0.500000 0.500000 0.500000
O O11 0.568745 0.773959 0.598504
O O12 0.500000 0.000000 0.500000
O O13 0.554592 0.355634 0.872881
O O14 0.877040 0.716057 0.896528
O O15 0.000000 0.500000 0.000000
O O16 0.785768 0.956592 0.105748
O O17 0.682908 0.122423 0.963144
O O18 0.000000 0.000000 0.000000
#
# Coordination Sequence:
#
# PCOD8011817 Si02
#       8
#     2   2   2   2   2   2   2   2
#     4  10  21  41  62  87 124 158 206 250 300 378
#     4  11  22  41  62  84 120 165 203 248 309 364
#     4  10  22  38  60  90 122 158 203 253 304 364
#     4  11  23  40  60  85 122 161 204 253 304 364
#     4  12  22  40  60  88 121 159 204 255 307 358
#     4   9  20  40  64  90 122 164 200 250 313 368
#     4  10  21  39  64  92 123 159 207 252 311 374
#     4   9  21  41  59  88 130 157 199 262 303 366
#
# _framework density 21.862511999999999
#
# number of rings (size 3 to 8) (size 9 to 14) (size 15 to 20)
#    0.000    1.750    2.500    1.500    0.000    5.500 
#    2.250    8.750    0.000    0.000    0.000    0.000 
#    0.000    0.000    0.000    0.000    0.000    0.000 
#
# Total GULP energy -198326.585703 kJ/mol
# GULP energy per Si atom -12395.411606 kJ/mol
# Density = 2.181275 g / cm^3
# Si number density = 21.862512 Si / 1000 Ang^3
#
#
#
# Elastic Constant Matrix: (Units=GPa)
#
#
# Indices 1 2 3 4 5 6 
#
# 1 96.4624 48.8934 32.4524 0.2405 -37.5132 -13.3631
# 2 48.8934 123.8377 39.5478 3.9148 -31.3887 -2.3460
# 3 32.4524 39.5478 131.1952 3.7871 -34.8132 -6.6741
# 4 0.2405 3.9148 3.7871 33.9148 -4.1054 -5.0258
# 5 -37.5132 -31.3887 -34.8132 -4.1054 39.7349 0.9144
# 6 -13.3631 -2.3460 -6.6741 -5.0258 0.9144 39.6352
#
#
#
# Elastic Compliance Matrix: (Units=1/GPa)
#
#
# Indices 1 2 3 4 5 6 
#
# 1 0.019052 -0.003730 0.000891 0.003076 0.015992 0.006374
# 2 -0.003730 0.010979 -0.001387 -0.000769 0.003881 -0.001028
# 3 0.000891 -0.001387 0.010204 0.000328 0.008678 0.001778
# 4 0.003076 -0.000769 0.000328 0.030919 0.005668 0.004837
# 5 0.015992 0.003881 0.008678 0.005668 0.051366 0.006616
# 6 0.006374 -0.001028 0.001778 0.004837 0.006616 0.028078
#
#
# Mechanical properties :
#
#
# Convention : Reuss Voigt Hill
#
# Bulk Modulus (GPa) = 31.46444 65.92028 48.69236
# Shear Modulus (GPa) = 29.47339 38.03044 33.75191
#
# Velocity S-wave (km/s) = 3.67566 4.17529 3.93342
# Velocity P-wave (km/s) = 5.69537 7.31175 6.55358
#
# Compressibility (1/GPa) = 0.03178191
#
# Stress axis : x y z
#
# Youngs Moduli (GPa) = 52.48831 91.08243 98.00274
#
# Poissons Ratio (x) = 0.33969 -0.08727
# Poissons Ratio (y) = 0.19576 0.13597
# Poissons Ratio (z) = -0.04674 0.12637
#
# Static dielectric constant tensor:
#      x y z
#    x 4.432400 -0.111460 0.203840 
#    y -0.111460 4.422410 -0.109690 
#    z 0.203840 -0.109690 4.344340 
# 
# 
# High freq. dielectric constant tensor:
#      x y z
#    x 1.842600 0.000680 -0.015670 
#    y 0.000680 1.856970 -0.009090 
#    z -0.015670 -0.009090 1.868360 
# 
# From -- ./inp_files/39183.got.cif
#   From: 2010.06.25/outbox.cif.g09.slc.cpg/sg2_20_cif.got.tgz:39183.got - 2010.06.27 13:26:56.
