data_PCOD8011500
_publ_section_title
;
Structure prediction by ZEFSAII (Michael W. Deem and Ramdas Pophale) SiO2 
 PCOD8011500
Probable space group: P -1
;
_chemical_formula_sum "Si O2"
_cell_formula_units_Z 12
_cell_length_a 7.577782
_cell_length_b 19.181502
_cell_length_c 20.497222
_cell_angle_alpha 19.831772
_cell_angle_beta 41.822781
_cell_angle_gamma 34.131132
_cell_volume 558.304778
_symmetry_space_group_name_H-M "P -1"
_symmetry_group_IT_number 2
_symmetry_cell_setting 'triclinic'
loop_
_space_group_symop_operation_xyz
x,y,z
-x,-y,-z
loop_
_atom_site_type_symbol
_atom_site_label
_atom_site_fract_x
_atom_site_fract_y
_atom_site_fract_z
Si Si1 0.173207 0.446423 0.931136
Si Si2 0.609764 0.657670 0.217131
Si Si3 0.709386 0.443186 0.722981
Si Si4 0.861455 0.796341 0.593842
Si Si5 0.441299 0.176756 0.779779
Si Si6 0.647372 0.091912 0.658368
O O1 0.476563 0.469392 0.823342
O O2 0.901051 0.644241 0.782451
O O3 0.000000 0.500000 0.000000
O O4 0.321518 0.163646 0.119420
O O5 0.367696 0.659419 0.230382
O O6 0.500075 0.686028 0.298242
O O7 0.963674 0.405201 0.334745
O O8 0.647710 0.883090 0.993948
O O9 0.627903 0.715907 0.485997
O O10 0.071362 0.266209 0.800352
O O11 0.025016 0.948766 0.421233
O O12 0.500000 0.000000 0.500000
O O13 0.553405 0.227436 0.636142
#
# Coordination Sequence:
#
# PCOD8011500 Si02
#       6
#     2   2   2   2   2   2
#     4  10  22  41  59  89 122 165 213 251 301 371
#     4   9  21  37  61  91 123 158 203 252 297 370
#     4  10  22  38  63  91 127 157 201 258 304 367
#     4  10  23  42  60  87 126 161 209 261 298 364
#     4  11  19  39  64  91 126 160 198 251 317 366
#     4  10  21  39  62  88 121 162 204 253 309 368
#
# _framework density 21.493635999999999
#
# number of rings (size 3 to 8) (size 9 to 14) (size 15 to 20)
#    0.000    2.333    3.333    1.000    0.000    8.667 
#    6.000    0.000    0.000    0.000    0.000    0.000 
#    0.000    0.000    0.000    0.000    0.000    0.000 
#
# Total GULP energy -148693.712599 kJ/mol
# GULP energy per Si atom -12391.142717 kJ/mol
# Density = 2.144472 g / cm^3
# Si number density = 21.493636 Si / 1000 Ang^3
#
#
#
# Elastic Constant Matrix: (Units=GPa)
#
#
# Indices 1 2 3 4 5 6 
#
# 1 55.4729 32.4943 10.5241 -2.6937 6.3616 2.7522
# 2 32.4943 102.2480 37.1741 9.7622 14.0961 10.5093
# 3 10.5241 37.1741 111.3020 3.4218 17.9969 -5.5564
# 4 -2.6937 9.7622 3.4218 44.6067 1.9924 15.6276
# 5 6.3616 14.0961 17.9969 1.9924 15.0382 -0.8128
# 6 2.7522 10.5093 -5.5564 15.6276 -0.8128 36.4477
#
#
#
# Elastic Compliance Matrix: (Units=1/GPa)
#
#
# Indices 1 2 3 4 5 6 
#
# 1 0.022787 -0.007132 0.000776 0.003471 -0.004405 -0.001132
# 2 -0.007132 0.014714 -0.003258 -0.001849 -0.006825 -0.003560
# 3 0.000776 -0.003258 0.011997 -0.000602 -0.011406 0.002713
# 4 0.003471 -0.001849 -0.000602 0.027285 -0.003257 -0.011592
# 5 -0.004405 -0.006825 -0.011406 -0.003257 0.089053 0.003944
# 6 -0.001132 -0.003560 0.002713 -0.011592 0.003944 0.034021
#
#
# Mechanical properties :
#
#
# Convention : Reuss Voigt Hill
#
# Bulk Modulus (GPa) = 33.03288 47.71198 40.37243
# Shear Modulus (GPa) = 21.81748 31.80720 26.81234
#
# Velocity S-wave (km/s) = 3.18947 3.85105 3.53576
# Velocity P-wave (km/s) = 5.38197 6.48232 5.95760
#
# Compressibility (1/GPa) = 0.03027287
#
# Stress axis : x y z
#
# Youngs Moduli (GPa) = 43.88494 67.96168 83.35098
#
# Poissons Ratio (x) = 0.48468 -0.06471
# Poissons Ratio (y) = 0.31297 0.27152
# Poissons Ratio (z) = -0.03407 0.22139
#
# Static dielectric constant tensor:
#      x y z
#    x 3.581630 0.247330 0.093420 
#    y 0.247330 3.892860 0.009110 
#    z 0.093420 0.009110 4.087860 
# 
# 
# High freq. dielectric constant tensor:
#      x y z
#    x 1.807390 0.013230 0.007300 
#    y 0.013230 1.840970 0.003030 
#    z 0.007300 0.003030 1.870990 
# 
# From -- ./inp_files/349337.got.cif
#   From: 2010.06.25/outbox.cif.g09.slc.cpg/sg2_175_cif.got.tgz:349337.got - 2010.06.27 13:26:56.
