data_PCOD8011300
_publ_section_title
;
Structure prediction by ZEFSAII (Michael W. Deem and Ramdas Pophale) SiO2 
 PCOD8011300
Probable space group: P -1
;
_chemical_formula_sum "Si O2"
_cell_formula_units_Z 16
_cell_length_a 14.609587
_cell_length_b 14.058957
_cell_length_c 8.858516
_cell_angle_alpha 30.883953
_cell_angle_beta 129.298052
_cell_angle_gamma 125.018451
_cell_volume 720.644560
_symmetry_space_group_name_H-M "P -1"
_symmetry_group_IT_number 2
_symmetry_cell_setting 'triclinic'
loop_
_space_group_symop_operation_xyz
x,y,z
-x,-y,-z
loop_
_atom_site_type_symbol
_atom_site_label
_atom_site_fract_x
_atom_site_fract_y
_atom_site_fract_z
Si Si1 0.725476 0.446112 0.793157
Si Si2 0.143293 0.166362 0.573248
Si Si3 0.132499 0.966183 0.133196
Si Si4 0.505926 0.203335 0.389440
Si Si5 0.352163 0.500282 0.683145
Si Si6 0.348305 0.864275 0.652303
Si Si7 0.111087 0.831830 0.804465
Si Si8 0.109261 0.618347 0.384720
O O1 0.803284 0.626091 0.693754
O O2 0.647166 0.507112 0.488282
O O3 0.650617 0.341547 0.991406
O O4 0.802773 0.281301 0.048354
O O5 0.000331 0.136678 0.460244
O O6 0.183811 0.020795 0.686781
O O7 0.178074 0.119871 0.845614
O O8 0.221718 0.959919 0.377999
O O9 0.146019 0.765457 0.350224
O O10 0.000000 0.000000 0.000000
O O11 0.568117 0.312009 0.446406
O O12 0.607641 0.157555 0.442149
O O13 0.438371 0.009984 0.639333
O O14 0.408503 0.320343 0.048102
O O15 0.219680 0.500277 0.614286
O O16 0.060713 0.714911 0.054531
O O17 0.000000 0.500000 0.500000
#
# Coordination Sequence:
#
# PCOD8011300 Si02
#       8
#     2   2   2   2   2   2   2   2
#     4  11  23  39  66  94 127 165 215 271 324 378
#     4  10  21  39  59  88 134 174 209 258 315 395
#     4  11  23  37  61  96 127 166 211 257 322 386
#     4  10  23  45  68  85 131 167 221 271 310 392
#     4  10  22  45  65  94 125 174 212 264 333 373
#     4  11  24  42  65  99 122 170 219 268 322 378
#     4   9  21  39  57  91 134 174 206 257 325 378
#     4  10  22  36  63  95 128 164 210 263 317 389
#
# _framework density 22.202345999999999
#
# number of rings (size 3 to 8) (size 9 to 14) (size 15 to 20)
#    0.000    1.750    1.250    1.875    7.000    1.000 
#    4.500    0.000    0.000    0.000    0.000    0.000 
#    0.000    0.000    0.000    0.000    0.000    0.000 
#
# Total GULP energy -198330.252097 kJ/mol
# GULP energy per Si atom -12395.640756 kJ/mol
# Density = 2.215181 g / cm^3
# Si number density = 22.202346 Si / 1000 Ang^3
#
#
#
# Elastic Constant Matrix: (Units=GPa)
#
#
# Indices 1 2 3 4 5 6 
#
# 1 58.8782 25.3349 22.1524 -6.4548 4.7508 15.4800
# 2 25.3349 97.0212 39.2181 -12.2049 -11.8509 8.2096
# 3 22.1524 39.2181 72.1915 -7.8144 2.9858 13.1442
# 4 -6.4548 -12.2049 -7.8144 42.4276 2.9247 1.3286
# 5 4.7508 -11.8509 2.9858 2.9247 33.7713 -5.1881
# 6 15.4800 8.2096 13.1442 1.3286 -5.1881 27.6416
#
#
#
# Elastic Compliance Matrix: (Units=1/GPa)
#
#
# Indices 1 2 3 4 5 6 
#
# 1 0.023993 -0.005019 -0.001747 0.002772 -0.007157 -0.012592
# 2 -0.005019 0.015495 -0.007542 0.001718 0.007130 0.003051
# 3 -0.001747 -0.007542 0.020299 0.001921 -0.005524 -0.007563
# 4 0.002772 0.001718 0.001921 0.025185 -0.002864 -0.004724
# 5 -0.007157 0.007130 -0.005524 -0.002864 0.035598 0.011336
# 6 -0.012592 0.003051 -0.007563 -0.004724 0.011336 0.048274
#
#
# Mechanical properties :
#
#
# Convention : Reuss Voigt Hill
#
# Bulk Modulus (GPa) = 32.08144 44.61131 38.34638
# Shear Modulus (GPa) = 24.05575 30.19381 27.12478
#
# Velocity S-wave (km/s) = 3.29519 3.69173 3.49909
# Velocity P-wave (km/s) = 5.38133 6.18939 5.79945
#
# Compressibility (1/GPa) = 0.03117067
#
# Stress axis : x y z
#
# Youngs Moduli (GPa) = 41.67860 64.53611 49.26374
#
# Poissons Ratio (x) = 0.32391 0.08607
# Poissons Ratio (y) = 0.20918 0.37155
# Poissons Ratio (z) = 0.07282 0.48674
#
# Static dielectric constant tensor:
#      x y z
#    x 3.646070 -0.294560 0.077860 
#    y -0.294560 3.887430 0.005830 
#    z 0.077860 0.005830 4.232510 
# 
# 
# High freq. dielectric constant tensor:
#      x y z
#    x 1.855420 -0.002490 0.010630 
#    y -0.002490 1.880190 -0.003690 
#    z 0.010630 -0.003690 1.877710 
# 
# From -- ./inp_files/215180.got.cif
#   From: 2010.06.25/outbox.cif.g09.slc.cpg/sg2_108_cif.got.tgz:215180.got - 2010.06.27 13:26:56.
