data_PCOD8011576
_publ_section_title
;
Structure prediction by ZEFSAII (Michael W. Deem and Ramdas Pophale) SiO2 
 PCOD8011576
Probable space group: P -1
;
_chemical_formula_sum "Si O2"
_cell_formula_units_Z 14
_cell_length_a 11.662032
_cell_length_b 15.268611
_cell_length_c 11.720287
_cell_angle_alpha 153.738068
_cell_angle_beta 140.586551
_cell_angle_gamma 44.515776
_cell_volume 584.772563
_symmetry_space_group_name_H-M "P -1"
_symmetry_group_IT_number 2
_symmetry_cell_setting 'triclinic'
loop_
_space_group_symop_operation_xyz
x,y,z
-x,-y,-z
loop_
_atom_site_type_symbol
_atom_site_label
_atom_site_fract_x
_atom_site_fract_y
_atom_site_fract_z
Si Si1 0.353819 0.591909 0.154114
Si Si2 0.462824 0.202515 0.277159
Si Si3 0.017454 0.414797 0.040204
Si Si4 0.103683 0.059450 0.829739
Si Si5 0.736208 0.091317 0.711574
Si Si6 0.549474 0.199003 0.910512
Si Si7 0.321679 0.674479 0.600132
O O1 0.402972 0.772730 0.485862
O O2 0.342948 0.690252 0.136138
O O3 0.509076 0.417307 0.081651
O O4 0.162552 0.504727 0.937333
O O5 0.510759 0.375081 0.421186
O O6 0.256912 0.200272 0.160969
O O7 0.500000 0.000000 0.000000
O O8 0.200546 0.494524 0.328151
O O9 0.036777 0.173420 0.792760
O O10 0.000000 0.500000 0.000000
O O11 0.945975 0.056857 0.799735
O O12 0.186176 0.834500 0.611515
O O13 0.706328 0.088847 0.822877
O O14 0.629537 0.920399 0.369913
O O15 0.614186 0.214529 0.108230
#
# Coordination Sequence:
#
# PCOD8011576 Si02
#       7
#     2   2   2   2   2   2   2
#     4  11  22  42  65  94 129 166 208 262 315 371
#     4  10  21  39  62  94 128 165 203 252 317 378
#     4  11  23  39  61  93 127 165 204 252 311 378
#     4  10  23  40  62  89 130 163 203 263 309 367
#     4  10  23  45  63  96 122 166 219 259 315 361
#     4  11  24  41  71  89 126 169 212 264 307 379
#     4  11  23  41  60  98 126 165 210 250 321 374
#
# _framework density 23.940933000000001
#
# number of rings (size 3 to 8) (size 9 to 14) (size 15 to 20)
#    0.000    1.429    1.429    3.857    2.000    2.286 
#    2.571    7.857    0.000    0.000    0.000    0.000 
#    0.000    0.000    0.000    0.000    0.000    0.000 
#
# Total GULP energy -173461.098999 kJ/mol
# GULP energy per Si atom -12390.078500 kJ/mol
# Density = 2.388644 g / cm^3
# Si number density = 23.940933 Si / 1000 Ang^3
#
#
#
# Elastic Constant Matrix: (Units=GPa)
#
#
# Indices 1 2 3 4 5 6 
#
# 1 130.9560 11.0539 58.8036 -25.5393 25.5603 3.5847
# 2 11.0539 52.8872 2.3512 -1.7476 9.3163 1.6942
# 3 58.8036 2.3512 111.1013 -13.5339 23.1681 -5.5014
# 4 -25.5393 -1.7476 -13.5339 34.5497 1.2075 2.8429
# 5 25.5603 9.3163 23.1681 1.2075 35.4053 -8.6403
# 6 3.5847 1.6942 -5.5014 2.8429 -8.6403 33.4778
#
#
#
# Elastic Compliance Matrix: (Units=1/GPa)
#
#
# Indices 1 2 3 4 5 6 
#
# 1 0.012994 -0.000720 -0.004452 0.008491 -0.007741 -0.004805
# 2 -0.000720 0.020242 0.001324 0.001436 -0.006328 -0.002485
# 3 -0.004452 0.001324 0.012703 0.001856 -0.005271 0.000979
# 4 0.008491 0.001436 0.001856 0.036928 -0.010578 -0.006543
# 5 -0.007741 -0.006328 -0.005271 -0.010578 0.042258 0.012088
# 6 -0.004805 -0.002485 0.000979 -0.006543 0.012088 0.034347
#
#
# Mechanical properties :
#
#
# Convention : Reuss Voigt Hill
#
# Bulk Modulus (GPa) = 26.14809 48.81799 37.48304
# Shear Modulus (GPa) = 27.79101 35.53563 31.66332
#
# Velocity S-wave (km/s) = 3.41077 3.85685 3.64065
# Velocity P-wave (km/s) = 5.14361 6.34578 5.77606
#
# Compressibility (1/GPa) = 0.03824370
#
# Stress axis : x y z
#
# Youngs Moduli (GPa) = 76.95719 49.40319 78.72306
#
# Poissons Ratio (x) = 0.03557 0.35046
# Poissons Ratio (y) = 0.05540 -0.10425
# Poissons Ratio (z) = 0.34260 -0.06542
#
# Static dielectric constant tensor:
#      x y z
#    x 4.400930 0.079270 0.726600 
#    y 0.079270 4.533620 0.188030 
#    z 0.726600 0.188030 4.671430 
# 
# 
# High freq. dielectric constant tensor:
#      x y z
#    x 1.941480 0.003480 0.038860 
#    y 0.003480 1.967050 0.015810 
#    z 0.038860 0.015810 1.947410 
# 
# From -- ./inp_files/263726.got.cif
#   From: 2010.06.25/outbox.cif.g09.slc.cpg/sg2_132_cif.got.tgz:263726.got - 2010.06.27 13:26:56.
