data_PCOD8011319
_publ_section_title
;
Structure prediction by ZEFSAII (Michael W. Deem and Ramdas Pophale) SiO2 
 PCOD8011319
Probable space group: P -1
;
_chemical_formula_sum "Si O2"
_cell_formula_units_Z 16
_cell_length_a 7.288759
_cell_length_b 21.381400
_cell_length_c 14.712140
_cell_angle_alpha 19.393848
_cell_angle_beta 91.019078
_cell_angle_gamma 91.557138
_cell_volume 760.851972
_symmetry_space_group_name_H-M "P -1"
_symmetry_group_IT_number 2
_symmetry_cell_setting 'triclinic'
loop_
_space_group_symop_operation_xyz
x,y,z
-x,-y,-z
loop_
_atom_site_type_symbol
_atom_site_label
_atom_site_fract_x
_atom_site_fract_y
_atom_site_fract_z
Si Si1 0.043693 0.632502 0.432948
Si Si2 0.383878 0.003671 0.809038
Si Si3 0.962032 0.218304 0.959200
Si Si4 0.001695 0.080995 0.488939
Si Si5 0.274076 0.590503 0.969964
Si Si6 0.246241 0.311964 0.514827
Si Si7 0.627963 0.737639 0.701704
Si Si8 0.474908 0.648525 0.376828
O O1 0.953057 0.736449 0.202177
O O2 0.264374 0.640855 0.421979
O O3 0.961904 0.418980 0.733901
O O4 0.956475 0.729610 0.387381
O O5 0.295313 0.116299 0.737005
O O6 0.469528 0.154589 0.531562
O O7 0.240462 0.867938 0.940171
O O8 0.527618 0.859046 0.050411
O O9 0.067912 0.071485 0.226035
O O10 0.214832 0.131547 0.434105
O O11 0.881968 0.262445 0.250574
O O12 0.000000 0.000000 0.500000
O O13 0.473864 0.696570 0.832932
O O14 0.231806 0.479444 0.213347
O O15 0.281242 0.453181 0.071274
O O16 0.392574 0.385418 0.490947
O O17 0.500000 0.500000 0.500000
#
# Coordination Sequence:
#
# PCOD8011319 Si02
#       8
#     2   2   2   2   2   2   2   2
#     4  10  21  39  60  83 118 153 186 232 286 340
#     4   9  20  39  61  85 113 147 192 240 282 335
#     4   9  19  37  57  83 114 150 187 225 284 341
#     4  11  22  36  59  88 115 146 190 238 284 337
#     4  10  22  39  60  83 113 154 192 232 283 338
#     4  11  22  38  59  86 117 148 191 238 280 336
#     4   9  21  42  60  80 114 152 191 236 284 334
#     4  11  23  38  60  86 115 153 189 229 287 344
#
# _framework density 21.029056000000001
#
# number of rings (size 3 to 8) (size 9 to 14) (size 15 to 20)
#    0.000    2.000    0.000    3.750    0.000    7.500 
#    0.000    8.750    0.000    0.000    0.000    0.000 
#    0.000    0.000    0.000    0.000    0.000    0.000 
#
# Total GULP energy -198273.495407 kJ/mol
# GULP energy per Si atom -12392.093463 kJ/mol
# Density = 2.098119 g / cm^3
# Si number density = 21.029056 Si / 1000 Ang^3
#
#
#
# Elastic Constant Matrix: (Units=GPa)
#
#
# Indices 1 2 3 4 5 6 
#
# 1 78.8838 34.5772 22.7946 9.1768 0.0114 -9.2986
# 2 34.5772 51.9947 21.3683 12.7140 3.4158 -6.4224
# 3 22.7946 21.3683 133.0241 19.6698 11.3972 -5.8731
# 4 9.1768 12.7140 19.6698 29.3968 8.2165 -4.2361
# 5 0.0114 3.4158 11.3972 8.2165 27.5180 -0.0573
# 6 -9.2986 -6.4224 -5.8731 -4.2361 -0.0573 33.4246
#
#
#
# Elastic Compliance Matrix: (Units=1/GPa)
#
#
# Indices 1 2 3 4 5 6 
#
# 1 0.018424 -0.011482 -0.001358 -0.000050 0.002001 0.002678
# 2 -0.011482 0.029605 -0.001515 -0.007832 -0.000701 0.001234
# 3 -0.001358 -0.001515 0.008812 -0.004145 -0.002223 0.000350
# 4 -0.000050 -0.007832 -0.004145 0.043543 -0.010305 0.003254
# 5 0.002001 -0.000701 -0.002223 -0.010305 0.040421 -0.001206
# 6 0.002678 0.001234 0.000350 0.003254 -0.001206 0.031372
#
#
# Mechanical properties :
#
#
# Convention : Reuss Voigt Hill
#
# Bulk Modulus (GPa) = 35.55055 46.82030 41.18542
# Shear Modulus (GPa) = 23.77948 30.41205 27.09576
#
# Velocity S-wave (km/s) = 3.36637 3.80701 3.59345
# Velocity P-wave (km/s) = 5.66146 6.45270 6.06998
#
# Compressibility (1/GPa) = 0.02812896
#
# Stress axis : x y z
#
# Youngs Moduli (GPa) = 54.27845 33.77819 113.47532
#
# Poissons Ratio (x) = 0.38785 0.15415
# Poissons Ratio (y) = 0.62323 0.17196
# Poissons Ratio (z) = 0.07373 0.05119
#
# Static dielectric constant tensor:
#      x y z
#    x 3.576340 -0.005430 0.015870 
#    y -0.005430 3.781920 0.178070 
#    z 0.015870 0.178070 4.338350 
# 
# 
# High freq. dielectric constant tensor:
#      x y z
#    x 1.801240 -0.003150 -0.001430 
#    y -0.003150 1.820860 0.003950 
#    z -0.001430 0.003950 1.846890 
# 
# From -- ./inp_files/507608.got.cif
#   From: 2010.06.25/outbox.cif.g09.slc.cpg/sg2_254_cif.got.tgz:507608.got - 2010.06.27 13:26:56.
