data_PCOD8011006
_publ_section_title
;
Structure prediction by ZEFSAII (Michael W. Deem and Ramdas Pophale) SiO2 
 PCOD8011006
Probable space group: P -1
;
_chemical_formula_sum "Si O2"
_cell_formula_units_Z 16
_cell_length_a 16.184492
_cell_length_b 11.661574
_cell_length_c 5.253173
_cell_angle_alpha 89.189212
_cell_angle_beta 107.005290
_cell_angle_gamma 129.933442
_cell_volume 706.344183
_symmetry_space_group_name_H-M "P -1"
_symmetry_group_IT_number 2
_symmetry_cell_setting 'triclinic'
loop_
_space_group_symop_operation_xyz
x,y,z
-x,-y,-z
loop_
_atom_site_type_symbol
_atom_site_label
_atom_site_fract_x
_atom_site_fract_y
_atom_site_fract_z
Si Si1 0.003319 0.870116 0.568183
Si Si2 0.690282 0.096657 0.755745
Si Si3 0.568086 0.434181 0.332558
Si Si4 0.558077 0.934673 0.123919
Si Si5 0.651532 0.329917 0.800606
Si Si6 0.231107 0.381477 0.848736
Si Si7 0.136896 0.926289 0.191973
Si Si8 0.323071 0.273027 0.241321
O O1 0.074377 0.869464 0.410066
O O2 0.871169 0.704728 0.447834
O O3 0.050697 0.889972 0.891832
O O4 0.000000 0.000000 0.500000
O O5 0.688925 0.232184 0.785192
O O6 0.821196 0.166259 0.828576
O O7 0.618596 0.998827 0.447787
O O8 0.644255 0.984297 0.965654
O O9 0.600706 0.343876 0.502581
O O10 0.636471 0.500076 0.130126
O O11 0.428924 0.315230 0.164781
O O12 0.615167 0.589360 0.509513
O O13 0.451016 0.751685 0.072610
O O14 0.500000 0.000000 0.000000
O O15 0.768468 0.502057 0.983659
O O16 0.223536 0.255351 0.000050
O O17 0.251429 0.107494 0.315078
#
# Coordination Sequence:
#
# PCOD8011006 Si02
#       8
#     2   2   2   2   2   2   2   2
#     4  12  26  47  72  95 130 176 236 278 330 391
#     4  11  24  43  65 101 138 175 226 269 331 397
#     4  10  22  39  63  97 136 170 212 266 348 405
#     4  10  21  38  65  96 137 180 217 262 323 399
#     4  10  23  37  64  96 133 179 217 265 331 408
#     4  11  24  40  66  93 131 176 222 271 339 391
#     4  12  26  44  72  98 131 175 228 284 330 383
#     4  10  22  39  63  99 130 167 217 279 338 400
#
# _framework density 22.651847
#
# number of rings (size 3 to 8) (size 9 to 14) (size 15 to 20)
#    0.000    1.250    1.250    4.500   10.500    0.000 
#    0.000    1.250    0.000    0.000    0.000    0.000 
#    0.000    0.000    0.000    0.000    0.000    0.000 
#
# Total GULP energy -198261.802816 kJ/mol
# GULP energy per Si atom -12391.362676 kJ/mol
# Density = 2.260029 g / cm^3
# Si number density = 22.651847 Si / 1000 Ang^3
#
#
#
# Elastic Constant Matrix: (Units=GPa)
#
#
# Indices 1 2 3 4 5 6 
#
# 1 98.5205 24.3156 4.5231 6.5524 -0.2529 -5.4655
# 2 24.3156 71.6786 13.8427 9.4978 3.9600 -9.8452
# 3 4.5231 13.8427 71.0621 4.6954 1.0305 -3.7249
# 4 6.5524 9.4978 4.6954 29.3593 13.5472 2.9120
# 5 -0.2529 3.9600 1.0305 13.5472 30.9006 -9.3059
# 6 -5.4655 -9.8452 -3.7249 2.9120 -9.3059 33.3883
#
#
#
# Elastic Compliance Matrix: (Units=1/GPa)
#
#
# Indices 1 2 3 4 5 6 
#
# 1 0.011253 -0.003392 0.000175 -0.002616 0.002179 0.001697
# 2 -0.003392 0.016949 -0.002460 -0.005766 0.001983 0.005224
# 3 0.000175 -0.002460 0.014757 -0.002363 0.001319 0.001524
# 4 -0.002616 -0.005766 -0.002363 0.049894 -0.025226 -0.013775
# 5 0.002179 0.001983 0.001319 -0.025226 0.048175 0.016716
# 6 0.001697 0.005224 0.001524 -0.013775 0.016716 0.037799
#
#
# Mechanical properties :
#
#
# Convention : Reuss Voigt Hill
#
# Bulk Modulus (GPa) = 31.64041 36.29156 33.96598
# Shear Modulus (GPa) = 24.91087 31.96829 28.43958
#
# Velocity S-wave (km/s) = 3.31981 3.76079 3.54716
# Velocity P-wave (km/s) = 5.35662 5.90883 5.63949
#
# Compressibility (1/GPa) = 0.03160516
#
# Stress axis : x y z
#
# Youngs Moduli (GPa) = 88.86548 59.00160 67.76397
#
# Poissons Ratio (x) = 0.20012 -0.01183
# Poissons Ratio (y) = 0.30141 0.16668
# Poissons Ratio (z) = -0.01552 0.14512
#
# Static dielectric constant tensor:
#      x y z
#    x 4.285790 -0.245410 0.172360 
#    y -0.245410 3.077940 0.912690 
#    z 0.172360 0.912690 3.207170 
# 
# 
# High freq. dielectric constant tensor:
#      x y z
#    x 1.894890 -0.008120 -0.006040 
#    y -0.008120 1.889450 0.000380 
#    z -0.006040 0.000380 1.894030 
# 
# From -- ./inp_files/95033.got.cif
#   From: 2010.06.25/outbox.cif.g09.slc.cpg/sg2_48_cif.got.tgz:95033.got - 2010.06.27 13:26:56.
