data_PCOD8011678
_publ_section_title
;
Structure prediction by ZEFSAII (Michael W. Deem and Ramdas Pophale) SiO2 
 PCOD8011678
Probable space group: P -1
;
_chemical_formula_sum "Si O2"
_cell_formula_units_Z 16
_cell_length_a 9.140878
_cell_length_b 20.096450
_cell_length_c 12.280815
_cell_angle_alpha 139.943181
_cell_angle_beta 30.879588
_cell_angle_gamma 137.548022
_cell_volume 722.412008
_symmetry_space_group_name_H-M "P -1"
_symmetry_group_IT_number 2
_symmetry_cell_setting 'triclinic'
loop_
_space_group_symop_operation_xyz
x,y,z
-x,-y,-z
loop_
_atom_site_type_symbol
_atom_site_label
_atom_site_fract_x
_atom_site_fract_y
_atom_site_fract_z
Si Si1 0.729183 0.454468 0.365323
Si Si2 0.506673 0.711903 0.506190
Si Si3 0.026229 0.597891 0.527796
Si Si4 0.165739 0.728432 0.069624
Si Si5 0.659372 0.756861 0.953505
Si Si6 0.689028 0.119385 0.019594
Si Si7 0.265889 0.087931 0.696376
Si Si8 0.887375 0.079690 0.248794
O O1 0.500000 0.500000 0.500000
O O2 0.563305 0.384260 0.482951
O O3 0.981898 0.553945 0.376656
O O4 0.884466 0.383919 0.101610
O O5 0.345837 0.676813 0.448085
O O6 0.392912 0.813198 0.744499
O O7 0.853094 0.750524 0.320245
O O8 0.000000 0.500000 0.500000
O O9 0.763671 0.653694 0.797426
O O10 0.334344 0.723125 0.068025
O O11 0.356495 0.826482 0.998404
O O12 0.887068 0.806503 0.771861
O O13 0.649304 0.834745 0.157195
O O14 0.034769 0.123492 0.811296
O O15 0.500000 0.000000 0.000000
O O16 0.557226 0.089024 0.441352
O O17 0.123674 0.966777 0.679225
O O18 0.000000 0.000000 0.000000
#
# Coordination Sequence:
#
# PCOD8011678 Si02
#       8
#     2   2   2   2   2   2   2   2
#     4  10  21  43  66  91 126 165 213 267 318 375
#     4  10  24  43  63  94 132 163 213 263 317 385
#     4  10  21  42  66  88 128 168 207 268 318 371
#     4  11  25  40  64  98 128 169 212 261 324 378
#     4  11  21  40  63  90 129 166 207 262 316 372
#     4  11  24  41  64  92 134 169 210 262 316 379
#     4  10  21  39  63  92 121 169 217 253 314 380
#     4   9  21  37  63  91 123 159 215 261 307 367
#
# _framework density 22.148025000000001
#
# number of rings (size 3 to 8) (size 9 to 14) (size 15 to 20)
#    0.000    1.750    2.500    0.750    1.750    6.500 
#    0.000    0.000    0.000    0.000    0.000    0.000 
#    0.000    0.000    0.000    0.000    0.000    0.000 
#
# Total GULP energy -198360.762123 kJ/mol
# GULP energy per Si atom -12397.547633 kJ/mol
# Density = 2.209761 g / cm^3
# Si number density = 22.148025 Si / 1000 Ang^3
#
#
#
# Elastic Constant Matrix: (Units=GPa)
#
#
# Indices 1 2 3 4 5 6 
#
# 1 130.7777 34.0945 40.3330 9.4357 -21.2619 18.5435
# 2 34.0945 79.1957 41.8287 16.2731 -3.5245 12.9152
# 3 40.3330 41.8287 132.7280 4.4412 -28.6941 6.9479
# 4 9.4357 16.2731 4.4412 35.0287 0.4901 -6.7471
# 5 -21.2619 -3.5245 -28.6941 0.4901 37.5577 0.7924
# 6 18.5435 12.9152 6.9479 -6.7471 0.7924 28.6943
#
#
#
# Elastic Compliance Matrix: (Units=1/GPa)
#
#
# Indices 1 2 3 4 5 6 
#
# 1 0.010461 -0.002089 -0.000965 -0.003039 0.005165 -0.006444
# 2 -0.002089 0.019542 -0.005480 -0.009361 -0.003240 -0.008231
# 3 -0.000965 -0.005480 0.011073 0.001402 0.007369 0.000535
# 4 -0.003039 -0.009361 0.001402 0.036353 -0.002307 0.014449
# 5 0.005165 -0.003240 0.007369 -0.002307 0.035015 -0.005173
# 6 -0.006444 -0.008231 0.000535 0.014449 -0.005173 0.046130
#
#
# Mechanical properties :
#
#
# Convention : Reuss Voigt Hill
#
# Bulk Modulus (GPa) = 41.65293 63.91266 52.78279
# Shear Modulus (GPa) = 27.22638 35.35250 31.28944
#
# Velocity S-wave (km/s) = 3.50993 3.99957 3.76272
# Velocity P-wave (km/s) = 5.93916 7.08861 6.53919
#
# Compressibility (1/GPa) = 0.02400792
#
# Stress axis : x y z
#
# Youngs Moduli (GPa) = 95.58948 51.17087 90.31148
#
# Poissons Ratio (x) = 0.10689 0.08717
# Poissons Ratio (y) = 0.19968 0.49493
# Poissons Ratio (z) = 0.09226 0.28043
#
# Static dielectric constant tensor:
#      x y z
#    x 4.178070 0.054050 -0.246610 
#    y 0.054050 4.279440 0.136920 
#    z -0.246610 0.136920 3.593830 
# 
# 
# High freq. dielectric constant tensor:
#      x y z
#    x 1.873940 -0.002150 -0.018440 
#    y -0.002150 1.865360 0.021070 
#    z -0.018440 0.021070 1.870570 
# 
# From -- ./inp_files/288633.got.cif
#   From: 2010.06.25/outbox.cif.g09.slc.cpg/sg2_145_cif.got.tgz:288633.got - 2010.06.27 13:26:56.
