data_PCOD8011355
_publ_section_title
;
Structure prediction by ZEFSAII (Michael W. Deem and Ramdas Pophale) SiO2 
 PCOD8011355
Probable space group: P -1
;
_chemical_formula_sum "Si O2"
_cell_formula_units_Z 14
_cell_length_a 13.467588
_cell_length_b 10.241337
_cell_length_c 9.117617
_cell_angle_alpha 95.344875
_cell_angle_beta 103.787354
_cell_angle_gamma 33.467707
_cell_volume 660.283866
_symmetry_space_group_name_H-M "P -1"
_symmetry_group_IT_number 2
_symmetry_cell_setting 'triclinic'
loop_
_space_group_symop_operation_xyz
x,y,z
-x,-y,-z
loop_
_atom_site_type_symbol
_atom_site_label
_atom_site_fract_x
_atom_site_fract_y
_atom_site_fract_z
Si Si1 0.459432 0.863075 0.439126
Si Si2 0.551694 0.599668 0.189663
Si Si3 0.662276 0.760918 0.249486
Si Si4 0.479369 0.218916 0.207851
Si Si5 0.063566 0.368454 0.237657
Si Si6 0.726533 0.160495 0.122614
Si Si7 0.940579 0.363289 0.903261
O O1 0.503107 0.677992 0.351082
O O2 0.591669 0.832771 0.403432
O O3 0.513825 0.782576 0.615166
O O4 0.240977 0.133266 0.370046
O O5 0.605106 0.684233 0.143318
O O6 0.723930 0.310745 0.203855
O O7 0.369658 0.735370 0.060320
O O8 0.884970 0.542022 0.298789
O O9 0.557103 0.994171 0.155539
O O10 0.608112 0.195292 0.191327
O O11 0.264564 0.468755 0.106097
O O12 0.083275 0.498030 0.211668
O O13 0.049536 0.297121 0.077861
O O14 0.940984 0.882080 0.154021
#
# Coordination Sequence:
#
# PCOD8011355 Si02
#       7
#     2   2   2   2   2   2   2
#     4  10  23  42  60  91 126 160 199 253 297 371
#     4   9  22  43  63  83 132 157 204 245 307 355
#     4  10  21  39  60  89 121 161 196 252 295 362
#     4  12  24  38  67  91 125 155 206 249 314 340
#     4  11  21  36  65  90 122 159 204 247 311 343
#     4  11  22  43  61  92 122 165 197 257 294 368
#     4  11  22  36  61  97 119 154 208 258 286 370
#
# _framework density 21.203002000000001
#
# number of rings (size 3 to 8) (size 9 to 14) (size 15 to 20)
#    0.857    0.571    4.286    1.286    2.000    3.429 
#    2.571    2.857    0.000    0.000    0.000    0.000 
#    0.000    0.000    0.000    0.000    0.000    0.000 
#
# Total GULP energy -173571.005760 kJ/mol
# GULP energy per Si atom -12397.928983 kJ/mol
# Density = 2.115474 g / cm^3
# Si number density = 21.203002 Si / 1000 Ang^3
#
#
#
# Elastic Constant Matrix: (Units=GPa)
#
#
# Indices 1 2 3 4 5 6 
#
# 1 75.6988 47.0223 -0.0086 8.4666 1.9569 5.3460
# 2 47.0223 173.3625 9.6614 3.0026 11.9358 6.3172
# 3 -0.0086 9.6614 39.1992 -1.4098 6.9657 7.6129
# 4 8.4666 3.0026 -1.4098 19.2466 -2.9575 2.8815
# 5 1.9569 11.9358 6.9657 -2.9575 19.4853 4.2252
# 6 5.3460 6.3172 7.6129 2.8815 4.2252 49.8150
#
#
#
# Elastic Compliance Matrix: (Units=1/GPa)
#
#
# Indices 1 2 3 4 5 6 
#
# 1 0.016775 -0.004454 0.001085 -0.006469 -0.000105 -0.001018
# 2 -0.004454 0.007283 -0.001158 0.000185 -0.003577 0.000024
# 3 0.001085 -0.001158 0.028039 0.000990 -0.008494 -0.003591
# 4 -0.006469 0.000185 0.000990 0.056857 0.009589 -0.003583
# 5 -0.000105 -0.003577 -0.008494 0.009589 0.058834 -0.003782
# 6 -0.001018 0.000024 -0.003591 -0.003583 -0.003782 0.021257
#
#
# Mechanical properties :
#
#
# Convention : Reuss Voigt Hill
#
# Bulk Modulus (GPa) = 23.23270 44.62341 33.92805
# Shear Modulus (GPa) = 23.53519 33.14840 28.34180
#
# Velocity S-wave (km/s) = 3.33527 3.95825 3.66004
# Velocity P-wave (km/s) = 5.08066 6.47934 5.82215
#
# Compressibility (1/GPa) = 0.04304278
#
# Stress axis : x y z
#
# Youngs Moduli (GPa) = 59.61125 137.30333 35.66472
#
# Poissons Ratio (x) = 0.61157 -0.03871
# Poissons Ratio (y) = 0.26552 0.04132
# Poissons Ratio (z) = -0.06470 0.15906
#
# Static dielectric constant tensor:
#      x y z
#    x 3.691370 0.103010 0.035000 
#    y 0.103010 4.008230 0.171400 
#    z 0.035000 0.171400 3.550860 
# 
# 
# High freq. dielectric constant tensor:
#      x y z
#    x 1.812980 -0.001020 -0.000510 
#    y -0.001020 1.844210 0.014360 
#    z -0.000510 0.014360 1.817210 
# 
# From -- ./inp_files/276855.got.cif
#   From: 2010.06.25/outbox.cif.g09.slc.cpg/sg2_139_cif.got.tgz:276855.got - 2010.06.27 13:26:56.
