data_PCOD8011123
_publ_section_title
;
Structure prediction by ZEFSAII (Michael W. Deem and Ramdas Pophale) SiO2 
 PCOD8011123
Probable space group: P -1
;
_chemical_formula_sum "Si O2"
_cell_formula_units_Z 16
_cell_length_a 8.028746
_cell_length_b 14.638100
_cell_length_c 8.454873
_cell_angle_alpha 52.199401
_cell_angle_beta 99.032905
_cell_angle_gamma 74.756756
_cell_volume 688.401353
_symmetry_space_group_name_H-M "P -1"
_symmetry_group_IT_number 2
_symmetry_cell_setting 'triclinic'
loop_
_space_group_symop_operation_xyz
x,y,z
-x,-y,-z
loop_
_atom_site_type_symbol
_atom_site_label
_atom_site_fract_x
_atom_site_fract_y
_atom_site_fract_z
Si Si1 0.603186 0.335232 0.525604
Si Si2 0.648186 0.897528 0.753820
Si Si3 0.717089 0.424265 0.150927
Si Si4 0.772297 0.469018 0.611414
Si Si5 0.720109 0.046238 0.859708
Si Si6 0.042860 0.815103 0.736052
Si Si7 0.803775 0.612485 0.155939
Si Si8 0.922579 0.995553 0.245106
O O1 0.726347 0.331661 0.395808
O O2 0.716741 0.356437 0.668294
O O3 0.382763 0.445750 0.369698
O O4 0.593588 0.200720 0.677273
O O5 0.855147 0.848464 0.767277
O O6 0.500000 0.000000 0.500000
O O7 0.613022 0.974737 0.832798
O O8 0.643157 0.761189 0.934898
O O9 0.803970 0.520747 0.109781
O O10 0.828139 0.339722 0.103241
O O11 0.500000 0.500000 0.000000
O O12 0.748397 0.566499 0.359137
O O13 0.984870 0.399769 0.785543
O O14 0.758783 0.001547 0.096310
O O15 0.913206 0.003990 0.838181
O O16 0.156055 0.880770 0.776528
O O17 0.992750 0.866784 0.495236
#
# Coordination Sequence:
#
# PCOD8011123 Si02
#       8
#     2   2   2   2   2   2   2   2
#     4  10  21  39  68 102 129 167 230 275 329 405
#     4  11  27  43  64  95 140 183 222 273 340 405
#     4  11  25  40  66  95 131 177 226 276 331 407
#     4   9  22  42  67  99 133 173 218 286 339 397
#     4  10  21  38  67  95 125 172 216 280 316 407
#     4  10  22  41  63  98 132 176 218 283 332 393
#     4  10  24  44  65  94 138 178 218 278 345 403
#     4   9  20  37  65  95 128 165 223 270 333 382
#
# _framework density 23.242255
#
# number of rings (size 3 to 8) (size 9 to 14) (size 15 to 20)
#    0.000    2.000    1.250    0.000    8.750    5.500 
#    0.000    1.250    0.000    0.000    0.000    0.000 
#    0.000    0.000    0.000    0.000    0.000    0.000 
#
# Total GULP energy -198311.028918 kJ/mol
# GULP energy per Si atom -12394.439307 kJ/mol
# Density = 2.318935 g / cm^3
# Si number density = 23.242255 Si / 1000 Ang^3
#
#
#
# Elastic Constant Matrix: (Units=GPa)
#
#
# Indices 1 2 3 4 5 6 
#
# 1 58.2702 22.8230 6.7787 -11.3618 10.8327 -0.4828
# 2 22.8230 140.0462 43.7203 -23.6722 8.6197 2.4311
# 3 6.7787 43.7203 114.7583 -11.6483 9.1628 11.5375
# 4 -11.3618 -23.6722 -11.6483 38.7788 0.7664 1.1408
# 5 10.8327 8.6197 9.1628 0.7664 29.5461 -1.1021
# 6 -0.4828 2.4311 11.5375 1.1408 -1.1021 26.6213
#
#
#
# Elastic Compliance Matrix: (Units=1/GPa)
#
#
# Indices 1 2 3 4 5 6 
#
# 1 0.020244 -0.002260 0.000762 0.004929 -0.007137 -0.000263
# 2 -0.002260 0.009158 -0.002872 0.004082 -0.001053 0.000149
# 3 0.000762 -0.002872 0.010645 0.001859 -0.002960 -0.004539
# 4 0.004929 0.004082 0.001859 0.030446 -0.004461 -0.002579
# 5 -0.007137 -0.001053 -0.002960 -0.004461 0.037915 0.003010
# 6 -0.000263 0.000149 -0.004539 -0.002579 0.003010 0.039748
#
#
# Mechanical properties :
#
#
# Convention : Reuss Voigt Hill
#
# Bulk Modulus (GPa) = 31.94291 51.07984 41.51138
# Shear Modulus (GPa) = 29.88108 34.97274 32.42691
#
# Velocity S-wave (km/s) = 3.58947 3.88326 3.73925
# Velocity P-wave (km/s) = 5.56348 6.49085 6.04498
#
# Compressibility (1/GPa) = 0.03130585
#
# Stress axis : x y z
#
# Youngs Moduli (GPa) = 49.39817 109.19992 93.94452
#
# Poissons Ratio (x) = 0.24678 -0.07157
# Poissons Ratio (y) = 0.11163 0.26980
# Poissons Ratio (z) = -0.03763 0.31361
#
# Static dielectric constant tensor:
#      x y z
#    x 5.095430 -0.447890 -0.881530 
#    y -0.447890 5.254120 0.420060 
#    z -0.881530 0.420060 4.947920 
# 
# 
# High freq. dielectric constant tensor:
#      x y z
#    x 1.895290 -0.003730 -0.004110 
#    y -0.003730 1.933230 0.002120 
#    z -0.004110 0.002120 1.921920 
# 
# From -- ./inp_files/205653.got.cif
#   From: 2010.06.25/outbox.cif.g09.slc.cpg/sg2_103_cif.got.tgz:205653.got - 2010.06.27 13:26:56.
