data_PCOD8011980
_publ_section_title
;
Structure prediction by ZEFSAII (Michael W. Deem and Ramdas Pophale) SiO2 
 PCOD8011980
Probable space group: P -1
;
_chemical_formula_sum "Si O2"
_cell_formula_units_Z 16
_cell_length_a 11.571698
_cell_length_b 14.479203
_cell_length_c 9.258193
_cell_angle_alpha 41.140309
_cell_angle_beta 76.133374
_cell_angle_gamma 50.349581
_cell_volume 691.232350
_symmetry_space_group_name_H-M "P -1"
_symmetry_group_IT_number 2
_symmetry_cell_setting 'triclinic'
loop_
_space_group_symop_operation_xyz
x,y,z
-x,-y,-z
loop_
_atom_site_type_symbol
_atom_site_label
_atom_site_fract_x
_atom_site_fract_y
_atom_site_fract_z
Si Si1 0.278135 0.268802 0.665822
Si Si2 0.212421 0.736991 0.013061
Si Si3 0.154258 0.770876 0.681914
Si Si4 0.585501 0.385031 0.439123
Si Si5 0.519907 0.724693 0.177691
Si Si6 0.390999 0.049360 0.613271
Si Si7 0.928009 0.836513 0.454330
Si Si8 0.012743 0.272457 0.753778
O O1 0.387032 0.230866 0.812844
O O2 0.387544 0.170187 0.599497
O O3 0.118702 0.502544 0.409464
O O4 0.205870 0.171074 0.836610
O O5 0.382168 0.551778 0.267962
O O6 0.034741 0.827691 0.026511
O O7 0.238730 0.647243 0.950895
O O8 0.184370 0.926602 0.792300
O O9 0.296574 0.738553 0.589313
O O10 0.075346 0.711580 0.679448
O O11 0.000000 0.000000 0.500000
O O12 0.635336 0.494703 0.363175
O O13 0.621616 0.229620 0.727558
O O14 0.450261 0.853277 0.901013
O O15 0.200636 0.183197 0.451950
O O16 0.500000 0.000000 0.500000
O O17 0.020778 0.731652 0.398527
#
# Coordination Sequence:
#
# PCOD8011980 Si02
#       8
#     2   2   2   2   2   2   2   2
#     4  10  22  40  62  94 130 174 222 260 324 392
#     4  11  21  40  67 101 129 173 215 277 333 380
#     4  10  24  38  60  96 135 169 205 264 334 392
#     4  11  23  41  71 100 131 167 224 273 330 387
#     4  11  23  42  68  98 126 176 221 275 322 387
#     4  11  25  42  65  95 134 175 218 271 328 388
#     4  10  22  42  63  95 135 169 219 274 330 387
#     4  10  21  39  65  93 130 172 218 272 321 393
#
# _framework density 23.147064
#
# number of rings (size 3 to 8) (size 9 to 14) (size 15 to 20)
#    0.000    1.500    2.500    1.875    1.750    8.000 
#    0.000    0.000    0.000    6.000    0.000    0.000 
#    0.000    0.000    0.000    0.000    0.000    0.000 
#
# Total GULP energy -198244.188085 kJ/mol
# GULP energy per Si atom -12390.261755 kJ/mol
# Density = 2.309438 g / cm^3
# Si number density = 23.147064 Si / 1000 Ang^3
#
#
#
# Elastic Constant Matrix: (Units=GPa)
#
#
# Indices 1 2 3 4 5 6 
#
# 1 133.8143 51.4944 29.7516 27.5114 4.4210 9.8619
# 2 51.4944 152.8209 43.5562 41.6416 -8.3380 -6.5997
# 3 29.7516 43.5562 73.1342 25.9410 -5.0767 4.8305
# 4 27.5114 41.6416 25.9410 38.6611 -0.0536 -6.6497
# 5 4.4210 -8.3380 -5.0767 -0.0536 20.8983 4.7866
# 6 9.8619 -6.5997 4.8305 -6.6497 4.7866 41.6854
#
#
#
# Elastic Compliance Matrix: (Units=1/GPa)
#
#
# Indices 1 2 3 4 5 6 
#
# 1 0.009714 -0.001974 -0.001152 -0.004518 -0.002467 -0.002915
# 2 -0.001974 0.010274 -0.002240 -0.008044 0.003807 0.000633
# 3 -0.001152 -0.002240 0.020082 -0.011057 0.005295 -0.004781
# 4 -0.004518 -0.008044 -0.011057 0.046760 -0.006958 0.009335
# 5 -0.002467 0.003807 0.005295 -0.006958 0.052668 -0.006585
# 6 -0.002915 0.000633 -0.004781 0.009335 -0.006585 0.027578
#
#
# Mechanical properties :
#
#
# Convention : Reuss Voigt Hill
#
# Bulk Modulus (GPa) = 34.08691 67.70820 50.89756
# Shear Modulus (GPa) = 26.65414 35.91344 31.28379
#
# Velocity S-wave (km/s) = 3.39708 3.94322 3.68030
# Velocity P-wave (km/s) = 5.49045 7.07438 6.33214
#
# Compressibility (1/GPa) = 0.02933677
#
# Stress axis : x y z
#
# Youngs Moduli (GPa) = 102.94341 97.32988 49.79708
#
# Poissons Ratio (x) = 0.19216 0.05738
# Poissons Ratio (y) = 0.20324 0.11155
# Poissons Ratio (z) = 0.11861 0.21802
#
# Static dielectric constant tensor:
#      x y z
#    x 4.620320 0.229120 0.116840 
#    y 0.229120 4.442270 0.323910 
#    z 0.116840 0.323910 4.018500 
# 
# 
# High freq. dielectric constant tensor:
#      x y z
#    x 1.926550 0.008060 0.003910 
#    y 0.008060 1.926640 0.007470 
#    z 0.003910 0.007470 1.882130 
# 
# From -- ./inp_files/271503.got.cif
#   From: 2010.06.25/outbox.cif.g09.slc.cpg/sg2_136_cif.got.tgz:271503.got - 2010.06.27 13:26:56.
