data_PCOD8011740
_publ_section_title
;
Structure prediction by ZEFSAII (Michael W. Deem and Ramdas Pophale) SiO2 
 PCOD8011740
Probable space group: P -1
;
_chemical_formula_sum "Si O2"
_cell_formula_units_Z 16
_cell_length_a 13.213099
_cell_length_b 8.661370
_cell_length_c 9.572531
_cell_angle_alpha 118.458154
_cell_angle_beta 55.131008
_cell_angle_gamma 125.062532
_cell_volume 717.602391
_symmetry_space_group_name_H-M "P -1"
_symmetry_group_IT_number 2
_symmetry_cell_setting 'triclinic'
loop_
_space_group_symop_operation_xyz
x,y,z
-x,-y,-z
loop_
_atom_site_type_symbol
_atom_site_label
_atom_site_fract_x
_atom_site_fract_y
_atom_site_fract_z
Si Si1 0.414940 0.614318 0.066229
Si Si2 0.042820 0.009153 0.773751
Si Si3 0.117922 0.547118 0.633372
Si Si4 0.266477 0.337468 0.584894
Si Si5 0.528542 0.319648 0.261835
Si Si6 0.179993 0.940508 0.891563
Si Si7 0.876025 0.562093 0.718750
Si Si8 0.473365 0.026207 0.695996
O O1 0.260423 0.452903 0.106745
O O2 0.413655 0.773831 0.247519
O O3 0.500000 0.500000 0.000000
O O4 0.459703 0.720535 0.927470
O O5 0.162425 0.123388 0.620301
O O6 0.972620 0.782886 0.694333
O O7 0.924532 0.091010 0.909236
O O8 0.124919 0.048942 0.871409
O O9 0.165682 0.400672 0.606106
O O10 0.187666 0.747809 0.745306
O O11 0.161344 0.569754 0.446790
O O12 0.954717 0.483660 0.734313
O O13 0.384345 0.332189 0.391485
O O14 0.343199 0.480524 0.713551
O O15 0.527722 0.153271 0.293075
O O16 0.338491 0.063410 0.851350
O O17 0.500000 0.000000 0.500000
#
# Coordination Sequence:
#
# PCOD8011740 Si02
#       8
#     2   2   2   2   2   2   2   2
#     4  12  27  44  74 103 145 184 226 292 349 409
#     4  10  23  39  66  95 137 172 228 284 334 417
#     4  10  21  41  66  92 135 174 226 283 335 416
#     4  11  24  43  69  99 136 185 228 290 351 398
#     4  11  27  44  68 105 145 175 242 285 346 425
#     4  10  21  39  63  98 127 175 231 270 340 409
#     4  10  23  43  65 100 133 179 228 275 349 410
#     4  12  25  45  74 101 140 187 229 287 350 418
#
# _framework density 22.296468999999998
#
# number of rings (size 3 to 8) (size 9 to 14) (size 15 to 20)
#    0.000    1.250    1.250    3.375   10.500    4.000 
#    0.000    1.250    0.000    0.000    0.000    0.000 
#    0.000    0.000    0.000    0.000    0.000    0.000 
#
# Total GULP energy -198280.876126 kJ/mol
# GULP energy per Si atom -12392.554758 kJ/mol
# Density = 2.224572 g / cm^3
# Si number density = 22.296469 Si / 1000 Ang^3
#
#
#
# Elastic Constant Matrix: (Units=GPa)
#
#
# Indices 1 2 3 4 5 6 
#
# 1 142.1206 46.4821 56.0806 -16.9830 -27.2258 -8.7769
# 2 46.4821 105.3109 51.0858 -8.2663 -9.5738 -1.3381
# 3 56.0806 51.0858 96.1016 -0.2275 -0.8196 4.4767
# 4 -16.9830 -8.2663 -0.2275 33.0910 3.5802 -2.2308
# 5 -27.2258 -9.5738 -0.8196 3.5802 41.3900 -2.3674
# 6 -8.7769 -1.3381 4.4767 -2.2308 -2.3674 33.5882
#
#
#
# Elastic Compliance Matrix: (Units=1/GPa)
#
#
# Indices 1 2 3 4 5 6 
#
# 1 0.012578 -0.000946 -0.006996 0.005680 0.007717 0.005103
# 2 -0.000946 0.013617 -0.006732 0.002730 0.002246 0.001532
# 3 -0.006996 -0.006732 0.018252 -0.004887 -0.005675 -0.005253
# 4 0.005680 0.002730 -0.004887 0.033921 0.001601 0.004610
# 5 0.007717 0.002246 -0.005675 0.001601 0.029795 0.005069
# 6 0.005103 0.001532 -0.005253 0.004610 0.005069 0.032530
#
#
# Mechanical properties :
#
#
# Convention : Reuss Voigt Hill
#
# Bulk Modulus (GPa) = 66.22989 72.31447 69.27218
# Shear Modulus (GPa) = 28.55929 34.27281 31.41605
#
# Velocity S-wave (km/s) = 3.58283 3.92489 3.75776
# Velocity P-wave (km/s) = 6.84721 7.28308 7.06851
#
# Compressibility (1/GPa) = 0.01509892
#
# Stress axis : x y z
#
# Youngs Moduli (GPa) = 79.50100 73.43811 54.78984
#
# Poissons Ratio (x) = 0.06947 0.38330
# Poissons Ratio (y) = 0.07521 0.36886
# Poissons Ratio (z) = 0.55617 0.49440
#
# Static dielectric constant tensor:
#      x y z
#    x 4.316700 0.219790 -0.167810 
#    y 0.219790 3.829540 0.070760 
#    z -0.167810 0.070760 4.043120 
# 
# 
# High freq. dielectric constant tensor:
#      x y z
#    x 1.894640 0.011210 -0.018570 
#    y 0.011210 1.868500 0.009180 
#    z -0.018570 0.009180 1.874150 
# 
# From -- ./inp_files/244908.got.cif
#   From: 2010.06.25/outbox.cif.g09.slc.cpg/sg2_123_cif.got.tgz:244908.got - 2010.06.27 13:26:56.
