data_PCOD8011131
_publ_section_title
;
Structure prediction by ZEFSAII (Michael W. Deem and Ramdas Pophale) SiO2 
 PCOD8011131
Probable space group: P -1
;
_chemical_formula_sum "Si O2"
_cell_formula_units_Z 16
_cell_length_a 26.815177
_cell_length_b 18.066587
_cell_length_c 15.200978
_cell_angle_alpha 152.090052
_cell_angle_beta 17.330954
_cell_angle_gamma 159.824358
_cell_volume 751.141032
_symmetry_space_group_name_H-M "P -1"
_symmetry_group_IT_number 2
_symmetry_cell_setting 'triclinic'
loop_
_space_group_symop_operation_xyz
x,y,z
-x,-y,-z
loop_
_atom_site_type_symbol
_atom_site_label
_atom_site_fract_x
_atom_site_fract_y
_atom_site_fract_z
Si Si1 0.166729 0.682557 0.230263
Si Si2 0.478166 0.011345 0.905864
Si Si3 0.763045 0.756351 0.640959
Si Si4 0.603799 0.424268 0.690859
Si Si5 0.663697 0.993701 0.403217
Si Si6 0.668710 0.322608 0.649812
Si Si7 0.594688 0.673081 0.652543
Si Si8 0.179720 0.335110 0.891903
O O1 0.293294 0.851929 0.275428
O O2 0.894108 0.536854 0.544608
O O3 0.220061 0.530794 0.983973
O O4 0.259023 0.807601 0.113642
O O5 0.509293 0.924770 0.676289
O O6 0.435728 0.161698 0.102516
O O7 0.788066 0.617551 0.515396
O O8 0.706541 0.664087 0.540197
O O9 0.555957 0.731281 0.997478
O O10 0.000000 0.000000 0.500000
O O11 0.711531 0.370313 0.522517
O O12 0.409519 0.213888 0.739313
O O13 0.500000 0.500000 0.000000
O O14 0.641402 0.120254 0.503070
O O15 0.924147 0.143942 0.155271
O O16 0.350829 0.432585 0.789466
O O17 0.761834 0.760026 0.378891
#
# Coordination Sequence:
#
# PCOD8011131 Si02
#       8
#     2   2   2   2   2   2   2   2
#     4   9  21  39  64  95 131 162 201 261 318 375
#     4  10  21  38  67  97 127 161 209 256 317 376
#     4  11  25  41  65  89 124 172 215 257 305 378
#     4  10  25  43  60  87 127 164 212 259 314 364
#     4  11  22  41  69  97 121 162 217 263 313 379
#     4  10  22  42  66  90 124 168 210 259 317 364
#     4  10  21  40  62  91 130 166 209 246 326 363
#     4   9  22  38  66  92 128 166 199 263 313 384
#
# _framework density 21.300927000000001
#
# number of rings (size 3 to 8) (size 9 to 14) (size 15 to 20)
#    0.000    2.000    1.250    0.375    8.750    2.500 
#    0.000    1.875    0.000    0.000    0.000    0.000 
#    0.000    0.000    0.000    0.000    0.000    0.000 
#
# Total GULP energy -198390.855394 kJ/mol
# GULP energy per Si atom -12399.428462 kJ/mol
# Density = 2.125245 g / cm^3
# Si number density = 21.300927 Si / 1000 Ang^3
#
#
#
# Elastic Constant Matrix: (Units=GPa)
#
#
# Indices 1 2 3 4 5 6 
#
# 1 135.2434 49.0156 28.0175 -8.1894 11.6228 2.2104
# 2 49.0156 111.8011 34.7976 -13.7056 12.4800 5.8232
# 3 28.0175 34.7976 84.2646 -8.7850 2.7933 11.9702
# 4 -8.1894 -13.7056 -8.7850 32.8063 10.6423 8.2878
# 5 11.6228 12.4800 2.7933 10.6423 26.6388 0.1617
# 6 2.2104 5.8232 11.9702 8.2878 0.1617 30.0741
#
#
#
# Elastic Compliance Matrix: (Units=1/GPa)
#
#
# Indices 1 2 3 4 5 6 
#
# 1 0.009161 -0.003003 -0.001555 0.001582 -0.003060 0.000108
# 2 -0.003003 0.013012 -0.002978 0.007000 -0.007252 -0.003004
# 3 -0.001555 -0.002978 0.015044 0.004444 -0.001240 -0.006515
# 4 0.001582 0.007000 0.004444 0.046438 -0.022891 -0.015915
# 5 -0.003060 -0.007252 -0.001240 -0.022891 0.051497 0.008154
# 6 0.000108 -0.003004 -0.006515 -0.015915 0.008154 0.040760
#
#
# Mechanical properties :
#
#
# Convention : Reuss Voigt Hill
#
# Bulk Modulus (GPa) = 45.15533 61.66341 53.40937
# Shear Modulus (GPa) = 25.20588 32.53576 28.87082
#
# Velocity S-wave (km/s) = 3.44368 3.91248 3.68554
# Velocity P-wave (km/s) = 6.08742 7.03005 6.57565
#
# Compressibility (1/GPa) = 0.02214578
#
# Stress axis : x y z
#
# Youngs Moduli (GPa) = 109.15280 76.85263 66.47076
#
# Poissons Ratio (x) = 0.23076 0.10337
# Poissons Ratio (y) = 0.32775 0.19796
# Poissons Ratio (z) = 0.16975 0.22887
#
# Static dielectric constant tensor:
#      x y z
#    x 4.296130 -0.149590 -0.073430 
#    y -0.149590 3.819790 -0.050470 
#    z -0.073430 -0.050470 3.626850 
# 
# 
# High freq. dielectric constant tensor:
#      x y z
#    x 1.845270 0.000490 0.000580 
#    y 0.000490 1.831820 -0.006160 
#    z 0.000580 -0.006160 1.817260 
# 
# From -- ./inp_files/222427.got.cif
#   From: 2010.06.25/outbox.cif.g09.slc.cpg/sg2_112_cif.got.tgz:222427.got - 2010.06.27 13:26:56.
