data_PCOD8011757
_publ_section_title
;
Structure prediction by ZEFSAII (Michael W. Deem and Ramdas Pophale) SiO2 
 PCOD8011757
Probable space group: P -1
;
_chemical_formula_sum "Si O2"
_cell_formula_units_Z 16
_cell_length_a 24.837240
_cell_length_b 8.682175
_cell_length_c 9.082086
_cell_angle_alpha 46.988686
_cell_angle_beta 31.637296
_cell_angle_gamma 47.967455
_cell_volume 730.776773
_symmetry_space_group_name_H-M "P -1"
_symmetry_group_IT_number 2
_symmetry_cell_setting 'triclinic'
loop_
_space_group_symop_operation_xyz
x,y,z
-x,-y,-z
loop_
_atom_site_type_symbol
_atom_site_label
_atom_site_fract_x
_atom_site_fract_y
_atom_site_fract_z
Si Si1 0.329193 0.340976 0.348327
Si Si2 0.993392 0.552877 0.254695
Si Si3 0.166242 0.698380 0.612372
Si Si4 0.004271 0.866082 0.294406
Si Si5 0.500085 0.565651 0.287778
Si Si6 0.322069 0.832845 0.356056
Si Si7 0.495611 0.790657 0.733860
Si Si8 0.180124 0.130865 0.688669
O O1 0.250531 0.581531 0.370129
O O2 0.396835 0.305436 0.364857
O O3 0.257112 0.163826 0.622202
O O4 0.406111 0.312652 0.044099
O O5 0.993212 0.317634 0.469683
O O6 0.890120 0.633239 0.343888
O O7 0.997030 0.749878 0.231192
O O8 0.093399 0.532355 0.929023
O O9 0.234217 0.707490 0.594433
O O10 0.097943 0.936534 0.568828
O O11 0.109903 0.957715 0.002927
O O12 0.500000 0.500000 0.500000
O O13 0.385492 0.715957 0.425784
O O14 0.522676 0.377518 0.235603
O O15 0.256033 0.063665 0.414867
O O16 0.397992 0.854642 0.030345
O O17 0.500000 0.000000 0.500000
#
# Coordination Sequence:
#
# PCOD8011757 Si02
#       8
#     2   2   2   2   2   2   2   2
#     4  11  25  45  66  95 141 178 218 277 341 393
#     4  10  21  39  64 101 132 172 226 279 325 397
#     4  11  19  43  68  92 129 188 213 270 335 397
#     4  10  21  39  65 100 137 167 226 279 330 394
#     4  11  25  44  67 100 132 171 226 280 328 402
#     4  11  21  43  70  89 137 180 218 271 334 393
#     4  11  25  44  66  98 135 173 225 275 334 403
#     4  11  23  41  66  99 134 179 222 276 332 393
#
# _framework density 21.894511000000001
#
# number of rings (size 3 to 8) (size 9 to 14) (size 15 to 20)
#    0.000    1.250    5.000    1.500    3.500    5.000 
#    0.000    1.250    0.000    0.000    0.000    0.000 
#    0.000    0.000    0.000    0.000    0.000    0.000 
#
# Total GULP energy -198253.260587 kJ/mol
# GULP energy per Si atom -12390.828787 kJ/mol
# Density = 2.184468 g / cm^3
# Si number density = 21.894511 Si / 1000 Ang^3
#
#
#
# Elastic Constant Matrix: (Units=GPa)
#
#
# Indices 1 2 3 4 5 6 
#
# 1 109.0130 28.6593 70.4241 -2.3646 -8.5168 -6.3731
# 2 28.6593 97.7059 72.6609 2.2635 -8.9629 -18.7014
# 3 70.4241 72.6609 110.9020 1.7106 -9.6501 -22.0096
# 4 -2.3646 2.2635 1.7106 43.1994 -1.7092 1.9347
# 5 -8.5168 -8.9629 -9.6501 -1.7092 38.9904 -7.2224
# 6 -6.3731 -18.7014 -22.0096 1.9347 -7.2224 29.9903
#
#
#
# Elastic Compliance Matrix: (Units=1/GPa)
#
#
# Indices 1 2 3 4 5 6 
#
# 1 0.017739 0.005824 -0.015892 0.001507 0.000564 -0.004223
# 2 0.005824 0.022388 -0.017548 -0.000189 0.002616 0.002962
# 3 -0.015892 -0.017548 0.032951 -0.001629 0.002539 0.010579
# 4 0.001507 -0.000189 -0.001629 0.023431 0.000467 -0.002392
# 5 0.000564 0.002616 0.002539 0.000467 0.028977 0.010562
# 6 -0.004223 0.002962 0.010579 -0.002392 0.010562 0.044756
#
#
# Mechanical properties :
#
#
# Convention : Reuss Voigt Hill
#
# Bulk Modulus (GPa) = 56.03753 73.45662 64.74707
# Shear Modulus (GPa) = 21.60556 32.16113 26.88334
#
# Velocity S-wave (km/s) = 3.14475 3.83680 3.50788
# Velocity P-wave (km/s) = 6.23184 7.29734 6.78553
#
# Compressibility (1/GPa) = 0.01784518
#
# Stress axis : x y z
#
# Youngs Moduli (GPa) = 56.37418 44.66777 30.34782
#
# Poissons Ratio (x) = -0.26014 0.48230
# Poissons Ratio (y) = -0.32832 0.53254
# Poissons Ratio (z) = 0.89592 0.78382
#
# Static dielectric constant tensor:
#      x y z
#    x 3.979990 0.031960 -0.273510 
#    y 0.031960 3.935030 0.327560 
#    z -0.273510 0.327560 3.949800 
# 
# 
# High freq. dielectric constant tensor:
#      x y z
#    x 1.857580 0.006570 -0.025010 
#    y 0.006570 1.865140 0.018200 
#    z -0.025010 0.018200 1.862280 
# 
# From -- ./inp_files/338097.got.cif
#   From: 2010.06.25/outbox.cif.g09.slc.cpg/sg2_170_cif.got.tgz:338097.got - 2010.06.27 13:26:56.
