data_PCOD8011227
_publ_section_title
;
Structure prediction by ZEFSAII (Michael W. Deem and Ramdas Pophale) SiO2 
 PCOD8011227
Probable space group: P -1
;
_chemical_formula_sum "Si O2"
_cell_formula_units_Z 12
_cell_length_a 7.199845
_cell_length_b 8.569117
_cell_length_c 8.687580
_cell_angle_alpha 96.608618
_cell_angle_beta 97.551921
_cell_angle_gamma 112.531579
_cell_volume 482.706363
_symmetry_space_group_name_H-M "P -1"
_symmetry_group_IT_number 2
_symmetry_cell_setting 'triclinic'
loop_
_space_group_symop_operation_xyz
x,y,z
-x,-y,-z
loop_
_atom_site_type_symbol
_atom_site_label
_atom_site_fract_x
_atom_site_fract_y
_atom_site_fract_z
Si Si1 0.514137 0.822037 0.000116
Si Si2 0.361742 0.266149 0.695212
Si Si3 0.119779 0.189400 0.095499
Si Si4 0.173041 0.466600 0.880201
Si Si5 0.951887 0.746525 0.563588
Si Si6 0.798953 0.379093 0.605878
O O1 0.646851 0.853751 0.175412
O O2 0.641623 0.783338 0.870840
O O3 0.291856 0.663955 0.972011
O O4 0.500000 0.000000 0.000000
O O5 0.333591 0.429835 0.784187
O O6 0.171783 0.169180 0.546440
O O7 0.572552 0.310142 0.637112
O O8 0.027423 0.188934 0.253619
O O9 0.101826 0.338973 0.004945
O O10 0.000000 0.000000 0.000000
O O11 0.965439 0.442820 0.768104
O O12 0.821042 0.539881 0.519374
O O13 0.169026 0.769885 0.510516
#
# Coordination Sequence:
#
# PCOD8011227 Si02
#       6
#     2   2   2   2   2   2
#     4  11  25  44  69 101 137 180 233 283 335 403
#     4  10  21  43  68  98 136 179 224 280 346 401
#     4  11  25  45  71 101 139 179 225 285 339 407
#     4  10  23  44  70 100 136 180 231 280 338 401
#     4  10  22  40  65 105 135 176 223 281 344 409
#     4  10  21  38  75 101 131 179 229 277 341 412
#
# _framework density 24.859833999999999
#
# number of rings (size 3 to 8) (size 9 to 14) (size 15 to 20)
#    0.000    1.667    0.000    4.500    4.667    4.000 
#    0.000   10.000    0.000    0.000    0.000    0.000 
#    0.000    0.000    0.000    0.000    0.000    0.000 
#
# Total GULP energy -148704.740466 kJ/mol
# GULP energy per Si atom -12392.061705 kJ/mol
# Density = 2.480325 g / cm^3
# Si number density = 24.859834 Si / 1000 Ang^3
#
#
#
# Elastic Constant Matrix: (Units=GPa)
#
#
# Indices 1 2 3 4 5 6 
#
# 1 151.9973 3.1520 54.1831 0.2534 -32.1398 2.0252
# 2 3.1520 97.6926 37.7211 4.1817 6.9981 2.2746
# 3 54.1831 37.7211 155.0201 0.4818 -16.7431 -7.8645
# 4 0.2534 4.1817 0.4818 24.8025 -8.7551 8.8105
# 5 -32.1398 6.9981 -16.7431 -8.7551 44.0900 -5.3723
# 6 2.0252 2.2746 -7.8645 8.8105 -5.3723 27.7253
#
#
#
# Elastic Compliance Matrix: (Units=1/GPa)
#
#
# Indices 1 2 3 4 5 6 
#
# 1 0.008685 0.000218 -0.002535 0.002278 0.005665 -0.000997
# 2 0.000218 0.012013 -0.003501 -0.002638 -0.003832 -0.001899
# 3 -0.002535 -0.003501 0.008619 0.000110 0.002411 0.003349
# 4 0.002278 -0.002638 0.000110 0.049167 0.010232 -0.013560
# 5 0.005665 -0.003832 0.002411 0.010232 0.030767 0.003295
# 6 -0.000997 -0.001899 0.003349 -0.013560 0.003295 0.042195
#
#
# Mechanical properties :
#
#
# Convention : Reuss Voigt Hill
#
# Bulk Modulus (GPa) = 56.55688 66.09138 61.32413
# Shear Modulus (GPa) = 29.59020 39.96713 34.77867
#
# Velocity S-wave (km/s) = 3.45379 4.01396 3.74437
# Velocity P-wave (km/s) = 6.22130 6.93728 6.58902
#
# Compressibility (1/GPa) = 0.01768131
#
# Stress axis : x y z
#
# Youngs Moduli (GPa) = 115.13531 83.24456 116.02635
#
# Poissons Ratio (x) = -0.01818 0.29410
# Poissons Ratio (y) = -0.02515 0.40626
# Poissons Ratio (z) = 0.29184 0.29148
#
# Static dielectric constant tensor:
#      x y z
#    x 5.118900 -0.215030 -0.282850 
#    y -0.215030 4.252620 -0.311420 
#    z -0.282850 -0.311420 4.758630 
# 
# 
# High freq. dielectric constant tensor:
#      x y z
#    x 2.009740 -0.016230 -0.016390 
#    y -0.016230 1.971040 -0.015660 
#    z -0.016390 -0.015660 1.993220 
# 
# From -- ./inp_files/151562.got.cif
#   From: 2010.06.25/outbox.cif.g09.slc.cpg/sg2_76_cif.got.tgz:151562.got - 2010.06.27 13:26:56.
