data_PCOD8011872
_publ_section_title
;
Structure prediction by ZEFSAII (Michael W. Deem and Ramdas Pophale) SiO2 
 PCOD8011872
Probable space group: P -1
;
_chemical_formula_sum "Si O2"
_cell_formula_units_Z 16
_cell_length_a 8.838845
_cell_length_b 13.220345
_cell_length_c 9.293601
_cell_angle_alpha 109.682330
_cell_angle_beta 84.900827
_cell_angle_gamma 110.447161
_cell_volume 957.597387
_symmetry_space_group_name_H-M "P -1"
_symmetry_group_IT_number 2
_symmetry_cell_setting 'triclinic'
loop_
_space_group_symop_operation_xyz
x,y,z
-x,-y,-z
loop_
_atom_site_type_symbol
_atom_site_label
_atom_site_fract_x
_atom_site_fract_y
_atom_site_fract_z
Si Si1 0.372978 0.928401 0.283923
Si Si2 0.167187 0.176797 0.644767
Si Si3 0.251662 0.761552 0.960357
Si Si4 0.130824 0.927347 0.552982
Si Si5 0.465451 0.746750 0.363954
Si Si6 0.238842 0.590093 0.093753
Si Si7 0.051372 0.345279 0.921521
Si Si8 0.651471 0.162212 0.328365
O O1 0.227598 0.934311 0.398789
O O2 0.469144 0.858703 0.327092
O O3 0.490177 0.054080 0.300844
O O4 0.307286 0.873023 0.110200
O O5 0.351637 0.245395 0.618423
O O6 0.116523 0.255251 0.798605
O O7 0.054634 0.151668 0.499722
O O8 0.144513 0.054557 0.661914
O O9 0.314725 0.663798 0.978369
O O10 0.322134 0.789431 0.810337
O O11 0.054439 0.713351 0.956311
O O12 0.194549 0.869781 0.649936
O O13 0.373397 0.741205 0.520281
O O14 0.365640 0.631048 0.232727
O O15 0.202165 0.455947 0.007946
O O16 0.071710 0.616705 0.155181
#
# Coordination Sequence:
#
# PCOD8011872 Si02
#       8
#     2   2   2   2   2   2   2   2
#     4  10  16  33  48  75  99 135 164 190 231 305
#     4  11  18  30  53  74  98 129 170 199 236 285
#     4   9  18  31  54  73  99 125 166 200 246 284
#     4  10  19  30  50  74 102 133 166 192 232 296
#     4  10  18  30  53  75  97 127 169 201 236 285
#     4   8  18  36  55  73  88 128 176 206 232 285
#     4   9  17  34  56  71  95 126 170 204 242 281
#     4  11  18  31  50  77 102 130 159 197 244 296
#
# _framework density 16.708483000000001
#
# number of rings (size 3 to 8) (size 9 to 14) (size 15 to 20)
#    0.750    1.500    3.750    1.875    0.000    0.500 
#    0.000    1.250    5.500    0.750    0.000    0.000 
#    0.000    0.000    0.000    0.000    0.000    0.000 
#
# Total GULP energy -198269.247874 kJ/mol
# GULP energy per Si atom -12391.827992 kJ/mol
# Density = 1.667045 g / cm^3
# Si number density = 16.708483 Si / 1000 Ang^3
#
#
#
# Elastic Constant Matrix: (Units=GPa)
#
#
# Indices 1 2 3 4 5 6 
#
# 1 81.8805 24.3744 35.0909 12.5419 8.1452 7.5560
# 2 24.3744 48.9911 54.5973 10.6232 8.4666 10.3099
# 3 35.0909 54.5973 111.3969 2.4171 5.2864 4.4031
# 4 12.5419 10.6232 2.4171 28.6609 0.8151 6.0100
# 5 8.1452 8.4666 5.2864 0.8151 23.9109 11.7541
# 6 7.5560 10.3099 4.4031 6.0100 11.7541 13.3977
#
#
#
# Elastic Compliance Matrix: (Units=1/GPa)
#
#
# Indices 1 2 3 4 5 6 
#
# 1 0.015590 -0.001383 -0.003915 -0.005666 -0.003245 -0.001053
# 2 -0.001383 0.062977 -0.028887 -0.013313 0.001493 -0.033527
# 3 -0.003915 -0.028887 0.023690 0.007511 -0.000810 0.013993
# 4 -0.005666 -0.013313 0.007511 0.045919 0.014331 -0.022199
# 5 -0.003245 0.001493 -0.000810 0.014331 0.078744 -0.074566
# 6 -0.001053 -0.033527 0.013993 -0.022199 -0.074566 0.171812
#
#
# Mechanical properties :
#
#
# Convention : Reuss Voigt Hill
#
# Bulk Modulus (GPa) = 29.50862 52.26597 40.88729
# Shear Modulus (GPa) = 10.45157 21.74097 16.09627
#
# Velocity S-wave (km/s) = 2.50376 3.61112 3.10717
# Velocity P-wave (km/s) = 5.10467 6.98111 6.11529
#
# Compressibility (1/GPa) = 0.03388840
#
# Stress axis : x y z
#
# Youngs Moduli (GPa) = 64.14300 15.87888 42.21104
#
# Poissons Ratio (x) = 0.02195 0.16525
# Poissons Ratio (y) = 0.08868 1.21935
# Poissons Ratio (z) = 0.25111 0.45869
#
# Static dielectric constant tensor:
#      x y z
#    x 3.139590 0.129690 0.073030 
#    y 0.129690 2.942150 0.251010 
#    z 0.073030 0.251010 3.003500 
# 
# 
# High freq. dielectric constant tensor:
#      x y z
#    x 1.638990 0.015360 0.004730 
#    y 0.015360 1.617180 0.029940 
#    z 0.004730 0.029940 1.630280 
# 
# From -- ./inp_files/203631.got.cif
#   From: 2010.06.25/outbox.cif.g09.slc.cpg/sg2_102_cif.got.tgz:203631.got - 2010.06.27 13:26:56.
