data_PCOD8011531
_publ_section_title
;
Structure prediction by ZEFSAII (Michael W. Deem and Ramdas Pophale) SiO2 
 PCOD8011531
Probable space group: P -1
;
_chemical_formula_sum "Si O2"
_cell_formula_units_Z 16
_cell_length_a 14.672070
_cell_length_b 14.806750
_cell_length_c 14.030230
_cell_angle_alpha 30.483880
_cell_angle_beta 150.253332
_cell_angle_gamma 138.556461
_cell_volume 767.180667
_symmetry_space_group_name_H-M "P -1"
_symmetry_group_IT_number 2
_symmetry_cell_setting 'triclinic'
loop_
_space_group_symop_operation_xyz
x,y,z
-x,-y,-z
loop_
_atom_site_type_symbol
_atom_site_label
_atom_site_fract_x
_atom_site_fract_y
_atom_site_fract_z
Si Si1 0.865630 0.667042 0.017509
Si Si2 0.483978 0.684654 0.139506
Si Si3 0.598604 0.158940 0.892719
Si Si4 0.217419 0.863568 0.197205
Si Si5 0.561173 0.712545 0.558573
Si Si6 0.835561 0.912434 0.225879
Si Si7 0.205116 0.747639 0.671085
Si Si8 0.710234 0.008024 0.655681
O O1 0.771844 0.715124 0.785757
O O2 0.778733 0.805720 0.887749
O O3 0.825424 0.460683 0.195507
O O4 0.084560 0.703520 0.183327
O O5 0.375878 0.692709 0.136510
O O6 0.520570 0.483293 0.331282
O O7 0.682447 0.772750 0.245480
O O8 0.370025 0.776824 0.868075
O O9 0.455607 0.217400 0.627656
O O10 0.500000 0.000000 0.000000
O O11 0.793200 0.095359 0.081128
O O12 0.432225 0.821936 0.414232
O O13 0.178847 0.904145 0.235474
O O14 0.170452 0.041962 0.933273
O O15 0.031786 0.824625 0.502359
O O16 0.252641 0.864561 0.516202
O O17 0.500000 0.000000 0.500000
#
# Coordination Sequence:
#
# PCOD8011531 Si02
#       8
#     2   2   2   2   2   2   2   2
#     4  11  24  41  62  91 123 162 206 250 306 361
#     4  10  21  40  61  92 124 159 207 252 307 365
#     4   9  20  35  65  91 118 164 201 248 312 363
#     4  11  22  40  63  89 123 167 203 251 308 357
#     4  10  21  40  61  89 126 159 201 259 301 363
#     4  10  21  39  62  90 122 163 205 251 306 365
#     4  11  25  41  63  92 125 164 205 255 304 363
#     4  12  24  43  64  90 127 163 206 256 303 365
#
# _framework density 20.855584
#
# number of rings (size 3 to 8) (size 9 to 14) (size 15 to 20)
#    0.000    1.500    2.500    2.250    3.500    1.500 
#    2.250    3.750    0.000   13.500    0.000    0.000 
#    0.000    0.000    0.000    0.000    0.000    0.000 
#
# Total GULP energy -198287.440534 kJ/mol
# GULP energy per Si atom -12392.965033 kJ/mol
# Density = 2.080812 g / cm^3
# Si number density = 20.855584 Si / 1000 Ang^3
#
#
#
# Elastic Constant Matrix: (Units=GPa)
#
#
# Indices 1 2 3 4 5 6 
#
# 1 108.2688 20.8886 39.4293 6.1057 -13.3656 -6.8217
# 2 20.8886 59.8024 10.4681 1.3201 0.1019 0.8983
# 3 39.4293 10.4681 87.6226 -4.9512 3.7905 4.6319
# 4 6.1057 1.3201 -4.9512 24.7671 1.0860 4.0364
# 5 -13.3656 0.1019 3.7905 1.0860 23.3823 5.5914
# 6 -6.8217 0.8983 4.6319 4.0364 5.5914 32.8983
#
#
#
# Elastic Compliance Matrix: (Units=1/GPa)
#
#
# Indices 1 2 3 4 5 6 
#
# 1 0.013936 -0.003639 -0.006682 -0.005465 0.008567 0.003144
# 2 -0.003639 0.018076 -0.000389 0.000083 -0.001889 -0.000883
# 3 -0.006682 -0.000389 0.015195 0.005481 -0.005769 -0.003206
# 4 -0.005465 0.000083 0.005481 0.044080 -0.004494 -0.006552
# 5 0.008567 -0.001889 -0.005769 -0.004494 0.050089 -0.005322
# 6 0.003144 -0.000883 -0.003206 -0.006552 -0.005322 0.033233
#
#
# Mechanical properties :
#
#
# Convention : Reuss Voigt Hill
#
# Bulk Modulus (GPa) = 38.78051 44.14065 41.46058
# Shear Modulus (GPa) = 24.43531 28.53670 26.48601
#
# Velocity S-wave (km/s) = 3.42664 3.70307 3.56753
# Velocity P-wave (km/s) = 5.85585 6.28446 6.07394
#
# Compressibility (1/GPa) = 0.02578615
#
# Stress axis : x y z
#
# Youngs Moduli (GPa) = 71.75845 55.32321 65.81326
#
# Poissons Ratio (x) = 0.20133 0.43975
# Poissons Ratio (y) = 0.26114 0.02559
# Poissons Ratio (z) = 0.47947 0.02151
#
# Static dielectric constant tensor:
#      x y z
#    x -25.063540 18.997420 3.847710 
#    y 18.997420 -8.897040 -2.465350 
#    z 3.847710 -2.465350 3.546080 
# 
# 
# High freq. dielectric constant tensor:
#      x y z
#    x 1.812940 -0.008120 0.002680 
#    y -0.008120 1.813250 -0.002230 
#    z 0.002680 -0.002230 1.826700 
# 
# From -- ./inp_files/349714.got.cif
#   From: 2010.06.25/outbox.cif.g09.slc.cpg/sg2_175_cif.got.tgz:349714.got - 2010.06.27 13:26:56.
