data_PCOD8011097
_publ_section_title
;
Structure prediction by ZEFSAII (Michael W. Deem and Ramdas Pophale) SiO2 
 PCOD8011097
Probable space group: P -1
;
_chemical_formula_sum "Si O2"
_cell_formula_units_Z 16
_cell_length_a 17.385588
_cell_length_b 18.061322
_cell_length_c 8.951093
_cell_angle_alpha 143.953313
_cell_angle_beta 28.473863
_cell_angle_gamma 151.836524
_cell_volume 625.396110
_symmetry_space_group_name_H-M "P -1"
_symmetry_group_IT_number 2
_symmetry_cell_setting 'triclinic'
loop_
_space_group_symop_operation_xyz
x,y,z
-x,-y,-z
loop_
_atom_site_type_symbol
_atom_site_label
_atom_site_fract_x
_atom_site_fract_y
_atom_site_fract_z
Si Si1 0.253028 0.256863 0.461216
Si Si2 0.391087 0.234357 0.692931
Si Si3 0.010005 0.502313 0.661794
Si Si4 0.606087 0.415756 0.346199
Si Si5 0.748906 0.965363 0.129128
Si Si6 0.178047 0.840063 0.926368
Si Si7 0.286370 0.956355 0.247240
Si Si8 0.959213 0.752650 0.691277
O O1 0.404281 0.284973 0.381494
O O2 0.358816 0.418530 0.450034
O O3 0.192559 0.116422 0.221705
O O4 0.047624 0.214298 0.814961
O O5 0.585298 0.371044 0.486410
O O6 0.432079 0.171606 0.674004
O O7 0.263978 0.087026 0.556192
O O8 0.253491 0.287652 0.061630
O O9 0.097240 0.408631 0.405188
O O10 0.000000 0.500000 0.500000
O O11 0.169904 0.688435 0.733527
O O12 0.790265 0.420699 0.976454
O O13 0.687941 0.059030 0.285260
O O14 0.933179 0.098487 0.136658
O O15 0.275751 0.956731 0.088904
O O16 0.098424 0.789997 0.369062
O O17 0.500000 0.000000 0.000000
#
# Coordination Sequence:
#
# PCOD8011097 Si02
#       8
#     2   2   2   2   2   2   2   2
#     4  10  21  38  67 102 134 177 235 287 338 409
#     4  11  23  42  68  99 139 183 227 287 347 406
#     4  11  24  45  69 100 141 183 228 286 345 410
#     4  10  23  41  66  97 140 183 228 282 345 408
#     4  11  21  38  65 101 133 173 228 282 339 408
#     4  11  22  42  72 100 135 184 234 279 350 416
#     4  11  24  45  70 103 140 181 228 292 351 412
#     4  11  23  42  67  99 143 183 227 287 348 403
#
# _framework density 25.583784000000001
#
# number of rings (size 3 to 8) (size 9 to 14) (size 15 to 20)
#    0.000    1.250    1.250    5.625    3.500    1.000 
#    4.500    4.375    0.000    0.000    0.000    0.000 
#    0.000    0.000    0.000    0.000    0.000    0.000 
#
# Total GULP energy -198275.831458 kJ/mol
# GULP energy per Si atom -12392.239466 kJ/mol
# Density = 2.552555 g / cm^3
# Si number density = 25.583784 Si / 1000 Ang^3
#
#
#
# Elastic Constant Matrix: (Units=GPa)
#
#
# Indices 1 2 3 4 5 6 
#
# 1 100.3561 45.1864 33.5086 -24.1839 19.8324 -23.6365
# 2 45.1864 108.3371 39.4760 4.1274 1.7237 -42.5338
# 3 33.5086 39.4760 105.1258 -16.5339 -1.0769 -12.3569
# 4 -24.1839 4.1274 -16.5339 45.5600 -5.8977 16.2842
# 5 19.8324 1.7237 -1.0769 -5.8977 39.4310 -9.9307
# 6 -23.6365 -42.5338 -12.3569 16.2842 -9.9307 46.5240
#
#
#
# Elastic Compliance Matrix: (Units=1/GPa)
#
#
# Indices 1 2 3 4 5 6 
#
# 1 0.017353 -0.009140 -0.001155 0.010440 -0.008116 -0.005233
# 2 -0.009140 0.025644 -0.006492 -0.017451 0.006898 0.024657
# 3 -0.001155 -0.006492 0.012746 0.006593 0.000875 -0.005257
# 4 0.010440 -0.017451 0.006593 0.039333 -0.004368 -0.023599
# 5 -0.008116 0.006898 0.000875 -0.004368 0.031182 0.010600
# 6 -0.005233 0.024657 -0.005257 -0.023599 0.010600 0.050504
#
#
# Mechanical properties :
#
#
# Convention : Reuss Voigt Hill
#
# Bulk Modulus (GPa) = 45.10886 61.12901 53.11893
# Shear Modulus (GPa) = 22.96463 39.34621 31.15542
#
# Velocity S-wave (km/s) = 2.99929 3.92591 3.49346
# Velocity P-wave (km/s) = 5.44650 6.67052 6.08935
#
# Compressibility (1/GPa) = 0.02216859
#
# Stress axis : x y z
#
# Youngs Moduli (GPa) = 57.62771 38.99582 78.45378
#
# Poissons Ratio (x) = 0.35642 0.09064
# Poissons Ratio (y) = 0.52671 0.50931
# Poissons Ratio (z) = 0.06658 0.25316
#
# Static dielectric constant tensor:
#      x y z
#    x 8.866470 -9.523110 -6.937000 
#    y -9.523110 24.210750 15.407990 
#    z -6.937000 15.407990 16.749820 
# 
# 
# High freq. dielectric constant tensor:
#      x y z
#    x 2.016080 -0.026250 0.015650 
#    y -0.026250 2.032240 0.006280 
#    z 0.015650 0.006280 2.014380 
# 
# From -- ./inp_files/336794.got.cif
#   From: 2010.06.25/outbox.cif.g09.slc.cpg/sg2_169_cif.got.tgz:336794.got - 2010.06.27 13:26:56.
