data_PCOD8011036
_publ_section_title
;
Structure prediction by ZEFSAII (Michael W. Deem and Ramdas Pophale) SiO2 
 PCOD8011036
Probable space group: P -1
;
_chemical_formula_sum "Si O2"
_cell_formula_units_Z 16
_cell_length_a 15.777554
_cell_length_b 8.911168
_cell_length_c 7.702010
_cell_angle_alpha 102.976866
_cell_angle_beta 45.401025
_cell_angle_gamma 109.729752
_cell_volume 725.659066
_symmetry_space_group_name_H-M "P -1"
_symmetry_group_IT_number 2
_symmetry_cell_setting 'triclinic'
loop_
_space_group_symop_operation_xyz
x,y,z
-x,-y,-z
loop_
_atom_site_type_symbol
_atom_site_label
_atom_site_fract_x
_atom_site_fract_y
_atom_site_fract_z
Si Si1 0.642784 0.168842 0.712218
Si Si2 0.146684 0.870135 0.043690
Si Si3 0.032747 0.394223 0.577887
Si Si4 0.620185 0.236403 0.379508
Si Si5 0.360969 0.423819 0.620974
Si Si6 0.534833 0.810870 0.744345
Si Si7 0.078474 0.709668 0.743063
Si Si8 0.848971 0.765624 0.879604
O O1 0.580894 0.199520 0.626595
O O2 0.789350 0.229948 0.524954
O O3 0.613245 0.980664 0.740889
O O4 0.582894 0.250547 0.974943
O O5 0.078909 0.761695 0.270331
O O6 0.144526 0.051481 0.118698
O O7 0.287881 0.867194 0.835887
O O8 0.076877 0.792669 0.950849
O O9 0.059567 0.516345 0.734969
O O10 0.148646 0.327461 0.331291
O O11 0.000000 0.500000 0.500000
O O12 0.690858 0.426256 0.320347
O O13 0.505540 0.185382 0.399549
O O14 0.500000 0.500000 0.500000
O O15 0.373751 0.307034 0.412050
O O16 0.275036 0.320983 0.864611
O O17 0.971813 0.758364 0.803281
#
# Coordination Sequence:
#
# PCOD8011036 Si02
#       8
#     2   2   2   2   2   2   2   2
#     4  10  22  39  63  97 120 173 208 267 314 388
#     4  11  22  40  64  96 126 167 210 258 324 382
#     4  10  22  37  61  90 125 164 203 256 314 376
#     4  10  21  38  66  88 126 165 216 258 321 376
#     4  10  22  39  65  90 123 169 207 260 317 377
#     4  10  22  40  64  87 132 163 219 256 327 368
#     4  10  22  39  65  89 132 160 211 261 324 372
#     4  11  23  40  65  94 127 165 212 262 317 382
#
# _framework density 22.048922999999998
#
# number of rings (size 3 to 8) (size 9 to 14) (size 15 to 20)
#    0.000    1.750    0.000    4.500    7.000    2.500 
#    0.000    0.000   11.000    0.000    0.000    0.000 
#    0.000    0.000    0.000    0.000    0.000    0.000 
#
# Total GULP energy -198278.855950 kJ/mol
# GULP energy per Si atom -12392.428497 kJ/mol
# Density = 2.199874 g / cm^3
# Si number density = 22.048923 Si / 1000 Ang^3
#
#
#
# Elastic Constant Matrix: (Units=GPa)
#
#
# Indices 1 2 3 4 5 6 
#
# 1 46.4412 11.6162 19.8843 2.5082 -6.5593 -1.1666
# 2 11.6162 170.7977 42.4857 15.9471 -1.9054 -14.7653
# 3 19.8843 42.4857 107.8018 0.7973 2.6626 -9.7084
# 4 2.5082 15.9471 0.7973 51.0529 1.6537 -3.0068
# 5 -6.5593 -1.9054 2.6626 1.6537 27.0134 -0.3801
# 6 -1.1666 -14.7653 -9.7084 -3.0068 -0.3801 22.5387
#
#
#
# Elastic Compliance Matrix: (Units=1/GPa)
#
#
# Indices 1 2 3 4 5 6 
#
# 1 0.024566 -0.000424 -0.004609 -0.001273 0.006452 -0.001053
# 2 -0.000424 0.006946 -0.002370 -0.001945 0.000785 0.003261
# 3 -0.004609 -0.002370 0.011403 0.001057 -0.002430 0.003220
# 4 -0.001273 -0.001945 0.001057 0.020405 -0.001774 0.001807
# 5 0.006452 0.000785 -0.002430 -0.001774 0.038992 0.000223
# 6 -0.001053 0.003261 0.003220 0.001807 0.000223 0.048082
#
#
# Mechanical properties :
#
#
# Convention : Reuss Voigt Hill
#
# Bulk Modulus (GPa) = 35.57833 52.55703 44.06768
# Shear Modulus (GPa) = 28.64189 36.85794 32.74992
#
# Velocity S-wave (km/s) = 3.60810 4.09301 3.85818
# Velocity P-wave (km/s) = 5.79042 6.79892 6.31483
#
# Compressibility (1/GPa) = 0.02810700
#
# Stress axis : x y z
#
# Youngs Moduli (GPa) = 40.70715 143.97485 87.69796
#
# Poissons Ratio (x) = 0.06112 0.40417
# Poissons Ratio (y) = 0.01728 0.20788
# Poissons Ratio (z) = 0.18761 0.34128
#
# Static dielectric constant tensor:
#      x y z
#    x 3.761290 0.047750 0.173570 
#    y 0.047750 4.817040 0.432220 
#    z 0.173570 0.432220 4.330530 
# 
# 
# High freq. dielectric constant tensor:
#      x y z
#    x 1.831350 0.003340 0.000100 
#    y 0.003340 1.890590 0.009830 
#    z 0.000100 0.009830 1.881020 
# 
# From -- ./inp_files/188368.got.cif
#   From: 2010.06.25/outbox.cif.g09.slc.cpg/sg2_95_cif.got.tgz:188368.got - 2010.06.27 13:26:56.
