data_PCOD8011621
_publ_section_title
;
Structure prediction by ZEFSAII (Michael W. Deem and Ramdas Pophale) SiO2 
 PCOD8011621
Probable space group: P -1
;
_chemical_formula_sum "Si O2"
_cell_formula_units_Z 14
_cell_length_a 9.674808
_cell_length_b 8.693026
_cell_length_c 13.360676
_cell_angle_alpha 62.260569
_cell_angle_beta 77.043476
_cell_angle_gamma 44.824887
_cell_volume 690.915707
_symmetry_space_group_name_H-M "P -1"
_symmetry_group_IT_number 2
_symmetry_cell_setting 'triclinic'
loop_
_space_group_symop_operation_xyz
x,y,z
-x,-y,-z
loop_
_atom_site_type_symbol
_atom_site_label
_atom_site_fract_x
_atom_site_fract_y
_atom_site_fract_z
Si Si1 0.723546 0.879315 0.500867
Si Si2 0.900150 0.096036 0.704183
Si Si3 0.256159 0.203056 0.872869
Si Si4 0.024614 0.339632 0.674554
Si Si5 0.296583 0.723461 0.520649
Si Si6 0.373515 0.905151 0.127772
Si Si7 0.751270 0.417680 0.227576
O O1 0.816599 0.795328 0.400308
O O2 0.876519 0.631530 0.616825
O O3 0.500000 0.000000 0.500000
O O4 0.705646 0.086532 0.485517
O O5 0.878664 0.137555 0.575370
O O6 0.877081 0.299812 0.701098
O O7 0.753335 0.071500 0.771090
O O8 0.123405 0.838140 0.769816
O O9 0.155900 0.203127 0.793489
O O10 0.143995 0.481841 0.831391
O O11 0.492787 0.047915 0.865008
O O12 0.236025 0.084982 0.003778
O O13 0.500000 0.500000 0.500000
O O14 0.263909 0.603459 0.644435
O O15 0.530105 0.619457 0.153729
#
# Coordination Sequence:
#
# PCOD8011621 Si02
#       7
#     2   2   2   2   2   2   2
#     4  11  26  40  62  96 133 168 202 255 321 380
#     4  12  23  37  66  93 123 168 203 258 316 377
#     4   9  21  45  62  87 125 166 210 269 297 366
#     4  11  25  41  61  96 134 159 208 263 313 370
#     4  12  22  39  64  93 125 165 204 251 315 379
#     4   9  22  42  66  84 123 168 219 252 307 370
#     4  10  21  39  63  88 124 159 213 254 303 379
#
# _framework density 20.262965000000001
#
# number of rings (size 3 to 8) (size 9 to 14) (size 15 to 20)
#    0.857    0.571    2.857    2.143    8.000    1.143 
#    0.000    0.714    0.000    0.000    0.000    0.000 
#    0.000    0.000    0.000    0.000    0.000    0.000 
#
# Total GULP energy -173445.305768 kJ/mol
# GULP energy per Si atom -12388.950412 kJ/mol
# Density = 2.021685 g / cm^3
# Si number density = 20.262965 Si / 1000 Ang^3
#
#
#
# Elastic Constant Matrix: (Units=GPa)
#
#
# Indices 1 2 3 4 5 6 
#
# 1 73.3616 9.9111 38.1546 -0.3496 12.1093 5.4231
# 2 9.9111 84.1529 22.9731 -28.0646 5.6196 -2.1064
# 3 38.1546 22.9731 132.0232 -16.5782 10.2158 8.2793
# 4 -0.3496 -28.0646 -16.5782 26.2384 -1.0064 0.3351
# 5 12.1093 5.6196 10.2158 -1.0064 34.1314 4.7182
# 6 5.4231 -2.1064 8.2793 0.3351 4.7182 29.0258
#
#
#
# Elastic Compliance Matrix: (Units=1/GPa)
#
#
# Indices 1 2 3 4 5 6 
#
# 1 0.017233 -0.002247 -0.004858 -0.005391 -0.004278 -0.001240
# 2 -0.002247 0.019107 -0.000100 0.020242 -0.001988 0.001924
# 3 -0.004858 -0.000100 0.009941 0.006103 -0.000796 -0.001876
# 4 -0.005391 0.020242 0.006103 0.063490 -0.001407 0.000231
# 5 -0.004278 -0.001988 -0.000796 -0.001407 0.031934 -0.004292
# 6 -0.001240 0.001924 -0.001876 0.000231 -0.004292 0.036054
#
#
# Mechanical properties :
#
#
# Convention : Reuss Voigt Hill
#
# Bulk Modulus (GPa) = 31.37585 47.95726 39.66655
# Shear Modulus (GPa) = 24.65575 32.44571 28.55073
#
# Velocity S-wave (km/s) = 3.49203 4.00588 3.75775
# Velocity P-wave (km/s) = 5.63711 6.71677 6.20048
#
# Compressibility (1/GPa) = 0.03187165
#
# Stress axis : x y z
#
# Youngs Moduli (GPa) = 58.02797 52.33737 100.59021
#
# Poissons Ratio (x) = 0.11759 0.48863
# Poissons Ratio (y) = 0.13038 0.01010
# Poissons Ratio (z) = 0.28188 0.00526
#
# Static dielectric constant tensor:
#      x y z
#    x 3.540530 -0.159040 -0.039290 
#    y -0.159040 3.583070 -0.282590 
#    z -0.039290 -0.282590 3.854240 
# 
# 
# High freq. dielectric constant tensor:
#      x y z
#    x 1.778000 -0.012990 -0.005840 
#    y -0.012990 1.774980 -0.023470 
#    z -0.005840 -0.023470 1.802480 
# 
# From -- ./inp_files/515048.got.cif
#   From: 2010.06.25/outbox.cif.g09.slc.cpg/sg2_258_cif.got.tgz:515048.got - 2010.06.27 13:26:56.
