data_PCOD8011191
_publ_section_title
;
Structure prediction by ZEFSAII (Michael W. Deem and Ramdas Pophale) SiO2 
 PCOD8011191
Probable space group: P -1
;
_chemical_formula_sum "Si O2"
_cell_formula_units_Z 16
_cell_length_a 24.724734
_cell_length_b 8.415638
_cell_length_c 24.251895
_cell_angle_alpha 44.153858
_cell_angle_beta 11.585404
_cell_angle_gamma 45.254751
_cell_volume 705.913760
_symmetry_space_group_name_H-M "P -1"
_symmetry_group_IT_number 2
_symmetry_cell_setting 'triclinic'
loop_
_space_group_symop_operation_xyz
x,y,z
-x,-y,-z
loop_
_atom_site_type_symbol
_atom_site_label
_atom_site_fract_x
_atom_site_fract_y
_atom_site_fract_z
Si Si1 0.619802 0.453490 0.156109
Si Si2 0.611060 0.752067 0.673483
Si Si3 0.120965 0.046239 0.099770
Si Si4 0.893778 0.255375 0.383108
Si Si5 0.249773 0.463432 0.797796
Si Si6 0.733743 0.931422 0.713250
Si Si7 0.253368 0.838921 0.794803
Si Si8 0.753698 0.289606 0.698519
O O1 0.519460 0.338629 0.229415
O O2 0.370753 0.588195 0.399118
O O3 0.736494 0.264585 0.128198
O O4 0.868358 0.620672 0.850918
O O5 0.702192 0.554759 0.673565
O O6 0.875776 0.896327 0.358452
O O7 0.376253 0.896004 0.902954
O O8 0.008472 0.204095 0.221342
O O9 0.239483 0.204748 0.894013
O O10 0.814382 0.017202 0.550792
O O11 0.500000 0.500000 0.500000
O O12 0.252701 0.635081 0.802960
O O13 0.000000 0.500000 0.000000
O O14 0.945371 0.747841 0.571089
O O15 0.709723 0.158303 0.717788
O O16 0.448042 0.805183 0.029570
O O17 0.500000 0.000000 0.500000
O O18 0.000000 0.000000 0.000000
#
# Coordination Sequence:
#
# PCOD8011191 Si02
#       8
#     2   2   2   2   2   2   2   2
#     4  12  26  45  74  99 143 176 245 285 337 408
#     4  12  26  45  71 106 139 186 231 293 341 408
#     4  12  28  47  70 100 148 181 232 281 353 422
#     4  12  24  47  71 104 133 195 231 284 343 417
#     4  12  28  50  72 100 141 188 225 274 359 428
#     4  10  21  38  69  98 137 182 228 287 346 402
#     4  12  28  48  72 107 138 174 230 297 340 403
#     4  10  21  40  63 105 138 174 233 290 338 404
#
# _framework density 22.665659999999999
#
# number of rings (size 3 to 8) (size 9 to 14) (size 15 to 20)
#    0.000    0.500    2.500    5.250   10.500    0.000 
#    0.000    3.750    0.000    0.000    0.000    0.000 
#    0.000    0.000    0.000    0.000    0.000    0.000 
#
# Total GULP energy -198490.690668 kJ/mol
# GULP energy per Si atom -12405.668167 kJ/mol
# Density = 2.261407 g / cm^3
# Si number density = 22.665660 Si / 1000 Ang^3
#
#
#
# Elastic Constant Matrix: (Units=GPa)
#
#
# Indices 1 2 3 4 5 6 
#
# 1 52.2532 25.2926 19.4763 -13.7040 5.9946 -15.7631
# 2 25.2926 127.5964 60.0825 5.8468 -0.2339 -17.2833
# 3 19.4763 60.0825 164.3718 -3.4372 4.6815 -11.0982
# 4 -13.7040 5.8468 -3.4372 52.4926 -2.5303 -3.0310
# 5 5.9946 -0.2339 4.6815 -2.5303 39.4568 -4.2032
# 6 -15.7631 -17.2833 -11.0982 -3.0310 -4.2032 24.2208
#
#
#
# Elastic Compliance Matrix: (Units=1/GPa)
#
#
# Indices 1 2 3 4 5 6 
#
# 1 0.028579 -0.003467 -0.000767 0.008656 -0.001957 0.016518
# 2 -0.003467 0.010702 -0.003321 -0.002033 0.001261 0.003823
# 3 -0.000767 -0.003321 0.007456 0.000654 -0.000692 0.000509
# 4 0.008656 -0.002033 0.000654 0.022044 0.000795 0.007379
# 5 -0.001957 0.001261 -0.000692 0.000795 0.026203 0.003956
# 6 0.016518 0.003823 0.000509 0.007379 0.003956 0.056608
#
#
# Mechanical properties :
#
#
# Convention : Reuss Voigt Hill
#
# Bulk Modulus (GPa) = 31.61849 61.54715 46.58282
# Shear Modulus (GPa) = 28.20951 39.19203 33.70077
#
# Velocity S-wave (km/s) = 3.53171 4.16280 3.86017
# Velocity P-wave (km/s) = 5.53271 7.09355 6.36119
#
# Compressibility (1/GPa) = 0.03162706
#
# Stress axis : x y z
#
# Youngs Moduli (GPa) = 34.99045 93.44396 134.11219
#
# Poissons Ratio (x) = 0.32394 0.10288
# Poissons Ratio (y) = 0.12130 0.44543
# Poissons Ratio (z) = 0.02684 0.31035
#
# Static dielectric constant tensor:
#      x y z
#    x 3.585780 0.037040 -0.012680 
#    y 0.037040 4.261940 -0.020170 
#    z -0.012680 -0.020170 4.449990 
# 
# 
# High freq. dielectric constant tensor:
#      x y z
#    x 1.882190 -0.010790 -0.000480 
#    y -0.010790 1.904210 0.001120 
#    z -0.000480 0.001120 1.921460 
# 
# From -- ./inp_files/621133.got.cif
#   From: 2010.06.25/outbox.cif.g09.slc.cpg/sg2_311_cif.got.tgz:621133.got - 2010.06.27 13:26:56.
