data_PCOD8011203
_publ_section_title
;
Structure prediction by ZEFSAII (Michael W. Deem and Ramdas Pophale) SiO2 
 PCOD8011203
Probable space group: P -1
;
_chemical_formula_sum "Si O2"
_cell_formula_units_Z 16
_cell_length_a 14.049848
_cell_length_b 16.308758
_cell_length_c 10.946032
_cell_angle_alpha 35.450149
_cell_angle_beta 121.272221
_cell_angle_gamma 145.966739
_cell_volume 714.001093
_symmetry_space_group_name_H-M "P -1"
_symmetry_group_IT_number 2
_symmetry_cell_setting 'triclinic'
loop_
_space_group_symop_operation_xyz
x,y,z
-x,-y,-z
loop_
_atom_site_type_symbol
_atom_site_label
_atom_site_fract_x
_atom_site_fract_y
_atom_site_fract_z
Si Si1 0.066831 0.839467 0.722720
Si Si2 0.583122 0.725151 0.842068
Si Si3 0.267441 0.321537 0.284573
Si Si4 0.986271 0.435805 0.778586
Si Si5 0.998573 0.243534 0.494101
Si Si6 0.419374 0.839406 0.519826
Si Si7 0.586886 0.019215 0.910636
Si Si8 0.374870 0.507686 0.385536
O O1 0.914953 0.781374 0.767493
O O2 0.989969 0.703791 0.706062
O O3 0.254753 0.139598 0.463213
O O4 0.106032 0.745245 0.948200
O O5 0.529017 0.804048 0.628419
O O6 0.500000 0.500000 0.000000
O O7 0.468416 0.607078 0.036857
O O8 0.811017 0.950796 0.748812
O O9 0.246831 0.328449 0.404017
O O10 0.030054 0.642007 0.591503
O O11 0.820995 0.261353 0.776295
O O12 0.187205 0.578057 0.692036
O O13 0.194277 0.367371 0.523710
O O14 0.478134 0.973100 0.268216
O O15 0.500000 0.000000 0.500000
O O16 0.500000 0.000000 0.000000
O O17 0.519058 0.788201 0.132677
O O18 0.500000 0.500000 0.500000
#
# Coordination Sequence:
#
# PCOD8011203 Si02
#       8
#     2   2   2   2   2   2   2   2
#     4  10  21  38  70 104 139 187 243 301 355 430
#     4  12  24  42  68 106 145 182 244 306 358 426
#     4  10  21  41  66 102 139 184 248 296 354 431
#     4  12  24  44  72 101 149 188 241 296 373 428
#     4  11  24  40  69 106 141 182 253 295 360 432
#     4  12  27  47  74 105 147 198 238 298 368 430
#     4  12  28  47  72 109 150 191 247 302 364 437
#     4  11  25  46  71  96 141 194 243 298 366 437
#
# _framework density 22.408930000000002
#
# number of rings (size 3 to 8) (size 9 to 14) (size 15 to 20)
#    0.000    0.750    5.000    2.250    3.500    2.000 
#    0.000    0.625    0.000    0.000    0.000    0.000 
#    0.000    0.000    0.000    0.000    0.000    0.000 
#
# Total GULP energy -198241.361838 kJ/mol
# GULP energy per Si atom -12390.085115 kJ/mol
# Density = 2.235793 g / cm^3
# Si number density = 22.408930 Si / 1000 Ang^3
#
#
#
# Elastic Constant Matrix: (Units=GPa)
#
#
# Indices 1 2 3 4 5 6 
#
# 1 80.6475 38.7626 34.9806 -0.7231 16.3200 10.9046
# 2 38.7626 103.8369 47.4794 -18.4415 3.8695 5.9269
# 3 34.9806 47.4794 130.1484 -12.4659 9.7496 10.6454
# 4 -0.7231 -18.4415 -12.4659 42.6181 -2.7174 -4.9508
# 5 16.3200 3.8695 9.7496 -2.7174 43.6639 -7.3480
# 6 10.9046 5.9269 10.6454 -4.9508 -7.3480 40.9444
#
#
#
# Elastic Compliance Matrix: (Units=1/GPa)
#
#
# Indices 1 2 3 4 5 6 
#
# 1 0.018281 -0.005982 -0.002168 -0.003954 -0.006933 -0.005161
# 2 -0.005982 0.014176 -0.003343 0.005373 0.002308 0.001474
# 3 -0.002168 -0.003343 0.009819 0.001123 -0.001283 -0.001586
# 4 -0.003954 0.005373 0.001123 0.026681 0.003044 0.003756
# 5 -0.006933 0.002308 -0.001283 0.003044 0.026951 0.007051
# 6 -0.005161 0.001474 -0.001586 0.003756 0.007051 0.027716
#
#
# Mechanical properties :
#
#
# Convention : Reuss Voigt Hill
#
# Bulk Modulus (GPa) = 51.84009 61.89753 56.86881
# Shear Modulus (GPa) = 32.67096 38.33929 35.50513
#
# Velocity S-wave (km/s) = 3.82245 4.14078 3.98479
# Velocity P-wave (km/s) = 6.53187 7.10938 6.82673
#
# Compressibility (1/GPa) = 0.01929009
#
# Stress axis : x y z
#
# Youngs Moduli (GPa) = 54.70214 70.54077 101.84218
#
# Poissons Ratio (x) = 0.42198 0.22082
# Poissons Ratio (y) = 0.32724 0.34042
# Poissons Ratio (z) = 0.11861 0.23579
#
# Static dielectric constant tensor:
#      x y z
#    x 5.127870 0.487110 -0.693690 
#    y 0.487110 4.144680 -0.428760 
#    z -0.693690 -0.428760 4.568730 
# 
# 
# High freq. dielectric constant tensor:
#      x y z
#    x 1.895590 0.009120 0.005040 
#    y 0.009120 1.875620 -0.022910 
#    z 0.005040 -0.022910 1.878370 
# 
# From -- ./inp_files/226490.got.cif
#   From: 2010.06.25/outbox.cif.g09.slc.cpg/sg2_114_cif.got.tgz:226490.got - 2010.06.27 13:26:56.
