data_PCOD8011307
_publ_section_title
;
Structure prediction by ZEFSAII (Michael W. Deem and Ramdas Pophale) SiO2 
 PCOD8011307
Probable space group: P -1
;
_chemical_formula_sum "Si O2"
_cell_formula_units_Z 14
_cell_length_a 8.576234
_cell_length_b 15.087944
_cell_length_c 13.924602
_cell_angle_alpha 140.822281
_cell_angle_beta 102.730990
_cell_angle_gamma 48.959598
_cell_volume 683.114304
_symmetry_space_group_name_H-M "P -1"
_symmetry_group_IT_number 2
_symmetry_cell_setting 'triclinic'
loop_
_space_group_symop_operation_xyz
x,y,z
-x,-y,-z
loop_
_atom_site_type_symbol
_atom_site_label
_atom_site_fract_x
_atom_site_fract_y
_atom_site_fract_z
Si Si1 0.274803 0.342190 0.007640
Si Si2 0.635928 0.310291 0.131727
Si Si3 0.681648 0.752083 0.276101
Si Si4 0.691267 0.588321 0.326787
Si Si5 0.789045 0.805718 0.832197
Si Si6 0.197776 0.919522 0.857188
Si Si7 0.468266 0.914792 0.730951
O O1 0.407805 0.240326 0.834499
O O2 0.292696 0.176267 0.920987
O O3 0.412479 0.365544 0.108220
O O4 0.978232 0.599117 0.177163
O O5 0.585921 0.505380 0.260108
O O6 0.633723 0.307235 0.247357
O O7 0.907895 0.067900 0.917374
O O8 0.670529 0.630261 0.246181
O O9 0.500000 0.000000 0.500000
O O10 0.502784 0.826858 0.556747
O O11 0.984066 0.420634 0.262985
O O12 0.753062 0.757606 0.682697
O O13 0.500000 0.000000 0.000000
O O14 0.859226 0.921107 0.934480
O O15 0.335257 0.886300 0.754315
#
# Coordination Sequence:
#
# PCOD8011307 Si02
#       7
#     2   2   2   2   2   2   2
#     4  11  23  42  71  89 121 166 212 256 310 359
#     4  10  21  39  59  93 124 166 195 250 319 373
#     4  11  24  45  66  92 116 165 222 264 292 360
#     4  11  23  38  59  92 132 155 207 264 301 372
#     4   9  17  33  59  88 115 163 203 243 301 365
#     4   9  19  35  61  87 132 161 196 241 316 384
#     4  11  20  37  62  95 123 163 207 249 310 373
#
# _framework density 20.494375000000002
#
# number of rings (size 3 to 8) (size 9 to 14) (size 15 to 20)
#    0.000    1.714    2.857    3.000    2.000    1.143 
#    2.571    0.714    0.000    0.000    0.000    0.000 
#    0.000    0.000    0.000    0.000    0.000    0.000 
#
# Total GULP energy -173440.461059 kJ/mol
# GULP energy per Si atom -12388.604361 kJ/mol
# Density = 2.044773 g / cm^3
# Si number density = 20.494375 Si / 1000 Ang^3
#
#
#
# Elastic Constant Matrix: (Units=GPa)
#
#
# Indices 1 2 3 4 5 6 
#
# 1 74.2618 25.2624 26.6180 2.3849 0.0215 7.8646
# 2 25.2624 87.1262 21.9644 -0.8713 0.0578 17.6126
# 3 26.6180 21.9644 84.8505 2.5429 -0.7238 0.6558
# 4 2.3849 -0.8713 2.5429 32.0478 4.1930 -3.7243
# 5 0.0215 0.0578 -0.7238 4.1930 21.5795 2.4447
# 6 7.8646 17.6126 0.6558 -3.7243 2.4447 37.7149
#
#
#
# Elastic Compliance Matrix: (Units=1/GPa)
#
#
# Indices 1 2 3 4 5 6 
#
# 1 0.016344 -0.003296 -0.004219 -0.001237 0.000311 -0.001938
# 2 -0.003296 0.014302 -0.002620 0.000077 0.000539 -0.005973
# 3 -0.004219 -0.002620 0.013798 -0.000700 0.000410 0.001768
# 4 -0.001237 0.000077 -0.000700 0.032699 -0.006818 0.003905
# 5 0.000311 0.000539 0.000410 -0.006818 0.048144 -0.004118
# 6 -0.001938 -0.005973 0.001768 0.003905 -0.004118 0.030330
#
#
# Mechanical properties :
#
#
# Convention : Reuss Voigt Hill
#
# Bulk Modulus (GPa) = 41.36742 43.76979 42.56860
# Shear Modulus (GPa) = 27.18204 29.76136 28.47170
#
# Velocity S-wave (km/s) = 3.64581 3.81487 3.73130
# Velocity P-wave (km/s) = 6.16046 6.38809 6.27530
#
# Compressibility (1/GPa) = 0.02417361
#
# Stress axis : x y z
#
# Youngs Moduli (GPa) = 61.18298 69.92205 72.47419
#
# Poissons Ratio (x) = 0.23048 0.30579
# Poissons Ratio (y) = 0.20167 0.18986
# Poissons Ratio (z) = 0.25815 0.18317
#
# Static dielectric constant tensor:
#      x y z
#    x 3.711600 -0.075160 0.065640 
#    y -0.075160 4.081420 -0.066060 
#    z 0.065640 -0.066060 3.579190 
# 
# 
# High freq. dielectric constant tensor:
#      x y z
#    x 1.795350 0.011880 -0.002520 
#    y 0.011880 1.806400 0.004780 
#    z -0.002520 0.004780 1.780930 
# 
# From -- ./inp_files/496808.got.cif
#   From: 2010.06.25/outbox.cif.g09.slc.cpg/sg2_249_cif.got.tgz:496808.got - 2010.06.27 13:26:56.
