data_PCOD8011208
_publ_section_title
;
Structure prediction by ZEFSAII (Michael W. Deem and Ramdas Pophale) SiO2 
 PCOD8011208
Probable space group: P -1
;
_chemical_formula_sum "Si O2"
_cell_formula_units_Z 14
_cell_length_a 11.007055
_cell_length_b 20.824410
_cell_length_c 9.662863
_cell_angle_alpha 33.448455
_cell_angle_beta 58.260761
_cell_angle_gamma 35.742815
_cell_volume 629.645993
_symmetry_space_group_name_H-M "P -1"
_symmetry_group_IT_number 2
_symmetry_cell_setting 'triclinic'
loop_
_space_group_symop_operation_xyz
x,y,z
-x,-y,-z
loop_
_atom_site_type_symbol
_atom_site_label
_atom_site_fract_x
_atom_site_fract_y
_atom_site_fract_z
Si Si1 0.377063 0.586154 0.767285
Si Si2 0.339849 0.193461 0.329848
Si Si3 0.074703 0.979797 0.336893
Si Si4 0.829714 0.450078 0.247225
Si Si5 0.145050 0.302946 0.703627
Si Si6 0.443703 0.917462 0.328807
Si Si7 0.231797 0.631752 0.290285
O O1 0.148908 0.816127 0.504899
O O2 0.281818 0.523105 0.880521
O O3 0.545808 0.533729 0.644783
O O4 0.500000 0.500000 0.000000
O O5 0.520142 0.132047 0.443478
O O6 0.114211 0.268737 0.390151
O O7 0.500000 0.000000 0.500000
O O8 0.252661 0.365765 0.990990
O O9 0.298777 0.918340 0.326637
O O10 0.000000 0.000000 0.500000
O O11 0.862026 0.175422 0.024864
O O12 0.728280 0.424768 0.469661
O O13 0.291602 0.258597 0.569347
O O14 0.000000 0.500000 0.500000
O O15 0.970189 0.321244 0.721268
O O16 0.326805 0.122317 0.024312
#
# Coordination Sequence:
#
# PCOD8011208 Si02
#       7
#     2   2   2   2   2   2   2
#     4  12  25  44  73  96 133 184 228 282 341 403
#     4  11  26  43  71  96 139 180 222 275 344 406
#     4  11  24  42  68 100 135 176 230 277 334 406
#     4  11  27  46  66 105 138 176 233 280 339 410
#     4  10  21  38  70  95 132 173 220 276 337 396
#     4  10  22  41  63 101 130 170 228 274 327 410
#     4  11  24  44  65 102 138 174 229 281 339 404
#
# _framework density 22.234715999999999
#
# number of rings (size 3 to 8) (size 9 to 14) (size 15 to 20)
#    0.000    1.143    2.857    2.143    4.000    1.714 
#    0.000    0.000    0.000    0.000    0.000    0.000 
#    0.000    0.000    0.000    0.000    0.000    0.000 
#
# Total GULP energy -173511.198338 kJ/mol
# GULP energy per Si atom -12393.657024 kJ/mol
# Density = 2.218411 g / cm^3
# Si number density = 22.234716 Si / 1000 Ang^3
#
#
#
# Elastic Constant Matrix: (Units=GPa)
#
#
# Indices 1 2 3 4 5 6 
#
# 1 75.5038 28.7883 19.0389 -2.9619 -2.9035 15.9481
# 2 28.7883 140.0899 56.0577 -15.4563 -18.4453 9.8564
# 3 19.0389 56.0577 106.8120 -3.3024 -15.1376 29.2463
# 4 -2.9619 -15.4563 -3.3024 44.0144 9.8507 -9.3531
# 5 -2.9035 -18.4453 -15.1376 9.8507 39.2823 -0.6365
# 6 15.9481 9.8564 29.2463 -9.3531 -0.6365 30.0503
#
#
#
# Elastic Compliance Matrix: (Units=1/GPa)
#
#
# Indices 1 2 3 4 5 6 
#
# 1 0.016127 -0.003433 0.001580 -0.002179 0.000580 -0.009637
# 2 -0.003433 0.010510 -0.006094 0.003853 0.001456 0.005536
# 3 0.001580 -0.006094 0.017686 -0.005630 0.005196 -0.017695
# 4 -0.002179 0.003853 -0.005630 0.028116 -0.007346 0.013967
# 5 0.000580 0.001456 0.005196 -0.007346 0.029906 -0.007495
# 6 -0.009637 0.005536 -0.017695 0.013967 -0.007495 0.057987
#
#
# Mechanical properties :
#
#
# Convention : Reuss Voigt Hill
#
# Bulk Modulus (GPa) = 35.17357 58.90838 47.04097
# Shear Modulus (GPa) = 26.92502 37.23746 32.08124
#
# Velocity S-wave (km/s) = 3.48364 4.09680 3.80260
# Velocity P-wave (km/s) = 5.65991 6.99498 6.36256
#
# Compressibility (1/GPa) = 0.02843044
#
# Stress axis : x y z
#
# Youngs Moduli (GPa) = 62.00782 95.15118 56.54086
#
# Poissons Ratio (x) = 0.32661 -0.08936
# Poissons Ratio (y) = 0.21285 0.34456
# Poissons Ratio (z) = -0.09800 0.57986
#
# Static dielectric constant tensor:
#      x y z
#    x 4.595440 -0.109980 -0.996440 
#    y -0.109980 4.056060 -0.032950 
#    z -0.996440 -0.032950 6.417390 
# 
# 
# High freq. dielectric constant tensor:
#      x y z
#    x 1.874940 -0.009740 0.000430 
#    y -0.009740 1.878950 -0.010210 
#    z 0.000430 -0.010210 1.880480 
# 
# From -- ./inp_files/282708.got.cif
#   From: 2010.06.25/outbox.cif.g09.slc.cpg/sg2_142_cif.got.tgz:282708.got - 2010.06.27 13:26:56.
