data_PCOD8011632
_publ_section_title
;
Structure prediction by ZEFSAII (Michael W. Deem and Ramdas Pophale) SiO2 
 PCOD8011632
Probable space group: P -1
;
_chemical_formula_sum "Si O2"
_cell_formula_units_Z 16
_cell_length_a 7.737220
_cell_length_b 18.710632
_cell_length_c 14.022232
_cell_angle_alpha 38.473996
_cell_angle_beta 73.250632
_cell_angle_gamma 45.980476
_cell_volume 745.046991
_symmetry_space_group_name_H-M "P -1"
_symmetry_group_IT_number 2
_symmetry_cell_setting 'triclinic'
loop_
_space_group_symop_operation_xyz
x,y,z
-x,-y,-z
loop_
_atom_site_type_symbol
_atom_site_label
_atom_site_fract_x
_atom_site_fract_y
_atom_site_fract_z
Si Si1 0.789149 0.252878 0.125145
Si Si2 0.266890 0.921887 0.822456
Si Si3 0.724756 0.876759 0.507838
Si Si4 0.663281 0.709584 0.149476
Si Si5 0.689946 0.692649 0.569918
Si Si6 0.796767 0.089269 0.848773
Si Si7 0.678742 0.963005 0.856847
Si Si8 0.700547 0.317428 0.286122
O O1 0.745678 0.149530 0.195003
O O2 0.828102 0.213224 0.273037
O O3 0.079721 0.167913 0.128224
O O4 0.516947 0.468863 0.918755
O O5 0.938190 0.101830 0.732645
O O6 0.384485 0.988058 0.703595
O O7 0.493439 0.748691 0.041564
O O8 0.738404 0.739758 0.610667
O O9 0.042303 0.763555 0.604436
O O10 0.500000 0.000000 0.500000
O O11 0.005958 0.516177 0.292370
O O12 0.530683 0.719296 0.258335
O O13 0.578904 0.886670 0.982364
O O14 0.453338 0.711996 0.606007
O O15 0.587326 0.824667 0.361398
O O16 0.810206 0.955808 0.938679
O O17 0.000000 0.000000 0.000000
#
# Coordination Sequence:
#
# PCOD8011632 Si02
#       8
#     2   2   2   2   2   2   2   2
#     4  10  21  39  63  89 128 176 210 271 321 384
#     4  10  21  41  65  90 132 169 217 268 326 385
#     4  12  25  41  66  98 134 174 217 269 324 387
#     4  11  22  42  65  95 129 167 219 268 324 385
#     4  12  25  41  68  99 131 173 218 269 324 386
#     4   9  21  40  69  93 122 175 214 263 333 379
#     4  11  21  41  65  91 131 165 212 269 323 384
#     4  11  23  40  61  97 132 169 224 261 326 385
#
# _framework density 21.475154
#
# number of rings (size 3 to 8) (size 9 to 14) (size 15 to 20)
#    0.000    1.250    2.500    4.125    0.000    2.000 
#    0.000    3.750    0.000    0.000    0.000    0.000 
#    0.000    0.000    0.000    0.000    0.000    0.000 
#
# Total GULP energy -198350.784651 kJ/mol
# GULP energy per Si atom -12396.924041 kJ/mol
# Density = 2.142628 g / cm^3
# Si number density = 21.475154 Si / 1000 Ang^3
#
#
#
# Elastic Constant Matrix: (Units=GPa)
#
#
# Indices 1 2 3 4 5 6 
#
# 1 107.7251 36.7040 24.4919 -2.2372 8.8226 -4.5351
# 2 36.7040 131.1964 37.2673 -1.4839 3.2596 -9.5619
# 3 24.4919 37.2673 81.3235 -3.7734 4.4365 -4.2611
# 4 -2.2372 -1.4839 -3.7734 21.1252 -4.0984 5.4018
# 5 8.8226 3.2596 4.4365 -4.0984 29.2004 2.8610
# 6 -4.5351 -9.5619 -4.2611 5.4018 2.8610 34.3038
#
#
#
# Elastic Compliance Matrix: (Units=1/GPa)
#
#
# Indices 1 2 3 4 5 6 
#
# 1 0.010788 -0.002326 -0.001995 -0.000118 -0.002790 0.000781
# 2 -0.002326 0.009419 -0.003539 -0.000752 -0.000113 0.002006
# 3 -0.001995 -0.003539 0.014680 0.001875 -0.001005 0.000362
# 4 -0.000118 -0.000752 0.001875 0.051374 0.007902 -0.008741
# 5 -0.002790 -0.000113 -0.001005 0.007902 0.036838 -0.004842
# 6 0.000781 0.002006 0.000362 -0.008741 -0.004842 0.031639
#
#
# Mechanical properties :
#
#
# Convention : Reuss Voigt Hill
#
# Bulk Modulus (GPa) = 52.17797 57.46350 54.82073
# Shear Modulus (GPa) = 28.27279 31.71135 29.99207
#
# Velocity S-wave (km/s) = 3.63235 3.84689 3.74116
# Velocity P-wave (km/s) = 6.47623 6.82259 6.65166
#
# Compressibility (1/GPa) = 0.01916518
#
# Stress axis : x y z
#
# Youngs Moduli (GPa) = 92.69475 106.16986 68.11932
#
# Poissons Ratio (x) = 0.24700 0.13592
# Poissons Ratio (y) = 0.21565 0.24109
# Poissons Ratio (z) = 0.18495 0.37576
#
# Static dielectric constant tensor:
#      x y z
#    x 4.052800 -0.061250 0.080240 
#    y -0.061250 4.373040 0.120600 
#    z 0.080240 0.120600 3.674270 
# 
# 
# High freq. dielectric constant tensor:
#      x y z
#    x 1.860430 -0.001090 0.011740 
#    y -0.001090 1.858050 0.007560 
#    z 0.011740 0.007560 1.816290 
# 
# From -- ./inp_files/507912.got.cif
#   From: 2010.06.25/outbox.cif.g09.slc.cpg/sg2_254_cif.got.tgz:507912.got - 2010.06.27 13:26:56.
