data_PCOD8011224
_publ_section_title
;
Structure prediction by ZEFSAII (Michael W. Deem and Ramdas Pophale) SiO2 
 PCOD8011224
Probable space group: P -1
;
_chemical_formula_sum "Si O2"
_cell_formula_units_Z 16
_cell_length_a 19.192248
_cell_length_b 8.970589
_cell_length_c 10.084902
_cell_angle_alpha 126.201394
_cell_angle_beta 124.585672
_cell_angle_gamma 31.469494
_cell_volume 722.967054
_symmetry_space_group_name_H-M "P -1"
_symmetry_group_IT_number 2
_symmetry_cell_setting 'triclinic'
loop_
_space_group_symop_operation_xyz
x,y,z
-x,-y,-z
loop_
_atom_site_type_symbol
_atom_site_label
_atom_site_fract_x
_atom_site_fract_y
_atom_site_fract_z
Si Si1 0.866140 0.103086 0.904905
Si Si2 0.069268 0.722329 0.511319
Si Si3 0.223054 0.399036 0.265642
Si Si4 0.288259 0.414878 0.802686
Si Si5 0.205186 0.838840 0.436516
Si Si6 0.044459 0.545380 0.948274
Si Si7 0.711491 0.954021 0.232002
Si Si8 0.457817 0.780928 0.068488
O O1 0.797189 0.168778 0.727573
O O2 0.748047 0.402586 0.013729
O O3 0.000000 0.000000 0.000000
O O4 0.909000 0.840765 0.884959
O O5 0.143991 0.463091 0.347373
O O6 0.175001 0.624393 0.678269
O O7 0.000000 0.000000 0.500000
O O8 0.946406 0.836570 0.516275
O O9 0.261033 0.550522 0.407512
O O10 0.127838 0.570722 0.121690
O O11 0.344222 0.049261 0.188604
O O12 0.302204 0.180754 0.742592
O O13 0.423580 0.271915 0.813729
O O14 0.306743 0.823041 0.590998
O O15 0.144098 0.281571 0.811155
O O16 0.000000 0.500000 0.000000
O O17 0.592670 0.130869 0.090778
O O18 0.500000 0.500000 0.000000
#
# Coordination Sequence:
#
# PCOD8011224 Si02
#       8
#     2   2   2   2   2   2   2   2
#     4  12  20  42  67 100 138 182 224 272 350 419
#     4  10  21  38  72 106 141 170 218 283 356 402
#     4  10  22  43  65  98 137 181 222 287 342 400
#     4  12  25  46  71  98 142 188 229 284 343 409
#     4  11  22  41  71 104 141 173 222 283 350 411
#     4  11  22  37  65  98 139 177 224 278 348 409
#     4  11  25  45  67 100 139 179 231 288 336 409
#     4  11  28  49  72  95 132 189 243 284 335 405
#
# _framework density 22.131022000000002
#
# number of rings (size 3 to 8) (size 9 to 14) (size 15 to 20)
#    0.000    1.000    3.750    2.625    7.000    3.500 
#    0.000    1.250    0.000    0.000    0.000    0.000 
#    0.000    0.000    0.000    0.000    0.000    0.000 
#
# Total GULP energy -198333.604091 kJ/mol
# GULP energy per Si atom -12395.850256 kJ/mol
# Density = 2.208065 g / cm^3
# Si number density = 22.131022 Si / 1000 Ang^3
#
#
#
# Elastic Constant Matrix: (Units=GPa)
#
#
# Indices 1 2 3 4 5 6 
#
# 1 60.2250 41.3177 20.1052 7.7828 -5.8101 7.9515
# 2 41.3177 105.1812 36.7828 9.1067 2.5834 10.7430
# 3 20.1052 36.7828 131.2011 7.2661 -4.4330 0.2140
# 4 7.7828 9.1067 7.2661 39.8661 -1.1290 -1.4352
# 5 -5.8101 2.5834 -4.4330 -1.1290 35.6365 3.5002
# 6 7.9515 10.7430 0.2140 -1.4352 3.5002 37.4561
#
#
#
# Elastic Compliance Matrix: (Units=1/GPa)
#
#
# Indices 1 2 3 4 5 6 
#
# 1 0.024084 -0.008705 -0.000948 -0.002522 0.004669 -0.003144
# 2 -0.008705 0.014239 -0.002676 -0.001213 -0.002624 -0.002022
# 3 -0.000948 -0.002676 0.008590 -0.000712 0.001007 0.000798
# 4 -0.002522 -0.001213 -0.000712 0.026057 0.000231 0.001864
# 5 0.004669 -0.002624 0.001007 0.000231 0.029438 -0.002986
# 6 -0.003144 -0.002022 0.000798 0.001864 -0.002986 0.028291
#
#
# Mechanical properties :
#
#
# Convention : Reuss Voigt Hill
#
# Bulk Modulus (GPa) = 44.93355 54.77986 49.85671
# Shear Modulus (GPa) = 30.71753 35.81850 33.26801
#
# Velocity S-wave (km/s) = 3.72961 4.02739 3.88136
# Velocity P-wave (km/s) = 6.23652 6.81416 6.53173
#
# Compressibility (1/GPa) = 0.02225509
#
# Stress axis : x y z
#
# Youngs Moduli (GPa) = 41.52154 70.23157 116.42059
#
# Poissons Ratio (x) = 0.61134 0.11033
# Poissons Ratio (y) = 0.36143 0.31156
# Poissons Ratio (z) = 0.03935 0.18795
#
# Static dielectric constant tensor:
#      x y z
#    x 3.971710 0.192280 -0.220840 
#    y 0.192280 3.948530 0.043550 
#    z -0.220840 0.043550 4.333350 
# 
# 
# High freq. dielectric constant tensor:
#      x y z
#    x 1.862220 0.008830 -0.005440 
#    y 0.008830 1.857860 0.002740 
#    z -0.005440 0.002740 1.887600 
# 
# From -- ./inp_files/343782.got.cif
#   From: 2010.06.25/outbox.cif.g09.slc.cpg/sg2_172_cif.got.tgz:343782.got - 2010.06.27 13:26:56.
