data_PCOD8011294
_publ_section_title
;
Structure prediction by ZEFSAII (Michael W. Deem and Ramdas Pophale) SiO2 
 PCOD8011294
Probable space group: P -1
;
_chemical_formula_sum "Si O2"
_cell_formula_units_Z 14
_cell_length_a 11.964160
_cell_length_b 18.400546
_cell_length_c 9.298746
_cell_angle_alpha 74.963868
_cell_angle_beta 43.926415
_cell_angle_gamma 39.639386
_cell_volume 674.990544
_symmetry_space_group_name_H-M "P -1"
_symmetry_group_IT_number 2
_symmetry_cell_setting 'triclinic'
loop_
_space_group_symop_operation_xyz
x,y,z
-x,-y,-z
loop_
_atom_site_type_symbol
_atom_site_label
_atom_site_fract_x
_atom_site_fract_y
_atom_site_fract_z
Si Si1 0.321332 0.403301 0.320601
Si Si2 0.698165 0.276919 0.747807
Si Si3 0.667223 0.153309 0.652715
Si Si4 0.539596 0.044552 0.817072
Si Si5 0.195805 0.862912 0.793271
Si Si6 0.183806 0.135820 0.824340
Si Si7 0.527521 0.472610 0.153936
O O1 0.458206 0.289369 0.368931
O O2 0.291216 0.495789 0.386404
O O3 0.000000 0.500000 0.500000
O O4 0.575718 0.311724 0.003527
O O5 0.534437 0.283969 0.783158
O O6 0.603808 0.398484 0.711055
O O7 0.083381 0.111327 0.497926
O O8 0.723228 0.139996 0.438038
O O9 0.444264 0.169971 0.882718
O O10 0.000000 0.000000 0.500000
O O11 0.295692 0.124678 0.875323
O O12 0.500000 0.000000 0.000000
O O13 0.975645 0.878576 0.982147
O O14 0.000000 0.000000 0.000000
O O15 0.500000 0.000000 0.500000
O O16 0.906574 0.302892 0.928962
O O17 0.500000 0.500000 0.000000
#
# Coordination Sequence:
#
# PCOD8011294 Si02
#       7
#     2   2   2   2   2   2   2
#     4  10  22  39  60  89 121 161 204 248 307 367
#     4  10  21  41  62  87 127 162 200 260 305 363
#     4  10  21  39  59  87 121 157 201 252 308 364
#     4  11  23  40  62  89 119 159 203 250 312 374
#     4  11  22  38  61  89 121 158 204 257 304 363
#     4  11  21  37  62  91 120 159 207 253 303 366
#     4   9  20  38  58  86 122 158 200 250 303 357
#
# _framework density 20.741032000000001
#
# number of rings (size 3 to 8) (size 9 to 14) (size 15 to 20)
#    0.000    1.714    0.000    6.857    0.000    6.857 
#    0.000    9.286    0.000    0.000    0.000    0.000 
#    0.000    0.000    0.000    0.000    0.000    0.000 
#
# Total GULP energy -173468.925532 kJ/mol
# GULP energy per Si atom -12390.637538 kJ/mol
# Density = 2.069382 g / cm^3
# Si number density = 20.741032 Si / 1000 Ang^3
#
#
#
# Elastic Constant Matrix: (Units=GPa)
#
#
# Indices 1 2 3 4 5 6 
#
# 1 173.5274 93.9365 35.0909 -1.8848 -13.9031 8.3779
# 2 93.9365 158.5100 34.2997 -5.9347 -7.4859 4.2432
# 3 35.0909 34.2997 58.5337 -13.5379 -14.2028 -2.6489
# 4 -1.8848 -5.9347 -13.5379 35.6934 -7.4424 1.8073
# 5 -13.9031 -7.4859 -14.2028 -7.4424 40.1763 1.4763
# 6 8.3779 4.2432 -2.6489 1.8073 1.4763 53.7027
#
#
#
# Elastic Compliance Matrix: (Units=1/GPa)
#
#
# Indices 1 2 3 4 5 6 
#
# 1 0.008979 -0.004704 -0.002631 -0.001006 0.001157 -0.001157
# 2 -0.004704 0.009731 -0.003106 0.000011 -0.000905 -0.000164
# 3 -0.002631 -0.003106 0.025340 0.010857 0.009433 0.001281
# 4 -0.001006 0.000011 0.010857 0.034174 0.009849 -0.000729
# 5 0.001157 -0.000905 0.009433 0.009849 0.030311 -0.000808
# 6 -0.001157 -0.000164 0.001281 -0.000729 -0.000808 0.018924
#
#
# Mechanical properties :
#
#
# Convention : Reuss Voigt Hill
#
# Bulk Modulus (GPa) = 43.16499 79.69171 61.42835
# Shear Modulus (GPa) = 32.03852 41.06407 36.55129
#
# Velocity S-wave (km/s) = 3.93452 4.45437 4.20249
# Velocity P-wave (km/s) = 6.44183 8.05983 7.29582
#
# Compressibility (1/GPa) = 0.02316693
#
# Stress axis : x y z
#
# Youngs Moduli (GPa) = 111.37477 102.76879 39.46398
#
# Poissons Ratio (x) = 0.48340 0.10382
# Poissons Ratio (y) = 0.52388 0.12259
# Poissons Ratio (z) = 0.29299 0.31925
#
# Static dielectric constant tensor:
#      x y z
#    x 6.879290 4.797280 -2.262530 
#    y 4.797280 9.545170 -4.318990 
#    z -2.262530 -4.318990 5.689760 
# 
# 
# High freq. dielectric constant tensor:
#      x y z
#    x 1.834510 0.008500 -0.009200 
#    y 0.008500 1.827280 -0.011730 
#    z -0.009200 -0.011730 1.783500 
# 
# From -- ./inp_files/154974.got.cif
#   From: 2010.06.25/outbox.cif.g09.slc.cpg/sg2_78_cif.got.tgz:154974.got - 2010.06.27 13:26:56.
