data_PCOD8011037
_publ_section_title
;
Structure prediction by ZEFSAII (Michael W. Deem and Ramdas Pophale) SiO2 
 PCOD8011037
Probable space group: P -1
;
_chemical_formula_sum "Si O2"
_cell_formula_units_Z 16
_cell_length_a 15.626185
_cell_length_b 8.429823
_cell_length_c 14.793481
_cell_angle_alpha 62.393613
_cell_angle_beta 139.781225
_cell_angle_gamma 86.581993
_cell_volume 770.796566
_symmetry_space_group_name_H-M "P -1"
_symmetry_group_IT_number 2
_symmetry_cell_setting 'triclinic'
loop_
_space_group_symop_operation_xyz
x,y,z
-x,-y,-z
loop_
_atom_site_type_symbol
_atom_site_label
_atom_site_fract_x
_atom_site_fract_y
_atom_site_fract_z
Si Si1 0.195415 0.905916 0.155898
Si Si2 0.525723 0.495096 0.663442
Si Si3 0.264458 0.880211 0.823235
Si Si4 0.719665 0.925657 0.390325
Si Si5 0.992891 0.335165 0.601115
Si Si6 0.109969 0.349259 0.878261
Si Si7 0.596801 0.620878 0.868362
Si Si8 0.422136 0.271908 0.762007
O O1 0.346249 0.757003 0.398462
O O2 0.291635 0.713364 0.198693
O O3 0.143696 0.162024 0.027850
O O4 0.000000 0.000000 0.000000
O O5 0.592380 0.567137 0.775220
O O6 0.458680 0.373518 0.683433
O O7 0.218239 0.985324 0.656296
O O8 0.075516 0.084870 0.679178
O O9 0.328304 0.612327 0.945530
O O10 0.422150 0.860477 0.998459
O O11 0.572864 0.931128 0.222360
O O12 0.902895 0.640628 0.650263
O O13 0.617245 0.121108 0.340043
O O14 0.125417 0.248287 0.817680
O O15 0.000000 0.500000 0.500000
O O16 0.782372 0.486594 0.422122
O O17 0.270763 0.338870 0.024068
#
# Coordination Sequence:
#
# PCOD8011037 Si02
#       8
#     2   2   2   2   2   2   2   2
#     4  11  23  45  76  93 116 155 214 269 317 369
#     4  10  24  44  66  99 119 159 209 261 320 377
#     4  11  22  37  59  89 123 177 216 253 302 357
#     4  11  22  37  57  90 126 169 214 247 304 364
#     4  11  21  38  62  94 123 166 223 258 295 354
#     4  11  24  40  62  93 128 166 205 262 313 370
#     4  11  25  40  59  88 137 166 201 251 318 380
#     4  10  21  38  66  88 127 162 214 267 300 358
#
# _framework density 20.757746000000001
#
# number of rings (size 3 to 8) (size 9 to 14) (size 15 to 20)
#    0.000    1.250    2.500    5.250    1.750    5.000 
#    0.000    1.250    0.000    0.000    0.000    0.000 
#    0.000    0.000    0.000    0.000    0.000    0.000 
#
# Total GULP energy -198462.450093 kJ/mol
# GULP energy per Si atom -12403.903131 kJ/mol
# Density = 2.071050 g / cm^3
# Si number density = 20.757746 Si / 1000 Ang^3
#
#
#
# Elastic Constant Matrix: (Units=GPa)
#
#
# Indices 1 2 3 4 5 6 
#
# 1 101.1725 30.8872 44.0888 -8.9322 10.9259 -1.8031
# 2 30.8872 69.5046 24.5717 -22.5811 7.8738 -6.7894
# 3 44.0888 24.5717 95.3949 -21.9117 -4.2022 -2.6349
# 4 -8.9322 -22.5811 -21.9117 33.4797 2.0512 -0.7413
# 5 10.9259 7.8738 -4.2022 2.0512 39.6641 -9.5619
# 6 -1.8031 -6.7894 -2.6349 -0.7413 -9.5619 31.5798
#
#
#
# Elastic Compliance Matrix: (Units=1/GPa)
#
#
# Indices 1 2 3 4 5 6 
#
# 1 0.014244 -0.004990 -0.006335 -0.003517 -0.003918 -0.002057
# 2 -0.004990 0.021734 -0.000219 0.013437 -0.002728 0.003859
# 3 -0.006335 -0.000219 0.015560 0.008177 0.003533 0.002151
# 4 -0.003517 0.013437 0.008177 0.043561 -0.002186 0.003731
# 5 -0.003918 -0.002728 0.003533 -0.002186 0.029324 0.008312
# 6 -0.002057 0.003859 0.002151 0.003731 0.008312 0.035162
#
#
# Mechanical properties :
#
#
# Convention : Reuss Voigt Hill
#
# Bulk Modulus (GPa) = 35.14980 51.68527 43.41753
# Shear Modulus (GPa) = 26.02028 32.04633 29.03330
#
# Velocity S-wave (km/s) = 3.54435 3.93342 3.74394
# Velocity P-wave (km/s) = 5.80689 6.75147 6.29692
#
# Compressibility (1/GPa) = 0.02844967
#
# Stress axis : x y z
#
# Youngs Moduli (GPa) = 70.20363 46.01101 64.26555
#
# Poissons Ratio (x) = 0.22960 0.40714
# Poissons Ratio (y) = 0.35032 0.01409
# Poissons Ratio (z) = 0.44476 0.01008
#
# Static dielectric constant tensor:
#      x y z
#    x 3.927040 -0.142680 0.045150 
#    y -0.142680 3.773410 -0.218020 
#    z 0.045150 -0.218020 3.928650 
# 
# 
# High freq. dielectric constant tensor:
#      x y z
#    x 1.817840 -0.001660 0.004230 
#    y -0.001660 1.807970 -0.014340 
#    z 0.004230 -0.014340 1.820750 
# 
# From -- ./inp_files/279017.got.cif
#   From: 2010.06.25/outbox.cif.g09.slc.cpg/sg2_140_cif.got.tgz:279017.got - 2010.06.27 13:26:56.
