data_PCOD8011902
_publ_section_title
;
Structure prediction by ZEFSAII (Michael W. Deem and Ramdas Pophale) SiO2 
 PCOD8011902
Probable space group: P -1
;
_chemical_formula_sum "Si O2"
_cell_formula_units_Z 14
_cell_length_a 9.140582
_cell_length_b 9.409752
_cell_length_c 9.799574
_cell_angle_alpha 111.121292
_cell_angle_beta 117.482129
_cell_angle_gamma 58.786853
_cell_volume 631.301399
_symmetry_space_group_name_H-M "P -1"
_symmetry_group_IT_number 2
_symmetry_cell_setting 'triclinic'
loop_
_space_group_symop_operation_xyz
x,y,z
-x,-y,-z
loop_
_atom_site_type_symbol
_atom_site_label
_atom_site_fract_x
_atom_site_fract_y
_atom_site_fract_z
Si Si1 0.867520 0.272534 0.022067
Si Si2 0.033753 0.347209 0.361498
Si Si3 0.310651 0.660288 0.300947
Si Si4 0.364296 0.375544 0.406912
Si Si5 0.585468 0.057127 0.242391
Si Si6 0.754350 0.002546 0.007300
Si Si7 0.129344 0.023232 0.454194
O O1 0.888603 0.394037 0.190627
O O2 0.728787 0.387733 0.885110
O O3 0.779070 0.158778 0.010353
O O4 0.068026 0.167513 0.007613
O O5 0.234614 0.290010 0.367314
O O6 0.023576 0.188515 0.376330
O O7 0.000000 0.500000 0.500000
O O8 0.248218 0.558489 0.351033
O O9 0.524403 0.606716 0.406707
O O10 0.197079 0.861548 0.328866
O O11 0.502095 0.256382 0.310056
O O12 0.428292 0.995470 0.135055
O O13 0.703227 0.959699 0.390829
O O14 0.723165 0.021012 0.162556
O O15 0.000000 0.000000 0.500000
#
# Coordination Sequence:
#
# PCOD8011902 Si02
#       7
#     2   2   2   2   2   2   2
#     4  11  22  41  66  95 132 170 219 268 326 385
#     4  12  26  43  65  95 133 169 219 273 323 393
#     4  10  23  40  69  91 131 173 211 270 325 388
#     4  10  23  44  61  99 134 169 214 270 327 384
#     4  10  21  39  66  95 135 170 218 265 324 389
#     4  10  21  39  65 101 128 169 217 275 318 386
#     4  11  22  40  68  95 127 178 218 262 328 394
#
# _framework density 22.176414000000001
#
# number of rings (size 3 to 8) (size 9 to 14) (size 15 to 20)
#    0.000    1.429    1.429    4.286    2.000    4.000 
#    5.143    1.429    0.000    0.000    0.000    0.000 
#    0.000    0.000    0.000    0.000    0.000    0.000 
#
# Total GULP energy -173569.530083 kJ/mol
# GULP energy per Si atom -12397.823577 kJ/mol
# Density = 2.212594 g / cm^3
# Si number density = 22.176414 Si / 1000 Ang^3
#
#
#
# Elastic Constant Matrix: (Units=GPa)
#
#
# Indices 1 2 3 4 5 6 
#
# 1 95.9651 20.0117 43.3143 -0.1999 -2.3732 19.7387
# 2 20.0117 91.7181 53.0585 -1.3632 -2.0985 7.8497
# 3 43.3143 53.0585 200.2642 -5.3526 13.7521 1.5508
# 4 -0.1999 -1.3632 -5.3526 30.9541 -4.5114 -3.8304
# 5 -2.3732 -2.0985 13.7521 -4.5114 26.5136 2.2723
# 6 19.7387 7.8497 1.5508 -3.8304 2.2723 23.9396
#
#
#
# Elastic Compliance Matrix: (Units=1/GPa)
#
#
# Indices 1 2 3 4 5 6 
#
# 1 0.014584 -0.000135 -0.003325 -0.001458 0.003831 -0.012362
# 2 -0.000135 0.013565 -0.003765 -0.000111 0.003376 -0.004431
# 3 -0.003325 -0.003765 0.007006 0.000884 -0.004429 0.004084
# 4 -0.001458 -0.000111 0.000884 0.033883 0.004639 0.006162
# 5 0.003831 0.003376 -0.004429 0.004639 0.042033 -0.007226
# 6 -0.012362 -0.004431 0.004084 0.006162 -0.007226 0.054825
#
#
# Mechanical properties :
#
#
# Convention : Reuss Voigt Hill
#
# Bulk Modulus (GPa) = 48.29606 68.96849 58.63228
# Shear Modulus (GPa) = 26.70269 34.38567 30.54418
#
# Velocity S-wave (km/s) = 3.47378 3.94198 3.71526
# Velocity P-wave (km/s) = 6.15751 7.20322 6.70080
#
# Compressibility (1/GPa) = 0.02070562
#
# Stress axis : x y z
#
# Youngs Moduli (GPa) = 68.57045 73.71674 142.72881
#
# Poissons Ratio (x) = 0.00992 0.47455
# Poissons Ratio (y) = 0.00923 0.53743
# Poissons Ratio (z) = 0.22799 0.27757
#
# Static dielectric constant tensor:
#      x y z
#    x 4.066600 0.009400 0.147060 
#    y 0.009400 3.675630 0.070110 
#    z 0.147060 0.070110 4.456700 
# 
# 
# High freq. dielectric constant tensor:
#      x y z
#    x 1.873290 0.010210 0.012600 
#    y 0.010210 1.844900 0.004220 
#    z 0.012600 0.004220 1.897300 
# 
# From -- ./inp_files/159118.got.cif
#   From: 2010.06.25/outbox.cif.g09.slc.cpg/sg2_80_cif.got.tgz:159118.got - 2010.06.27 13:26:56.
