data_PCOD8011026
_publ_section_title
;
Structure prediction by ZEFSAII (Michael W. Deem and Ramdas Pophale) SiO2 
 PCOD8011026
Probable space group: P -1
;
_chemical_formula_sum "Si O2"
_cell_formula_units_Z 16
_cell_length_a 13.882426
_cell_length_b 9.324882
_cell_length_c 6.290961
_cell_angle_alpha 76.198031
_cell_angle_beta 69.036180
_cell_angle_gamma 73.288779
_cell_volume 719.922226
_symmetry_space_group_name_H-M "P -1"
_symmetry_group_IT_number 2
_symmetry_cell_setting 'triclinic'
loop_
_space_group_symop_operation_xyz
x,y,z
-x,-y,-z
loop_
_atom_site_type_symbol
_atom_site_label
_atom_site_fract_x
_atom_site_fract_y
_atom_site_fract_z
Si Si1 0.310389 0.793608 0.573091
Si Si2 0.596079 0.362827 0.833740
Si Si3 0.266411 0.531198 0.956401
Si Si4 0.521676 0.684370 0.678455
Si Si5 0.954125 0.107275 0.692434
Si Si6 0.891797 0.449507 0.582309
Si Si7 0.843324 0.950043 0.170847
Si Si8 0.264469 0.319594 0.670734
O O1 0.322134 0.763284 0.320425
O O2 0.249927 0.675869 0.766186
O O3 0.429699 0.778173 0.568946
O O4 0.237363 0.956410 0.624653
O O5 0.536966 0.502307 0.680852
O O6 0.653070 0.452331 0.926404
O O7 0.515662 0.283769 0.056497
O O8 0.303668 0.380469 0.838829
O O9 0.155848 0.523298 0.153422
O O10 0.630295 0.739058 0.534514
O O11 0.906128 0.272378 0.573764
O O12 0.046607 0.121354 0.777408
O O13 0.000000 0.000000 0.500000
O O14 0.863079 0.047002 0.914678
O O15 0.816951 0.545674 0.430429
O O16 0.000000 0.500000 0.500000
O O17 0.791140 0.815682 0.180117
#
# Coordination Sequence:
#
# PCOD8011026 Si02
#       8
#     2   2   2   2   2   2   2   2
#     4  11  22  41  68  95 135 180 222 271 325 401
#     4  10  21  38  66 101 131 174 225 273 326 387
#     4  11  23  40  70  97 133 175 222 276 323 394
#     4  10  22  36  66 100 133 172 222 273 329 393
#     4  11  27  46  71  95 134 176 222 271 338 401
#     4  12  25  45  67 102 128 172 222 277 333 390
#     4  11  27  47  65 100 135 178 218 273 339 398
#     4  12  26  43  68 101 138 170 222 280 329 393
#
# _framework density 22.224620999999999
#
# number of rings (size 3 to 8) (size 9 to 14) (size 15 to 20)
#    0.000    1.000    5.000    0.375    8.750    1.000 
#    0.000    0.625    0.000    0.000    0.000    0.000 
#    0.000    0.000    0.000    0.000    0.000    0.000 
#
# Total GULP energy -198367.887272 kJ/mol
# GULP energy per Si atom -12397.992954 kJ/mol
# Density = 2.217404 g / cm^3
# Si number density = 22.224621 Si / 1000 Ang^3
#
#
#
# Elastic Constant Matrix: (Units=GPa)
#
#
# Indices 1 2 3 4 5 6 
#
# 1 112.3646 33.8153 51.2369 -9.7099 -17.6770 2.4346
# 2 33.8153 117.7488 53.7463 1.9396 -8.2735 3.1651
# 3 51.2369 53.7463 131.0368 16.1736 -22.0980 6.6975
# 4 -9.7099 1.9396 16.1736 36.7926 3.5861 -6.8538
# 5 -17.6770 -8.2735 -22.0980 3.5861 38.3562 1.2390
# 6 2.4346 3.1651 6.6975 -6.8538 1.2390 31.0443
#
#
#
# Elastic Compliance Matrix: (Units=1/GPa)
#
#
# Indices 1 2 3 4 5 6 
#
# 1 0.012157 -0.001389 -0.004539 0.005300 0.002152 0.001252
# 2 -0.001389 0.010689 -0.004104 0.000980 -0.000796 0.000153
# 3 -0.004539 -0.004104 0.013232 -0.008099 0.005535 -0.004089
# 4 0.005300 0.000980 -0.008099 0.034305 -0.005511 0.009025
# 5 0.002152 -0.000796 0.005535 -0.005511 0.030716 -0.003725
# 6 0.001252 0.000153 -0.004089 0.009025 -0.003725 0.035122
#
#
# Mechanical properties :
#
#
# Convention : Reuss Voigt Hill
#
# Bulk Modulus (GPa) = 62.44815 70.97190 66.71002
# Shear Modulus (GPa) = 30.93644 36.06208 33.49926
#
# Velocity S-wave (km/s) = 3.73499 4.03254 3.88661
# Velocity P-wave (km/s) = 6.83811 7.32701 7.08678
#
# Compressibility (1/GPa) = 0.01601328
#
# Stress axis : x y z
#
# Youngs Moduli (GPa) = 82.25857 93.55740 75.57669
#
# Poissons Ratio (x) = 0.12997 0.34304
# Poissons Ratio (y) = 0.11427 0.31015
# Poissons Ratio (z) = 0.37336 0.38394
#
# Static dielectric constant tensor:
#      x y z
#    x 4.026380 -0.089440 -0.232830 
#    y -0.089440 3.790440 0.087540 
#    z -0.232830 0.087540 4.395430 
# 
# 
# High freq. dielectric constant tensor:
#      x y z
#    x 1.879910 -0.010650 -0.014640 
#    y -0.010650 1.846490 0.006740 
#    z -0.014640 0.006740 1.886940 
# 
# From -- ./inp_files/90023.got.cif
#   From: 2010.06.25/outbox.cif.g09.slc.cpg/sg2_46_cif.got.tgz:90023.got - 2010.06.27 13:26:56.
