data_PCOD8011002
_publ_section_title
;
Structure prediction by ZEFSAII (Michael W. Deem and Ramdas Pophale) SiO2 
 PCOD8011002
Probable space group: P -1
;
_chemical_formula_sum "Si O2"
_cell_formula_units_Z 14
_cell_length_a 12.319537
_cell_length_b 8.670617
_cell_length_c 8.975010
_cell_angle_alpha 48.824823
_cell_angle_beta 112.129788
_cell_angle_gamma 117.166296
_cell_volume 637.843600
_symmetry_space_group_name_H-M "P -1"
_symmetry_group_IT_number 2
_symmetry_cell_setting 'triclinic'
loop_
_space_group_symop_operation_xyz
x,y,z
-x,-y,-z
loop_
_atom_site_type_symbol
_atom_site_label
_atom_site_fract_x
_atom_site_fract_y
_atom_site_fract_z
Si Si1 0.694028 0.280666 0.983431
Si Si2 0.841127 0.425212 0.708795
Si Si3 0.114906 0.140175 0.381850
Si Si4 0.657392 0.015714 0.397140
Si Si5 0.512538 0.543164 0.652977
Si Si6 0.278010 0.556128 0.667864
Si Si7 0.893320 0.605037 0.061039
O O1 0.737958 0.239320 0.865794
O O2 0.604366 0.429812 0.847110
O O3 0.630610 0.059685 0.180287
O O4 0.821441 0.395481 0.063387
O O5 0.824535 0.643024 0.632016
O O6 0.808253 0.402159 0.533955
O O7 0.978100 0.416400 0.803679
O O8 0.206953 0.001370 0.505921
O O9 0.081568 0.187232 0.164719
O O10 0.000000 0.000000 0.500000
O O11 0.651102 0.218704 0.361239
O O12 0.559458 0.799467 0.540209
O O13 0.500000 0.500000 0.500000
O O14 0.380350 0.454995 0.720307
O O15 0.191289 0.383984 0.846616
#
# Coordination Sequence:
#
# PCOD8011002 Si02
#       7
#     2   2   2   2   2   2   2
#     4  10  21  41  69  93 124 168 220 258 319 376
#     4  11  20  42  65  93 133 168 213 267 316 382
#     4  11  20  39  66  95 129 169 220 258 313 390
#     4  11  23  41  65  98 125 167 218 261 326 376
#     4  12  23  46  67  92 129 170 221 264 315 383
#     4  11  24  41  63  95 132 170 209 272 321 376
#     4  10  21  38  65  96 128 171 208 262 329 366
#
# _framework density 21.948955000000002
#
# number of rings (size 3 to 8) (size 9 to 14) (size 15 to 20)
#    0.000    1.143    4.286    5.143    0.000    2.857 
#    2.571    4.286    0.000    0.000    0.000    0.000 
#    0.000    0.000    0.000    0.000    0.000    0.000 
#
# Total GULP energy -173576.806038 kJ/mol
# GULP energy per Si atom -12398.343288 kJ/mol
# Density = 2.189900 g / cm^3
# Si number density = 21.948955 Si / 1000 Ang^3
#
#
#
# Elastic Constant Matrix: (Units=GPa)
#
#
# Indices 1 2 3 4 5 6 
#
# 1 153.6809 14.3086 58.2039 2.7011 -15.7511 -4.1525
# 2 14.3086 33.3826 20.4967 13.0078 0.5579 -5.0426
# 3 58.2039 20.4967 150.3001 10.3780 -22.2206 6.7449
# 4 2.7011 13.0078 10.3780 29.5171 -6.1007 -2.0814
# 5 -15.7511 0.5579 -22.2206 -6.1007 38.8410 9.1820
# 6 -4.1525 -5.0426 6.7449 -2.0814 9.1820 23.9333
#
#
#
# Elastic Compliance Matrix: (Units=1/GPa)
#
#
# Indices 1 2 3 4 5 6 
#
# 1 0.007902 -0.002242 -0.002667 0.001634 0.001698 0.001141
# 2 -0.002242 0.044008 -0.006090 -0.018397 -0.011044 0.013237
# 3 -0.002667 -0.006090 0.009725 0.000315 0.006239 -0.006853
# 4 0.001634 -0.018397 0.000315 0.043290 0.008673 -0.003244
# 5 0.001698 -0.011044 0.006239 0.008673 0.035458 -0.016640
# 6 0.001141 0.013237 -0.006853 -0.003244 -0.016640 0.052803
#
#
# Mechanical properties :
#
#
# Convention : Reuss Voigt Hill
#
# Bulk Modulus (GPa) = 25.22897 58.15356 41.69126
# Shear Modulus (GPa) = 21.89181 34.74857 28.32019
#
# Velocity S-wave (km/s) = 3.16158 3.98320 3.59594
# Velocity P-wave (km/s) = 4.98466 6.90702 6.02303
#
# Compressibility (1/GPa) = 0.03963698
#
# Stress axis : x y z
#
# Youngs Moduli (GPa) = 126.54913 22.72302 102.82871
#
# Poissons Ratio (x) = 0.05094 0.27429
# Poissons Ratio (y) = 0.28372 0.62620
# Poissons Ratio (z) = 0.33756 0.13838
#
# Static dielectric constant tensor:
#      x y z
#    x 4.150600 0.071400 -0.303840 
#    y 0.071400 3.609820 0.002360 
#    z -0.303840 0.002360 4.598540 
# 
# 
# High freq. dielectric constant tensor:
#      x y z
#    x 1.881520 0.004720 -0.008330 
#    y 0.004720 1.821500 0.010520 
#    z -0.008330 0.010520 1.879910 
# 
# From -- ./inp_files/178392.got.cif
#   From: 2010.06.25/outbox.cif.g09.slc.cpg/sg2_90_cif.got.tgz:178392.got - 2010.06.27 13:26:56.
