data_PCOD8011046
_publ_section_title
;
Structure prediction by ZEFSAII (Michael W. Deem and Ramdas Pophale) SiO2 
 PCOD8011046
Probable space group: P -1
;
_chemical_formula_sum "Si O2"
_cell_formula_units_Z 16
_cell_length_a 8.589199
_cell_length_b 11.777475
_cell_length_c 15.476499
_cell_angle_alpha 77.042843
_cell_angle_beta 43.882384
_cell_angle_gamma 52.776639
_cell_volume 798.013465
_symmetry_space_group_name_H-M "P -1"
_symmetry_group_IT_number 2
_symmetry_cell_setting 'triclinic'
loop_
_space_group_symop_operation_xyz
x,y,z
-x,-y,-z
loop_
_atom_site_type_symbol
_atom_site_label
_atom_site_fract_x
_atom_site_fract_y
_atom_site_fract_z
Si Si1 0.980537 0.023480 0.870262
Si Si2 0.583848 0.110879 0.735790
Si Si3 0.289399 0.354854 0.956220
Si Si4 0.305887 0.317234 0.646981
Si Si5 0.442241 0.904834 0.838984
Si Si6 0.734584 0.351630 0.873519
Si Si7 0.019257 0.347011 0.239609
Si Si8 0.856006 0.138421 0.347287
O O1 0.883110 0.191710 0.889926
O O2 0.259349 0.896792 0.841693
O O3 0.061329 0.966633 0.750324
O O4 0.710727 0.039382 0.014092
O O5 0.430466 0.205394 0.868857
O O6 0.497037 0.221568 0.671936
O O7 0.459932 0.027984 0.774458
O O8 0.936072 0.976760 0.637145
O O9 0.541695 0.370094 0.865494
O O10 0.000000 0.500000 0.000000
O O11 0.198085 0.334255 0.088179
O O12 0.238375 0.476673 0.659973
O O13 0.516213 0.229466 0.494608
O O14 0.005137 0.347049 0.743211
O O15 0.760850 0.735581 0.751994
O O16 0.500000 0.500000 0.000000
O O17 0.891868 0.261770 0.286970
#
# Coordination Sequence:
#
# PCOD8011046 Si02
#       8
#     2   2   2   2   2   2   2   2
#     4  11  21  40  63  96 126 166 215 259 325 373
#     4  11  21  40  64  98 123 170 214 267 313 372
#     4  12  22  39  68  99 125 153 214 271 322 365
#     4  12  24  43  63  93 133 173 212 258 321 383
#     4  10  21  38  66  91 126 162 212 272 314 374
#     4  12  22  41  66  96 129 163 207 269 324 368
#     4  11  22  43  64  91 127 170 214 261 320 371
#     4  11  25  42  64  92 132 175 215 255 312 389
#
# _framework density 20.049789000000001
#
# number of rings (size 3 to 8) (size 9 to 14) (size 15 to 20)
#    0.000    0.750    6.250    1.500    0.000    2.500 
#    2.250    0.625    0.000    0.000    0.000    0.000 
#    0.000    0.000    0.000    0.000    0.000    0.000 
#
# Total GULP energy -198327.367415 kJ/mol
# GULP energy per Si atom -12395.460463 kJ/mol
# Density = 2.000415 g / cm^3
# Si number density = 20.049789 Si / 1000 Ang^3
#
#
#
# Elastic Constant Matrix: (Units=GPa)
#
#
# Indices 1 2 3 4 5 6 
#
# 1 92.8494 40.2641 34.8159 -1.1828 -9.3581 -16.2271
# 2 40.2641 132.7469 34.7484 5.5392 -3.1374 -5.6477
# 3 34.8159 34.7484 91.2424 12.4833 -12.4417 -4.6100
# 4 -1.1828 5.5392 12.4833 17.4993 -0.1504 -0.5920
# 5 -9.3581 -3.1374 -12.4417 -0.1504 29.7944 -0.4535
# 6 -16.2271 -5.6477 -4.6100 -0.5920 -0.4535 20.6148
#
#
#
# Elastic Compliance Matrix: (Units=1/GPa)
#
#
# Indices 1 2 3 4 5 6 
#
# 1 0.016371 -0.003417 -0.004801 0.006015 0.002977 0.011115
# 2 -0.003417 0.009140 -0.002129 -0.001639 -0.001019 -0.000731
# 3 -0.004801 -0.002129 0.015677 -0.010829 0.004744 -0.001063
# 4 0.006015 -0.001639 -0.010829 0.065900 -0.002417 0.003703
# 5 0.002977 -0.001019 0.004744 -0.002417 0.036419 0.003857
# 6 0.011115 -0.000731 -0.001063 0.003703 0.003857 0.057011
#
#
# Mechanical properties :
#
#
# Convention : Reuss Voigt Hill
#
# Bulk Modulus (GPa) = 48.79111 59.61061 54.20086
# Shear Modulus (GPa) = 21.92570 27.38239 24.65404
#
# Velocity S-wave (km/s) = 3.31049 3.69957 3.51043
# Velocity P-wave (km/s) = 6.24502 6.93145 6.59717
#
# Compressibility (1/GPa) = 0.02049554
#
# Stress axis : x y z
#
# Youngs Moduli (GPa) = 61.08265 109.41062 63.78682
#
# Poissons Ratio (x) = 0.37381 0.30624
# Poissons Ratio (y) = 0.20870 0.13579
# Poissons Ratio (z) = 0.29326 0.23291
#
# Static dielectric constant tensor:
#      x y z
#    x 3.688860 -0.103420 -0.190180 
#    y -0.103420 3.871640 0.075980 
#    z -0.190180 0.075980 3.541540 
# 
# 
# High freq. dielectric constant tensor:
#      x y z
#    x 1.781440 -0.008980 -0.012780 
#    y -0.008980 1.798970 0.008360 
#    z -0.012780 0.008360 1.767530 
# 
# From -- ./inp_files/179183.got.cif
#   From: 2010.06.25/outbox.cif.g09.slc.cpg/sg2_90_cif.got.tgz:179183.got - 2010.06.27 13:26:56.
