data_PCOD8011913
_publ_section_title
;
Structure prediction by ZEFSAII (Michael W. Deem and Ramdas Pophale) SiO2 
 PCOD8011913
Probable space group: P -1
;
_chemical_formula_sum "Si O2"
_cell_formula_units_Z 14
_cell_length_a 11.788248
_cell_length_b 23.574568
_cell_length_c 14.965652
_cell_angle_alpha 19.665760
_cell_angle_beta 36.732863
_cell_angle_gamma 29.687063
_cell_volume 689.725672
_symmetry_space_group_name_H-M "P -1"
_symmetry_group_IT_number 2
_symmetry_cell_setting 'triclinic'
loop_
_space_group_symop_operation_xyz
x,y,z
-x,-y,-z
loop_
_atom_site_type_symbol
_atom_site_label
_atom_site_fract_x
_atom_site_fract_y
_atom_site_fract_z
Si Si1 0.122470 0.450565 0.089634
Si Si2 0.016279 0.265328 0.084632
Si Si3 0.999403 0.159252 0.639870
Si Si4 0.887084 0.574498 0.556900
Si Si5 0.627689 0.382092 0.388072
Si Si6 0.644454 0.193890 0.479659
Si Si7 0.851410 0.263678 0.775703
O O1 0.170682 0.235624 0.412796
O O2 0.962093 0.625576 0.004057
O O3 0.346610 0.452603 0.927324
O O4 0.000000 0.500000 0.000000
O O5 0.786378 0.267553 0.229924
O O6 0.012023 0.376647 0.833406
O O7 0.246935 0.039367 0.269229
O O8 0.817868 0.257580 0.528249
O O9 0.857173 0.229838 0.716734
O O10 0.151083 0.912772 0.907289
O O11 0.617304 0.672570 0.584767
O O12 0.000000 0.500000 0.500000
O O13 0.928844 0.741033 0.321956
O O14 0.655439 0.215459 0.547739
O O15 0.374265 0.511928 0.395974
#
# Coordination Sequence:
#
# PCOD8011913 Si02
#       7
#     2   2   2   2   2   2   2
#     4   9  19  41  64  89 116 156 206 253 295 353
#     4  10  22  43  65  89 123 160 206 252 303 356
#     4  10  22  41  60  85 123 159 208 247 295 360
#     4  12  24  40  62  92 130 159 200 249 305 369
#     4  10  21  39  65  87 120 158 202 253 303 352
#     4  10  23  41  65  93 118 162 204 251 306 360
#     4  11  23  40  59  90 124 162 199 247 306 361
#
# _framework density 20.297927000000001
#
# number of rings (size 3 to 8) (size 9 to 14) (size 15 to 20)
#    0.000    1.714    2.857    0.857    2.000    2.286 
#   10.286    0.000    0.000    0.000    0.000    0.000 
#    0.000    0.000    0.000    0.000    0.000    0.000 
#
# Total GULP energy -173562.033625 kJ/mol
# GULP energy per Si atom -12397.288116 kJ/mol
# Density = 2.025173 g / cm^3
# Si number density = 20.297927 Si / 1000 Ang^3
#
#
#
# Elastic Constant Matrix: (Units=GPa)
#
#
# Indices 1 2 3 4 5 6 
#
# 1 90.4830 17.8108 28.9855 -2.7351 -2.3331 19.9428
# 2 17.8108 70.6249 11.6341 -3.2817 8.0017 11.8989
# 3 28.9855 11.6341 106.6199 8.7651 0.2555 15.1763
# 4 -2.7351 -3.2817 8.7651 23.2655 5.6624 0.8918
# 5 -2.3331 8.0017 0.2555 5.6624 27.8240 3.3321
# 6 19.9428 11.8989 15.1763 0.8918 3.3321 32.4590
#
#
#
# Elastic Compliance Matrix: (Units=1/GPa)
#
#
# Indices 1 2 3 4 5 6 
#
# 1 0.013971 -0.002065 -0.002784 0.002132 0.002172 -0.006806
# 2 -0.002065 0.016243 -0.000970 0.003815 -0.005156 -0.003808
# 3 -0.002784 -0.000970 0.011080 -0.004836 0.001301 -0.003115
# 4 0.002132 0.003815 -0.004836 0.048199 -0.010601 -0.000684
# 5 0.002172 -0.005156 0.001301 -0.010601 0.040216 -0.003890
# 6 -0.006806 -0.003808 -0.003115 -0.000684 -0.003890 0.038260
#
#
# Mechanical properties :
#
#
# Convention : Reuss Voigt Hill
#
# Bulk Modulus (GPa) = 33.72212 42.73206 38.22709
# Shear Modulus (GPa) = 26.38628 30.66287 28.52457
#
# Velocity S-wave (km/s) = 3.60939 3.89091 3.75279
# Velocity P-wave (km/s) = 5.83266 6.42524 6.13611
#
# Compressibility (1/GPa) = 0.02965413
#
# Stress axis : x y z
#
# Youngs Moduli (GPa) = 71.57755 61.56583 90.25500
#
# Poissons Ratio (x) = 0.12712 0.25131
# Poissons Ratio (y) = 0.14780 0.08757
# Poissons Ratio (z) = 0.19931 0.05974
#
# Static dielectric constant tensor:
#      x y z
#    x 3.861940 0.138700 -0.340970 
#    y 0.138700 3.625990 0.294930 
#    z -0.340970 0.294930 3.991710 
# 
# 
# High freq. dielectric constant tensor:
#      x y z
#    x 1.799220 0.017030 -0.012740 
#    y 0.017030 1.786300 0.015990 
#    z -0.012740 0.015990 1.796910 
# 
# From -- ./inp_files/52730.got.cif
#   From: 2010.06.25/outbox.cif.g09.slc.cpg/sg2_27_cif.got.tgz:52730.got - 2010.06.27 13:26:56.
