data_PCOD8011023
_publ_section_title
;
Structure prediction by ZEFSAII (Michael W. Deem and Ramdas Pophale) SiO2 
 PCOD8011023
Probable space group: P -1
;
_chemical_formula_sum "Si O2"
_cell_formula_units_Z 16
_cell_length_a 12.146640
_cell_length_b 12.854396
_cell_length_c 13.514729
_cell_angle_alpha 131.508629
_cell_angle_beta 148.868877
_cell_angle_gamma 69.236221
_cell_volume 682.524196
_symmetry_space_group_name_H-M "P -1"
_symmetry_group_IT_number 2
_symmetry_cell_setting 'triclinic'
loop_
_space_group_symop_operation_xyz
x,y,z
-x,-y,-z
loop_
_atom_site_type_symbol
_atom_site_label
_atom_site_fract_x
_atom_site_fract_y
_atom_site_fract_z
Si Si1 0.225540 0.947324 0.216506
Si Si2 0.832519 0.672461 0.603377
Si Si3 0.234845 0.074476 0.653093
Si Si4 0.914077 0.187691 0.776407
Si Si5 0.279986 0.675122 0.691909
Si Si6 0.601919 0.775410 0.816001
Si Si7 0.001185 0.838945 0.633234
Si Si8 0.514697 0.267579 0.524572
O O1 0.086272 0.923362 0.200250
O O2 0.500000 0.000000 0.500000
O O3 0.269003 0.089493 0.262815
O O4 0.060533 0.772074 0.921811
O O5 0.822695 0.508237 0.462446
O O6 0.549747 0.612183 0.392132
O O7 0.890897 0.788606 0.626898
O O8 0.215852 0.181325 0.619437
O O9 0.241683 0.925976 0.509799
O O10 0.494102 0.186880 0.979749
O O11 0.000000 0.000000 0.500000
O O12 0.788501 0.291739 0.775516
O O13 0.216924 0.291793 0.052806
O O14 0.361816 0.690783 0.650731
O O15 0.057869 0.706896 0.550623
O O16 0.490902 0.709010 0.580797
O O17 0.749101 0.974234 0.064225
#
# Coordination Sequence:
#
# PCOD8011023 Si02
#       8
#     2   2   2   2   2   2   2   2
#     4  10  21  40  68  96 126 172 227 272 322 395
#     4  12  25  45  65 103 139 171 223 281 335 395
#     4  11  23  42  69  99 131 171 232 271 316 407
#     4  10  21  38  66 101 124 166 231 277 313 383
#     4  12  27  43  66 100 143 176 215 280 339 389
#     4  11  21  40  70  98 127 173 227 268 324 400
#     4  11  24  45  70  94 132 184 226 270 328 399
#     4  11  21  39  70  95 128 173 221 273 327 392
#
# _framework density 23.442391000000001
#
# number of rings (size 3 to 8) (size 9 to 14) (size 15 to 20)
#    0.000    1.000    5.000    3.375    3.500    1.000 
#    4.500    0.625    0.000    0.000    0.000    0.000 
#    0.000    0.000    0.000    0.000    0.000    0.000 
#
# Total GULP energy -198292.005077 kJ/mol
# GULP energy per Si atom -12393.250317 kJ/mol
# Density = 2.338904 g / cm^3
# Si number density = 23.442391 Si / 1000 Ang^3
#
#
#
# Elastic Constant Matrix: (Units=GPa)
#
#
# Indices 1 2 3 4 5 6 
#
# 1 119.7133 9.3049 14.3927 -19.0291 -8.5169 5.8240
# 2 9.3049 76.7429 9.3135 -17.1329 4.1480 -16.0643
# 3 14.3927 9.3135 34.5861 -8.7997 -4.9032 4.6251
# 4 -19.0291 -17.1329 -8.7997 24.9169 4.3098 3.8522
# 5 -8.5169 4.1480 -4.9032 4.3098 20.3100 -7.6138
# 6 5.8240 -16.0643 4.6251 3.8522 -7.6138 45.5107
#
#
#
# Elastic Compliance Matrix: (Units=1/GPa)
#
#
# Indices 1 2 3 4 5 6 
#
# 1 0.009851 0.000227 -0.002003 0.006883 0.001660 -0.001282
# 2 0.000227 0.017036 -0.003205 0.010865 -0.004740 0.004597
# 3 -0.002003 -0.003205 0.033895 0.008076 0.004703 -0.004216
# 4 0.006883 0.010865 0.008076 0.058448 -0.011566 -0.004749
# 5 0.001660 -0.004740 0.004703 -0.011566 0.057583 0.008249
# 6 -0.001282 0.004597 -0.004216 -0.004749 0.008249 0.025970
#
#
# Mechanical properties :
#
#
# Convention : Reuss Voigt Hill
#
# Bulk Modulus (GPa) = 19.67636 33.00717 26.34177
# Shear Modulus (GPa) = 21.76912 31.34960 26.55936
#
# Velocity S-wave (km/s) = 3.05064 3.66088 3.36960
# Velocity P-wave (km/s) = 4.56292 5.65510 5.13811
#
# Compressibility (1/GPa) = 0.05082241
#
# Stress axis : x y z
#
# Youngs Moduli (GPa) = 101.51276 58.69925 29.50290
#
# Poissons Ratio (x) = -0.01334 0.05908
# Poissons Ratio (y) = -0.02307 0.09454
# Poissons Ratio (z) = 0.20329 0.18810
#
# Static dielectric constant tensor:
#      x y z
#    x 4.875430 0.046470 0.156580 
#    y 0.046470 4.389620 -0.236180 
#    z 0.156580 -0.236180 3.973820 
# 
# 
# High freq. dielectric constant tensor:
#      x y z
#    x 1.954870 -0.001650 0.000210 
#    y -0.001650 1.926740 -0.020280 
#    z 0.000210 -0.020280 1.891150 
# 
# From -- ./inp_files/522549.got.cif
#   From: 2010.06.25/outbox.cif.g09.slc.cpg/sg2_262_cif.got.tgz:522549.got - 2010.06.27 13:26:56.
