data_PCOD8011109
_publ_section_title
;
Structure prediction by ZEFSAII (Michael W. Deem and Ramdas Pophale) SiO2 
 PCOD8011109
Probable space group: P -1
;
_chemical_formula_sum "Si O2"
_cell_formula_units_Z 16
_cell_length_a 15.029256
_cell_length_b 11.934211
_cell_length_c 8.723764
_cell_angle_alpha 109.588087
_cell_angle_beta 106.282133
_cell_angle_gamma 133.277155
_cell_volume 717.344098
_symmetry_space_group_name_H-M "P -1"
_symmetry_group_IT_number 2
_symmetry_cell_setting 'triclinic'
loop_
_space_group_symop_operation_xyz
x,y,z
-x,-y,-z
loop_
_atom_site_type_symbol
_atom_site_label
_atom_site_fract_x
_atom_site_fract_y
_atom_site_fract_z
Si Si1 0.262926 0.657924 0.127043
Si Si2 0.042785 0.812035 0.732756
Si Si3 0.672110 0.695615 0.847888
Si Si4 0.673485 0.040829 0.542311
Si Si5 0.074627 0.243730 0.014309
Si Si6 0.705979 0.345046 0.207212
Si Si7 0.701059 0.090514 0.229113
Si Si8 0.690199 0.802357 0.575570
O O1 0.460853 0.834088 0.355389
O O2 0.122102 0.401315 0.993220
O O3 0.214135 0.729589 0.214879
O O4 0.251134 0.661245 0.941107
O O5 0.147717 0.803231 0.756456
O O6 0.983496 0.762622 0.856108
O O7 0.858823 0.611739 0.448946
O O8 0.188705 0.076289 0.871452
O O9 0.762223 0.667848 0.840263
O O10 0.635180 0.733328 0.696214
O O11 0.471024 0.445156 0.710606
O O12 0.707404 0.958076 0.611167
O O13 0.744333 0.106422 0.433058
O O14 0.895690 0.975958 0.735737
O O15 0.712922 0.245767 0.287719
O O16 0.504247 0.181356 0.038927
#
# Coordination Sequence:
#
# PCOD8011109 Si02
#       8
#     2   2   2   2   2   2   2   2
#     4  10  22  39  67  97 124 165 207 260 313 375
#     4  11  23  39  65  92 122 170 205 258 310 373
#     4  10  23  43  63  95 124 162 221 261 304 367
#     4  10  21  41  66  94 128 162 207 262 314 367
#     4  11  23  41  66  95 126 159 219 263 306 367
#     4  10  23  41  64  91 132 168 199 256 318 374
#     4  10  23  42  60  93 133 164 206 249 318 385
#     4  10  21  38  67  91 121 163 206 266 307 361
#
# _framework density 22.304497999999999
#
# number of rings (size 3 to 8) (size 9 to 14) (size 15 to 20)
#    0.000    1.750    1.250    2.625    5.250    5.500 
#    0.000    1.250    2.750    0.000    0.000    0.000 
#    0.000    0.000    0.000    0.000    0.000    0.000 
#
# Total GULP energy -198326.575949 kJ/mol
# GULP energy per Si atom -12395.410997 kJ/mol
# Density = 2.225373 g / cm^3
# Si number density = 22.304498 Si / 1000 Ang^3
#
#
#
# Elastic Constant Matrix: (Units=GPa)
#
#
# Indices 1 2 3 4 5 6 
#
# 1 45.5387 22.1964 20.2971 -10.0229 3.4222 3.2069
# 2 22.1964 98.2314 43.4152 3.6346 4.9386 -11.4711
# 3 20.2971 43.4152 132.4947 28.5968 5.2882 4.2708
# 4 -10.0229 3.6346 28.5968 34.5965 -2.7499 7.9626
# 5 3.4222 4.9386 5.2882 -2.7499 21.1882 3.1428
# 6 3.2069 -11.4711 4.2708 7.9626 3.1428 31.5725
#
#
#
# Elastic Compliance Matrix: (Units=1/GPa)
#
#
# Indices 1 2 3 4 5 6 
#
# 1 0.032303 -0.006254 -0.006462 0.017611 0.001514 -0.009271
# 2 -0.006254 0.014088 -0.003240 -0.002473 -0.002839 0.007098
# 3 -0.006462 -0.003240 0.012323 -0.012236 -0.003043 0.001201
# 4 0.017611 -0.002473 -0.012236 0.048363 0.009160 -0.014141
# 5 0.001514 -0.002839 -0.003043 0.009160 0.050769 -0.008137
# 6 -0.009271 0.007098 0.001201 -0.014141 -0.008137 0.039408
#
#
# Mechanical properties :
#
#
# Convention : Reuss Voigt Hill
#
# Bulk Modulus (GPa) = 37.31003 49.78690 43.54847
# Shear Modulus (GPa) = 20.99969 30.16184 25.58077
#
# Velocity S-wave (km/s) = 3.07172 3.68132 3.39025
# Velocity P-wave (km/s) = 5.41706 6.35920 5.90694
#
# Compressibility (1/GPa) = 0.02680245
#
# Stress axis : x y z
#
# Youngs Moduli (GPa) = 30.95706 70.98097 81.15093
#
# Poissons Ratio (x) = 0.44388 0.52440
# Poissons Ratio (y) = 0.19359 0.26294
# Poissons Ratio (z) = 0.20004 0.22999
#
# Static dielectric constant tensor:
#      x y z
#    x 3.762150 0.006080 0.203280 
#    y 0.006080 4.046850 0.490040 
#    z 0.203280 0.490040 4.515710 
# 
# 
# High freq. dielectric constant tensor:
#      x y z
#    x 1.854870 -0.005260 0.021480 
#    y -0.005260 1.876320 0.024330 
#    z 0.021480 0.024330 1.888120 
# 
# From -- ./inp_files/308140.got.cif
#   From: 2010.06.25/outbox.cif.g09.slc.cpg/sg2_155_cif.got.tgz:308140.got - 2010.06.27 13:26:56.
