data_PCOD8011075
_publ_section_title
;
Structure prediction by ZEFSAII (Michael W. Deem and Ramdas Pophale) SiO2 
 PCOD8011075
Probable space group: P -1
;
_chemical_formula_sum "Si O2"
_cell_formula_units_Z 14
_cell_length_a 21.519236
_cell_length_b 15.469627
_cell_length_c 8.871431
_cell_angle_alpha 47.717490
_cell_angle_beta 29.082343
_cell_angle_gamma 30.167591
_cell_volume 678.692608
_symmetry_space_group_name_H-M "P -1"
_symmetry_group_IT_number 2
_symmetry_cell_setting 'triclinic'
loop_
_space_group_symop_operation_xyz
x,y,z
-x,-y,-z
loop_
_atom_site_type_symbol
_atom_site_label
_atom_site_fract_x
_atom_site_fract_y
_atom_site_fract_z
Si Si1 0.469747 0.255489 0.740328
Si Si2 0.477116 0.707018 0.102216
Si Si3 0.840415 0.921639 0.185624
Si Si4 0.894443 0.329709 0.648662
Si Si5 0.252648 0.649125 0.760927
Si Si6 0.881531 0.971847 0.722457
Si Si7 0.848996 0.701876 0.642693
O O1 0.525027 0.198030 0.867975
O O2 0.325653 0.468070 0.774163
O O3 0.671437 0.128621 0.364904
O O4 0.356453 0.217783 0.970451
O O5 0.425862 0.620543 0.397023
O O6 0.324651 0.845554 0.132641
O O7 0.700360 0.539229 0.756482
O O8 0.811764 0.817629 0.449013
O O9 0.818716 0.930034 0.041058
O O10 0.061129 0.818899 0.867278
O O11 0.977872 0.197027 0.490317
O O12 0.063802 0.296610 0.395328
O O13 0.821497 0.293370 0.976931
O O14 0.000000 0.000000 0.500000
O O15 0.000000 0.500000 0.500000
#
# Coordination Sequence:
#
# PCOD8011075 Si02
#       7
#     2   2   2   2   2   2   2
#     4  11  22  40  72  93 119 166 213 270 313 351
#     4  11  22  39  66  95 126 165 215 257 315 371
#     4  11  24  40  61  94 128 166 207 254 317 377
#     4  10  23  41  65  93 126 160 218 261 309 365
#     4  10  21  38  66  97 122 158 222 267 303 362
#     4  12  27  41  58  93 142 172 195 248 324 390
#     4  11  20  46  71  92 119 159 222 274 303 356
#
# _framework density 20.627894999999999
#
# number of rings (size 3 to 8) (size 9 to 14) (size 15 to 20)
#    0.000    1.143    5.714    3.857    4.000    2.857 
#    0.000    3.571    0.000    0.000    0.000    0.000 
#    0.000    0.000    0.000    0.000    0.000    0.000 
#
# Total GULP energy -173591.911299 kJ/mol
# GULP energy per Si atom -12399.422236 kJ/mol
# Density = 2.058095 g / cm^3
# Si number density = 20.627895 Si / 1000 Ang^3
#
#
#
# Elastic Constant Matrix: (Units=GPa)
#
#
# Indices 1 2 3 4 5 6 
#
# 1 147.3888 63.7217 71.4108 24.6759 2.1691 1.5280
# 2 63.7217 74.5981 61.6080 27.2321 15.3455 -2.8150
# 3 71.4108 61.6080 92.2989 12.0041 -7.1365 3.3366
# 4 24.6759 27.2321 12.0041 27.0056 7.2512 -6.0469
# 5 2.1691 15.3455 -7.1365 7.2512 46.9137 3.3880
# 6 1.5280 -2.8150 3.3366 -6.0469 3.3880 39.8842
#
#
#
# Elastic Compliance Matrix: (Units=1/GPa)
#
#
# Indices 1 2 3 4 5 6 
#
# 1 0.012263 -0.003139 -0.006625 -0.005413 0.000360 -0.000988
# 2 -0.003139 0.070168 -0.040732 -0.042820 -0.022667 0.003914
# 3 -0.006625 -0.040732 0.041547 0.023302 0.016636 -0.003977
# 4 -0.005413 -0.042820 0.023302 0.074583 0.005837 0.006048
# 5 0.000360 -0.022667 0.016636 0.005837 0.030683 -0.004727
# 6 -0.000988 0.003914 -0.003977 0.006048 -0.004727 0.027038
#
#
# Mechanical properties :
#
#
# Convention : Reuss Voigt Hill
#
# Bulk Modulus (GPa) = 43.50513 78.64075 61.07294
# Shear Modulus (GPa) = 13.70098 30.59707 22.14903
#
# Velocity S-wave (km/s) = 2.58000 3.85552 3.28035
# Velocity P-wave (km/s) = 5.47827 7.61750 6.63467
#
# Compressibility (1/GPa) = 0.02298580
#
# Stress axis : x y z
#
# Youngs Moduli (GPa) = 81.54717 14.25147 24.06890
#
# Poissons Ratio (x) = 0.04474 0.15945
# Poissons Ratio (y) = 0.25601 0.98038
# Poissons Ratio (z) = 0.54022 0.58050
#
# Static dielectric constant tensor:
#      x y z
#    x 3.885850 -0.078370 -0.439980 
#    y -0.078370 3.738500 0.128460 
#    z -0.439980 0.128460 4.249000 
# 
# 
# High freq. dielectric constant tensor:
#      x y z
#    x 1.798490 -0.005200 -0.018130 
#    y -0.005200 1.809130 0.021800 
#    z -0.018130 0.021800 1.808250 
# 
# From -- ./inp_files/274232.got.cif
#   From: 2010.06.25/outbox.cif.g09.slc.cpg/sg2_138_cif.got.tgz:274232.got - 2010.06.27 13:26:56.
