data_PCOD8011029
_publ_section_title
;
Structure prediction by ZEFSAII (Michael W. Deem and Ramdas Pophale) SiO2 
 PCOD8011029
Probable space group: P -1
;
_chemical_formula_sum "Si O2"
_cell_formula_units_Z 16
_cell_length_a 8.785661
_cell_length_b 9.463713
_cell_length_c 14.938161
_cell_angle_alpha 79.112370
_cell_angle_beta 40.211424
_cell_angle_gamma 88.860102
_cell_volume 772.139672
_symmetry_space_group_name_H-M "P -1"
_symmetry_group_IT_number 2
_symmetry_cell_setting 'triclinic'
loop_
_space_group_symop_operation_xyz
x,y,z
-x,-y,-z
loop_
_atom_site_type_symbol
_atom_site_label
_atom_site_fract_x
_atom_site_fract_y
_atom_site_fract_z
Si Si1 0.125887 0.195345 0.845091
Si Si2 0.889985 0.137888 0.138950
Si Si3 0.236414 0.794567 0.149635
Si Si4 0.609049 0.300501 0.537786
Si Si5 0.438518 0.211478 0.425059
Si Si6 0.244586 0.126002 0.139358
Si Si7 0.902470 0.068007 0.449494
Si Si8 0.092584 0.422866 0.552251
O O1 0.374306 0.308172 0.701681
O O2 0.938037 0.225932 0.853274
O O3 0.185880 0.033165 0.830780
O O4 0.020892 0.225795 0.984840
O O5 0.654858 0.202632 0.261002
O O6 0.076665 0.162926 0.132101
O O7 0.134610 0.680006 0.286606
O O8 0.269360 0.957207 0.154754
O O9 0.495975 0.769061 0.002865
O O10 0.537905 0.251851 0.474569
O O11 0.742287 0.182586 0.538928
O O12 0.780625 0.459574 0.445185
O O13 0.288984 0.329967 0.442152
O O14 0.254248 0.054896 0.530187
O O15 0.126804 0.159289 0.282014
O O16 0.000000 0.000000 0.500000
O O17 0.000000 0.500000 0.500000
#
# Coordination Sequence:
#
# PCOD8011029 Si02
#       8
#     2   2   2   2   2   2   2   2
#     4  10  21  38  66 103 130 169 221 276 335 392
#     4  10  21  38  68 101 131 165 221 285 331 390
#     4  10  22  40  65  92 136 174 215 271 339 398
#     4  12  24  42  71  94 132 180 225 277 336 396
#     4  12  22  45  69  97 131 175 235 277 326 397
#     4  10  21  39  65  99 132 168 216 280 336 388
#     4  12  24  38  69 104 132 170 225 283 332 393
#     4  12  27  45  67  98 137 183 225 275 341 410
#
# _framework density 20.721641000000002
#
# number of rings (size 3 to 8) (size 9 to 14) (size 15 to 20)
#    0.000    1.000    5.000    2.250    3.500    1.000 
#    0.000    1.250    0.000    0.000    0.000    0.000 
#    0.000    0.000    0.000    0.000    0.000    0.000 
#
# Total GULP energy -198444.606243 kJ/mol
# GULP energy per Si atom -12402.787890 kJ/mol
# Density = 2.067448 g / cm^3
# Si number density = 20.721641 Si / 1000 Ang^3
#
#
#
# Elastic Constant Matrix: (Units=GPa)
#
#
# Indices 1 2 3 4 5 6 
#
# 1 76.0600 33.3104 82.8614 -3.8669 -4.3475 -12.4575
# 2 33.3104 76.3237 47.8267 -1.4001 -12.4315 -9.7842
# 3 82.8614 47.8267 193.5618 8.2518 -3.5833 -8.1251
# 4 -3.8669 -1.4001 8.2518 29.8673 -2.9783 -4.2365
# 5 -4.3475 -12.4315 -3.5833 -2.9783 41.0124 -0.6339
# 6 -12.4575 -9.7842 -8.1251 -4.2365 -0.6339 31.2799
#
#
#
# Elastic Compliance Matrix: (Units=1/GPa)
#
#
# Indices 1 2 3 4 5 6 
#
# 1 0.029436 -0.004101 -0.011547 0.008185 0.001595 0.008582
# 2 -0.004101 0.017747 -0.002470 0.001992 0.004930 0.003646
# 3 -0.011547 -0.002470 0.010776 -0.005203 -0.001460 -0.003306
# 4 0.008185 0.001992 -0.005203 0.037549 0.003863 0.007695
# 5 0.001595 0.004930 -0.001460 0.003863 0.026243 0.002853
# 6 0.008582 0.003646 -0.003306 0.007695 0.002853 0.036769
#
#
# Mechanical properties :
#
#
# Convention : Reuss Voigt Hill
#
# Bulk Modulus (GPa) = 46.03586 74.88250 60.45918
# Shear Modulus (GPa) = 24.75291 32.56173 28.65732
#
# Velocity S-wave (km/s) = 3.45997 3.96837 3.72286
# Velocity P-wave (km/s) = 6.18275 7.56393 6.90795
#
# Compressibility (1/GPa) = 0.02172220
#
# Stress axis : x y z
#
# Youngs Moduli (GPa) = 33.97177 56.34896 92.80091
#
# Poissons Ratio (x) = 0.23109 1.07158
# Poissons Ratio (y) = 0.13932 0.22921
# Poissons Ratio (z) = 0.39228 0.13918
#
# Static dielectric constant tensor:
#      x y z
#    x 3.762710 -0.054510 -0.208700 
#    y -0.054510 3.642360 0.028580 
#    z -0.208700 0.028580 4.295500 
# 
# 
# High freq. dielectric constant tensor:
#      x y z
#    x 1.819060 -0.007790 -0.009400 
#    y -0.007790 1.781620 0.005030 
#    z -0.009400 0.005030 1.823020 
# 
# From -- ./inp_files/205291.got.cif
#   From: 2010.06.25/outbox.cif.g09.slc.cpg/sg2_103_cif.got.tgz:205291.got - 2010.06.27 13:26:56.
