data_PCOD8011908
_publ_section_title
;
Structure prediction by ZEFSAII (Michael W. Deem and Ramdas Pophale) SiO2 
 PCOD8011908
Probable space group: P -1
;
_chemical_formula_sum "Si O2"
_cell_formula_units_Z 14
_cell_length_a 11.456303
_cell_length_b 8.133822
_cell_length_c 9.562741
_cell_angle_alpha 102.256349
_cell_angle_beta 41.580120
_cell_angle_gamma 98.867440
_cell_volume 577.892773
_symmetry_space_group_name_H-M "P -1"
_symmetry_group_IT_number 2
_symmetry_cell_setting 'triclinic'
loop_
_space_group_symop_operation_xyz
x,y,z
-x,-y,-z
loop_
_atom_site_type_symbol
_atom_site_label
_atom_site_fract_x
_atom_site_fract_y
_atom_site_fract_z
Si Si1 0.096446 0.589501 0.053475
Si Si2 0.384837 0.862889 0.154837
Si Si3 0.970376 0.210677 0.454648
Si Si4 0.168388 0.461037 0.483894
Si Si5 0.974229 0.951009 0.173651
Si Si6 0.425651 0.037722 0.420460
Si Si7 0.465960 0.651159 0.794988
O O1 0.000410 0.524122 0.264143
O O2 0.092365 0.791199 0.078877
O O3 0.302741 0.537892 0.867981
O O4 0.000000 0.500000 0.000000
O O5 0.168670 0.897824 0.344497
O O6 0.432912 0.873188 0.280645
O O7 0.432934 0.692406 0.997222
O O8 0.500000 0.000000 0.000000
O O9 0.839407 0.370140 0.569131
O O10 0.143639 0.284591 0.388278
O O11 0.033736 0.109105 0.243397
O O12 0.353112 0.453858 0.398659
O O13 0.774292 0.901160 0.372734
O O14 0.000000 0.000000 0.000000
O O15 0.530865 0.186789 0.279307
O O16 0.500000 0.000000 0.500000
#
# Coordination Sequence:
#
# PCOD8011908 Si02
#       7
#     2   2   2   2   2   2   2
#     4  12  26  46  69  99 143 186 237 295 366 422
#     4   9  20  40  69 102 138 180 238 290 351 424
#     4  10  23  45  71 103 147 183 235 300 353 432
#     4  11  24  45  71 106 143 184 236 292 363 426
#     4  11  23  43  69  99 140 187 235 290 357 421
#     4  10  21  39  65 106 142 179 234 294 352 426
#     4  11  23  44  71 101 139 187 237 289 358 428
#
# _framework density 24.225944999999999
#
# number of rings (size 3 to 8) (size 9 to 14) (size 15 to 20)
#    0.000    1.429    2.857    1.714    0.000    7.429 
#    5.143    0.000    0.000    0.000    0.000    0.000 
#    0.000    0.000    0.000    0.000    0.000    0.000 
#
# Total GULP energy -173507.055310 kJ/mol
# GULP energy per Si atom -12393.361094 kJ/mol
# Density = 2.417081 g / cm^3
# Si number density = 24.225945 Si / 1000 Ang^3
#
#
#
# Elastic Constant Matrix: (Units=GPa)
#
#
# Indices 1 2 3 4 5 6 
#
# 1 144.6215 25.3475 46.2632 -1.6486 -12.9798 28.4925
# 2 25.3475 52.1758 23.3847 8.0523 -2.1752 26.4457
# 3 46.2632 23.3847 111.5413 -17.3945 -0.6440 14.9774
# 4 -1.6486 8.0523 -17.3945 21.3632 8.1320 2.7784
# 5 -12.9798 -2.1752 -0.6440 8.1320 57.2472 0.0737
# 6 28.4925 26.4457 14.9774 2.7784 0.0737 40.6274
#
#
#
# Elastic Compliance Matrix: (Units=1/GPa)
#
#
# Indices 1 2 3 4 5 6 
#
# 1 0.009213 0.000197 -0.003554 -0.002513 0.002420 -0.005111
# 2 0.000197 0.035196 -0.007810 -0.018663 0.003970 -0.018900
# 3 -0.003554 -0.007810 0.014276 0.015316 -0.003119 0.001272
# 4 -0.002513 -0.018663 0.015316 0.069865 -0.011036 0.003507
# 5 0.002420 0.003970 -0.003119 -0.011036 0.019703 -0.002412
# 6 -0.005111 -0.018900 0.001272 0.003507 -0.002412 0.039797
#
#
# Mechanical properties :
#
#
# Convention : Reuss Voigt Hill
#
# Bulk Modulus (GPa) = 27.50996 55.36994 41.43995
# Shear Modulus (GPa) = 22.47164 38.07043 30.27104
#
# Velocity S-wave (km/s) = 3.04893 3.96848 3.53870
# Velocity P-wave (km/s) = 4.87595 6.62599 5.81716
#
# Compressibility (1/GPa) = 0.03635047
#
# Stress axis : x y z
#
# Youngs Moduli (GPa) = 108.54802 28.41200 70.04543
#
# Poissons Ratio (x) = -0.00559 0.24893
# Poissons Ratio (y) = -0.02136 0.54708
# Poissons Ratio (z) = 0.38577 0.22191
#
# Static dielectric constant tensor:
#      x y z
#    x 4.406470 0.378630 0.156440 
#    y 0.378630 4.337260 -0.023350 
#    z 0.156440 -0.023350 4.898970 
# 
# 
# High freq. dielectric constant tensor:
#      x y z
#    x 1.961470 0.022300 -0.000250 
#    y 0.022300 1.942220 -0.015710 
#    z -0.000250 -0.015710 1.977480 
# 
# From -- ./inp_files/244315.got.cif
#   From: 2010.06.25/outbox.cif.g09.slc.cpg/sg2_123_cif.got.tgz:244315.got - 2010.06.27 13:26:56.
