data_PCOD8011974
_publ_section_title
;
Structure prediction by ZEFSAII (Michael W. Deem and Ramdas Pophale) SiO2 
 PCOD8011974
Probable space group: P -1
;
_chemical_formula_sum "Si O2"
_cell_formula_units_Z 16
_cell_length_a 8.968683
_cell_length_b 16.350917
_cell_length_c 9.257715
_cell_angle_alpha 139.566107
_cell_angle_beta 112.687886
_cell_angle_gamma 59.971917
_cell_volume 762.295506
_symmetry_space_group_name_H-M "P -1"
_symmetry_group_IT_number 2
_symmetry_cell_setting 'triclinic'
loop_
_space_group_symop_operation_xyz
x,y,z
-x,-y,-z
loop_
_atom_site_type_symbol
_atom_site_label
_atom_site_fract_x
_atom_site_fract_y
_atom_site_fract_z
Si Si1 0.183997 0.903692 0.234101
Si Si2 0.971529 0.577720 0.739407
Si Si3 0.831113 0.874771 0.006386
Si Si4 0.953287 0.403727 0.742224
Si Si5 0.230227 0.133027 0.365238
Si Si6 0.610927 0.098944 0.405917
Si Si7 0.676287 0.391247 0.068818
Si Si8 0.377913 0.637670 0.315215
O O1 0.246680 0.926963 0.448514
O O2 0.981167 0.927576 0.189736
O O3 0.220087 0.002424 0.265694
O O4 0.278547 0.747486 0.010144
O O5 0.886150 0.497341 0.703692
O O6 0.157321 0.570842 0.856969
O O7 0.000000 0.500000 0.500000
O O8 0.847848 0.729754 0.879568
O O9 0.656813 0.971338 0.145008
O O10 0.826660 0.872042 0.827824
O O11 0.112886 0.269464 0.583690
O O12 0.803027 0.358103 0.686013
O O13 0.000000 0.500000 0.000000
O O14 0.424950 0.128078 0.445977
O O15 0.603803 0.219180 0.453323
O O16 0.535275 0.510914 0.266724
O O17 0.600196 0.369740 0.859135
#
# Coordination Sequence:
#
# PCOD8011974 Si02
#       8
#     2   2   2   2   2   2   2   2
#     4  10  23  40  68  95 127 165 219 263 319 377
#     4  11  22  42  64  93 131 167 208 258 326 377
#     4  11  24  43  67  89 134 174 207 260 329 387
#     4  12  25  39  68  97 124 169 218 266 312 387
#     4  12  25  43  65  96 132 166 216 268 321 382
#     4  11  24  42  67  96 127 172 213 267 320 379
#     4   9  20  40  64  92 127 167 199 268 314 373
#     4  10  21  39  65  93 126 160 216 257 318 371
#
# _framework density 20.989235999999998
#
# number of rings (size 3 to 8) (size 9 to 14) (size 15 to 20)
#    0.000    1.250    2.500    3.000    5.250    1.000 
#    0.000    0.625    0.000    0.000    0.000    0.000 
#    0.000    0.000    0.000    0.000    0.000    0.000 
#
# Total GULP energy -198360.688072 kJ/mol
# GULP energy per Si atom -12397.543004 kJ/mol
# Density = 2.094146 g / cm^3
# Si number density = 20.989236 Si / 1000 Ang^3
#
#
#
# Elastic Constant Matrix: (Units=GPa)
#
#
# Indices 1 2 3 4 5 6 
#
# 1 98.2911 46.2339 38.5666 28.9691 -12.7303 10.7102
# 2 46.2339 117.2620 43.2385 25.1828 -6.9407 14.8223
# 3 38.5666 43.2385 96.2506 23.4030 -19.4287 -4.7554
# 4 28.9691 25.1828 23.4030 42.4154 -3.0544 6.0553
# 5 -12.7303 -6.9407 -19.4287 -3.0544 36.1230 7.7091
# 6 10.7102 14.8223 -4.7554 6.0553 7.7091 35.8447
#
#
#
# Elastic Compliance Matrix: (Units=1/GPa)
#
#
# Indices 1 2 3 4 5 6 
#
# 1 0.015401 -0.003059 -0.002661 -0.006497 0.003577 -0.003362
# 2 -0.003059 0.012221 -0.003914 -0.002414 -0.000138 -0.004221
# 3 -0.002661 -0.003914 0.015660 -0.004693 0.005459 0.004110
# 4 -0.006497 -0.002414 -0.004693 0.032282 -0.001969 -0.002713
# 5 0.003577 -0.000138 0.005459 -0.001969 0.033201 -0.007095
# 6 -0.003362 -0.004221 0.004110 -0.002713 -0.007095 0.033178
#
#
# Mechanical properties :
#
#
# Convention : Reuss Voigt Hill
#
# Bulk Modulus (GPa) = 41.64240 63.09798 52.37019
# Shear Modulus (GPa) = 29.54805 35.12761 32.33783
#
# Velocity S-wave (km/s) = 3.75610 4.09541 3.92942
# Velocity P-wave (km/s) = 6.22045 7.24503 6.75220
#
# Compressibility (1/GPa) = 0.02401399
#
# Stress axis : x y z
#
# Youngs Moduli (GPa) = 64.92931 81.82557 63.85664
#
# Poissons Ratio (x) = 0.25033 0.16994
# Poissons Ratio (y) = 0.19864 0.24991
# Poissons Ratio (z) = 0.17280 0.32024
#
# Static dielectric constant tensor:
#      x y z
#    x 3.672130 -0.169490 0.031530 
#    y -0.169490 3.978690 0.299260 
#    z 0.031530 0.299260 3.938810 
# 
# 
# High freq. dielectric constant tensor:
#      x y z
#    x 1.816350 -0.002700 0.004090 
#    y -0.002700 1.827850 0.021670 
#    z 0.004090 0.021670 1.830170 
# 
# From -- ./inp_files/176674.got.cif
#   From: 2010.06.25/outbox.cif.g09.slc.cpg/sg2_89_cif.got.tgz:176674.got - 2010.06.27 13:26:56.
