data_PCOD8011274
_publ_section_title
;
Structure prediction by ZEFSAII (Michael W. Deem and Ramdas Pophale) SiO2 
 PCOD8011274
Probable space group: P -1
;
_chemical_formula_sum "Si O2"
_cell_formula_units_Z 16
_cell_length_a 16.830314
_cell_length_b 11.590266
_cell_length_c 13.953483
_cell_angle_alpha 30.855180
_cell_angle_beta 144.679705
_cell_angle_gamma 127.171803
_cell_volume 763.376534
_symmetry_space_group_name_H-M "P -1"
_symmetry_group_IT_number 2
_symmetry_cell_setting 'triclinic'
loop_
_space_group_symop_operation_xyz
x,y,z
-x,-y,-z
loop_
_atom_site_type_symbol
_atom_site_label
_atom_site_fract_x
_atom_site_fract_y
_atom_site_fract_z
Si Si1 0.280896 0.392537 0.731464
Si Si2 0.922727 0.192484 0.096657
Si Si3 0.609143 0.381336 0.606327
Si Si4 0.352006 0.176749 0.765490
Si Si5 0.410027 0.759006 0.515967
Si Si6 0.673148 0.697492 0.948129
Si Si7 0.023771 0.657712 0.561565
Si Si8 0.042593 0.340382 0.292104
O O1 0.356782 0.176020 0.886530
O O2 0.294845 0.632463 0.527034
O O3 0.111640 0.416039 0.559142
O O4 0.366271 0.331445 0.959184
O O5 0.960812 0.221625 0.223357
O O6 0.754380 0.201322 0.924199
O O7 0.010566 0.931050 0.328148
O O8 0.958995 0.396547 0.927129
O O9 0.500000 0.500000 0.500000
O O10 0.663225 0.570024 0.471346
O O11 0.549549 0.261815 0.544076
O O12 0.203365 0.142925 0.605198
O O13 0.500000 0.000000 0.000000
O O14 0.558447 0.638606 0.806947
O O15 0.332791 0.033776 0.270195
O O16 0.832545 0.515040 0.221188
O O17 0.041790 0.620913 0.719015
#
# Coordination Sequence:
#
# PCOD8011274 Si02
#       8
#     2   2   2   2   2   2   2   2
#     4  10  22  41  61  87 126 160 204 257 306 367
#     4  10  21  39  58  87 128 159 203 254 306 368
#     4  10  22  35  61  87 116 161 198 249 312 359
#     4   9  20  36  58  90 118 158 199 244 308 367
#     4  10  24  44  59  89 131 155 211 259 303 377
#     4  11  24  41  65  91 120 170 206 256 311 361
#     4  11  23  37  65  92 118 163 211 253 307 364
#     4   9  21  39  57  89 130 160 198 259 306 365
#
# _framework density 20.959512
#
# number of rings (size 3 to 8) (size 9 to 14) (size 15 to 20)
#    0.000    2.000    0.000    2.625    7.000    3.500 
#    0.000    0.000    0.000    0.000    0.000    0.000 
#    0.000    0.000    0.000    0.000    0.000    0.000 
#
# Total GULP energy -198286.734139 kJ/mol
# GULP energy per Si atom -12392.920884 kJ/mol
# Density = 2.091181 g / cm^3
# Si number density = 20.959512 Si / 1000 Ang^3
#
#
#
# Elastic Constant Matrix: (Units=GPa)
#
#
# Indices 1 2 3 4 5 6 
#
# 1 93.7331 40.9109 54.1346 18.4940 4.3765 -19.3863
# 2 40.9109 115.7649 54.9421 16.5824 0.1814 -13.2417
# 3 54.1346 54.9421 120.6620 7.7406 12.1167 -19.4100
# 4 18.4940 16.5824 7.7406 36.4475 -9.4094 -14.1417
# 5 4.3765 0.1814 12.1167 -9.4094 33.2450 1.1013
# 6 -19.3863 -13.2417 -19.4100 -14.1417 1.1013 31.2236
#
#
#
# Elastic Compliance Matrix: (Units=1/GPa)
#
#
# Indices 1 2 3 4 5 6 
#
# 1 0.016601 -0.002133 -0.005348 -0.005356 -0.001864 0.003718
# 2 -0.002133 0.011914 -0.004436 -0.003399 0.000890 -0.000600
# 3 -0.005348 -0.004436 0.013643 0.002691 -0.003636 0.004627
# 4 -0.005356 -0.003399 0.002691 0.039399 0.010418 0.014383
# 5 -0.001864 0.000890 -0.003636 0.010418 0.034579 0.000459
# 6 0.003718 -0.000600 0.004627 0.014383 0.000459 0.043455
#
#
# Mechanical properties :
#
#
# Convention : Reuss Voigt Hill
#
# Bulk Modulus (GPa) = 54.57048 70.01501 62.29274
# Shear Modulus (GPa) = 26.38046 32.19470 29.28758
#
# Velocity S-wave (km/s) = 3.55158 3.92349 3.74216
# Velocity P-wave (km/s) = 6.55064 7.34863 6.96108
#
# Compressibility (1/GPa) = 0.01832493
#
# Stress axis : x y z
#
# Youngs Moduli (GPa) = 60.23740 83.93369 73.29519
#
# Poissons Ratio (x) = 0.17905 0.39196
# Poissons Ratio (y) = 0.12850 0.32512
# Poissons Ratio (z) = 0.32213 0.37231
#
# Static dielectric constant tensor:
#      x y z
#    x 3.841110 -0.139250 -0.389920 
#    y -0.139250 4.000390 0.230560 
#    z -0.389920 0.230560 3.744220 
# 
# 
# High freq. dielectric constant tensor:
#      x y z
#    x 1.816680 -0.004740 -0.021590 
#    y -0.004740 1.829470 0.003440 
#    z -0.021590 0.003440 1.821020 
# 
# From -- ./inp_files/538399.got.cif
#   From: 2010.06.25/outbox.cif.g09.slc.cpg/sg2_270_cif.got.tgz:538399.got - 2010.06.27 13:26:56.
