data_PCOD8011428
_publ_section_title
;
Structure prediction by ZEFSAII (Michael W. Deem and Ramdas Pophale) SiO2 
 PCOD8011428
Probable space group: P -1
;
_chemical_formula_sum "Si O2"
_cell_formula_units_Z 8
_cell_length_a 8.463770
_cell_length_b 9.838206
_cell_length_c 11.939066
_cell_angle_alpha 36.151066
_cell_angle_beta 141.730158
_cell_angle_gamma 121.915847
_cell_volume 347.832528
_symmetry_space_group_name_H-M "P -1"
_symmetry_group_IT_number 2
_symmetry_cell_setting 'triclinic'
loop_
_space_group_symop_operation_xyz
x,y,z
-x,-y,-z
loop_
_atom_site_type_symbol
_atom_site_label
_atom_site_fract_x
_atom_site_fract_y
_atom_site_fract_z
Si Si1 0.560783 0.990541 0.365916
Si Si2 0.646843 0.470184 0.718553
Si Si3 0.619246 0.799753 0.107142
Si Si4 0.095176 0.979463 0.265081
O O1 0.729644 0.711436 0.628634
O O2 0.266396 0.997886 0.239134
O O3 0.714253 0.109962 0.461481
O O4 0.533508 0.134238 0.139436
O O5 0.500000 0.500000 0.500000
O O6 0.438603 0.442327 0.718933
O O7 0.905458 0.244536 0.008999
O O8 0.931702 0.785463 0.280136
O O9 0.500000 0.000000 0.000000
#
# Coordination Sequence:
#
# PCOD8011428 Si02
#       4
#     2   2   2   2
#     4  11  22  43  61  87 125 152 198 248 291 351
#     4  11  22  40  62  89 118 160 197 240 300 347
#     4  10  21  39  61  90 117 158 198 240 297 348
#     4  10  23  41  62  89 120 158 194 247 295 348
#
# _framework density 22.999573999999999
#
# number of rings (size 3 to 8) (size 9 to 14) (size 15 to 20)
#    0.000    1.500    5.000    1.500    0.000    5.000 
#    4.500    2.500    0.000    0.000    0.000    0.000 
#    0.000    0.000    0.000    0.000    0.000    0.000 
#
# Total GULP energy -99196.530680 kJ/mol
# GULP energy per Si atom -12399.566335 kJ/mol
# Density = 2.294723 g / cm^3
# Si number density = 22.999574 Si / 1000 Ang^3
#
#
#
# Elastic Constant Matrix: (Units=GPa)
#
#
# Indices 1 2 3 4 5 6 
#
# 1 90.8859 -16.3308 47.7891 3.4585 -23.7127 -1.6177
# 2 -16.3308 32.5175 20.9103 0.5534 -19.1860 1.6305
# 3 47.7891 20.9103 90.3460 19.0271 -37.7322 12.8884
# 4 3.4585 0.5534 19.0271 29.7828 -3.4193 -7.9517
# 5 -23.7127 -19.1860 -37.7322 -3.4193 54.8282 4.9792
# 6 -1.6177 1.6305 12.8884 -7.9517 4.9792 27.3560
#
#
#
# Elastic Compliance Matrix: (Units=1/GPa)
#
#
# Indices 1 2 3 4 5 6 
#
# 1 0.042559 0.050047 -0.040249 0.027414 0.007653 0.025072
# 2 0.050047 0.099498 -0.053137 0.036286 0.019518 0.029059
# 3 -0.040249 -0.053137 0.065268 -0.047015 0.010113 -0.045470
# 4 0.027414 0.036286 -0.047015 0.070509 -0.007350 0.043442
# 5 0.007653 0.019518 0.010113 -0.007350 0.036169 -0.014195
# 6 0.025072 0.029059 -0.045470 0.043442 -0.014195 0.072939
#
#
# Mechanical properties :
#
#
# Convention : Reuss Voigt Hill
#
# Bulk Modulus (GPa) = 8.28855 35.38739 21.83797
# Shear Modulus (GPa) = 9.73072 33.15215 21.44143
#
# Velocity S-wave (km/s) = 2.05913 3.80073 3.05660
# Velocity P-wave (km/s) = 3.04384 5.88899 4.68749
#
# Compressibility (1/GPa) = 0.12064834
#
# Stress axis : x y z
#
# Youngs Moduli (GPa) = 23.49692 10.05043 15.32134
#
# Poissons Ratio (x) = -0.50300 0.61666
# Poissons Ratio (y) = -1.17596 0.81413
# Poissons Ratio (z) = 0.94572 0.53405
#
# Static dielectric constant tensor:
#      x y z
#    x 4.654800 0.306620 -0.046980 
#    y 0.306620 4.410520 -0.149420 
#    z -0.046980 -0.149420 4.285300 
# 
# 
# High freq. dielectric constant tensor:
#      x y z
#    x 1.918840 -0.002480 -0.007200 
#    y -0.002480 1.901090 0.012000 
#    z -0.007200 0.012000 1.901690 
# 
# From -- ./inp_files/15101.got.cif
#   From: 2010.06.25/outbox.cif.g09.slc.cpg/sg2_8_cif.got.tgz:15101.got - 2010.06.27 13:26:56.
