data_PCOD8011823
_publ_section_title
;
Structure prediction by ZEFSAII (Michael W. Deem and Ramdas Pophale) SiO2 
 PCOD8011823
Probable space group: P -1
;
_chemical_formula_sum "Si O2"
_cell_formula_units_Z 16
_cell_length_a 14.977762
_cell_length_b 11.447141
_cell_length_c 9.463703
_cell_angle_alpha 127.071375
_cell_angle_beta 104.990212
_cell_angle_gamma 41.476784
_cell_volume 798.232782
_symmetry_space_group_name_H-M "P -1"
_symmetry_group_IT_number 2
_symmetry_cell_setting 'triclinic'
loop_
_space_group_symop_operation_xyz
x,y,z
-x,-y,-z
loop_
_atom_site_type_symbol
_atom_site_label
_atom_site_fract_x
_atom_site_fract_y
_atom_site_fract_z
Si Si1 0.993577 0.341484 0.324905
Si Si2 0.806586 0.051078 0.676094
Si Si3 0.008834 0.280871 0.733577
Si Si4 0.543351 0.085067 0.985695
Si Si5 0.856698 0.762270 0.961240
Si Si6 0.287176 0.354287 0.720008
Si Si7 0.589124 0.072114 0.670482
Si Si8 0.753589 0.440300 0.870183
O O1 0.833746 0.475451 0.324182
O O2 0.000000 0.500000 0.500000
O O3 0.089203 0.211096 0.129482
O O4 0.052919 0.151803 0.320468
O O5 0.670531 0.126691 0.736835
O O6 0.763687 0.272152 0.827894
O O7 0.854636 0.945661 0.462910
O O8 0.923616 0.517650 0.796038
O O9 0.888408 0.300182 0.718134
O O10 0.084963 0.233357 0.873293
O O11 0.401840 0.362843 0.129441
O O12 0.588259 0.002607 0.778560
O O13 0.500000 0.000000 0.000000
O O14 0.682036 0.981715 0.047791
O O15 0.423881 0.296559 0.713238
O O16 0.335747 0.126652 0.556891
O O17 0.230136 0.449243 0.925632
#
# Coordination Sequence:
#
# PCOD8011823 Si02
#       8
#     2   2   2   2   2   2   2   2
#     4  12  20  39  65  96 120 161 223 259 306 373
#     4  12  25  41  65  94 136 171 203 266 323 381
#     4  11  23  40  64  94 131 165 213 266 321 365
#     4  11  22  40  67  93 126 166 215 263 312 381
#     4  11  21  38  68  94 117 164 223 265 301 373
#     4  10  21  39  64  92 127 161 213 267 301 377
#     4  10  22  39  64  97 126 164 217 260 320 367
#     4  11  25  42  62  95 134 170 207 258 332 376
#
# _framework density 20.044279
#
# number of rings (size 3 to 8) (size 9 to 14) (size 15 to 20)
#    0.000    1.000    6.250    0.375    1.750    3.500 
#    0.000    0.625    0.000    0.000    0.000    0.000 
#    0.000    0.000    0.000    0.000    0.000    0.000 
#
# Total GULP energy -198316.252386 kJ/mol
# GULP energy per Si atom -12394.765774 kJ/mol
# Density = 1.999866 g / cm^3
# Si number density = 20.044279 Si / 1000 Ang^3
#
#
#
# Elastic Constant Matrix: (Units=GPa)
#
#
# Indices 1 2 3 4 5 6 
#
# 1 108.2859 52.5501 35.4664 1.1162 -11.9864 -7.2762
# 2 52.5501 136.2757 24.9860 6.3639 4.4764 -20.3700
# 3 35.4664 24.9860 64.3355 -2.8866 -11.9906 7.1128
# 4 1.1162 6.3639 -2.8866 20.5926 -0.2336 0.8519
# 5 -11.9864 4.4764 -11.9906 -0.2336 22.7473 0.7468
# 6 -7.2762 -20.3700 7.1128 0.8519 0.7468 48.8087
#
#
#
# Elastic Compliance Matrix: (Units=1/GPa)
#
#
# Indices 1 2 3 4 5 6 
#
# 1 0.013636 -0.004421 -0.004874 -0.000028 0.005459 0.000815
# 2 -0.004421 0.010788 -0.003652 -0.003869 -0.006567 0.004544
# 3 -0.004874 -0.003652 0.022406 0.004888 0.010200 -0.005758
# 4 -0.000028 -0.003869 0.004888 0.050624 0.003950 -0.003275
# 5 0.005459 -0.006567 0.010200 0.003950 0.053689 -0.004304
# 6 0.000815 0.004544 -0.005758 -0.003275 -0.004304 0.023468
#
#
# Mechanical properties :
#
#
# Convention : Reuss Voigt Hill
#
# Bulk Modulus (GPa) = 47.76674 59.43357 53.60016
# Shear Modulus (GPa) = 24.09838 31.48935 27.79386
#
# Velocity S-wave (km/s) = 3.47112 3.96787 3.72778
# Velocity P-wave (km/s) = 6.32038 7.12092 6.73256
#
# Compressibility (1/GPa) = 0.02093507
#
# Stress axis : x y z
#
# Youngs Moduli (GPa) = 73.33596 92.69622 44.63101
#
# Poissons Ratio (x) = 0.40978 0.21754
# Poissons Ratio (y) = 0.32420 0.16301
# Poissons Ratio (z) = 0.35745 0.33857
#
# Static dielectric constant tensor:
#      x y z
#    x 3.697860 -0.336550 -0.306530 
#    y -0.336550 3.910210 0.016990 
#    z -0.306530 0.016990 3.728160 
# 
# 
# High freq. dielectric constant tensor:
#      x y z
#    x 1.778690 -0.023810 -0.022430 
#    y -0.023810 1.786980 -0.007720 
#    z -0.022430 -0.007720 1.769400 
# 
# From -- ./inp_files/308412.got.cif
#   From: 2010.06.25/outbox.cif.g09.slc.cpg/sg2_155_cif.got.tgz:308412.got - 2010.06.27 13:26:56.
