data_PCOD8011124
_publ_section_title
;
Structure prediction by ZEFSAII (Michael W. Deem and Ramdas Pophale) SiO2 
 PCOD8011124
Probable space group: P -1
;
_chemical_formula_sum "Si O2"
_cell_formula_units_Z 16
_cell_length_a 5.563147
_cell_length_b 12.645668
_cell_length_c 17.869624
_cell_angle_alpha 50.788602
_cell_angle_beta 60.314123
_cell_angle_gamma 90.353037
_cell_volume 744.977348
_symmetry_space_group_name_H-M "P -1"
_symmetry_group_IT_number 2
_symmetry_cell_setting 'triclinic'
loop_
_space_group_symop_operation_xyz
x,y,z
-x,-y,-z
loop_
_atom_site_type_symbol
_atom_site_label
_atom_site_fract_x
_atom_site_fract_y
_atom_site_fract_z
Si Si1 0.340771 0.100839 0.132607
Si Si2 0.151263 0.389231 0.521415
Si Si3 0.740329 0.020841 0.342548
Si Si4 0.684042 0.867107 0.573848
Si Si5 0.497068 0.532082 0.716218
Si Si6 0.932538 0.789424 0.244892
Si Si7 0.465778 0.888679 0.292754
Si Si8 0.190603 0.639130 0.157499
O O1 0.098127 0.123810 0.214002
O O2 0.564309 0.061072 0.169222
O O3 0.533042 0.258124 0.988019
O O4 0.177288 0.952828 0.169546
O O5 0.433534 0.461254 0.386496
O O6 0.236466 0.356831 0.606134
O O7 0.000000 0.500000 0.500000
O O8 0.905878 0.218954 0.605315
O O9 0.607796 0.137606 0.333283
O O10 0.685056 0.904757 0.470369
O O11 0.552270 0.899291 0.361078
O O12 0.651787 0.697020 0.660592
O O13 0.000000 0.000000 0.500000
O O14 0.658066 0.444008 0.776174
O O15 0.116532 0.462477 0.802127
O O16 0.641402 0.813284 0.249729
O O17 0.108653 0.751800 0.169224
#
# Coordination Sequence:
#
# PCOD8011124 Si02
#       8
#     2   2   2   2   2   2   2   2
#     4  10  23  43  65  95 132 182 231 272 318 395
#     4  11  21  37  61  94 137 172 216 276 340 395
#     4  10  22  41  73  97 122 168 222 285 334 393
#     4  11  24  44  74 101 128 164 223 284 348 410
#     4  12  28  43  66 102 138 178 219 278 350 399
#     4  10  22  39  67  96 129 189 226 276 325 394
#     4  10  21  38  67  95 127 171 232 273 335 391
#     4  12  28  44  64  98 145 183 225 274 328 400
#
# _framework density 21.477163999999998
#
# number of rings (size 3 to 8) (size 9 to 14) (size 15 to 20)
#    0.000    1.250    1.250    4.875   12.250    1.500 
#    0.000    1.250    0.000    0.000    0.000    0.000 
#    0.000    0.000    0.000    0.000    0.000    0.000 
#
# Total GULP energy -198286.950352 kJ/mol
# GULP energy per Si atom -12392.934397 kJ/mol
# Density = 2.142828 g / cm^3
# Si number density = 21.477164 Si / 1000 Ang^3
#
#
#
# Elastic Constant Matrix: (Units=GPa)
#
#
# Indices 1 2 3 4 5 6 
#
# 1 104.4229 28.5905 39.5512 6.7592 5.3615 -16.9091
# 2 28.5905 104.3695 41.5830 7.5788 -1.4644 -24.7779
# 3 39.5512 41.5830 116.0839 6.9156 -6.4583 -26.6310
# 4 6.7592 7.5788 6.9156 28.8794 -2.6127 -9.3061
# 5 5.3615 -1.4644 -6.4583 -2.6127 28.7280 0.3255
# 6 -16.9091 -24.7779 -26.6310 -9.3061 0.3255 33.7545
#
#
#
# Elastic Compliance Matrix: (Units=1/GPa)
#
#
# Indices 1 2 3 4 5 6 
#
# 1 0.011718 -0.001439 -0.003104 -0.001240 -0.003094 0.002052
# 2 -0.001439 0.012516 -0.002489 -0.000257 0.000251 0.006430
# 3 -0.003104 -0.002489 0.012162 0.000821 0.003189 0.006409
# 4 -0.001240 -0.000257 0.000821 0.038485 0.003785 0.010412
# 5 -0.003094 0.000251 0.003189 0.003785 0.036440 0.001842
# 6 0.002052 0.006430 0.006409 0.010412 0.001842 0.043283
#
#
# Mechanical properties :
#
#
# Convention : Reuss Voigt Hill
#
# Bulk Modulus (GPa) = 44.77957 60.48061 52.63009
# Shear Modulus (GPa) = 28.39097 32.61582 30.50340
#
# Velocity S-wave (km/s) = 3.63976 3.90119 3.77274
# Velocity P-wave (km/s) = 6.20958 6.96519 6.59821
#
# Compressibility (1/GPa) = 0.02233161
#
# Stress axis : x y z
#
# Youngs Moduli (GPa) = 85.34078 79.89927 82.21996
#
# Poissons Ratio (x) = 0.11499 0.25523
# Poissons Ratio (y) = 0.12283 0.20462
# Poissons Ratio (z) = 0.26492 0.19884
#
# Static dielectric constant tensor:
#      x y z
#    x 4.390670 -0.196100 0.071930 
#    y -0.196100 3.883180 0.083990 
#    z 0.071930 0.083990 3.904470 
# 
# 
# High freq. dielectric constant tensor:
#      x y z
#    x 1.858010 -0.011680 0.001490 
#    y -0.011680 1.839460 0.003000 
#    z 0.001490 0.003000 1.828490 
# 
# From -- ./inp_files/83523.got.cif
#   From: 2010.06.25/outbox.cif.g09.slc.cpg/sg2_42_cif.got.tgz:83523.got - 2010.06.27 13:26:56.
