data_PCOD8011549
_publ_section_title
;
Structure prediction by ZEFSAII (Michael W. Deem and Ramdas Pophale) SiO2 
 PCOD8011549
Probable space group: P -1
;
_chemical_formula_sum "Si O2"
_cell_formula_units_Z 16
_cell_length_a 8.645627
_cell_length_b 7.700232
_cell_length_c 12.736176
_cell_angle_alpha 75.997576
_cell_angle_beta 48.927388
_cell_angle_gamma 87.947345
_cell_volume 611.357597
_symmetry_space_group_name_H-M "P -1"
_symmetry_group_IT_number 2
_symmetry_cell_setting 'triclinic'
loop_
_space_group_symop_operation_xyz
x,y,z
-x,-y,-z
loop_
_atom_site_type_symbol
_atom_site_label
_atom_site_fract_x
_atom_site_fract_y
_atom_site_fract_z
Si Si1 0.154299 0.707449 0.049611
Si Si2 0.892160 0.049060 0.786197
Si Si3 0.587541 0.410184 0.220097
Si Si4 0.409141 0.944016 0.263868
Si Si5 0.218521 0.531254 0.453066
Si Si6 0.291918 0.005558 0.527322
Si Si7 0.148535 0.613895 0.696308
Si Si8 0.808713 0.814679 0.045827
O O1 0.199543 0.794261 0.131453
O O2 0.057478 0.494333 0.139403
O O3 0.987498 0.817439 0.053285
O O4 0.361245 0.714850 0.883172
O O5 0.724364 0.988009 0.779375
O O6 0.127677 0.130437 0.626099
O O7 0.908753 0.876983 0.879321
O O8 0.343748 0.393238 0.356219
O O9 0.673952 0.351111 0.300155
O O10 0.684045 0.614642 0.117831
O O11 0.334151 0.735042 0.354973
O O12 0.372440 0.063482 0.365648
O O13 0.655569 0.960062 0.123466
O O14 0.206485 0.493028 0.589554
O O15 0.000000 0.500000 0.500000
O O16 0.133216 0.811188 0.626918
O O17 0.500000 0.000000 0.500000
#
# Coordination Sequence:
#
# PCOD8011549 Si02
#       8
#     2   2   2   2   2   2   2   2
#     4  11  22  39  64  95 122 159 207 253 304 364
#     4  12  23  40  63  91 127 165 202 252 307 363
#     4  10  21  39  63  91 122 161 208 251 300 360
#     4  10  23  41  61  90 124 161 205 253 307 364
#     4  10  21  39  62  91 126 160 199 250 308 366
#     4  11  24  42  65  92 121 161 209 254 304 365
#     4  10  21  41  65  90 122 159 203 258 307 354
#     4  10  21  41  62  86 124 164 206 253 300 358
#
# _framework density 26.17126
#
# number of rings (size 3 to 8) (size 9 to 14) (size 15 to 20)
#    0.000    1.500    0.000    6.000    0.000    5.000 
#    0.000   11.875    0.000    1.500    0.000    0.000 
#    0.000    0.000    0.000    0.000    0.000    0.000 
#
# Total GULP energy -198387.424151 kJ/mol
# GULP energy per Si atom -12399.214009 kJ/mol
# Density = 2.611169 g / cm^3
# Si number density = 26.171260 Si / 1000 Ang^3
#
#
#
# Elastic Constant Matrix: (Units=GPa)
#
#
# Indices 1 2 3 4 5 6 
#
# 1 125.7491 -4.2297 60.6338 35.8996 9.4325 14.1663
# 2 -4.2297 43.1198 24.9846 33.1850 9.0874 -2.3741
# 3 60.6338 24.9846 199.2854 40.7244 -3.2836 -1.1135
# 4 35.8996 33.1850 40.7244 58.1923 -4.9324 6.1181
# 5 9.4325 9.0874 -3.2836 -4.9324 48.1193 5.4209
# 6 14.1663 -2.3741 -1.1135 6.1181 5.4209 21.6077
#
#
#
# Elastic Compliance Matrix: (Units=1/GPa)
#
#
# Indices 1 2 3 4 5 6 
#
# 1 0.018001 0.023811 -0.003987 -0.022762 -0.010598 -0.000287
# 2 0.023811 0.085378 -0.005195 -0.064296 -0.029900 0.019209
# 3 -0.003987 -0.005195 0.006789 0.000674 0.002106 0.001674
# 4 -0.022762 -0.064296 0.000674 0.071626 0.026126 -0.018942
# 5 -0.010598 -0.029900 0.002106 0.026126 0.032659 -0.011819
# 6 -0.000287 0.019209 0.001674 -0.018942 -0.011819 0.056993
#
#
# Mechanical properties :
#
#
# Convention : Reuss Voigt Hill
#
# Bulk Modulus (GPa) = 7.17226 58.99241 33.08234
# Shear Modulus (GPa) = 17.32118 44.70156 31.01137
#
# Velocity S-wave (km/s) = 2.57542 4.13733 3.44603
# Velocity P-wave (km/s) = 3.40443 6.73893 5.33869
#
# Compressibility (1/GPa) = 0.13942602
#
# Stress axis : x y z
#
# Youngs Moduli (GPa) = 55.55183 11.71263 147.30445
#
# Poissons Ratio (x) = -0.27889 0.58731
# Poissons Ratio (y) = -1.32275 0.76524
# Poissons Ratio (z) = 0.22149 0.06085
#
# Static dielectric constant tensor:
#      x y z
#    x 4.140570 -0.093300 0.045950 
#    y -0.093300 4.811670 0.089760 
#    z 0.045950 0.089760 5.289800 
# 
# 
# High freq. dielectric constant tensor:
#      x y z
#    x 2.013190 0.006810 -0.001270 
#    y 0.006810 2.070350 -0.010870 
#    z -0.001270 -0.010870 2.085780 
# 
# From -- ./inp_files/381892.got.cif
#   From: 2010.06.25/outbox.cif.g09.slc.cpg/sg2_191_cif.got.tgz:381892.got - 2010.06.27 13:26:56.
