data_PCOD8011122
_publ_section_title
;
Structure prediction by ZEFSAII (Michael W. Deem and Ramdas Pophale) SiO2 
 PCOD8011122
Probable space group: P -1
;
_chemical_formula_sum "Si O2"
_cell_formula_units_Z 14
_cell_length_a 15.666036
_cell_length_b 10.070120
_cell_length_c 16.558295
_cell_angle_alpha 136.169040
_cell_angle_beta 27.338951
_cell_angle_gamma 116.256907
_cell_volume 649.316051
_symmetry_space_group_name_H-M "P -1"
_symmetry_group_IT_number 2
_symmetry_cell_setting 'triclinic'
loop_
_space_group_symop_operation_xyz
x,y,z
-x,-y,-z
loop_
_atom_site_type_symbol
_atom_site_label
_atom_site_fract_x
_atom_site_fract_y
_atom_site_fract_z
Si Si1 0.685947 0.074082 0.935442
Si Si2 0.856189 0.632290 0.512458
Si Si3 0.369242 0.195157 0.529767
Si Si4 0.178518 0.979500 0.694221
Si Si5 0.173680 0.118562 0.095368
Si Si6 0.469352 0.453597 0.680046
Si Si7 0.135402 0.552355 0.739209
O O1 0.873234 0.847411 0.618219
O O2 0.695651 0.952861 0.959473
O O3 0.422098 0.239615 0.191993
O O4 0.737698 0.267868 0.990989
O O5 0.951809 0.527527 0.296011
O O6 0.002289 0.411271 0.356613
O O7 0.285880 0.040790 0.560539
O O8 0.350375 0.354313 0.690214
O O9 0.189951 0.384041 0.695454
O O10 0.636518 0.006363 0.190914
O O11 0.381967 0.713064 0.441521
O O12 0.972020 0.985356 0.831295
O O13 0.078951 0.167783 0.935515
O O14 0.633632 0.472035 0.489210
#
# Coordination Sequence:
#
# PCOD8011122 Si02
#       7
#     2   2   2   2   2   2   2
#     4  10  21  38  67  95 122 171 220 256 311 380
#     4  10  21  38  67  95 122 171 220 256 311 380
#     4  12  24  38  65  99 131 166 209 264 322 381
#     4  12  24  38  65  99 131 166 209 264 322 381
#     4  12  21  42  68  94 131 166 212 260 324 376
#     4  11  20  40  61  91 133 164 206 266 312 373
#     4  11  20  40  61  91 133 164 206 266 312 373
#
# _framework density 21.561150000000001
#
# number of rings (size 3 to 8) (size 9 to 14) (size 15 to 20)
#    0.000    0.857    7.143    3.857    0.000    0.000 
#    0.000    0.000    0.000   13.714    0.000    0.000 
#    0.000    0.000    0.000    0.000    0.000    0.000 
#
# Total GULP energy -173585.362219 kJ/mol
# GULP energy per Si atom -12398.954444 kJ/mol
# Density = 2.151208 g / cm^3
# Si number density = 21.561150 Si / 1000 Ang^3
#
#
#
# Elastic Constant Matrix: (Units=GPa)
#
#
# Indices 1 2 3 4 5 6 
#
# 1 66.4077 28.6860 36.5299 16.9893 4.3345 -0.7405
# 2 28.6860 104.2410 52.8741 11.6817 -0.8229 3.4737
# 3 36.5299 52.8741 74.1682 37.0568 3.3883 13.2546
# 4 16.9893 11.6817 37.0568 43.7009 3.7243 -4.9396
# 5 4.3345 -0.8229 3.3883 3.7243 25.2125 13.5505
# 6 -0.7405 3.4737 13.2546 -4.9396 13.5505 26.8345
#
#
#
# Elastic Compliance Matrix: (Units=1/GPa)
#
#
# Indices 1 2 3 4 5 6 
#
# 1 0.025554 0.004114 -0.027550 0.016584 -0.016543 0.025187
# 2 0.004114 0.022410 -0.035251 0.026380 -0.013182 0.026137
# 3 -0.027550 -0.035251 0.111128 -0.089171 0.052295 -0.093909
# 4 0.016584 0.026380 -0.089171 0.098819 -0.050045 0.084549
# 5 -0.016543 -0.013182 0.052295 -0.050045 0.083177 -0.075794
# 6 0.025187 0.026137 -0.093909 0.084549 -0.075794 0.134799
#
#
# Mechanical properties :
#
#
# Convention : Reuss Voigt Hill
#
# Bulk Modulus (GPa) = 23.97069 53.44409 38.70739
# Shear Modulus (GPa) = 8.23494 27.59804 17.91649
#
# Velocity S-wave (km/s) = 1.95643 3.58157 2.88577
# Velocity P-wave (km/s) = 4.03053 6.47647 5.39397
#
# Compressibility (1/GPa) = 0.04171762
#
# Stress axis : x y z
#
# Youngs Moduli (GPa) = 39.13232 44.62252 8.99862
#
# Poissons Ratio (x) = -0.18356 0.24791
# Poissons Ratio (y) = -0.16097 0.31721
# Poissons Ratio (z) = 1.07810 1.57298
#
# Static dielectric constant tensor:
#      x y z
#    x 4.067860 0.124850 0.279160 
#    y 0.124850 3.881110 0.514960 
#    z 0.279160 0.514960 4.004450 
# 
# 
# High freq. dielectric constant tensor:
#      x y z
#    x 1.849700 -0.009510 0.000960 
#    y -0.009510 1.834610 0.038850 
#    z 0.000960 0.038850 1.836410 
# 
# From -- ./inp_files/172033.got.cif
#   From: 2010.06.25/outbox.cif.g09.slc.cpg/sg2_87_cif.got.tgz:172033.got - 2010.06.27 13:26:56.
