data_PCOD8011126
_publ_section_title
;
Structure prediction by ZEFSAII (Michael W. Deem and Ramdas Pophale) SiO2 
 PCOD8011126
Probable space group: P -1
;
_chemical_formula_sum "Si O2"
_cell_formula_units_Z 16
_cell_length_a 14.541004
_cell_length_b 8.201256
_cell_length_c 14.341025
_cell_angle_alpha 116.507045
_cell_angle_beta 152.788717
_cell_angle_gamma 71.790772
_cell_volume 684.777505
_symmetry_space_group_name_H-M "P -1"
_symmetry_group_IT_number 2
_symmetry_cell_setting 'triclinic'
loop_
_space_group_symop_operation_xyz
x,y,z
-x,-y,-z
loop_
_atom_site_type_symbol
_atom_site_label
_atom_site_fract_x
_atom_site_fract_y
_atom_site_fract_z
Si Si1 0.860531 0.524685 0.054823
Si Si2 0.789079 0.572977 0.208548
Si Si3 0.829475 0.270034 0.291258
Si Si4 0.247007 0.029887 0.721713
Si Si5 0.028088 0.102769 0.262619
Si Si6 0.259022 0.836501 0.494791
Si Si7 0.926572 0.782668 0.861386
Si Si8 0.316278 0.234613 0.187021
O O1 0.760157 0.485273 0.056684
O O2 0.077983 0.661101 0.303026
O O3 0.893920 0.333100 0.988591
O O4 0.718297 0.614482 0.881548
O O5 0.696535 0.407678 0.157573
O O6 0.030520 0.632986 0.471651
O O7 0.671120 0.746436 0.146672
O O8 0.681184 0.081198 0.151472
O O9 0.990552 0.219918 0.348423
O O10 0.323349 0.943432 0.676435
O O11 0.000000 0.000000 0.500000
O O12 0.126980 0.241958 0.303515
O O13 0.193127 0.978058 0.398926
O O14 0.812186 0.970609 0.005224
O O15 0.445587 0.765928 0.598403
O O16 0.740401 0.704405 0.744415
O O17 0.000000 0.000000 0.000000
#
# Coordination Sequence:
#
# PCOD8011126 Si02
#       8
#     2   2   2   2   2   2   2   2
#     4  11  20  40  66  85 119 167 198 247 320 361
#     4  10  18  30  62  93 117 159 210 245 301 378
#     4  10  17  31  60  90 119 157 209 250 296 377
#     4  10  16  32  57  85 123 160 194 245 298 362
#     4  10  19  39  65  83 121 166 196 248 319 357
#     4  11  21  38  62  91 124 157 206 252 301 371
#     4  10  22  41  65  89 118 162 206 253 309 365
#     4  10  24  39  60  92 121 158 208 258 300 363
#
# _framework density 23.365252999999999
#
# number of rings (size 3 to 8) (size 9 to 14) (size 15 to 20)
#    0.000    1.750    6.250    1.125    0.000    1.000 
#    0.000    5.000    0.000    1.500    0.000    0.000 
#    0.000    0.000    0.000    0.000    0.000    0.000 
#
# Total GULP energy -198316.181954 kJ/mol
# GULP energy per Si atom -12394.761372 kJ/mol
# Density = 2.331207 g / cm^3
# Si number density = 23.365253 Si / 1000 Ang^3
#
#
#
# Elastic Constant Matrix: (Units=GPa)
#
#
# Indices 1 2 3 4 5 6 
#
# 1 109.8860 23.5123 10.3554 -8.9421 -16.5764 17.9094
# 2 23.5123 156.4618 10.7758 -18.1685 -2.6175 19.0153
# 3 10.3554 10.7758 27.8838 -9.2352 -2.7424 9.6601
# 4 -8.9421 -18.1685 -9.2352 19.8475 1.0038 -16.4998
# 5 -16.5764 -2.6175 -2.7424 1.0038 18.4703 -5.6241
# 6 17.9094 19.0153 9.6601 -16.4998 -5.6241 46.8529
#
#
#
# Elastic Compliance Matrix: (Units=1/GPa)
#
#
# Indices 1 2 3 4 5 6 
#
# 1 0.011279 -0.001040 -0.001819 0.001140 0.009025 -0.002030
# 2 -0.001040 0.007283 -0.000439 0.005544 -0.000440 -0.000568
# 3 -0.001819 -0.000439 0.043365 0.017553 0.003338 -0.001485
# 4 0.001140 0.005544 0.017553 0.083781 0.007188 0.024062
# 5 0.009025 -0.000440 0.003338 0.007188 0.064195 0.006278
# 6 -0.002030 -0.000568 -0.001485 0.024062 0.006278 0.031884
#
#
# Mechanical properties :
#
#
# Convention : Reuss Voigt Hill
#
# Bulk Modulus (GPa) = 18.07231 42.61320 30.34275
# Shear Modulus (GPa) = 18.73888 33.67335 26.20612
#
# Velocity S-wave (km/s) = 2.83503 3.80040 3.35264
# Velocity P-wave (km/s) = 4.29744 6.12656 5.29163
#
# Compressibility (1/GPa) = 0.05533328
#
# Stress axis : x y z
#
# Youngs Moduli (GPa) = 88.65859 137.30004 23.06021
#
# Poissons Ratio (x) = 0.14275 0.04194
# Poissons Ratio (y) = 0.09218 0.01011
# Poissons Ratio (z) = 0.16124 0.06022
#
# Static dielectric constant tensor:
#      x y z
#    x 4.629660 0.370010 -0.379400 
#    y 0.370010 4.907060 -0.166600 
#    z -0.379400 -0.166600 3.583660 
# 
# 
# High freq. dielectric constant tensor:
#      x y z
#    x 1.932260 0.009640 -0.021060 
#    y 0.009640 1.948720 -0.014330 
#    z -0.021060 -0.014330 1.871750 
# 
# From -- ./inp_files/528854.got.cif
#   From: 2010.06.25/outbox.cif.g09.slc.cpg/sg2_265_cif.got.tgz:528854.got - 2010.06.27 13:26:56.
