data_PCOD8011557
_publ_section_title
;
Structure prediction by ZEFSAII (Michael W. Deem and Ramdas Pophale) SiO2 
 PCOD8011557
Probable space group: P -1
;
_chemical_formula_sum "Si O2"
_cell_formula_units_Z 14
_cell_length_a 7.748512
_cell_length_b 8.846215
_cell_length_c 16.984407
_cell_angle_alpha 122.046134
_cell_angle_beta 40.788337
_cell_angle_gamma 126.852574
_cell_volume 602.008675
_symmetry_space_group_name_H-M "P -1"
_symmetry_group_IT_number 2
_symmetry_cell_setting 'triclinic'
loop_
_space_group_symop_operation_xyz
x,y,z
-x,-y,-z
loop_
_atom_site_type_symbol
_atom_site_label
_atom_site_fract_x
_atom_site_fract_y
_atom_site_fract_z
Si Si1 0.653281 0.018689 0.550471
Si Si2 0.986627 0.763237 0.854245
Si Si3 0.729768 0.325817 0.482023
Si Si4 0.552195 0.392881 0.297749
Si Si5 0.387033 0.182961 0.866662
Si Si6 0.325903 0.466272 0.244929
Si Si7 0.816329 0.028566 0.670928
O O1 0.651684 0.204970 0.556700
O O2 0.769350 0.088797 0.615156
O O3 0.354690 0.837462 0.603526
O O4 0.854673 0.917862 0.408567
O O5 0.155221 0.619760 0.774221
O O6 0.794868 0.696981 0.824632
O O7 0.187643 0.984847 0.839609
O O8 0.775474 0.735388 0.993022
O O9 0.532728 0.453060 0.580595
O O10 0.061382 0.456865 0.391991
O O11 0.560357 0.431550 0.211033
O O12 0.300206 0.195993 0.342150
O O13 0.517394 0.330621 0.792680
O O14 0.643770 0.136519 0.810444
#
# Coordination Sequence:
#
# PCOD8011557 Si02
#       7
#     2   2   2   2   2   2   2
#     4  10  22  38  62  91 133 171 205 256 329 383
#     4  10  25  48  66  93 130 170 220 265 318 383
#     4  11  23  39  60  97 132 164 209 267 318 383
#     4  11  24  41  65  98 128 167 218 263 316 388
#     4  10  23  45  69  91 130 170 214 272 317 379
#     4  12  24  42  67  96 133 167 213 271 322 376
#     4  10  21  39  62  92 125 168 215 256 317 387
#
# _framework density 23.255479999999999
#
# number of rings (size 3 to 8) (size 9 to 14) (size 15 to 20)
#    0.000    1.429    1.429    3.429    6.000    2.857 
#    0.000    6.429    0.000    0.000    0.000    0.000 
#    0.000    0.000    0.000    0.000    0.000    0.000 
#
# Total GULP energy -173479.627141 kJ/mol
# GULP energy per Si atom -12391.401939 kJ/mol
# Density = 2.320255 g / cm^3
# Si number density = 23.255480 Si / 1000 Ang^3
#
#
#
# Elastic Constant Matrix: (Units=GPa)
#
#
# Indices 1 2 3 4 5 6 
#
# 1 54.5467 14.6833 2.9732 6.6565 8.0809 -4.5975
# 2 14.6833 117.7151 40.5800 -14.3784 1.8858 -14.2779
# 3 2.9732 40.5800 78.1535 -0.7035 -4.8198 -14.2766
# 4 6.6565 -14.3784 -0.7035 32.0276 0.5774 -3.3456
# 5 8.0809 1.8858 -4.8198 0.5774 32.5665 1.4689
# 6 -4.5975 -14.2779 -14.2766 -3.3456 1.4689 24.4493
#
#
#
# Elastic Compliance Matrix: (Units=1/GPa)
#
#
# Indices 1 2 3 4 5 6 
#
# 1 0.020705 -0.003235 0.000929 -0.005430 -0.004811 0.002092
# 2 -0.003235 0.012066 -0.005371 0.006433 -0.000996 0.004242
# 3 0.000929 -0.005371 0.016870 -0.001593 0.002311 0.006532
# 4 -0.005430 0.006433 -0.001593 0.035911 -0.000201 0.006731
# 5 -0.004811 -0.000996 0.002311 -0.000201 0.032399 -0.002111
# 6 0.002092 0.004242 0.006532 0.006731 -0.002111 0.048634
#
#
# Mechanical properties :
#
#
# Convention : Reuss Voigt Hill
#
# Bulk Modulus (GPa) = 29.16558 40.76537 34.96547
# Shear Modulus (GPa) = 25.85733 30.62058 28.23896
#
# Velocity S-wave (km/s) = 3.33811 3.63258 3.48845
# Velocity P-wave (km/s) = 5.23697 5.92972 5.59408
#
# Compressibility (1/GPa) = 0.03428699
#
# Stress axis : x y z
#
# Youngs Moduli (GPa) = 48.29777 82.87542 59.27617
#
# Poissons Ratio (x) = 0.26812 -0.05506
# Poissons Ratio (y) = 0.15625 0.31836
# Poissons Ratio (z) = -0.04486 0.44511
#
# Static dielectric constant tensor:
#      x y z
#    x 4.332170 -0.066110 -0.252860 
#    y -0.066110 4.199340 -0.037860 
#    z -0.252860 -0.037860 4.480250 
# 
# 
# High freq. dielectric constant tensor:
#      x y z
#    x 1.909500 -0.003330 -0.005960 
#    y -0.003330 1.938600 -0.004980 
#    z -0.005960 -0.004980 1.911440 
# 
# From -- ./inp_files/236775.got.cif
#   From: 2010.06.25/outbox.cif.g09.slc.cpg/sg2_119_cif.got.tgz:236775.got - 2010.06.27 13:26:56.
