data_PCOD8011259
_publ_section_title
;
Structure prediction by ZEFSAII (Michael W. Deem and Ramdas Pophale) SiO2 
 PCOD8011259
Probable space group: P -1
;
_chemical_formula_sum "Si O2"
_cell_formula_units_Z 16
_cell_length_a 9.444776
_cell_length_b 17.883725
_cell_length_c 20.228276
_cell_angle_alpha 20.680051
_cell_angle_beta 48.302545
_cell_angle_gamma 61.374948
_cell_volume 756.369011
_symmetry_space_group_name_H-M "P -1"
_symmetry_group_IT_number 2
_symmetry_cell_setting 'triclinic'
loop_
_space_group_symop_operation_xyz
x,y,z
-x,-y,-z
loop_
_atom_site_type_symbol
_atom_site_label
_atom_site_fract_x
_atom_site_fract_y
_atom_site_fract_z
Si Si1 0.510758 0.806240 0.780174
Si Si2 0.472439 0.895841 0.951108
Si Si3 0.974893 0.737480 0.221947
Si Si4 0.338164 0.554286 0.544879
Si Si5 0.771435 0.744576 0.640178
Si Si6 0.268635 0.171469 0.177685
Si Si7 0.567372 0.528683 0.615206
Si Si8 0.556336 0.730043 0.587253
O O1 0.588316 0.778487 0.706690
O O2 0.708743 0.853255 0.730461
O O3 0.483182 0.042304 0.589900
O O4 0.281852 0.537440 0.094446
O O5 0.553417 0.890733 0.856268
O O6 0.595482 0.166824 0.721440
O O7 0.557528 0.754681 0.086087
O O8 0.203154 0.756080 0.152849
O O9 0.911157 0.632426 0.252940
O O10 0.780180 0.569397 0.474119
O O11 0.000000 0.000000 0.000000
O O12 0.500000 0.500000 0.500000
O O13 0.377378 0.537318 0.624533
O O14 0.745941 0.780384 0.540467
O O15 0.020897 0.960275 0.405455
O O16 0.331699 0.453233 0.904263
O O17 0.644788 0.721003 0.493878
#
# Coordination Sequence:
#
# PCOD8011259 Si02
#       8
#     2   2   2   2   2   2   2   2
#     4  10  21  39  68  90 126 163 203 246 308 365
#     4  11  22  41  59  87 122 158 201 252 300 353
#     4  11  22  41  62  85 119 158 202 251 298 354
#     4  10  21  39  58  83 115 151 201 250 294 361
#     4  10  22  41  61  96 125 162 201 252 304 366
#     4  10  23  40  60  91 130 157 207 253 302 361
#     4  10  22  41  60  87 121 158 201 250 307 353
#     4  10  22  41  61  92 125 159 206 255 297 371
#
# _framework density 21.153696
#
# number of rings (size 3 to 8) (size 9 to 14) (size 15 to 20)
#    0.000    1.750    2.500    1.875    0.000    6.500 
#    6.750    0.000    0.000    0.000    0.000    0.000 
#    0.000    0.000    0.000    0.000    0.000    0.000 
#
# Total GULP energy -198276.515308 kJ/mol
# GULP energy per Si atom -12392.282207 kJ/mol
# Density = 2.110555 g / cm^3
# Si number density = 21.153696 Si / 1000 Ang^3
#
#
#
# Elastic Constant Matrix: (Units=GPa)
#
#
# Indices 1 2 3 4 5 6 
#
# 1 95.6181 25.9987 60.6673 -6.4870 -10.7203 18.9471
# 2 25.9987 84.2384 29.3799 -18.6285 9.3380 9.6250
# 3 60.6673 29.3799 128.4969 -36.0240 -4.9831 -5.6026
# 4 -6.4870 -18.6285 -36.0240 38.2400 -4.6919 4.4049
# 5 -10.7203 9.3380 -4.9831 -4.6919 40.7763 -7.5635
# 6 18.9471 9.6250 -5.6026 4.4049 -7.5635 35.7183
#
#
#
# Elastic Compliance Matrix: (Units=1/GPa)
#
#
# Indices 1 2 3 4 5 6 
#
# 1 0.020166 -0.002899 -0.011249 -0.007165 0.001836 -0.010408
# 2 -0.002899 0.015428 -0.000774 0.006258 -0.004498 -0.004465
# 3 -0.011249 -0.000774 0.017516 0.013614 0.002363 0.007745
# 4 -0.007165 0.006258 0.013614 0.041205 0.003054 -0.000185
# 5 0.001836 -0.004498 0.002363 0.003054 0.027813 0.006122
# 6 -0.010408 -0.004465 0.007745 -0.000185 0.006122 0.037255
#
#
# Mechanical properties :
#
#
# Convention : Reuss Voigt Hill
#
# Bulk Modulus (GPa) = 42.98007 60.04945 51.51476
# Shear Modulus (GPa) = 25.38287 35.76742 30.57515
#
# Velocity S-wave (km/s) = 3.46775 4.11644 3.80594
# Velocity P-wave (km/s) = 6.03290 7.14439 6.61204
#
# Compressibility (1/GPa) = 0.02326660
#
# Stress axis : x y z
#
# Youngs Moduli (GPa) = 49.58769 64.81610 57.08949
#
# Poissons Ratio (x) = 0.18791 0.64223
# Poissons Ratio (y) = 0.14376 0.04416
# Poissons Ratio (z) = 0.55784 0.05014
#
# Static dielectric constant tensor:
#      x y z
#    x 4.027100 0.696300 0.156040 
#    y 0.696300 1.028110 -1.414490 
#    z 0.156040 -1.414490 3.407080 
# 
# 
# High freq. dielectric constant tensor:
#      x y z
#    x 1.825250 0.021230 0.008540 
#    y 0.021230 1.829320 -0.019670 
#    z 0.008540 -0.019670 1.832960 
# 
# From -- ./inp_files/590870.got.cif
#   From: 2010.06.25/outbox.cif.g09.slc.cpg/sg2_296_cif.got.tgz:590870.got - 2010.06.27 13:26:56.
