data_PCOD8011289
_publ_section_title
;
Structure prediction by ZEFSAII (Michael W. Deem and Ramdas Pophale) SiO2 
 PCOD8011289
Probable space group: P -1
;
_chemical_formula_sum "Si O2"
_cell_formula_units_Z 16
_cell_length_a 11.024513
_cell_length_b 21.202877
_cell_length_c 8.020284
_cell_angle_alpha 37.365355
_cell_angle_beta 119.438004
_cell_angle_gamma 135.621850
_cell_volume 782.693455
_symmetry_space_group_name_H-M "P -1"
_symmetry_group_IT_number 2
_symmetry_cell_setting 'triclinic'
loop_
_space_group_symop_operation_xyz
x,y,z
-x,-y,-z
loop_
_atom_site_type_symbol
_atom_site_label
_atom_site_fract_x
_atom_site_fract_y
_atom_site_fract_z
Si Si1 0.823925 0.406513 0.979502
Si Si2 0.158133 0.762922 0.880946
Si Si3 0.293813 0.417607 0.504906
Si Si4 0.687267 0.194693 0.595250
Si Si5 0.856447 0.976567 0.148619
Si Si6 0.495471 0.903133 0.997466
Si Si7 0.068165 0.195920 0.569430
Si Si8 0.019707 0.787918 0.075330
O O1 0.880266 0.372043 0.920651
O O2 0.687831 0.280514 0.270195
O O3 0.735982 0.473667 0.731692
O O4 0.000000 0.500000 0.000000
O O5 0.369604 0.858512 0.845474
O O6 0.097324 0.811322 0.588932
O O7 0.049167 0.748962 0.998394
O O8 0.500000 0.500000 0.500000
O O9 0.229286 0.341316 0.441945
O O10 0.186791 0.311815 0.805919
O O11 0.882640 0.234908 0.665688
O O12 0.543525 0.043082 0.772987
O O13 0.620338 0.206121 0.705510
O O14 0.871802 0.857800 0.424539
O O15 0.667931 0.911995 0.069517
O O16 0.011368 0.095296 0.891873
O O17 0.890326 0.054131 0.184945
#
# Coordination Sequence:
#
# PCOD8011289 Si02
#       8
#     2   2   2   2   2   2   2   2
#     4  12  22  40  62  84 116 162 201 239 293 351
#     4  11  22  36  62  93 114 150 198 248 293 349
#     4  11  24  43  59  81 118 160 203 243 285 351
#     4   9  18  38  62  87 120 153 189 245 295 347
#     4   9  19  38  62  82 121 162 185 239 303 354
#     4   9  19  36  60  91 119 146 193 246 296 342
#     4  10  21  39  59  85 119 159 196 238 300 349
#     4   9  19  40  61  86 120 152 191 244 300 346
#
# _framework density 20.442231
#
# number of rings (size 3 to 8) (size 9 to 14) (size 15 to 20)
#    0.000    2.000    2.500    2.250    1.750    3.000 
#    6.750    0.625    0.000    0.000    0.000    0.000 
#    0.000    0.000    0.000    0.000    0.000    0.000 
#
# Total GULP energy -198222.401046 kJ/mol
# GULP energy per Si atom -12388.900065 kJ/mol
# Density = 2.039570 g / cm^3
# Si number density = 20.442231 Si / 1000 Ang^3
#
#
#
# Elastic Constant Matrix: (Units=GPa)
#
#
# Indices 1 2 3 4 5 6 
#
# 1 99.5586 64.1071 35.5973 -14.0270 22.7147 -8.1523
# 2 64.1071 137.5361 29.1674 -3.3542 14.2957 0.6485
# 3 35.5973 29.1674 61.1697 -9.1982 17.5891 -10.0934
# 4 -14.0270 -3.3542 -9.1982 21.0536 -0.2371 3.5604
# 5 22.7147 14.2957 17.5891 -0.2371 41.4414 -2.1573
# 6 -8.1523 0.6485 -10.0934 3.5604 -2.1573 46.3450
#
#
#
# Elastic Compliance Matrix: (Units=1/GPa)
#
#
# Indices 1 2 3 4 5 6 
#
# 1 0.018926 -0.007073 -0.004273 0.009293 -0.005988 0.001505
# 2 -0.007073 0.010839 -0.002123 -0.003643 0.000938 -0.001535
# 3 -0.004273 -0.002123 0.023275 0.006308 -0.006583 0.003556
# 4 0.009293 -0.003643 0.006308 0.056055 -0.006274 -0.001539
# 5 -0.005988 0.000938 -0.006583 -0.006274 0.029814 -0.000630
# 6 0.001505 -0.001535 0.003556 -0.001539 -0.000630 0.022727
#
#
# Mechanical properties :
#
#
# Convention : Reuss Voigt Hill
#
# Bulk Modulus (GPa) = 38.31286 61.77867 50.04576
# Shear Modulus (GPa) = 25.34537 33.06083 29.20310
#
# Velocity S-wave (km/s) = 3.52498 4.02591 3.78374
# Velocity P-wave (km/s) = 5.94558 7.20398 6.60482
#
# Compressibility (1/GPa) = 0.02610089
#
# Stress axis : x y z
#
# Youngs Moduli (GPa) = 52.83841 92.26123 42.96408
#
# Poissons Ratio (x) = 0.65259 0.18360
# Poissons Ratio (y) = 0.37374 0.09121
# Poissons Ratio (z) = 0.22579 0.19586
#
# Static dielectric constant tensor:
#      x y z
#    x 3.968670 -0.267270 -0.277150 
#    y -0.267270 3.877900 -0.059450 
#    z -0.277150 -0.059450 3.010710 
# 
# 
# High freq. dielectric constant tensor:
#      x y z
#    x 1.799230 -0.007920 0.011640 
#    y -0.007920 1.802850 -0.007120 
#    z 0.011640 -0.007120 1.767330 
# 
# From -- ./inp_files/284576.got.cif
#   From: 2010.06.25/outbox.cif.g09.slc.cpg/sg2_143_cif.got.tgz:284576.got - 2010.06.27 13:26:56.
