data_PCOD8011293
_publ_section_title
;
Structure prediction by ZEFSAII (Michael W. Deem and Ramdas Pophale) SiO2 
 PCOD8011293
Probable space group: P -1
;
_chemical_formula_sum "Si O2"
_cell_formula_units_Z 14
_cell_length_a 7.927914
_cell_length_b 15.939364
_cell_length_c 15.325342
_cell_angle_alpha 153.561186
_cell_angle_beta 99.750555
_cell_angle_gamma 66.624976
_cell_volume 704.878312
_symmetry_space_group_name_H-M "P -1"
_symmetry_group_IT_number 2
_symmetry_cell_setting 'triclinic'
loop_
_space_group_symop_operation_xyz
x,y,z
-x,-y,-z
loop_
_atom_site_type_symbol
_atom_site_label
_atom_site_fract_x
_atom_site_fract_y
_atom_site_fract_z
Si Si1 0.045450 0.257839 0.187286
Si Si2 0.213009 0.054554 0.524408
Si Si3 0.983656 0.171612 0.782706
Si Si4 0.642995 0.641419 0.442735
Si Si5 0.965099 0.718286 0.596629
Si Si6 0.363900 0.340751 0.741565
Si Si7 0.799695 0.079047 0.262691
O O1 0.108986 0.441692 0.360475
O O2 0.808838 0.382956 0.248510
O O3 0.066080 0.170559 0.206776
O O4 0.193415 0.044665 0.940738
O O5 0.239112 0.222136 0.623611
O O6 0.125348 0.175807 0.723583
O O7 0.053659 0.021447 0.428034
O O8 0.425251 0.809007 0.325929
O O9 0.769287 0.413653 0.997098
O O10 0.104982 0.104615 0.822135
O O11 0.587592 0.639928 0.336014
O O12 0.439209 0.734295 0.567701
O O13 0.742545 0.789946 0.604345
O O14 0.075172 0.802207 0.622718
#
# Coordination Sequence:
#
# PCOD8011293 Si02
#       7
#     2   2   2   2   2   2   2
#     4   9  21  43  57  85 122 146 192 244 277 341
#     4  10  23  36  59  82 109 151 188 232 284 335
#     4  11  21  37  57  84 113 145 191 232 281 340
#     4  10  21  39  59  87 117 148 196 233 279 352
#     4   9  21  42  57  87 120 147 193 240 280 341
#     4  11  20  40  57  80 117 147 184 238 283 327
#     4  12  21  37  64  84 116 158 185 236 294 333
#
# _framework density 19.861584000000001
#
# number of rings (size 3 to 8) (size 9 to 14) (size 15 to 20)
#    0.857    0.857    2.857    2.143    0.000    1.143 
#    2.571    0.000    0.000    0.000    0.000    0.000 
#    0.000    0.000    0.000    0.000    0.000    0.000 
#
# Total GULP energy -173592.789322 kJ/mol
# GULP energy per Si atom -12399.484952 kJ/mol
# Density = 1.981638 g / cm^3
# Si number density = 19.861584 Si / 1000 Ang^3
#
#
#
# Elastic Constant Matrix: (Units=GPa)
#
#
# Indices 1 2 3 4 5 6 
#
# 1 76.9716 8.5006 20.8851 -8.0423 -11.6962 10.9497
# 2 8.5006 59.8641 17.5990 -8.3245 -5.2094 7.4045
# 3 20.8851 17.5990 85.3119 -14.1932 -19.7717 15.1969
# 4 -8.0423 -8.3245 -14.1932 19.1152 3.2753 -0.3872
# 5 -11.6962 -5.2094 -19.7717 3.2753 25.9266 -8.0883
# 6 10.9497 7.4045 15.1969 -0.3872 -8.0883 19.7015
#
#
#
# Elastic Compliance Matrix: (Units=1/GPa)
#
#
# Indices 1 2 3 4 5 6 
#
# 1 0.015187 -0.000130 -0.000968 0.004879 0.003573 -0.006082
# 2 -0.000130 0.018861 -0.001793 0.006755 -0.000236 -0.005598
# 3 -0.000968 -0.001793 0.017552 0.010194 0.008622 -0.008587
# 4 0.004879 0.006755 0.010194 0.064739 -0.000620 -0.012095
# 5 0.003573 -0.000236 0.008622 -0.000620 0.050598 0.012213
# 6 -0.006082 -0.005598 -0.008587 -0.012095 0.012213 0.067642
#
#
# Mechanical properties :
#
#
# Convention : Reuss Voigt Hill
#
# Bulk Modulus (GPa) = 21.82522 35.12414 28.47468
# Shear Modulus (GPa) = 19.55925 24.62619 22.09272
#
# Velocity S-wave (km/s) = 3.14152 3.52503 3.33879
# Velocity P-wave (km/s) = 4.91644 5.85582 5.40657
#
# Compressibility (1/GPa) = 0.04581856
#
# Stress axis : x y z
#
# Youngs Moduli (GPa) = 65.84701 53.01891 56.97291
#
# Poissons Ratio (x) = 0.00691 0.05514
# Poissons Ratio (y) = 0.00858 0.10214
# Poissons Ratio (z) = 0.06372 0.09505
#
# Static dielectric constant tensor:
#      x y z
#    x 3.411140 0.073880 -0.058470 
#    y 0.073880 3.505740 -0.110050 
#    z -0.058470 -0.110050 3.387110 
# 
# 
# High freq. dielectric constant tensor:
#      x y z
#    x 1.760260 0.003670 -0.003080 
#    y 0.003670 1.778700 -0.013150 
#    z -0.003080 -0.013150 1.764540 
# 
# From -- ./inp_files/44899.got.cif
#   From: 2010.06.25/outbox.cif.g09.slc.cpg/sg2_23_cif.got.tgz:44899.got - 2010.06.27 13:26:56.
