data_PCOD8011647
_publ_section_title
;
Structure prediction by ZEFSAII (Michael W. Deem and Ramdas Pophale) SiO2 
 PCOD8011647
Probable space group: P -1
;
_chemical_formula_sum "Si O2"
_cell_formula_units_Z 16
_cell_length_a 23.616601
_cell_length_b 8.424103
_cell_length_c 20.182848
_cell_angle_alpha 32.168565
_cell_angle_beta 23.008468
_cell_angle_gamma 30.697054
_cell_volume 770.159486
_symmetry_space_group_name_H-M "P -1"
_symmetry_group_IT_number 2
_symmetry_cell_setting 'triclinic'
loop_
_space_group_symop_operation_xyz
x,y,z
-x,-y,-z
loop_
_atom_site_type_symbol
_atom_site_label
_atom_site_fract_x
_atom_site_fract_y
_atom_site_fract_z
Si Si1 0.174810 0.260622 0.907677
Si Si2 0.059269 0.898003 0.546360
Si Si3 0.210339 0.944262 0.119085
Si Si4 0.458331 0.148993 0.828788
Si Si5 0.661726 0.426120 0.077169
Si Si6 0.360480 0.321137 0.461940
Si Si7 0.742617 0.715442 0.762487
Si Si8 0.568576 0.615890 0.486152
O O1 0.297395 0.424968 0.698276
O O2 0.209275 0.937717 0.940945
O O3 0.000000 0.500000 0.000000
O O4 0.184217 0.187045 0.000938
O O5 0.194225 0.535448 0.531378
O O6 0.117764 0.159500 0.423686
O O7 0.000000 0.000000 0.500000
O O8 0.915072 0.891446 0.746957
O O9 0.199749 0.609654 0.227880
O O10 0.384747 0.894374 0.974920
O O11 0.327499 0.443814 0.906687
O O12 0.518297 0.306767 0.646938
O O13 0.601043 0.985863 0.782344
O O14 0.489891 0.424253 0.250471
O O15 0.686342 0.665572 0.913069
O O16 0.355440 0.376207 0.526746
O O17 0.411644 0.938410 0.528624
#
# Coordination Sequence:
#
# PCOD8011647 Si02
#       8
#     2   2   2   2   2   2   2   2
#     4  10  21  39  63  90 130 169 201 265 323 377
#     4  12  24  40  64  97 129 163 209 264 322 381
#     4  11  26  40  59  93 130 163 215 258 322 369
#     4  11  21  39  66  92 121 169 216 263 296 384
#     4   9  19  36  65  91 119 164 219 244 315 371
#     4   9  18  36  63  95 119 162 204 268 296 378
#     4  11  22  41  63  87 129 171 206 263 318 373
#     4   9  18  37  65  90 121 163 219 244 317 366
#
# _framework density 20.774918
#
# number of rings (size 3 to 8) (size 9 to 14) (size 15 to 20)
#    0.000    1.750    2.500    3.375    1.750    0.500 
#    2.250    5.000    0.000    0.000    0.000    0.000 
#    0.000    0.000    0.000    0.000    0.000    0.000 
#
# Total GULP energy -198364.051838 kJ/mol
# GULP energy per Si atom -12397.753240 kJ/mol
# Density = 2.072763 g / cm^3
# Si number density = 20.774918 Si / 1000 Ang^3
#
#
#
# Elastic Constant Matrix: (Units=GPa)
#
#
# Indices 1 2 3 4 5 6 
#
# 1 86.5013 42.6891 42.5212 7.0890 -1.6252 -8.7811
# 2 42.6891 108.8346 53.9693 8.3193 2.1512 -20.8208
# 3 42.5212 53.9693 137.6696 -5.0896 10.5355 -3.5278
# 4 7.0890 8.3193 -5.0896 30.4044 4.1259 3.3209
# 5 -1.6252 2.1512 10.5355 4.1259 42.9744 -0.2051
# 6 -8.7811 -20.8208 -3.5278 3.3209 -0.2051 23.4948
#
#
#
# Elastic Compliance Matrix: (Units=1/GPa)
#
#
# Indices 1 2 3 4 5 6 
#
# 1 0.015782 -0.003568 -0.003709 -0.003906 0.002073 0.002750
# 2 -0.003568 0.016068 -0.005159 -0.005977 0.000961 0.012984
# 3 -0.003709 -0.005159 0.010718 0.005035 -0.003017 -0.005086
# 4 -0.003906 -0.005977 0.005035 0.038180 -0.004803 -0.011439
# 5 0.002073 0.000961 -0.003017 -0.004803 0.024511 0.002066
# 6 0.002750 0.012984 -0.005086 -0.011439 0.002066 0.055968
#
#
# Mechanical properties :
#
#
# Convention : Reuss Voigt Hill
#
# Bulk Modulus (GPa) = 56.50240 67.92942 62.21591
# Shear Modulus (GPa) = 26.04212 32.29643 29.16927
#
# Velocity S-wave (km/s) = 3.54437 3.94710 3.75115
# Velocity P-wave (km/s) = 6.63374 7.31721 6.98384
#
# Compressibility (1/GPa) = 0.01769836
#
# Stress axis : x y z
#
# Youngs Moduli (GPa) = 63.36134 62.23732 93.29874
#
# Poissons Ratio (x) = 0.22204 0.34601
# Poissons Ratio (y) = 0.22605 0.48130
# Poissons Ratio (z) = 0.23498 0.32106
#
# Static dielectric constant tensor:
#      x y z
#    x 3.751770 0.043510 0.115990 
#    y 0.043510 3.812600 -0.128650 
#    z 0.115990 -0.128650 3.967110 
# 
# 
# High freq. dielectric constant tensor:
#      x y z
#    x 1.793390 -0.004110 0.019310 
#    y -0.004110 1.810280 -0.008750 
#    z 0.019310 -0.008750 1.823410 
# 
# From -- ./inp_files/381729.got.cif
#   From: 2010.06.25/outbox.cif.g09.slc.cpg/sg2_191_cif.got.tgz:381729.got - 2010.06.27 13:26:56.
