data_PCOD8011450
_publ_section_title
;
Structure prediction by ZEFSAII (Michael W. Deem and Ramdas Pophale) SiO2 
 PCOD8011450
Probable space group: P -1
;
_chemical_formula_sum "Si O2"
_cell_formula_units_Z 14
_cell_length_a 13.655707
_cell_length_b 23.935860
_cell_length_c 12.556714
_cell_angle_alpha 21.982289
_cell_angle_beta 146.979557
_cell_angle_gamma 156.876144
_cell_volume 600.474008
_symmetry_space_group_name_H-M "P -1"
_symmetry_group_IT_number 2
_symmetry_cell_setting 'triclinic'
loop_
_space_group_symop_operation_xyz
x,y,z
-x,-y,-z
loop_
_atom_site_type_symbol
_atom_site_label
_atom_site_fract_x
_atom_site_fract_y
_atom_site_fract_z
Si Si1 0.702147 0.631820 0.607720
Si Si2 0.961955 0.118172 0.330191
Si Si3 0.384604 0.737254 0.759742
Si Si4 0.618601 0.279100 0.834676
Si Si5 0.429406 0.904486 0.220125
Si Si6 0.832718 0.221928 0.320599
Si Si7 0.039009 0.492440 0.682813
O O1 0.858804 0.793017 0.562556
O O2 0.505927 0.643386 0.368706
O O3 0.894062 0.696934 0.574043
O O4 0.549394 0.396805 0.918676
O O5 0.031486 0.309335 0.990245
O O6 0.000000 0.000000 0.500000
O O7 0.672699 0.952689 0.398463
O O8 0.185351 0.685046 0.756660
O O9 0.264404 0.679259 0.636308
O O10 0.635246 0.975117 0.578026
O O11 0.781217 0.406833 0.649601
O O12 0.803123 0.308778 0.035425
O O13 0.397750 0.033064 0.038407
O O14 0.166441 0.654416 0.409524
O O15 0.500000 0.000000 0.000000
#
# Coordination Sequence:
#
# PCOD8011450 Si02
#       7
#     2   2   2   2   2   2   2
#     4  11  22  40  62  93 127 164 207 256 304 370
#     4  10  21  39  61  92 124 161 208 255 308 368
#     4  10  21  40  66  89 125 172 200 256 316 360
#     4  11  23  38  64  93 126 165 206 258 306 366
#     4  11  22  41  64  87 125 165 204 260 315 364
#     4  11  21  42  63  91 130 162 209 257 306 366
#     4  10  21  41  63  87 127 164 206 253 315 370
#
# _framework density 23.314914999999999
#
# number of rings (size 3 to 8) (size 9 to 14) (size 15 to 20)
#    0.000    1.429    5.714    1.286    0.000    4.571 
#    0.000    5.714    0.000    0.000    0.000    0.000 
#    0.000    0.000    0.000    0.000    0.000    0.000 
#
# Total GULP energy -173560.681261 kJ/mol
# GULP energy per Si atom -12397.191519 kJ/mol
# Density = 2.326185 g / cm^3
# Si number density = 23.314915 Si / 1000 Ang^3
#
#
#
# Elastic Constant Matrix: (Units=GPa)
#
#
# Indices 1 2 3 4 5 6 
#
# 1 77.4641 11.2052 49.7479 3.7253 10.7011 30.1152
# 2 11.2052 75.2031 50.6296 -18.7368 10.6270 20.7463
# 3 49.7479 50.6296 125.0629 -16.1177 22.7077 27.2778
# 4 3.7253 -18.7368 -16.1177 44.3009 6.4359 7.9476
# 5 10.7011 10.6270 22.7077 6.4359 48.4057 -1.7210
# 6 30.1152 20.7463 27.2778 7.9476 -1.7210 32.3487
#
#
#
# Elastic Compliance Matrix: (Units=1/GPa)
#
#
# Indices 1 2 3 4 5 6 
#
# 1 0.027822 0.011134 -0.007286 0.005884 -0.006981 -0.028715
# 2 0.011134 0.028461 -0.006547 0.014846 -0.008579 -0.027201
# 3 -0.007286 -0.006547 0.016095 0.005222 -0.005344 -0.004158
# 4 0.005884 0.014846 0.005222 0.037402 -0.013024 -0.029284
# 5 -0.006981 -0.008579 -0.005344 -0.013024 0.029080 0.021254
# 6 -0.028715 -0.027201 -0.004158 -0.029284 0.021254 0.086922
#
#
# Mechanical properties :
#
#
# Convention : Reuss Voigt Hill
#
# Bulk Modulus (GPa) = 14.92973 55.65506 35.29240
# Shear Modulus (GPa) = 19.72337 36.08756 27.90547
#
# Velocity S-wave (km/s) = 2.91169 3.93852 3.46337
# Velocity P-wave (km/s) = 4.20967 6.67873 5.58241
#
# Compressibility (1/GPa) = 0.06698044
#
# Stress axis : x y z
#
# Youngs Moduli (GPa) = 35.94234 35.13563 62.13300
#
# Poissons Ratio (x) = -0.39119 0.45267
# Poissons Ratio (y) = -0.40017 0.40677
# Poissons Ratio (z) = 0.26186 0.23003
#
# Static dielectric constant tensor:
#      x y z
#    x 4.464110 -0.069210 -0.067690 
#    y -0.069210 5.107060 -0.562650 
#    z -0.067690 -0.562650 4.329960 
# 
# 
# High freq. dielectric constant tensor:
#      x y z
#    x 1.927560 -0.018810 0.002410 
#    y -0.018810 1.931250 -0.031270 
#    z 0.002410 -0.031270 1.921110 
# 
# From -- ./inp_files/348310.got.cif
#   From: 2010.06.25/outbox.cif.g09.slc.cpg/sg2_175_cif.got.tgz:348310.got - 2010.06.27 13:26:56.
