data_PCOD8011265
_publ_section_title
;
Structure prediction by ZEFSAII (Michael W. Deem and Ramdas Pophale) SiO2 
 PCOD8011265
Probable space group: P -1
;
_chemical_formula_sum "Si O2"
_cell_formula_units_Z 16
_cell_length_a 14.351682
_cell_length_b 11.041123
_cell_length_c 13.768459
_cell_angle_alpha 32.380844
_cell_angle_beta 134.189871
_cell_angle_gamma 135.700463
_cell_volume 790.613325
_symmetry_space_group_name_H-M "P -1"
_symmetry_group_IT_number 2
_symmetry_cell_setting 'triclinic'
loop_
_space_group_symop_operation_xyz
x,y,z
-x,-y,-z
loop_
_atom_site_type_symbol
_atom_site_label
_atom_site_fract_x
_atom_site_fract_y
_atom_site_fract_z
Si Si1 0.853343 0.489383 0.865649
Si Si2 0.624192 0.998920 0.025586
Si Si3 0.145256 0.173027 0.202728
Si Si4 0.644949 0.508534 0.352870
Si Si5 0.659889 0.075706 0.778152
Si Si6 0.421731 0.184000 0.292449
Si Si7 0.947627 0.394434 0.805743
Si Si8 0.046136 0.355487 0.551234
O O1 0.751091 0.226839 0.994760
O O2 0.807829 0.693855 0.748945
O O3 0.871389 0.521686 0.740555
O O4 0.000000 0.500000 0.000000
O O5 0.593113 0.003599 0.884424
O O6 0.500000 0.000000 0.000000
O O7 0.650739 0.755656 0.239991
O O8 0.275724 0.128315 0.278753
O O9 0.022650 0.926718 0.295318
O O10 0.081530 0.338562 0.979404
O O11 0.616878 0.298764 0.554889
O O12 0.525564 0.441150 0.228362
O O13 0.790781 0.560281 0.372236
O O14 0.826843 0.150389 0.851001
O O15 0.606420 0.844205 0.824680
O O16 0.500000 0.000000 0.500000
O O17 0.999479 0.577936 0.631554
O O18 0.000000 0.500000 0.500000
#
# Coordination Sequence:
#
# PCOD8011265 Si02
#       8
#     2   2   2   2   2   2   2   2
#     4   9  19  38  58  82 115 146 185 235 283 334
#     4  11  22  38  59  84 112 151 199 230 273 345
#     4  11  21  38  63  84 115 153 186 239 286 327
#     4  10  21  39  59  82 119 154 181 237 294 328
#     4   9  20  38  58  83 118 151 187 236 285 339
#     4  10  21  39  58  84 120 152 187 232 288 342
#     4   9  20  37  59  88 115 148 192 233 285 340
#     4  11  22  37  61  89 113 148 197 234 277 346
#
# _framework density 20.237452999999999
#
# number of rings (size 3 to 8) (size 9 to 14) (size 15 to 20)
#    0.000    2.000    0.000    5.250    0.000    4.500 
#    0.000   17.500    0.000    0.000    0.000    0.000 
#    0.000    0.000    0.000    0.000    0.000    0.000 
#
# Total GULP energy -198292.898729 kJ/mol
# GULP energy per Si atom -12393.306171 kJ/mol
# Density = 2.019139 g / cm^3
# Si number density = 20.237453 Si / 1000 Ang^3
#
#
#
# Elastic Constant Matrix: (Units=GPa)
#
#
# Indices 1 2 3 4 5 6 
#
# 1 140.4333 40.7747 49.0911 4.3656 4.5886 1.1136
# 2 40.7747 111.9514 28.0914 1.0433 -4.2146 -2.1440
# 3 49.0911 28.0914 69.7483 -2.8004 -1.0644 -0.8370
# 4 4.3656 1.0433 -2.8004 32.6559 1.3320 5.0566
# 5 4.5886 -4.2146 -1.0644 1.3320 28.8997 -2.4568
# 6 1.1136 -2.1440 -0.8370 5.0566 -2.4568 32.0413
#
#
#
# Elastic Compliance Matrix: (Units=1/GPa)
#
#
# Indices 1 2 3 4 5 6 
#
# 1 0.010088 -0.002160 -0.006336 -0.001649 -0.002122 -0.000563
# 2 -0.002160 0.010485 -0.002683 -0.000497 0.001875 0.000929
# 3 -0.006336 -0.002683 0.020002 0.002557 0.001255 0.000256
# 4 -0.001649 -0.000497 0.002557 0.031929 -0.001619 -0.005072
# 5 -0.002122 0.001875 0.001255 -0.001619 0.035607 0.003218
# 6 -0.000563 0.000929 0.000256 -0.005072 0.003218 0.032345
#
#
# Mechanical properties :
#
#
# Convention : Reuss Voigt Hill
#
# Bulk Modulus (GPa) = 54.89009 62.00527 58.44768
# Shear Modulus (GPa) = 29.60572 32.33109 30.96841
#
# Velocity S-wave (km/s) = 3.82896 4.00132 3.91609
# Velocity P-wave (km/s) = 6.83592 7.21476 7.02789
#
# Compressibility (1/GPa) = 0.01821822
#
# Stress axis : x y z
#
# Youngs Moduli (GPa) = 99.13118 95.37156 49.99509
#
# Poissons Ratio (x) = 0.20597 0.31675
# Poissons Ratio (y) = 0.21409 0.13414
# Poissons Ratio (z) = 0.62805 0.25590
#
# Static dielectric constant tensor:
#      x y z
#    x 4.018840 -0.624420 -0.148040 
#    y -0.624420 4.374960 0.046250 
#    z -0.148040 0.046250 3.437550 
# 
# 
# High freq. dielectric constant tensor:
#      x y z
#    x 1.793350 -0.006740 0.003560 
#    y -0.006740 1.808030 0.001310 
#    z 0.003560 0.001310 1.769210 
# 
# From -- ./inp_files/268363.got.cif
#   From: 2010.06.25/outbox.cif.g09.slc.cpg/sg2_135_cif.got.tgz:268363.got - 2010.06.27 13:26:56.
