data_PCOD8011436
_publ_section_title
;
Structure prediction by ZEFSAII (Michael W. Deem and Ramdas Pophale) SiO2 
 PCOD8011436
Probable space group: P -1
;
_chemical_formula_sum "Si O2"
_cell_formula_units_Z 14
_cell_length_a 14.129326
_cell_length_b 14.000956
_cell_length_c 11.470045
_cell_angle_alpha 60.199961
_cell_angle_beta 40.659877
_cell_angle_gamma 30.221618
_cell_volume 651.474945
_symmetry_space_group_name_H-M "P -1"
_symmetry_group_IT_number 2
_symmetry_cell_setting 'triclinic'
loop_
_space_group_symop_operation_xyz
x,y,z
-x,-y,-z
loop_
_atom_site_type_symbol
_atom_site_label
_atom_site_fract_x
_atom_site_fract_y
_atom_site_fract_z
Si Si1 0.678610 0.992671 0.812961
Si Si2 0.762530 0.492070 0.468948
Si Si3 0.195022 0.088880 0.720307
Si Si4 0.571165 0.444971 0.102983
Si Si5 0.325185 0.882507 0.492888
Si Si6 0.810702 0.116814 0.722276
Si Si7 0.186524 0.342936 0.531383
O O1 0.006556 0.748715 0.632888
O O2 0.571046 0.123602 0.717342
O O3 0.674404 0.081965 0.871551
O O4 0.500000 0.000000 0.000000
O O5 0.568397 0.575483 0.706438
O O6 0.575658 0.634326 0.442115
O O7 0.901215 0.515488 0.369749
O O8 0.105156 0.275232 0.692214
O O9 0.284261 0.000790 0.558588
O O10 0.465000 0.884120 0.676753
O O11 0.910247 0.211173 0.951773
O O12 0.450281 0.627176 0.179555
O O13 0.500000 0.500000 0.000000
O O14 0.033893 0.000691 0.686424
O O15 0.000000 0.000000 0.500000
O O16 0.000000 0.500000 0.500000
#
# Coordination Sequence:
#
# PCOD8011436 Si02
#       7
#     2   2   2   2   2   2   2
#     4  11  24  44  65  92 128 172 223 270 328 393
#     4  11  24  41  67  93 130 175 216 275 332 383
#     4  10  22  39  62  95 134 166 215 272 326 386
#     4  12  21  41  69  99 134 172 222 276 327 388
#     4  10  21  44  65  93 130 165 221 276 324 389
#     4  10  21  43  67  90 134 175 215 273 328 388
#     4  10  21  39  61  90 130 173 209 260 331 387
#
# _framework density 21.489699000000002
#
# number of rings (size 3 to 8) (size 9 to 14) (size 15 to 20)
#    0.000    1.429    4.286    1.714    2.000    3.429 
#    5.143    2.857    0.000    0.000    0.000    0.000 
#    0.000    0.000    0.000    0.000    0.000    0.000 
#
# Total GULP energy -173534.161570 kJ/mol
# GULP energy per Si atom -12395.297255 kJ/mol
# Density = 2.144079 g / cm^3
# Si number density = 21.489699 Si / 1000 Ang^3
#
#
#
# Elastic Constant Matrix: (Units=GPa)
#
#
# Indices 1 2 3 4 5 6 
#
# 1 109.9155 46.8992 26.1389 -7.0463 -14.8091 2.2978
# 2 46.8992 121.8946 25.9629 -4.9107 3.2754 -22.0549
# 3 26.1389 25.9629 87.8550 -5.8018 -10.9316 -11.1496
# 4 -7.0463 -4.9107 -5.8018 35.4886 5.9379 -7.0623
# 5 -14.8091 3.2754 -10.9316 5.9379 32.0095 4.7982
# 6 2.2978 -22.0549 -11.1496 -7.0623 4.7982 48.5745
#
#
#
# Elastic Compliance Matrix: (Units=1/GPa)
#
#
# Indices 1 2 3 4 5 6 
#
# 1 0.012852 -0.005497 -0.001956 -0.000478 0.006570 -0.004271
# 2 -0.005497 0.012072 -0.001685 0.002520 -0.005764 0.006290
# 3 -0.001956 -0.001685 0.013242 0.001462 0.003179 0.002266
# 4 -0.000478 0.002520 0.001462 0.031135 -0.006759 0.006697
# 5 0.006570 -0.005764 0.003179 -0.006759 0.038253 -0.006960
# 6 -0.004271 0.006290 0.002266 0.006697 -0.006960 0.025826
#
#
# Mechanical properties :
#
#
# Convention : Reuss Voigt Hill
#
# Bulk Modulus (GPa) = 50.27171 57.51857 53.89514
# Shear Modulus (GPa) = 31.58875 37.92546 34.75711
#
# Velocity S-wave (km/s) = 3.83815 4.20553 4.02603
# Velocity P-wave (km/s) = 6.56400 7.09970 6.83710
#
# Compressibility (1/GPa) = 0.01989191
#
# Stress axis : x y z
#
# Youngs Moduli (GPa) = 77.80776 82.83543 75.51903
#
# Poissons Ratio (x) = 0.45534 0.14768
# Poissons Ratio (y) = 0.42771 0.12722
# Poissons Ratio (z) = 0.15215 0.13954
#
# Static dielectric constant tensor:
#      x y z
#    x 4.482330 0.181420 -0.358260 
#    y 0.181420 4.021790 0.150680 
#    z -0.358260 0.150680 3.711170 
# 
# 
# High freq. dielectric constant tensor:
#      x y z
#    x 1.854190 0.012610 -0.018630 
#    y 0.012610 1.852820 0.012690 
#    z -0.018630 0.012690 1.819030 
# 
# From -- ./inp_files/455610.got.cif
#   From: 2010.06.25/outbox.cif.g09.slc.cpg/sg2_228_cif.got.tgz:455610.got - 2010.06.27 13:26:56.
