data_PCOD8011160
_publ_section_title
;
Structure prediction by ZEFSAII (Michael W. Deem and Ramdas Pophale) SiO2 
 PCOD8011160
Probable space group: P -1
;
_chemical_formula_sum "Si O2"
_cell_formula_units_Z 16
_cell_length_a 10.786375
_cell_length_b 13.022848
_cell_length_c 9.462182
_cell_angle_alpha 105.722433
_cell_angle_beta 82.256710
_cell_angle_gamma 147.471720
_cell_volume 676.588127
_symmetry_space_group_name_H-M "P -1"
_symmetry_group_IT_number 2
_symmetry_cell_setting 'triclinic'
loop_
_space_group_symop_operation_xyz
x,y,z
-x,-y,-z
loop_
_atom_site_type_symbol
_atom_site_label
_atom_site_fract_x
_atom_site_fract_y
_atom_site_fract_z
Si Si1 0.402446 0.467162 0.822139
Si Si2 0.107099 0.575962 0.163062
Si Si3 0.534561 0.353347 0.870221
Si Si4 0.855235 0.666533 0.459234
Si Si5 0.208776 0.618367 0.610613
Si Si6 0.708764 0.060109 0.700357
Si Si7 0.029383 0.919676 0.787882
Si Si8 0.077138 0.924324 0.094679
O O1 0.585389 0.501526 0.832548
O O2 0.344721 0.432550 0.652495
O O3 0.172634 0.274022 0.873176
O O4 0.489780 0.639370 0.952565
O O5 0.259322 0.580392 0.170682
O O6 0.873877 0.408863 0.231110
O O7 0.268137 0.796332 0.236462
O O8 0.000000 0.500000 0.000000
O O9 0.288885 0.130421 0.767129
O O10 0.880590 0.750590 0.630154
O O11 0.753929 0.479871 0.447813
O O12 0.105423 0.846296 0.408757
O O13 0.444309 0.847852 0.610922
O O14 0.000000 0.500000 0.500000
O O15 0.738933 0.018335 0.828880
O O16 0.067785 0.883478 0.915961
O O17 0.869580 0.910125 0.836860
#
# Coordination Sequence:
#
# PCOD8011160 Si02
#       8
#     2   2   2   2   2   2   2   2
#     4   9  20  42  66  95 133 169 212 278 333 400
#     4  11  25  44  68  99 129 176 233 270 322 405
#     4  10  21  38  68  95 126 174 218 267 338 388
#     4  10  23  44  69  97 133 172 224 272 338 402
#     4  11  27  44  64  95 139 177 222 279 330 388
#     4  10  24  44  68  92 137 180 217 278 336 386
#     4  10  22  38  68  98 129 168 218 277 332 399
#     4   9  20  41  65  97 132 164 217 275 337 391
#
# _framework density 23.648064999999999
#
# number of rings (size 3 to 8) (size 9 to 14) (size 15 to 20)
#    0.000    2.000    0.000    2.250    7.000    8.000 
#    0.000    0.625    0.000    0.000    0.000    0.000 
#    0.000    0.000    0.000    0.000    0.000    0.000 
#
# Total GULP energy -198343.716749 kJ/mol
# GULP energy per Si atom -12396.482297 kJ/mol
# Density = 2.359424 g / cm^3
# Si number density = 23.648065 Si / 1000 Ang^3
#
#
#
# Elastic Constant Matrix: (Units=GPa)
#
#
# Indices 1 2 3 4 5 6 
#
# 1 137.5831 16.8385 36.8384 14.4171 -0.5900 -5.3182
# 2 16.8385 72.4686 16.6413 17.5911 -8.2340 3.8936
# 3 36.8384 16.6413 149.8447 13.1339 -1.4275 -6.9539
# 4 14.4171 17.5911 13.1339 27.0875 -3.0495 10.2470
# 5 -0.5900 -8.2340 -1.4275 -3.0495 36.1270 2.4652
# 6 -5.3182 3.8936 -6.9539 10.2470 2.4652 25.0682
#
#
#
# Elastic Compliance Matrix: (Units=1/GPa)
#
#
# Indices 1 2 3 4 5 6 
#
# 1 0.008359 -0.000753 -0.001407 -0.004677 -0.000723 0.003483
# 2 -0.000753 0.016907 -0.000724 -0.010251 0.002884 0.000920
# 3 -0.001407 -0.000724 0.007598 -0.003857 -0.000455 0.003543
# 4 -0.004677 -0.010251 -0.003857 0.057614 0.003964 -0.024410
# 5 -0.000723 0.002884 -0.000455 0.003964 0.028997 -0.005199
# 6 0.003483 0.000920 0.003543 -0.024410 -0.005199 0.051959
#
#
# Mechanical properties :
#
#
# Convention : Reuss Voigt Hill
#
# Bulk Modulus (GPa) = 36.90551 55.61475 46.26013
# Shear Modulus (GPa) = 26.84800 36.96177 31.90489
#
# Velocity S-wave (km/s) = 3.37310 3.95776 3.67707
# Velocity P-wave (km/s) = 5.55071 6.66737 6.13451
#
# Compressibility (1/GPa) = 0.02709622
#
# Stress axis : x y z
#
# Youngs Moduli (GPa) = 119.63533 59.14721 131.61537
#
# Poissons Ratio (x) = 0.04455 0.18514
# Poissons Ratio (y) = 0.09012 0.09526
# Poissons Ratio (z) = 0.16828 0.04281
#
# Static dielectric constant tensor:
#      x y z
#    x 4.422860 0.301620 -0.405470 
#    y 0.301620 5.198460 -1.442300 
#    z -0.405470 -1.442300 6.359240 
# 
# 
# High freq. dielectric constant tensor:
#      x y z
#    x 1.933240 -0.001140 0.010900 
#    y -0.001140 1.942040 0.006180 
#    z 0.010900 0.006180 1.937620 
# 
# From -- ./inp_files/273730.got.cif
#   From: 2010.06.25/outbox.cif.g09.slc.cpg/sg2_137_cif.got.tgz:273730.got - 2010.06.27 13:26:56.
