data_PCOD8011779
_publ_section_title
;
Structure prediction by ZEFSAII (Michael W. Deem and Ramdas Pophale) SiO2 
 PCOD8011779
Probable space group: P -1
;
_chemical_formula_sum "Si O2"
_cell_formula_units_Z 16
_cell_length_a 17.268277
_cell_length_b 11.106605
_cell_length_c 7.922579
_cell_angle_alpha 56.356027
_cell_angle_beta 101.812561
_cell_angle_gamma 58.504587
_cell_volume 774.351539
_symmetry_space_group_name_H-M "P -1"
_symmetry_group_IT_number 2
_symmetry_cell_setting 'triclinic'
loop_
_space_group_symop_operation_xyz
x,y,z
-x,-y,-z
loop_
_atom_site_type_symbol
_atom_site_label
_atom_site_fract_x
_atom_site_fract_y
_atom_site_fract_z
Si Si1 0.044942 0.339058 0.399826
Si Si2 0.677971 0.383424 0.144517
Si Si3 0.517078 0.424381 0.821388
Si Si4 0.440613 0.808267 0.301839
Si Si5 0.609568 0.758345 0.634752
Si Si6 0.152776 0.472063 0.266332
Si Si7 0.952581 0.928513 0.629512
Si Si8 0.181090 0.305123 0.752445
O O1 0.080095 0.425348 0.227153
O O2 0.072404 0.154818 0.458544
O O3 0.127490 0.236054 0.689934
O O4 0.899029 0.543152 0.234980
O O5 0.563791 0.539445 0.102185
O O6 0.813370 0.157658 0.467298
O O7 0.646479 0.309937 0.040994
O O8 0.679929 0.544764 0.953584
O O9 0.432203 0.672452 0.509978
O O10 0.548766 0.249937 0.843443
O O11 0.554805 0.746303 0.461654
O O12 0.317801 0.080460 0.063259
O O13 0.717458 0.708805 0.643581
O O14 0.500000 0.000000 0.500000
O O15 0.181392 0.434716 0.510754
O O16 0.054656 0.739455 0.964586
O O17 0.000000 0.000000 0.500000
#
# Coordination Sequence:
#
# PCOD8011779 Si02
#       8
#     2   2   2   2   2   2   2   2
#     4   9  22  41  64  89 124 158 215 254 300 381
#     4  10  22  40  63  93 127 162 213 255 316 367
#     4   9  21  40  63  91 122 164 210 257 317 368
#     4  10  21  39  64  89 124 164 206 262 311 376
#     4  11  25  41  60  93 130 163 210 264 308 377
#     4  10  23  43  60  93 122 167 209 251 315 366
#     4  12  23  40  65  90 129 163 202 260 312 370
#     4   9  21  40  65  90 119 161 217 250 311 365
#
# _framework density 20.662451999999998
#
# number of rings (size 3 to 8) (size 9 to 14) (size 15 to 20)
#    0.750    1.250    1.250    1.125    5.250    2.500 
#    2.250    0.625    0.000    0.000    0.000    0.000 
#    0.000    0.000    0.000    0.000    0.000    0.000 
#
# Total GULP energy -198294.743531 kJ/mol
# GULP energy per Si atom -12393.421471 kJ/mol
# Density = 2.061542 g / cm^3
# Si number density = 20.662452 Si / 1000 Ang^3
#
#
#
# Elastic Constant Matrix: (Units=GPa)
#
#
# Indices 1 2 3 4 5 6 
#
# 1 114.1688 38.4479 38.0828 -11.0233 -13.9106 -25.3369
# 2 38.4479 67.9325 12.8851 -8.7586 -1.0822 -12.1884
# 3 38.0828 12.8851 106.5905 -18.9570 11.4002 -16.5547
# 4 -11.0233 -8.7586 -18.9570 24.4876 -4.5585 3.9522
# 5 -13.9106 -1.0822 11.4002 -4.5585 25.7510 -5.3531
# 6 -25.3369 -12.1884 -16.5547 3.9522 -5.3531 31.7116
#
#
#
# Elastic Compliance Matrix: (Units=1/GPa)
#
#
# Indices 1 2 3 4 5 6 
#
# 1 0.016469 -0.006062 -0.004500 0.002550 0.013247 0.010398
# 2 -0.006062 0.018836 0.001172 0.004229 -0.001801 0.002177
# 3 -0.004500 0.001172 0.013059 0.007007 -0.006571 0.001690
# 4 0.002550 0.004229 0.007007 0.049986 0.007802 0.002408
# 5 0.013247 -0.001801 -0.006571 0.007802 0.053212 0.014471
# 6 0.010398 0.002177 0.001690 0.002408 0.014471 0.043703
#
#
# Mechanical properties :
#
#
# Convention : Reuss Voigt Hill
#
# Bulk Modulus (GPa) = 33.80174 51.94705 42.87439
# Shear Modulus (GPa) = 22.33056 29.67511 26.00284
#
# Velocity S-wave (km/s) = 3.29101 3.79382 3.55132
# Velocity P-wave (km/s) = 5.55298 6.66229 6.13277
#
# Compressibility (1/GPa) = 0.02958428
#
# Stress axis : x y z
#
# Youngs Moduli (GPa) = 60.71937 53.08852 76.57396
#
# Poissons Ratio (x) = 0.32184 0.34456
# Poissons Ratio (y) = 0.36810 -0.08972
# Poissons Ratio (z) = 0.27322 -0.06221
#
# Static dielectric constant tensor:
#      x y z
#    x 3.721200 -0.068360 0.050080 
#    y -0.068360 3.560860 0.061520 
#    z 0.050080 0.061520 3.775310 
# 
# 
# High freq. dielectric constant tensor:
#      x y z
#    x 1.808900 -0.008020 0.006010 
#    y -0.008020 1.791950 -0.000230 
#    z 0.006010 -0.000230 1.810130 
# 
# From -- ./inp_files/332901.got.cif
#   From: 2010.06.25/outbox.cif.g09.slc.cpg/sg2_167_cif.got.tgz:332901.got - 2010.06.27 13:26:56.
