data_PCOD8011539
_publ_section_title
;
Structure prediction by ZEFSAII (Michael W. Deem and Ramdas Pophale) SiO2 
 PCOD8011539
Probable space group: P -1
;
_chemical_formula_sum "Si O2"
_cell_formula_units_Z 16
_cell_length_a 12.302578
_cell_length_b 8.981374
_cell_length_c 12.128085
_cell_angle_alpha 131.140043
_cell_angle_beta 71.591499
_cell_angle_gamma 131.281517
_cell_volume 741.661087
_symmetry_space_group_name_H-M "P -1"
_symmetry_group_IT_number 2
_symmetry_cell_setting 'triclinic'
loop_
_space_group_symop_operation_xyz
x,y,z
-x,-y,-z
loop_
_atom_site_type_symbol
_atom_site_label
_atom_site_fract_x
_atom_site_fract_y
_atom_site_fract_z
Si Si1 0.131753 0.506068 0.997601
Si Si2 0.178562 0.546200 0.396889
Si Si3 0.223914 0.580258 0.775658
Si Si4 0.709181 0.062466 0.254275
Si Si5 0.628466 0.665669 0.450439
Si Si6 0.124713 0.758586 0.318659
Si Si7 0.518253 0.243346 0.649114
Si Si8 0.942151 0.992349 0.135761
O O1 0.252636 0.644918 0.928665
O O2 0.076858 0.222755 0.890763
O O3 0.188313 0.655729 0.167719
O O4 0.000000 0.500000 0.000000
O O5 0.211814 0.683931 0.570853
O O6 0.142305 0.692744 0.402899
O O7 0.305789 0.536710 0.303971
O O8 0.042593 0.248726 0.301259
O O9 0.301538 0.846623 0.817153
O O10 0.308289 0.477753 0.664886
O O11 0.046592 0.371437 0.709411
O O12 0.790341 0.944725 0.150462
O O13 0.550946 0.822235 0.237838
O O14 0.500000 0.500000 0.500000
O O15 0.565111 0.697325 0.376038
O O16 0.767356 0.938718 0.586978
O O17 0.500000 0.000000 0.500000
O O18 0.000000 0.000000 0.000000
#
# Coordination Sequence:
#
# PCOD8011539 Si02
#       8
#     2   2   2   2   2   2   2   2
#     4  10  23  41  61  93 134 166 202 264 321 376
#     4  11  22  40  69  98 123 164 220 265 312 370
#     4  11  24  40  64  99 129 167 209 265 323 371
#     4  11  22  40  66  97 124 167 217 261 313 373
#     4  12  24  41  66  97 131 165 211 264 326 375
#     4  11  22  43  66  95 127 167 213 266 317 372
#     4  10  21  39  62  90 129 167 204 262 310 376
#     4  12  22  40  67  95 126 167 216 261 313 375
#
# _framework density 21.573197
#
# number of rings (size 3 to 8) (size 9 to 14) (size 15 to 20)
#    0.000    1.000    5.000    3.750    0.000    4.000 
#    0.000    1.250    0.000    0.000    0.000    0.000 
#    0.000    0.000    0.000    0.000    0.000    0.000 
#
# Total GULP energy -198303.364384 kJ/mol
# GULP energy per Si atom -12393.960274 kJ/mol
# Density = 2.152410 g / cm^3
# Si number density = 21.573197 Si / 1000 Ang^3
#
#
#
# Elastic Constant Matrix: (Units=GPa)
#
#
# Indices 1 2 3 4 5 6 
#
# 1 115.5521 46.1488 11.9560 -4.8689 -34.0434 -6.7523
# 2 46.1488 127.3280 19.8768 -27.9144 -21.2081 -19.3675
# 3 11.9560 19.8768 50.7352 -19.5746 -27.3499 -3.6042
# 4 -4.8689 -27.9144 -19.5746 35.6707 -0.2572 -7.9863
# 5 -34.0434 -21.2081 -27.3499 -0.2572 37.1386 -3.9668
# 6 -6.7523 -19.3675 -3.6042 -7.9863 -3.9668 42.6105
#
#
#
# Elastic Compliance Matrix: (Units=1/GPa)
#
#
# Indices 1 2 3 4 5 6 
#
# 1 0.017367 0.002283 0.022464 0.019568 0.035252 0.012639
# 2 0.002283 0.019371 0.024554 0.033827 0.033684 0.020719
# 3 0.022464 0.024554 0.113529 0.097621 0.124687 0.054227
# 4 0.019568 0.033827 0.097621 0.125258 0.116535 0.061059
# 5 0.035252 0.033684 0.124687 0.116535 0.178573 0.069909
# 6 0.012639 0.020719 0.054227 0.061059 0.069909 0.057427
#
#
# Mechanical properties :
#
#
# Convention : Reuss Voigt Hill
#
# Bulk Modulus (GPa) = 4.01819 49.95317 26.98568
# Shear Modulus (GPa) = 10.08308 37.45953 23.77131
#
# Velocity S-wave (km/s) = 2.16426 4.17152 3.32308
# Velocity P-wave (km/s) = 2.84816 6.81231 5.22109
#
# Compressibility (1/GPa) = 0.24886856
#
# Stress axis : x y z
#
# Youngs Moduli (GPa) = 57.58101 51.62285 8.80834
#
# Poissons Ratio (x) = -0.11785 -0.19787
# Poissons Ratio (y) = -0.13145 -0.21628
# Poissons Ratio (z) = -1.29350 -1.26755
#
# Static dielectric constant tensor:
#      x y z
#    x 1.858980 -1.842900 3.105570 
#    y -1.842900 2.447100 2.403290 
#    z 3.105570 2.403290 0.838570 
# 
# 
# High freq. dielectric constant tensor:
#      x y z
#    x 1.852880 -0.007660 -0.021800 
#    y -0.007660 1.857170 -0.020820 
#    z -0.021800 -0.020820 1.833760 
# 
# From -- ./inp_files/222229.got.cif
#   From: 2010.06.25/outbox.cif.g09.slc.cpg/sg2_112_cif.got.tgz:222229.got - 2010.06.27 13:26:56.
