data_PCOD8011942
_publ_section_title
;
Structure prediction by ZEFSAII (Michael W. Deem and Ramdas Pophale) SiO2 
 PCOD8011942
Probable space group: P -1
;
_chemical_formula_sum "Si O2"
_cell_formula_units_Z 16
_cell_length_a 14.855888
_cell_length_b 10.202704
_cell_length_c 7.953408
_cell_angle_alpha 47.447280
_cell_angle_beta 56.025878
_cell_angle_gamma 55.557228
_cell_volume 700.829325
_symmetry_space_group_name_H-M "P -1"
_symmetry_group_IT_number 2
_symmetry_cell_setting 'triclinic'
loop_
_space_group_symop_operation_xyz
x,y,z
-x,-y,-z
loop_
_atom_site_type_symbol
_atom_site_label
_atom_site_fract_x
_atom_site_fract_y
_atom_site_fract_z
Si Si1 0.736941 0.526339 0.604912
Si Si2 0.924522 0.590295 0.157714
Si Si3 0.417608 0.134033 0.098898
Si Si4 0.326071 0.058761 0.594082
Si Si5 0.894912 0.960255 0.329519
Si Si6 0.615427 0.231964 0.919930
Si Si7 0.216984 0.088865 0.176871
Si Si8 0.920998 0.308326 0.838080
O O1 0.831579 0.486817 0.391794
O O2 0.670969 0.746096 0.496923
O O3 0.643169 0.423523 0.754597
O O4 0.801513 0.452047 0.777671
O O5 0.002877 0.577959 0.251240
O O6 0.854958 0.804851 0.998413
O O7 0.000000 0.500000 0.000000
O O8 0.402821 0.018670 0.380423
O O9 0.293774 0.212547 0.069898
O O10 0.482632 0.285397 0.949872
O O11 0.500000 0.000000 0.000000
O O12 0.196203 0.077954 0.669589
O O13 0.376322 0.888071 0.815355
O O14 0.870618 0.936379 0.570239
O O15 0.016118 0.811997 0.283696
O O16 0.896674 0.171500 0.122318
O O17 0.702408 0.111731 0.793922
#
# Coordination Sequence:
#
# PCOD8011942 Si02
#       8
#     2   2   2   2   2   2   2   2
#     4  12  25  40  66  97 132 170 218 266 316 383
#     4  12  26  40  62  96 136 174 213 268 318 378
#     4   9  22  42  73  92 125 172 210 270 332 378
#     4  11  21  43  68  93 131 165 214 270 319 387
#     4  10  21  39  65  91 124 180 210 268 315 384
#     4  11  22  44  66  98 126 168 221 263 327 384
#     4  10  22  42  65  92 132 168 217 264 328 378
#     4  11  23  40  61  92 132 171 223 254 324 379
#
# _framework density 22.830095
#
# number of rings (size 3 to 8) (size 9 to 14) (size 15 to 20)
#    0.000    1.250    3.750    1.500    7.000    1.000 
#    0.000    0.625    0.000    0.000    0.000    0.000 
#    0.000    0.000    0.000    0.000    0.000    0.000 
#
# Total GULP energy -198383.158792 kJ/mol
# GULP energy per Si atom -12398.947424 kJ/mol
# Density = 2.277813 g / cm^3
# Si number density = 22.830095 Si / 1000 Ang^3
#
#
#
# Elastic Constant Matrix: (Units=GPa)
#
#
# Indices 1 2 3 4 5 6 
#
# 1 73.1877 -2.6974 31.2665 6.5092 -13.0676 9.9010
# 2 -2.6974 44.2103 27.8473 8.6294 -2.9378 10.5454
# 3 31.2665 27.8473 112.1648 15.0378 -10.4632 10.0321
# 4 6.5092 8.6294 15.0378 35.8498 7.5045 -0.7284
# 5 -13.0676 -2.9378 -10.4632 7.5045 38.0412 -0.1368
# 6 9.9010 10.5454 10.0321 -0.7284 -0.1368 25.5682
#
#
#
# Elastic Compliance Matrix: (Units=1/GPa)
#
#
# Indices 1 2 3 4 5 6 
#
# 1 0.018938 0.007849 -0.005214 -0.004691 0.006572 -0.008623
# 2 0.007849 0.032999 -0.007740 -0.007347 0.004515 -0.013798
# 3 -0.005214 -0.007740 0.012835 -0.002932 0.001720 0.000101
# 4 -0.004691 -0.007347 -0.002932 0.033905 -0.009649 0.006912
# 5 0.006572 0.004515 0.001720 -0.009649 0.031251 -0.005190
# 6 -0.008623 -0.013798 0.000101 0.006912 -0.005190 0.048271
#
#
# Mechanical properties :
#
#
# Convention : Reuss Voigt Hill
#
# Bulk Modulus (GPa) = 18.32825 38.04395 28.18610
# Shear Modulus (GPa) = 24.20180 31.43495 27.81837
#
# Velocity S-wave (km/s) = 3.25942 3.71470 3.49448
# Velocity P-wave (km/s) = 4.71282 5.92442 5.35301
#
# Compressibility (1/GPa) = 0.05456059
#
# Stress axis : x y z
#
# Youngs Moduli (GPa) = 52.80489 30.30406 77.91070
#
# Poissons Ratio (x) = -0.23786 0.40626
# Poissons Ratio (y) = -0.41448 0.60306
# Poissons Ratio (z) = 0.27535 0.23457
#
# Static dielectric constant tensor:
#      x y z
#    x 4.512600 -0.079220 -0.175650 
#    y -0.079220 3.773470 0.211630 
#    z -0.175650 0.211630 4.284070 
# 
# 
# High freq. dielectric constant tensor:
#      x y z
#    x 1.905560 -0.001860 -0.005050 
#    y -0.001860 1.875850 0.023520 
#    z -0.005050 0.023520 1.910220 
# 
# From -- ./inp_files/270577.got.cif
#   From: 2010.06.25/outbox.cif.g09.slc.cpg/sg2_136_cif.got.tgz:270577.got - 2010.06.27 13:26:56.
