data_PCOD8011815
_publ_section_title
;
Structure prediction by ZEFSAII (Michael W. Deem and Ramdas Pophale) SiO2 
 PCOD8011815
Probable space group: P -1
;
_chemical_formula_sum "Si O2"
_cell_formula_units_Z 16
_cell_length_a 13.271037
_cell_length_b 14.078941
_cell_length_c 8.628571
_cell_angle_alpha 128.713884
_cell_angle_beta 123.321555
_cell_angle_gamma 34.264676
_cell_volume 706.312068
_symmetry_space_group_name_H-M "P -1"
_symmetry_group_IT_number 2
_symmetry_cell_setting 'triclinic'
loop_
_space_group_symop_operation_xyz
x,y,z
-x,-y,-z
loop_
_atom_site_type_symbol
_atom_site_label
_atom_site_fract_x
_atom_site_fract_y
_atom_site_fract_z
Si Si1 0.918189 0.296131 0.852668
Si Si2 0.105184 0.416966 0.840636
Si Si3 0.340020 0.697628 0.230210
Si Si4 0.508652 0.211410 0.365001
Si Si5 0.495877 0.028044 0.705940
Si Si6 0.869608 0.387438 0.557580
Si Si7 0.719951 0.299913 0.150205
Si Si8 0.287079 0.939683 0.925168
O O1 0.744397 0.342052 0.772389
O O2 0.953810 0.281930 0.684949
O O3 0.886719 0.448816 0.070257
O O4 0.079861 0.107997 0.881752
O O5 0.307025 0.215276 0.808504
O O6 0.989096 0.413734 0.627514
O O7 0.000000 0.500000 0.000000
O O8 0.341089 0.827433 0.448721
O O9 0.546851 0.511261 0.187893
O O10 0.228489 0.791149 0.069229
O O11 0.335593 0.421634 0.394824
O O12 0.593821 0.112757 0.173972
O O13 0.447894 0.136453 0.326526
O O14 0.500000 0.000000 0.500000
O O15 0.650329 0.013319 0.842508
O O16 0.876387 0.271528 0.321164
O O17 0.680091 0.222616 0.158520
#
# Coordination Sequence:
#
# PCOD8011815 Si02
#       8
#     2   2   2   2   2   2   2   2
#     4  11  23  39  62  91 123 163 212 262 310 373
#     4  10  21  41  66  90 125 166 210 257 310 376
#     4  10  22  40  61  89 125 164 205 259 325 380
#     4  11  22  40  66  92 124 166 215 261 313 381
#     4  12  26  43  66  97 132 165 209 267 324 377
#     4  10  21  39  64  92 122 164 213 260 312 374
#     4  10  22  40  62  89 125 164 206 261 323 381
#     4  12  24  40  64  92 125 166 215 262 313 378
#
# _framework density 22.652877
#
# number of rings (size 3 to 8) (size 9 to 14) (size 15 to 20)
#    0.000    1.250    0.000    7.125    0.000    8.500 
#    0.000    1.875    0.000    0.000    0.000    0.000 
#    0.000    0.000    0.000    0.000    0.000    0.000 
#
# Total GULP energy -198391.260494 kJ/mol
# GULP energy per Si atom -12399.453781 kJ/mol
# Density = 2.260132 g / cm^3
# Si number density = 22.652877 Si / 1000 Ang^3
#
#
#
# Elastic Constant Matrix: (Units=GPa)
#
#
# Indices 1 2 3 4 5 6 
#
# 1 61.7544 12.0649 23.6771 0.0504 21.2886 11.1525
# 2 12.0649 63.4356 30.0941 -6.7848 -3.3968 4.8883
# 3 23.6771 30.0941 141.6397 -18.4128 28.4117 8.9805
# 4 0.0504 -6.7848 -18.4128 27.6767 -1.6870 3.8934
# 5 21.2886 -3.3968 28.4117 -1.6870 51.6619 -0.7183
# 6 11.1525 4.8883 8.9805 3.8934 -0.7183 33.7765
#
#
#
# Elastic Compliance Matrix: (Units=1/GPa)
#
#
# Indices 1 2 3 4 5 6 
#
# 1 0.021406 -0.003816 -0.000745 -0.001108 -0.008787 -0.006377
# 2 -0.003816 0.018999 -0.004091 0.002335 0.005140 -0.000562
# 3 -0.000745 -0.004091 0.010030 0.005712 -0.005328 -0.002601
# 4 -0.001108 0.002335 0.005712 0.041312 -0.001270 -0.006280
# 5 -0.008787 0.005140 -0.005328 -0.001270 0.026264 0.004279
# 6 -0.006377 -0.000562 -0.002601 -0.006280 0.004279 0.033299
#
#
# Mechanical properties :
#
#
# Convention : Reuss Voigt Hill
#
# Bulk Modulus (GPa) = 30.18173 44.27799 37.22986
# Shear Modulus (GPa) = 27.83102 36.02259 31.92681
#
# Velocity S-wave (km/s) = 3.50892 3.99206 3.75826
# Velocity P-wave (km/s) = 5.45612 6.39042 5.94166
#
# Compressibility (1/GPa) = 0.03313262
#
# Stress axis : x y z
#
# Youngs Moduli (GPa) = 46.71622 52.63554 99.70141
#
# Poissons Ratio (x) = 0.20083 0.07426
# Poissons Ratio (y) = 0.17825 0.40783
# Poissons Ratio (z) = 0.03479 0.21531
#
# Static dielectric constant tensor:
#      x y z
#    x 3.916550 0.038980 0.349680 
#    y 0.038980 3.904510 -0.062560 
#    z 0.349680 -0.062560 4.646860 
# 
# 
# High freq. dielectric constant tensor:
#      x y z
#    x 1.886370 0.003480 0.023170 
#    y 0.003480 1.884150 -0.004750 
#    z 0.023170 -0.004750 1.908810 
# 
# From -- ./inp_files/315985.got.cif
#   From: 2010.06.25/outbox.cif.g09.slc.cpg/sg2_158_cif.got.tgz:315985.got - 2010.06.27 13:26:56.
