data_PCOD8011837
_publ_section_title
;
Structure prediction by ZEFSAII (Michael W. Deem and Ramdas Pophale) SiO2 
 PCOD8011837
Probable space group: P -1
;
_chemical_formula_sum "Si O2"
_cell_formula_units_Z 16
_cell_length_a 6.761134
_cell_length_b 8.661718
_cell_length_c 14.286715
_cell_angle_alpha 104.145135
_cell_angle_beta 104.476339
_cell_angle_gamma 102.454905
_cell_volume 750.643003
_symmetry_space_group_name_H-M "P -1"
_symmetry_group_IT_number 2
_symmetry_cell_setting 'triclinic'
loop_
_space_group_symop_operation_xyz
x,y,z
-x,-y,-z
loop_
_atom_site_type_symbol
_atom_site_label
_atom_site_fract_x
_atom_site_fract_y
_atom_site_fract_z
Si Si1 0.052888 0.655268 0.778482
Si Si2 0.402400 0.583226 0.284959
Si Si3 0.267242 0.543078 0.609590
Si Si4 0.977217 0.028959 0.288012
Si Si5 0.207077 0.574627 0.971466
Si Si6 0.090590 0.769315 0.522787
Si Si7 0.684244 0.099758 0.606054
Si Si8 0.621554 0.692274 0.142469
O O1 0.164176 0.574015 0.700521
O O2 0.184872 0.686052 0.895403
O O3 0.840461 0.519961 0.769075
O O4 0.005990 0.822417 0.761552
O O5 0.504133 0.489513 0.360690
O O6 0.417198 0.773520 0.335802
O O7 0.548397 0.587251 0.212605
O O8 0.290921 0.705576 0.571684
O O9 0.123001 0.382621 0.512653
O O10 0.788075 0.872320 0.206878
O O11 0.211336 0.996720 0.319212
O O12 0.917859 0.075660 0.391974
O O13 0.263119 0.408494 0.923823
O O14 0.401773 0.702765 0.069896
O O15 0.000000 0.500000 0.000000
O O16 0.113851 0.812539 0.422812
O O17 0.500000 0.000000 0.500000
#
# Coordination Sequence:
#
# PCOD8011837 Si02
#       8
#     2   2   2   2   2   2   2   2
#     4  11  23  43  66  98 132 169 216 273 321 388
#     4  12  22  39  70  92 129 176 216 265 323 389
#     4  10  21  39  64  93 128 171 222 267 311 372
#     4  11  25  43  63  95 142 171 215 272 327 375
#     4  11  23  45  74  98 121 166 222 265 330 401
#     4  10  21  40  60  90 134 174 217 267 308 376
#     4  12  24  37  61  97 132 179 223 263 315 384
#     4  11  24  43  71  98 127 167 214 271 329 399
#
# _framework density 21.315059999999999
#
# number of rings (size 3 to 8) (size 9 to 14) (size 15 to 20)
#    0.000    1.000    3.750    3.375    1.750    1.000 
#    0.000    0.625    0.000    0.000    0.000    0.000 
#    0.000    0.000    0.000    0.000    0.000    0.000 
#
# Total GULP energy -198322.608848 kJ/mol
# GULP energy per Si atom -12395.163053 kJ/mol
# Density = 2.126655 g / cm^3
# Si number density = 21.315060 Si / 1000 Ang^3
#
#
#
# Elastic Constant Matrix: (Units=GPa)
#
#
# Indices 1 2 3 4 5 6 
#
# 1 92.2071 36.5284 35.9603 5.4559 13.4531 -18.8699
# 2 36.5284 83.1695 35.3590 -4.8849 9.5774 -17.2457
# 3 35.9603 35.3590 99.5002 2.0674 17.0770 -6.9582
# 4 5.4559 -4.8849 2.0674 39.8681 -1.9480 6.5781
# 5 13.4531 9.5774 17.0770 -1.9480 42.4501 -6.4871
# 6 -18.8699 -17.2457 -6.9582 6.5781 -6.4871 39.6957
#
#
#
# Elastic Compliance Matrix: (Units=1/GPa)
#
#
# Indices 1 2 3 4 5 6 
#
# 1 0.015340 -0.004263 -0.003265 -0.003391 -0.001961 0.005109
# 2 -0.004263 0.016631 -0.004124 0.002155 -0.000014 0.004116
# 3 -0.003265 -0.004124 0.013225 -0.000673 -0.003616 -0.001505
# 4 -0.003391 0.002155 -0.000673 0.026737 0.001321 -0.005008
# 5 -0.001961 -0.000014 -0.003616 0.001321 0.026075 0.002470
# 6 0.005109 0.004116 -0.001505 -0.005008 0.002470 0.030378
#
#
# Mechanical properties :
#
#
# Convention : Reuss Voigt Hill
#
# Bulk Modulus (GPa) = 45.67816 54.50804 50.09310
# Shear Modulus (GPa) = 31.44938 35.53805 33.49371
#
# Velocity S-wave (km/s) = 3.84533 4.08766 3.96834
# Velocity P-wave (km/s) = 6.41809 6.92146 6.67453
#
# Compressibility (1/GPa) = 0.02189230
#
# Stress axis : x y z
#
# Youngs Moduli (GPa) = 65.19111 60.12837 75.61512
#
# Poissons Ratio (x) = 0.25634 0.24685
# Poissons Ratio (y) = 0.27793 0.31182
# Poissons Ratio (z) = 0.21282 0.24796
#
# Static dielectric constant tensor:
#      x y z
#    x 3.864060 -0.173060 0.132240 
#    y -0.173060 3.900890 -0.208980 
#    z 0.132240 -0.208980 4.051160 
# 
# 
# High freq. dielectric constant tensor:
#      x y z
#    x 1.841030 -0.013600 0.009560 
#    y -0.013600 1.829650 -0.006890 
#    z 0.009560 -0.006890 1.840350 
# 
# From -- ./inp_files/37977.got.cif
#   From: 2010.06.25/outbox.cif.g09.slc.cpg/sg2_19_cif.got.tgz:37977.got - 2010.06.27 13:26:56.
