data_PCOD8011983
_publ_section_title
;
Structure prediction by ZEFSAII (Michael W. Deem and Ramdas Pophale) SiO2 
 PCOD8011983
Probable space group: P -1
;
_chemical_formula_sum "Si O2"
_cell_formula_units_Z 16
_cell_length_a 8.565105
_cell_length_b 12.906502
_cell_length_c 12.071747
_cell_angle_alpha 113.756982
_cell_angle_beta 92.236243
_cell_angle_gamma 43.055017
_cell_volume 761.044214
_symmetry_space_group_name_H-M "P -1"
_symmetry_group_IT_number 2
_symmetry_cell_setting 'triclinic'
loop_
_space_group_symop_operation_xyz
x,y,z
-x,-y,-z
loop_
_atom_site_type_symbol
_atom_site_label
_atom_site_fract_x
_atom_site_fract_y
_atom_site_fract_z
Si Si1 0.414586 0.545689 0.697580
Si Si2 0.755721 0.096275 0.768841
Si Si3 0.387267 0.051622 0.198788
Si Si4 0.834632 0.189520 0.018436
Si Si5 0.719624 0.686382 0.534185
Si Si6 0.140370 0.243739 0.046343
Si Si7 0.281150 0.753568 0.573078
Si Si8 0.280889 0.391898 0.729951
O O1 0.269461 0.680945 0.648563
O O2 0.687432 0.345901 0.577892
O O3 0.259555 0.524575 0.723494
O O4 0.407421 0.641339 0.838403
O O5 0.723560 0.212339 0.908654
O O6 0.533918 0.230156 0.733454
O O7 0.767126 0.970098 0.776891
O O8 0.015279 0.968083 0.652795
O O9 0.382437 0.142032 0.339087
O O10 0.278452 0.170350 0.136988
O O11 0.669503 0.851096 0.092091
O O12 0.005049 0.201045 0.005673
O O13 0.000000 0.000000 0.000000
O O14 0.519065 0.702391 0.566591
O O15 0.733021 0.695385 0.404261
O O16 0.000000 0.500000 0.500000
O O17 0.958245 0.458789 0.130437
#
# Coordination Sequence:
#
# PCOD8011983 Si02
#       8
#     2   2   2   2   2   2   2   2
#     4   9  20  35  63  89 119 151 205 254 287 360
#     4  12  24  39  64  90 130 162 197 255 307 365
#     4  11  23  38  64  92 121 163 207 254 297 361
#     4  11  19  37  63  90 117 157 208 248 297 362
#     4  11  23  40  67  91 120 162 209 251 301 363
#     4  10  21  40  62  91 124 156 207 256 301 358
#     4  10  21  39  65  94 119 158 207 256 303 352
#     4  10  23  43  61  91 128 159 201 253 311 358
#
# _framework density 21.023745000000002
#
# number of rings (size 3 to 8) (size 9 to 14) (size 15 to 20)
#    0.000    1.500    3.750    1.500    3.500    5.000 
#    0.000    1.250    5.500    0.000    0.000    0.000 
#    0.000    0.000    0.000    0.000    0.000    0.000 
#
# Total GULP energy -198262.291436 kJ/mol
# GULP energy per Si atom -12391.393215 kJ/mol
# Density = 2.097589 g / cm^3
# Si number density = 21.023745 Si / 1000 Ang^3
#
#
#
# Elastic Constant Matrix: (Units=GPa)
#
#
# Indices 1 2 3 4 5 6 
#
# 1 60.9379 18.1657 44.0013 9.4837 0.5962 -10.5627
# 2 18.1657 72.0590 58.6207 14.8571 -0.3188 -34.0275
# 3 44.0013 58.6207 224.0186 29.2538 21.8419 -28.8674
# 4 9.4837 14.8571 29.2538 32.9937 -9.0612 -0.5688
# 5 0.5962 -0.3188 21.8419 -9.0612 35.1434 2.2976
# 6 -10.5627 -34.0275 -28.8674 -0.5688 2.2976 26.8717
#
#
#
# Elastic Compliance Matrix: (Units=1/GPa)
#
#
# Indices 1 2 3 4 5 6 
#
# 1 0.019781 0.000454 -0.003004 -0.003023 0.000428 0.005023
# 2 0.000454 0.046428 -0.001228 -0.021165 -0.008065 0.057893
# 3 -0.003004 -0.001228 0.007820 -0.007367 -0.007120 0.006118
# 4 -0.003023 -0.021165 -0.007367 0.052180 0.020280 -0.036533
# 5 0.000428 -0.008065 -0.007120 0.020280 0.039377 -0.020631
# 6 0.005023 0.057893 0.006118 -0.036533 -0.020631 0.120060
#
#
# Mechanical properties :
#
#
# Convention : Reuss Voigt Hill
#
# Bulk Modulus (GPa) = 15.04365 66.51009 40.77687
# Shear Modulus (GPa) = 15.85495 34.75027 25.30261
#
# Velocity S-wave (km/s) = 2.74915 4.07001 3.47295
# Velocity P-wave (km/s) = 4.15309 7.33423 5.95983
#
# Compressibility (1/GPa) = 0.06647323
#
# Stress axis : x y z
#
# Youngs Moduli (GPa) = 50.55445 21.53868 127.88142
#
# Poissons Ratio (x) = -0.00978 0.38413
# Poissons Ratio (y) = -0.02296 0.15703
# Poissons Ratio (z) = 0.15185 0.02645
#
# Static dielectric constant tensor:
#      x y z
#    x 3.635730 -0.036890 -0.037820 
#    y -0.036890 3.474820 0.292040 
#    z -0.037820 0.292040 4.674710 
# 
# 
# High freq. dielectric constant tensor:
#      x y z
#    x 1.799750 -0.004680 -0.001990 
#    y -0.004680 1.795440 0.020420 
#    z -0.001990 0.020420 1.859720 
# 
# From -- ./inp_files/397663.got.cif
#   From: 2010.06.25/outbox.cif.g09.slc.cpg/sg2_199_cif.got.tgz:397663.got - 2010.06.27 13:26:56.
