data_PCOD8011976
_publ_section_title
;
Structure prediction by ZEFSAII (Michael W. Deem and Ramdas Pophale) SiO2 
 PCOD8011976
Probable space group: P -1
;
_chemical_formula_sum "Si O2"
_cell_formula_units_Z 14
_cell_length_a 16.022803
_cell_length_b 11.219549
_cell_length_c 5.047871
_cell_angle_alpha 120.458954
_cell_angle_beta 87.073626
_cell_angle_gamma 55.463711
_cell_volume 566.464323
_symmetry_space_group_name_H-M "P -1"
_symmetry_group_IT_number 2
_symmetry_cell_setting 'triclinic'
loop_
_space_group_symop_operation_xyz
x,y,z
-x,-y,-z
loop_
_atom_site_type_symbol
_atom_site_label
_atom_site_fract_x
_atom_site_fract_y
_atom_site_fract_z
Si Si1 0.157689 0.337480 0.090422
Si Si2 0.354838 0.920589 0.693693
Si Si3 0.989727 0.297972 0.127026
Si Si4 0.524338 0.114947 0.885753
Si Si5 0.185938 0.882532 0.795057
Si Si6 0.183360 0.702079 0.094185
Si Si7 0.664103 0.706958 0.273109
O O1 0.060555 0.338822 0.009138
O O2 0.105994 0.522364 0.472750
O O3 0.218619 0.337108 0.826310
O O4 0.254373 0.146195 0.031163
O O5 0.400599 0.891404 0.357438
O O6 0.303498 0.825650 0.626187
O O7 0.460062 0.819257 0.770170
O O8 0.929657 0.262797 0.892798
O O9 0.078117 0.109081 0.077214
O O10 0.391891 0.259450 0.972181
O O11 0.570618 0.902615 0.676575
O O12 0.165215 0.782026 0.480359
O O13 0.197631 0.808790 0.003678
O O14 0.300366 0.476949 0.802960
#
# Coordination Sequence:
#
# PCOD8011976 Si02
#       7
#     2   2   2   2   2   2   2
#     4   9  20  39  65  96 125 159 205 262 308 363
#     4  10  21  42  65  93 124 161 207 256 309 361
#     4  10  21  39  65  93 126 165 208 252 309 363
#     4  10  22  41  69  93 121 158 203 264 316 360
#     4  11  25  42  63  90 128 169 208 248 300 369
#     4  12  24  41  62  90 128 169 205 250 300 371
#     4  10  23  40  64  95 125 158 206 257 315 367
#
# _framework density 24.714704999999999
#
# number of rings (size 3 to 8) (size 9 to 14) (size 15 to 20)
#    0.000    1.714    0.000    3.429    0.000   10.286 
#    0.000   10.000    0.000    0.000    0.000    0.000 
#    0.000    0.000    0.000    0.000    0.000    0.000 
#
# Total GULP energy -173619.423115 kJ/mol
# GULP energy per Si atom -12401.387365 kJ/mol
# Density = 2.465845 g / cm^3
# Si number density = 24.714705 Si / 1000 Ang^3
#
#
#
# Elastic Constant Matrix: (Units=GPa)
#
#
# Indices 1 2 3 4 5 6 
#
# 1 117.4655 8.8168 12.5809 10.3103 8.0509 4.8973
# 2 8.8168 99.5332 13.0287 17.5606 1.7080 9.0689
# 3 12.5809 13.0287 52.0035 7.0435 -1.7139 7.3151
# 4 10.3103 17.5606 7.0435 31.9176 -8.2446 7.2985
# 5 8.0509 1.7080 -1.7139 -8.2446 33.7291 -1.8388
# 6 4.8973 9.0689 7.3151 7.2985 -1.8388 22.6357
#
#
#
# Elastic Compliance Matrix: (Units=1/GPa)
#
#
# Indices 1 2 3 4 5 6 
#
# 1 0.009233 0.000118 -0.001828 -0.003310 -0.003147 -0.000642
# 2 0.000118 0.011603 -0.001865 -0.006085 -0.002323 -0.002298
# 3 -0.001828 -0.001865 0.021105 -0.001642 0.000925 -0.005073
# 4 -0.003310 -0.006085 -0.001642 0.040797 0.010517 -0.008615
# 5 -0.003147 -0.002323 0.000925 0.010517 0.033168 0.000616
# 6 -0.000642 -0.002298 -0.005073 -0.008615 0.000616 0.049705
#
#
# Mechanical properties :
#
#
# Convention : Reuss Voigt Hill
#
# Bulk Modulus (GPa) = 28.74224 37.53944 33.14084
# Shear Modulus (GPa) = 27.12090 33.29487 30.20788
#
# Velocity S-wave (km/s) = 3.31623 3.67436 3.49988
# Velocity P-wave (km/s) = 5.13011 5.76397 5.45625
#
# Compressibility (1/GPa) = 0.03479200
#
# Stress axis : x y z
#
# Youngs Moduli (GPa) = 108.30618 86.18142 47.38107
#
# Poissons Ratio (x) = -0.01016 0.08663
# Poissons Ratio (y) = -0.01277 0.08835
# Poissons Ratio (z) = 0.19802 0.16070
#
# Static dielectric constant tensor:
#      x y z
#    x 4.750130 -0.028650 -0.021390 
#    y -0.028650 4.478720 0.275820 
#    z -0.021390 0.275820 4.020320 
# 
# 
# High freq. dielectric constant tensor:
#      x y z
#    x 2.003310 0.001390 -0.006470 
#    y 0.001390 1.984650 0.007090 
#    z -0.006470 0.007090 1.957750 
# 
# From -- ./inp_files/94266.got.cif
#   From: 2010.06.25/outbox.cif.g09.slc.cpg/sg2_48_cif.got.tgz:94266.got - 2010.06.27 13:26:56.
