data_PCOD8011663
_publ_section_title
;
Structure prediction by ZEFSAII (Michael W. Deem and Ramdas Pophale) SiO2 
 PCOD8011663
Probable space group: P -1
;
_chemical_formula_sum "Si O2"
_cell_formula_units_Z 16
_cell_length_a 11.366622
_cell_length_b 9.185611
_cell_length_c 12.261189
_cell_angle_alpha 50.088652
_cell_angle_beta 124.973169
_cell_angle_gamma 102.895641
_cell_volume 783.050346
_symmetry_space_group_name_H-M "P -1"
_symmetry_group_IT_number 2
_symmetry_cell_setting 'triclinic'
loop_
_space_group_symop_operation_xyz
x,y,z
-x,-y,-z
loop_
_atom_site_type_symbol
_atom_site_label
_atom_site_fract_x
_atom_site_fract_y
_atom_site_fract_z
Si Si1 0.409422 0.166441 0.798049
Si Si2 0.203186 0.101323 0.547665
Si Si3 0.336715 0.387102 0.350721
Si Si4 0.129114 0.113136 0.005199
Si Si5 0.617307 0.256759 0.690809
Si Si6 0.139550 0.455096 0.016067
Si Si7 0.146832 0.389337 0.691911
Si Si8 0.881447 0.287218 0.319426
O O1 0.331887 0.050930 0.727630
O O2 0.516417 0.274455 0.737558
O O3 0.285905 0.325379 0.717758
O O4 0.500000 0.000000 0.000000
O O5 0.244906 0.228834 0.410974
O O6 0.055432 0.222751 0.468675
O O7 0.187395 0.892621 0.597734
O O8 0.512775 0.306106 0.504043
O O9 0.288061 0.580602 0.310336
O O10 0.291462 0.425412 0.181433
O O11 0.127556 0.269736 0.024876
O O12 0.283408 0.956475 0.171677
O O13 0.115078 0.209425 0.831497
O O14 0.000000 0.000000 0.000000
O O15 0.139833 0.644288 0.850832
O O16 0.000000 0.500000 0.000000
O O17 0.197642 0.537527 0.730238
O O18 0.000000 0.500000 0.500000
#
# Coordination Sequence:
#
# PCOD8011663 Si02
#       8
#     2   2   2   2   2   2   2   2
#     4  11  22  40  66  93 128 169 215 256 321 382
#     4  10  21  39  63  91 126 168 207 267 308 385
#     4  10  22  41  65  87 127 170 214 259 320 380
#     4  11  25  40  65  97 130 163 218 268 317 386
#     4  10  23  42  66  93 125 172 215 265 323 379
#     4  11  22  38  62  91 127 168 208 264 320 380
#     4  11  23  41  64  97 127 165 212 266 312 376
#     4  10  22  38  62  94 129 162 214 260 322 366
#
# _framework density 20.432912999999999
#
# number of rings (size 3 to 8) (size 9 to 14) (size 15 to 20)
#    0.000    1.500    3.750    0.750    3.500    3.500 
#    0.000    3.125    0.000    0.000    0.000    0.000 
#    0.000    0.000    0.000    0.000    0.000    0.000 
#
# Total GULP energy -198337.850622 kJ/mol
# GULP energy per Si atom -12396.115664 kJ/mol
# Density = 2.038641 g / cm^3
# Si number density = 20.432913 Si / 1000 Ang^3
#
#
#
# Elastic Constant Matrix: (Units=GPa)
#
#
# Indices 1 2 3 4 5 6 
#
# 1 89.0458 35.7592 28.6352 -9.2917 2.0829 -4.9815
# 2 35.7592 91.2263 30.4490 -12.6041 0.2131 10.3603
# 3 28.6352 30.4490 135.7204 -1.3231 7.4756 1.9518
# 4 -9.2917 -12.6041 -1.3231 37.8182 -1.3068 1.2445
# 5 2.0829 0.2131 7.4756 -1.3068 26.8533 -7.3984
# 6 -4.9815 10.3603 1.9518 1.2445 -7.3984 35.1747
#
#
#
# Elastic Compliance Matrix: (Units=1/GPa)
#
#
# Indices 1 2 3 4 5 6 
#
# 1 0.014283 -0.005154 -0.001926 0.001622 0.000570 0.003710
# 2 -0.005154 0.014790 -0.002099 0.003747 -0.000379 -0.005182
# 3 -0.001926 -0.002099 0.008375 -0.000942 -0.002373 -0.000585
# 4 0.001622 0.003747 -0.000942 0.028145 0.001036 -0.001600
# 5 0.000570 -0.000379 -0.002373 0.001036 0.040325 0.008769
# 6 0.003710 -0.005182 -0.000585 -0.001600 0.008769 0.032415
#
#
# Mechanical properties :
#
#
# Convention : Reuss Voigt Hill
#
# Bulk Modulus (GPa) = 52.38489 56.18659 54.28574
# Shear Modulus (GPa) = 30.66467 34.71251 32.68859
#
# Velocity S-wave (km/s) = 3.87815 4.12619 4.00409
# Velocity P-wave (km/s) = 6.76362 7.08931 6.92838
#
# Compressibility (1/GPa) = 0.01908947
#
# Stress axis : x y z
#
# Youngs Moduli (GPa) = 70.01358 67.61442 119.40002
#
# Poissons Ratio (x) = 0.34852 0.22997
# Poissons Ratio (y) = 0.36088 0.25058
# Poissons Ratio (z) = 0.13485 0.14190
#
# Static dielectric constant tensor:
#      x y z
#    x 2.067460 2.441230 -0.655370 
#    y 2.441230 -0.086540 0.913850 
#    z -0.655370 0.913850 3.799760 
# 
# 
# High freq. dielectric constant tensor:
#      x y z
#    x 1.781130 0.008720 0.000070 
#    y 0.008720 1.799200 -0.006090 
#    z 0.000070 -0.006090 1.821340 
# 
# From -- ./inp_files/391197.got.cif
#   From: 2010.06.25/outbox.cif.g09.slc.cpg/sg2_196_cif.got.tgz:391197.got - 2010.06.27 13:26:56.
