data_PCOD8011336
_publ_section_title
;
Structure prediction by ZEFSAII (Michael W. Deem and Ramdas Pophale) SiO2 
 PCOD8011336
Probable space group: P -1
;
_chemical_formula_sum "Si O2"
_cell_formula_units_Z 14
_cell_length_a 13.316612
_cell_length_b 12.786300
_cell_length_c 23.990937
_cell_angle_alpha 34.508735
_cell_angle_beta 153.693591
_cell_angle_gamma 157.472547
_cell_volume 693.392374
_symmetry_space_group_name_H-M "P -1"
_symmetry_group_IT_number 2
_symmetry_cell_setting 'triclinic'
loop_
_space_group_symop_operation_xyz
x,y,z
-x,-y,-z
loop_
_atom_site_type_symbol
_atom_site_label
_atom_site_fract_x
_atom_site_fract_y
_atom_site_fract_z
Si Si1 0.477791 0.497692 0.556156
Si Si2 0.554966 0.425819 0.906724
Si Si3 0.763121 0.644096 0.116611
Si Si4 0.663095 0.810381 0.216191
Si Si5 0.061591 0.414457 0.169246
Si Si6 0.528599 0.806208 0.758220
Si Si7 0.127311 0.905079 0.488803
O O1 0.500000 0.500000 0.500000
O O2 0.722766 0.492149 0.708466
O O3 0.102317 0.237610 0.506874
O O4 0.595375 0.770481 0.512233
O O5 0.330788 0.265406 0.921192
O O6 0.342889 0.226776 0.836242
O O7 0.635640 0.694431 0.822216
O O8 0.892665 0.512903 0.046249
O O9 0.724121 0.412488 0.222788
O O10 0.500000 0.500000 0.000000
O O11 0.146288 0.911236 0.173037
O O12 0.292685 0.556313 0.167291
O O13 0.905356 0.805057 0.367442
O O14 0.780929 0.088829 0.165154
O O15 0.331187 0.838663 0.609592
#
# Coordination Sequence:
#
# PCOD8011336 Si02
#       7
#     2   2   2   2   2   2   2
#     4  10  21  39  60  87 113 156 199 242 290 344
#     4  10  24  36  63  86 120 154 200 235 300 350
#     4  10  23  41  56  86 120 151 197 234 292 348
#     4  10  22  38  60  86 120 154 194 246 291 346
#     4  10  22  37  59  88 118 154 195 246 294 341
#     4  10  23  38  61  86 116 156 193 236 297 344
#     4  10  21  40  59  85 121 150 196 242 291 344
#
# _framework density 20.190588000000002
#
# number of rings (size 3 to 8) (size 9 to 14) (size 15 to 20)
#    0.857    1.143    0.000    2.571    4.000    2.857 
#    0.000    0.714    0.000    0.000    0.000    0.000 
#    0.000    0.000    0.000    0.000    0.000    0.000 
#
# Total GULP energy -173520.348922 kJ/mol
# GULP energy per Si atom -12394.310637 kJ/mol
# Density = 2.014463 g / cm^3
# Si number density = 20.190588 Si / 1000 Ang^3
#
#
#
# Elastic Constant Matrix: (Units=GPa)
#
#
# Indices 1 2 3 4 5 6 
#
# 1 83.0812 4.0735 39.5953 -2.8129 -17.9896 -0.4081
# 2 4.0735 88.9466 30.3310 1.4915 7.9821 6.0567
# 3 39.5953 30.3310 152.4341 -16.5829 14.0167 -16.7988
# 4 -2.8129 1.4915 -16.5829 28.5556 -6.8715 0.8269
# 5 -17.9896 7.9821 14.0167 -6.8715 26.6053 -2.0883
# 6 -0.4081 6.0567 -16.7988 0.8269 -2.0883 17.9217
#
#
#
# Elastic Compliance Matrix: (Units=1/GPa)
#
#
# Indices 1 2 3 4 5 6 
#
# 1 0.018784 0.000179 -0.006644 0.002036 0.016356 -0.004048
# 2 0.000179 0.013418 -0.003673 -0.003420 -0.003498 -0.008223
# 3 -0.006644 -0.003673 0.011312 0.003998 -0.007482 0.010637
# 4 0.002036 -0.003420 0.003998 0.040249 0.011036 0.004378
# 5 0.016356 -0.003498 -0.007482 0.011036 0.056536 0.000620
# 6 -0.004048 -0.008223 0.010637 0.004378 0.000620 0.068326
#
#
# Mechanical properties :
#
#
# Convention : Reuss Voigt Hill
#
# Bulk Modulus (GPa) = 43.03043 52.49572 47.76307
# Shear Modulus (GPa) = 21.12844 31.31398 26.22121
#
# Velocity S-wave (km/s) = 3.23840 3.94244 3.60764
# Velocity P-wave (km/s) = 5.94486 6.83962 6.40787
#
# Compressibility (1/GPa) = 0.02323937
#
# Stress axis : x y z
#
# Youngs Moduli (GPa) = 53.23542 74.52524 88.40246
#
# Poissons Ratio (x) = -0.01333 0.58730
# Poissons Ratio (y) = -0.00952 0.32470
# Poissons Ratio (z) = 0.35367 0.27373
#
# Static dielectric constant tensor:
#      x y z
#    x 3.332970 0.137830 -0.101110 
#    y 0.137830 3.767960 -0.072620 
#    z -0.101110 -0.072620 3.771670 
# 
# 
# High freq. dielectric constant tensor:
#      x y z
#    x 1.759520 0.006760 -0.008010 
#    y 0.006760 1.798910 -0.001740 
#    z -0.008010 -0.001740 1.798250 
# 
# From -- ./inp_files/76860.got.cif
#   From: 2010.06.25/outbox.cif.g09.slc.cpg/sg2_39_cif.got.tgz:76860.got - 2010.06.27 13:26:56.
