data_PCOD8011787
_publ_section_title
;
Structure prediction by ZEFSAII (Michael W. Deem and Ramdas Pophale) SiO2 
 PCOD8011787
Probable space group: P -1
;
_chemical_formula_sum "Si O2"
_cell_formula_units_Z 16
_cell_length_a 15.390424
_cell_length_b 6.632301
_cell_length_c 15.872933
_cell_angle_alpha 57.272423
_cell_angle_beta 145.278229
_cell_angle_gamma 118.107009
_cell_volume 775.145946
_symmetry_space_group_name_H-M "P -1"
_symmetry_group_IT_number 2
_symmetry_cell_setting 'triclinic'
loop_
_space_group_symop_operation_xyz
x,y,z
-x,-y,-z
loop_
_atom_site_type_symbol
_atom_site_label
_atom_site_fract_x
_atom_site_fract_y
_atom_site_fract_z
Si Si1 0.831440 0.506186 0.328610
Si Si2 0.052560 0.662085 0.135688
Si Si3 0.855808 0.852705 0.689403
Si Si4 0.574562 0.775804 0.156953
Si Si5 0.328618 0.991874 0.645393
Si Si6 0.103809 0.247114 0.842600
Si Si7 0.589700 0.729611 0.830015
Si Si8 0.235110 0.109295 0.215502
O O1 0.728277 0.700057 0.249086
O O2 0.844477 0.559006 0.229048
O O3 0.000000 0.500000 0.500000
O O4 0.756487 0.241722 0.331665
O O5 0.097715 0.411292 0.193909
O O6 0.997121 0.630360 0.195291
O O7 0.202566 0.843790 0.210563
O O8 0.921391 0.754276 0.950268
O O9 0.780347 0.865439 0.534605
O O10 0.737346 0.912397 0.656855
O O11 0.008683 0.026347 0.773318
O O12 0.615350 0.839866 0.271150
O O13 0.454014 0.545658 0.116124
O O14 0.500000 0.000000 0.000000
O O15 0.464259 0.910880 0.713512
O O16 0.257954 0.164203 0.026564
O O17 0.622431 0.752812 0.749978
#
# Coordination Sequence:
#
# PCOD8011787 Si02
#       8
#     2   2   2   2   2   2   2   2
#     4  11  23  41  63  91 129 163 201 260 316 364
#     4   9  20  36  61  90 124 155 203 257 302 365
#     4  11  22  37  63  94 124 154 205 263 304 361
#     4  11  25  43  65  92 127 168 213 252 305 379
#     4  11  25  41  61  93 127 162 203 258 313 365
#     4  10  21  39  64  90 120 163 206 248 310 366
#     4  10  23  43  64  87 126 166 206 250 306 372
#     4   9  20  39  60  87 120 165 202 247 311 365
#
# _framework density 20.641273999999999
#
# number of rings (size 3 to 8) (size 9 to 14) (size 15 to 20)
#    0.000    1.750    1.250    2.625    1.750   10.000 
#    0.000    1.250    0.000    0.000    0.000    0.000 
#    0.000    0.000    0.000    0.000    0.000    0.000 
#
# Total GULP energy -198356.970602 kJ/mol
# GULP energy per Si atom -12397.310663 kJ/mol
# Density = 2.059429 g / cm^3
# Si number density = 20.641274 Si / 1000 Ang^3
#
#
#
# Elastic Constant Matrix: (Units=GPa)
#
#
# Indices 1 2 3 4 5 6 
#
# 1 90.5067 34.2216 28.7389 1.7561 -9.8069 21.6120
# 2 34.2216 50.0979 22.7871 8.0621 0.3216 -4.1187
# 3 28.7389 22.7871 75.7782 15.5800 -9.7027 -2.8755
# 4 1.7561 8.0621 15.5800 24.7125 -0.3361 -2.8806
# 5 -9.8069 0.3216 -9.7027 -0.3361 39.0826 0.9612
# 6 21.6120 -4.1187 -2.8755 -2.8806 0.9612 29.5672
#
#
#
# Elastic Compliance Matrix: (Units=1/GPa)
#
#
# Indices 1 2 3 4 5 6 
#
# 1 0.024460 -0.016791 -0.005276 0.004757 0.005510 -0.020447
# 2 -0.016791 0.035233 -0.002980 -0.006584 -0.005704 0.016435
# 3 -0.005276 -0.002980 0.018693 -0.009906 0.003153 0.004192
# 4 0.004757 -0.006584 -0.009906 0.048439 -0.000780 -0.000614
# 5 0.005510 -0.005704 0.003153 -0.000780 0.027928 -0.005499
# 6 -0.020447 0.016435 0.004192 -0.000614 -0.005499 0.051583
#
#
# Mechanical properties :
#
#
# Convention : Reuss Voigt Hill
#
# Bulk Modulus (GPa) = 35.34423 43.09757 39.22090
# Shear Modulus (GPa) = 18.80687 27.38145 23.09416
#
# Velocity S-wave (km/s) = 3.02177 3.64612 3.34853
# Velocity P-wave (km/s) = 5.41618 6.21693 5.83032
#
# Compressibility (1/GPa) = 0.02829316
#
# Stress axis : x y z
#
# Youngs Moduli (GPa) = 40.88286 28.38209 53.49611
#
# Poissons Ratio (x) = 0.47656 0.28224
# Poissons Ratio (y) = 0.68645 0.15942
# Poissons Ratio (z) = 0.21569 0.08458
#
# Static dielectric constant tensor:
#      x y z
#    x 3.839340 0.080340 -0.135410 
#    y 0.080340 3.645840 0.083070 
#    z -0.135410 0.083070 3.777510 
# 
# 
# High freq. dielectric constant tensor:
#      x y z
#    x 1.819230 0.009830 -0.014920 
#    y 0.009830 1.805410 0.000060 
#    z -0.014920 0.000060 1.802310 
# 
# From -- ./inp_files/78543.got.cif
#   From: 2010.06.25/outbox.cif.g09.slc.cpg/sg2_40_cif.got.tgz:78543.got - 2010.06.27 13:26:56.
