data_PCOD8011328
_publ_section_title
;
Structure prediction by ZEFSAII (Michael W. Deem and Ramdas Pophale) SiO2 
 PCOD8011328
Probable space group: P -1
;
_chemical_formula_sum "Si O2"
_cell_formula_units_Z 16
_cell_length_a 5.079225
_cell_length_b 30.013758
_cell_length_c 14.813153
_cell_angle_alpha 159.428370
_cell_angle_beta 65.359350
_cell_angle_gamma 113.735047
_cell_volume 720.709269
_symmetry_space_group_name_H-M "P -1"
_symmetry_group_IT_number 2
_symmetry_cell_setting 'triclinic'
loop_
_space_group_symop_operation_xyz
x,y,z
-x,-y,-z
loop_
_atom_site_type_symbol
_atom_site_label
_atom_site_fract_x
_atom_site_fract_y
_atom_site_fract_z
Si Si1 0.690051 0.894124 0.342482
Si Si2 0.342886 0.652519 0.893761
Si Si3 0.374398 0.597242 0.080787
Si Si4 0.054610 0.291346 0.291802
Si Si5 0.865112 0.979425 0.297595
Si Si6 0.107854 0.569593 0.248873
Si Si7 0.331141 0.585633 0.570997
Si Si8 0.159610 0.228940 0.735791
O O1 0.917738 0.960035 0.362728
O O2 0.842951 0.809522 0.232419
O O3 0.479315 0.995362 0.612203
O O4 0.492054 0.791345 0.117918
O O5 0.212020 0.596222 0.710901
O O6 0.568079 0.558415 0.730143
O O7 0.079884 0.662392 0.023709
O O8 0.623485 0.509782 0.912139
O O9 0.178575 0.522462 0.893075
O O10 0.175117 0.635770 0.267460
O O11 0.527208 0.724205 0.257177
O O12 0.929760 0.322020 0.466149
O O13 0.906380 0.374974 0.393838
O O14 0.394441 0.319287 0.296283
O O15 0.016930 0.140801 0.999249
O O16 0.047814 0.099419 0.456009
#
# Coordination Sequence:
#
# PCOD8011328 Si02
#       8
#     2   2   2   2   2   2   2   2
#     4  10  21  39  60  85 126 177 220 262 297 367
#     4  10  23  37  57  94 128 170 214 266 314 373
#     4  10  23  44  68  98 123 160 209 266 331 385
#     4  12  24  40  65  91 130 173 209 261 323 383
#     4  10  23  39  57  91 126 179 218 256 303 371
#     4  10  23  43  69  96 128 156 205 272 332 388
#     4  11  25  38  60  93 135 169 210 259 323 386
#     4  11  23  37  67  87 127 172 222 261 308 378
#
# _framework density 22.200353
#
# number of rings (size 3 to 8) (size 9 to 14) (size 15 to 20)
#    0.000    1.500    1.250    2.625   10.500    1.000 
#    0.000    0.625    0.000    0.750    0.000    0.000 
#    0.000    0.000    0.000    0.000    0.000    0.000 
#
# Total GULP energy -198327.446988 kJ/mol
# GULP energy per Si atom -12395.465437 kJ/mol
# Density = 2.214982 g / cm^3
# Si number density = 22.200353 Si / 1000 Ang^3
#
#
#
# Elastic Constant Matrix: (Units=GPa)
#
#
# Indices 1 2 3 4 5 6 
#
# 1 66.2474 28.2792 27.4850 1.5299 -1.5906 8.2291
# 2 28.2792 90.1615 61.4396 2.4495 10.6248 25.0536
# 3 27.4850 61.4396 152.0680 -13.3178 -13.0055 7.6549
# 4 1.5299 2.4495 -13.3178 35.3383 2.1550 7.6090
# 5 -1.5906 10.6248 -13.0055 2.1550 22.0161 4.7461
# 6 8.2291 25.0536 7.6549 7.6090 4.7461 36.5702
#
#
#
# Elastic Compliance Matrix: (Units=1/GPa)
#
#
# Indices 1 2 3 4 5 6 
#
# 1 0.017866 -0.005285 -0.000838 -0.000829 0.003537 -0.000511
# 2 -0.005285 0.024373 -0.009810 -0.001835 -0.015371 -0.011078
# 3 -0.000838 -0.009810 0.011862 0.004058 0.010814 0.002179
# 4 -0.000829 -0.001835 0.004058 0.031212 0.001481 -0.006092
# 5 0.003537 -0.015371 0.010814 0.001481 0.059457 -0.000553
# 6 -0.000511 -0.011078 0.002179 -0.006092 -0.000553 0.035933
#
#
# Mechanical properties :
#
#
# Convention : Reuss Voigt Hill
#
# Bulk Modulus (GPa) = 44.97430 60.32048 52.64739
# Shear Modulus (GPa) = 22.72930 31.53646 27.13288
#
# Velocity S-wave (km/s) = 3.20320 3.77309 3.49976
# Velocity P-wave (km/s) = 5.82949 6.79791 6.33224
#
# Compressibility (1/GPa) = 0.02223492
#
# Stress axis : x y z
#
# Youngs Moduli (GPa) = 55.97157 41.02853 84.30610
#
# Poissons Ratio (x) = 0.21683 0.07067
# Poissons Ratio (y) = 0.29580 0.82704
# Poissons Ratio (z) = 0.04692 0.40249
#
# Static dielectric constant tensor:
#      x y z
#    x 4.144500 0.137670 0.091560 
#    y 0.137670 4.102410 0.039370 
#    z 0.091560 0.039370 4.174130 
# 
# 
# High freq. dielectric constant tensor:
#      x y z
#    x 1.890820 0.004000 0.005080 
#    y 0.004000 1.847560 0.009620 
#    z 0.005080 0.009620 1.869820 
# 
# From -- ./inp_files/486304.got.cif
#   From: 2010.06.25/outbox.cif.g09.slc.cpg/sg2_244_cif.got.tgz:486304.got - 2010.06.27 13:26:56.
