data_PCOD8011940
_publ_section_title
;
Structure prediction by ZEFSAII (Michael W. Deem and Ramdas Pophale) SiO2 
 PCOD8011940
Probable space group: P -1
;
_chemical_formula_sum "Si O2"
_cell_formula_units_Z 14
_cell_length_a 7.993068
_cell_length_b 8.398062
_cell_length_c 11.499953
_cell_angle_alpha 64.633933
_cell_angle_beta 78.908177
_cell_angle_gamma 62.310492
_cell_volume 617.621822
_symmetry_space_group_name_H-M "P -1"
_symmetry_group_IT_number 2
_symmetry_cell_setting 'triclinic'
loop_
_space_group_symop_operation_xyz
x,y,z
-x,-y,-z
loop_
_atom_site_type_symbol
_atom_site_label
_atom_site_fract_x
_atom_site_fract_y
_atom_site_fract_z
Si Si1 0.184282 0.310927 0.000013
Si Si2 0.062833 0.437417 0.740638
Si Si3 0.878105 0.887210 0.582034
Si Si4 0.798008 0.899040 0.338244
Si Si5 0.832865 0.041537 0.776740
Si Si6 0.546410 0.247873 0.122373
Si Si7 0.301314 0.627851 0.140790
O O1 0.221818 0.336859 0.850675
O O2 0.364718 0.284812 0.058012
O O3 0.000000 0.500000 0.000000
O O4 0.146199 0.120344 0.079970
O O5 0.017622 0.662326 0.659704
O O6 0.878559 0.417864 0.816737
O O7 0.141582 0.320733 0.646868
O O8 0.750287 0.899715 0.482004
O O9 0.755401 0.990245 0.681489
O O10 0.000000 0.000000 0.500000
O O11 0.962419 0.967465 0.272531
O O12 0.614606 0.047678 0.247041
O O13 0.692105 0.252843 0.781504
O O14 0.489770 0.423490 0.169705
O O15 0.708967 0.247325 0.013891
#
# Coordination Sequence:
#
# PCOD8011940 Si02
#       7
#     2   2   2   2   2   2   2
#     4  12  22  38  64  90 124 159 198 254 310 365
#     4  11  21  41  64  90 122 167 204 246 305 366
#     4  10  21  39  65  91 121 165 211 247 291 365
#     4  10  23  39  64  91 124 162 209 249 294 363
#     4  10  21  40  62  90 123 165 204 242 307 364
#     4  11  23  39  59  96 127 156 200 255 310 354
#     4  10  22  38  62  90 127 158 200 252 306 365
#
# _framework density 22.667591999999999
#
# number of rings (size 3 to 8) (size 9 to 14) (size 15 to 20)
#    0.000    1.429    2.857    2.143    2.000    4.571 
#    0.000    3.571    0.000    1.714    0.000    0.000 
#    0.000    0.000    0.000    0.000    0.000    0.000 
#
# Total GULP energy -173525.194978 kJ/mol
# GULP energy per Si atom -12394.656784 kJ/mol
# Density = 2.261600 g / cm^3
# Si number density = 22.667592 Si / 1000 Ang^3
#
#
#
# Elastic Constant Matrix: (Units=GPa)
#
#
# Indices 1 2 3 4 5 6 
#
# 1 56.9845 40.5997 37.2252 -3.0889 6.0666 7.7470
# 2 40.5997 174.7553 76.4526 16.2537 9.3083 27.9442
# 3 37.2252 76.4526 147.5967 1.3085 17.3621 14.0368
# 4 -3.0889 16.2537 1.3085 35.5238 13.2664 -0.4382
# 5 6.0666 9.3083 17.3621 13.2664 28.2839 -2.7835
# 6 7.7470 27.9442 14.0368 -0.4382 -2.7835 29.9805
#
#
#
# Elastic Compliance Matrix: (Units=1/GPa)
#
#
# Indices 1 2 3 4 5 6 
#
# 1 0.023563 -0.004218 -0.003182 0.005771 -0.004518 -0.001002
# 2 -0.004218 0.009622 -0.003501 -0.005393 0.001811 -0.006151
# 3 -0.003182 -0.003501 0.010186 0.003187 -0.006031 -0.001197
# 4 0.005771 -0.005393 0.003187 0.038204 -0.019259 0.000813
# 5 -0.004518 0.001811 -0.006031 -0.019259 0.049112 0.006581
# 6 -0.001002 -0.006151 -0.001197 0.000813 0.006581 0.040530
#
#
# Mechanical properties :
#
#
# Convention : Reuss Voigt Hill
#
# Bulk Modulus (GPa) = 46.36196 76.43239 61.39718
# Shear Modulus (GPa) = 24.97395 33.76158 29.36776
#
# Velocity S-wave (km/s) = 3.32286 3.86349 3.60333
# Velocity P-wave (km/s) = 5.93458 7.32762 6.66758
#
# Compressibility (1/GPa) = 0.02156941
#
# Stress axis : x y z
#
# Youngs Moduli (GPa) = 42.44029 103.92594 98.17219
#
# Poissons Ratio (x) = 0.43832 0.31242
# Poissons Ratio (y) = 0.17900 0.34367
# Poissons Ratio (z) = 0.13506 0.36381
#
# Static dielectric constant tensor:
#      x y z
#    x 3.857490 0.351040 0.081210 
#    y 0.351040 4.434440 0.373960 
#    z 0.081210 0.373960 4.575880 
# 
# 
# High freq. dielectric constant tensor:
#      x y z
#    x 1.867300 0.026020 -0.007660 
#    y 0.026020 1.906130 0.009410 
#    z -0.007660 0.009410 1.892440 
# 
# From -- ./inp_files/188311.got.cif
#   From: 2010.06.25/outbox.cif.g09.slc.cpg/sg2_95_cif.got.tgz:188311.got - 2010.06.27 13:26:56.
