data_PCOD8011755
_publ_section_title
;
Structure prediction by ZEFSAII (Michael W. Deem and Ramdas Pophale) SiO2 
 PCOD8011755
Probable space group: P -1
;
_chemical_formula_sum "Si O2"
_cell_formula_units_Z 16
_cell_length_a 14.396068
_cell_length_b 14.409334
_cell_length_c 9.543791
_cell_angle_alpha 90.570170
_cell_angle_beta 52.836648
_cell_angle_gamma 45.733549
_cell_volume 739.126785
_symmetry_space_group_name_H-M "P -1"
_symmetry_group_IT_number 2
_symmetry_cell_setting 'triclinic'
loop_
_space_group_symop_operation_xyz
x,y,z
-x,-y,-z
loop_
_atom_site_type_symbol
_atom_site_label
_atom_site_fract_x
_atom_site_fract_y
_atom_site_fract_z
Si Si1 0.933846 0.667303 0.189213
Si Si2 0.857225 0.747506 0.944685
Si Si3 0.175319 0.066479 0.566735
Si Si4 0.593404 0.588672 0.573562
Si Si5 0.483489 0.334219 0.669317
Si Si6 0.574572 0.800885 0.687084
Si Si7 0.431178 0.148010 0.007243
Si Si8 0.400498 0.560864 0.935885
O O1 0.807706 0.853902 0.351027
O O2 0.820751 0.661972 0.379774
O O3 0.875063 0.690016 0.080874
O O4 0.228874 0.460786 0.944535
O O5 0.112145 0.618154 0.666047
O O6 0.793335 0.707419 0.896853
O O7 0.644870 0.973332 0.135911
O O8 0.290774 0.897603 0.541074
O O9 0.328536 0.974014 0.283497
O O10 0.894164 0.243357 0.784948
O O11 0.540001 0.601381 0.460513
O O12 0.484167 0.767135 0.707115
O O13 0.458519 0.611613 0.796357
O O14 0.533142 0.380163 0.737663
O O15 0.644994 0.737435 0.786419
O O16 0.500000 0.000000 0.000000
O O17 0.500000 0.500000 0.000000
#
# Coordination Sequence:
#
# PCOD8011755 Si02
#       8
#     2   2   2   2   2   2   2   2
#     4  10  21  39  64 101 131 165 210 255 319 384
#     4  10  22  38  65  95 137 166 204 264 312 381
#     4  11  23  44  69  93 131 169 214 263 322 371
#     4  11  26  43  66  97 127 170 218 262 319 375
#     4  10  25  44  70  93 126 170 215 270 317 375
#     4  11  23  37  62  97 132 171 208 254 319 385
#     4  10  22  38  61  95 134 171 203 255 320 380
#     4  11  28  47  67  93 126 168 221 269 313 385
#
# _framework density 21.647165000000001
#
# number of rings (size 3 to 8) (size 9 to 14) (size 15 to 20)
#    0.000    1.500    2.500    1.500    8.750    3.500 
#    0.000    0.000    0.000    0.000    0.000    0.000 
#    0.000    0.000    0.000    0.000    0.000    0.000 
#
# Total GULP energy -198459.707999 kJ/mol
# GULP energy per Si atom -12403.731750 kJ/mol
# Density = 2.159790 g / cm^3
# Si number density = 21.647165 Si / 1000 Ang^3
#
#
#
# Elastic Constant Matrix: (Units=GPa)
#
#
# Indices 1 2 3 4 5 6 
#
# 1 117.1360 27.2130 36.9904 -15.6463 4.8192 -18.9679
# 2 27.2130 60.0218 33.3580 -6.0463 -10.5448 -4.8860
# 3 36.9904 33.3580 92.7569 -26.2091 -7.0890 -15.4936
# 4 -15.6463 -6.0463 -26.2091 42.9457 4.8283 0.7849
# 5 4.8192 -10.5448 -7.0890 4.8283 34.9552 -6.8344
# 6 -18.9679 -4.8860 -15.4936 0.7849 -6.8344 33.4860
#
#
#
# Elastic Compliance Matrix: (Units=1/GPa)
#
#
# Indices 1 2 3 4 5 6 
#
# 1 0.011170 -0.003916 -0.001770 0.002651 -0.002597 0.004345
# 2 -0.003916 0.023264 -0.007421 -0.003378 0.006347 -0.000883
# 3 -0.001770 -0.007421 0.017848 0.008905 0.001626 0.006295
# 4 0.002651 -0.003378 0.008905 0.029465 -0.002896 0.003847
# 5 -0.002597 0.006347 0.001626 -0.002896 0.032980 0.007006
# 6 0.004345 -0.000883 0.006295 0.003847 0.007006 0.036448
#
#
# Mechanical properties :
#
#
# Convention : Reuss Voigt Hill
#
# Bulk Modulus (GPa) = 38.36426 51.67082 45.01754
# Shear Modulus (GPa) = 26.87033 33.76760 30.31896
#
# Velocity S-wave (km/s) = 3.52701 3.95385 3.74652
# Velocity P-wave (km/s) = 5.86067 6.69069 6.28939
#
# Compressibility (1/GPa) = 0.02606593
#
# Stress axis : x y z
#
# Youngs Moduli (GPa) = 89.52287 42.98562 56.03019
#
# Poissons Ratio (x) = 0.16835 0.09917
# Poissons Ratio (y) = 0.35060 0.41583
# Poissons Ratio (z) = 0.15845 0.31902
#
# Static dielectric constant tensor:
#      x y z
#    x 4.223310 -0.027740 0.212610 
#    y -0.027740 3.225200 -0.004790 
#    z 0.212610 -0.004790 4.067380 
# 
# 
# High freq. dielectric constant tensor:
#      x y z
#    x 1.855700 -0.003850 0.010240 
#    y -0.003850 1.850600 -0.001400 
#    z 0.010240 -0.001400 1.855680 
# 
# From -- ./inp_files/271740.got.cif
#   From: 2010.06.25/outbox.cif.g09.slc.cpg/sg2_136_cif.got.tgz:271740.got - 2010.06.27 13:26:56.
