data_PCOD8011264
_publ_section_title
;
Structure prediction by ZEFSAII (Michael W. Deem and Ramdas Pophale) SiO2 
 PCOD8011264
Probable space group: P -1
;
_chemical_formula_sum "Si O2"
_cell_formula_units_Z 16
_cell_length_a 8.041754
_cell_length_b 16.877024
_cell_length_c 8.425260
_cell_angle_alpha 111.307524
_cell_angle_beta 52.642457
_cell_angle_gamma 129.643114
_cell_volume 699.367051
_symmetry_space_group_name_H-M "P -1"
_symmetry_group_IT_number 2
_symmetry_cell_setting 'triclinic'
loop_
_space_group_symop_operation_xyz
x,y,z
-x,-y,-z
loop_
_atom_site_type_symbol
_atom_site_label
_atom_site_fract_x
_atom_site_fract_y
_atom_site_fract_z
Si Si1 0.950843 0.422213 0.608582
Si Si2 0.400023 0.299170 0.888102
Si Si3 0.933506 0.274848 0.269144
Si Si4 0.280535 0.116261 0.028164
Si Si5 0.738655 0.048055 0.281445
Si Si6 0.748785 0.287337 0.053654
Si Si7 0.632510 0.443040 0.279002
Si Si8 0.271145 0.358234 0.694757
O O1 0.691241 0.384082 0.823290
O O2 0.909710 0.319760 0.479417
O O3 0.000000 0.500000 0.500000
O O4 0.177720 0.475872 0.638734
O O5 0.354240 0.304110 0.730537
O O6 0.326536 0.186088 0.896943
O O7 0.232735 0.326617 0.107267
O O8 0.781064 0.152219 0.268745
O O9 0.819010 0.301938 0.208870
O O10 0.482604 0.180922 0.096466
O O11 0.998283 0.070858 0.228472
O O12 0.317219 0.027007 0.889337
O O13 0.500000 0.000000 0.500000
O O14 0.731729 0.383388 0.085649
O O15 0.964703 0.293706 0.824303
O O16 0.373274 0.357259 0.459213
O O17 0.609899 0.521102 0.234966
#
# Coordination Sequence:
#
# PCOD8011264 Si02
#       8
#     2   2   2   2   2   2   2   2
#     4  12  21  37  58  87 121 162 202 240 283 346
#     4  10  21  39  58  84 119 160 201 243 290 346
#     4  10  23  39  62  88 118 158 198 241 297 356
#     4  10  23  41  64  90 116 153 197 248 299 355
#     4  10  22  43  67  89 113 149 198 248 303 357
#     4  11  22  40  57  85 123 154 193 244 296 344
#     4  11  23  37  53  85 122 161 202 241 285 340
#     4  10  22  36  55  82 120 160 199 241 286 344
#
# _framework density 22.877828999999998
#
# number of rings (size 3 to 8) (size 9 to 14) (size 15 to 20)
#    0.000    1.500    2.500    1.875    0.000    7.000 
#    0.000    0.625    0.000    0.000    0.000    0.000 
#    0.000    0.000    0.000    0.000    0.000    0.000 
#
# Total GULP energy -198340.619437 kJ/mol
# GULP energy per Si atom -12396.288715 kJ/mol
# Density = 2.282576 g / cm^3
# Si number density = 22.877829 Si / 1000 Ang^3
#
#
#
# Elastic Constant Matrix: (Units=GPa)
#
#
# Indices 1 2 3 4 5 6 
#
# 1 51.5856 23.7165 47.7818 3.6395 -19.8134 8.1456
# 2 23.7165 104.1747 36.3124 9.6460 -10.5253 4.3810
# 3 47.7818 36.3124 96.4898 -17.6331 -19.0408 12.1138
# 4 3.6395 9.6460 -17.6331 39.4747 4.2753 -2.7686
# 5 -19.8134 -10.5253 -19.0408 4.2753 28.3043 -6.2008
# 6 8.1456 4.3810 12.1138 -2.7686 -6.2008 43.1963
#
#
#
# Elastic Compliance Matrix: (Units=1/GPa)
#
#
# Indices 1 2 3 4 5 6 
#
# 1 0.052529 0.000908 -0.025186 -0.018848 0.022823 -0.000866
# 2 0.000908 0.012118 -0.005642 -0.005800 0.002251 0.000134
# 3 -0.025186 -0.005642 0.027335 0.016233 -0.004210 -0.001908
# 4 -0.018848 -0.005800 0.016233 0.036846 -0.009879 0.000533
# 5 0.022823 0.002251 -0.004210 -0.009879 0.051552 0.003416
# 6 -0.000866 0.000134 -0.001908 0.000533 0.003416 0.024360
#
#
# Mechanical properties :
#
#
# Convention : Reuss Voigt Hill
#
# Bulk Modulus (GPa) = 31.11305 51.98571 41.54938
# Shear Modulus (GPa) = 18.16234 31.82435 24.99334
#
# Velocity S-wave (km/s) = 2.82065 3.73373 3.30884
# Velocity P-wave (km/s) = 4.92314 6.43119 5.72702
#
# Compressibility (1/GPa) = 0.03214085
#
# Stress axis : x y z
#
# Youngs Moduli (GPa) = 19.03702 82.52000 36.58362
#
# Poissons Ratio (x) = -0.07492 0.92140
# Poissons Ratio (y) = -0.01728 0.20642
# Poissons Ratio (z) = 0.47947 0.46562
#
# Static dielectric constant tensor:
#      x y z
#    x 4.320960 -0.155330 -0.248540 
#    y -0.155330 4.110970 -0.243120 
#    z -0.248540 -0.243120 4.410460 
# 
# 
# High freq. dielectric constant tensor:
#      x y z
#    x 1.905610 -0.007630 -0.025090 
#    y -0.007630 1.890690 -0.011150 
#    z -0.025090 -0.011150 1.906740 
# 
# From -- ./inp_files/215326.got.cif
#   From: 2010.06.25/outbox.cif.g09.slc.cpg/sg2_108_cif.got.tgz:215326.got - 2010.06.27 13:26:56.
