data_PCOD8011898
_publ_section_title
;
Structure prediction by ZEFSAII (Michael W. Deem and Ramdas Pophale) SiO2 
 PCOD8011898
Probable space group: P -1
;
_chemical_formula_sum "Si O2"
_cell_formula_units_Z 16
_cell_length_a 8.978115
_cell_length_b 18.597342
_cell_length_c 5.543251
_cell_angle_alpha 123.302078
_cell_angle_beta 100.144674
_cell_angle_gamma 61.465091
_cell_volume 674.903184
_symmetry_space_group_name_H-M "P -1"
_symmetry_group_IT_number 2
_symmetry_cell_setting 'triclinic'
loop_
_space_group_symop_operation_xyz
x,y,z
-x,-y,-z
loop_
_atom_site_type_symbol
_atom_site_label
_atom_site_fract_x
_atom_site_fract_y
_atom_site_fract_z
Si Si1 0.463559 0.865804 0.755572
Si Si2 0.219562 0.790575 0.709644
Si Si3 0.058734 0.349009 0.144019
Si Si4 0.367177 0.307579 0.881256
Si Si5 0.648088 0.953338 0.260306
Si Si6 0.971321 0.181653 0.801574
Si Si7 0.172480 0.453271 0.723742
Si Si8 0.492259 0.598745 0.581966
O O1 0.345766 0.839871 0.849919
O O2 0.555977 0.775935 0.441713
O O3 0.350473 0.964439 0.761711
O O4 0.613146 0.875174 0.958730
O O5 0.322298 0.671245 0.518095
O O6 0.121407 0.820460 0.478734
O O7 0.103968 0.835700 0.999616
O O8 0.064517 0.401822 0.489591
O O9 0.946586 0.432202 0.071972
O O10 0.253880 0.281761 0.987699
O O11 0.962329 0.285565 0.036165
O O12 0.235441 0.411912 0.928444
O O13 0.516766 0.326347 0.071806
O O14 0.834549 0.900802 0.334393
O O15 0.500000 0.000000 0.500000
O O16 0.335802 0.431925 0.569451
O O17 0.500000 0.500000 0.500000
#
# Coordination Sequence:
#
# PCOD8011898 Si02
#       8
#     2   2   2   2   2   2   2   2
#     4  11  26  49  79 110 151 195 260 308 394 458
#     4  12  29  49  74 115 158 204 244 321 389 455
#     4  10  23  39  66 104 145 188 254 315 373 442
#     4  11  22  41  74 100 142 200 250 318 364 453
#     4  11  28  50  84 111 143 200 257 323 377 476
#     4  12  29  48  76 111 156 198 251 319 386 455
#     4  10  21  39  65 100 136 197 255 310 370 438
#     4  11  25  43  69 103 152 207 259 300 377 458
#
# _framework density 23.707103
#
# number of rings (size 3 to 8) (size 9 to 14) (size 15 to 20)
#    0.000    1.000    1.250    3.375   14.000    1.500 
#    0.000    0.000    0.000    0.000    0.000    0.000 
#    0.000    0.000    0.000    0.000    0.000    0.000 
#
# Total GULP energy -198343.642161 kJ/mol
# GULP energy per Si atom -12396.477635 kJ/mol
# Density = 2.365314 g / cm^3
# Si number density = 23.707103 Si / 1000 Ang^3
#
#
#
# Elastic Constant Matrix: (Units=GPa)
#
#
# Indices 1 2 3 4 5 6 
#
# 1 102.1944 43.4949 42.5543 5.1700 -8.9069 5.2064
# 2 43.4949 122.4852 29.4256 -1.1305 5.7045 -1.3318
# 3 42.5543 29.4256 95.3715 -7.1014 -23.2175 1.3260
# 4 5.1700 -1.1305 -7.1014 35.6147 -5.6635 2.6980
# 5 -8.9069 5.7045 -23.2175 -5.6635 24.9954 -1.3303
# 6 5.2064 -1.3318 1.3260 2.6980 -1.3303 45.3097
#
#
#
# Elastic Compliance Matrix: (Units=1/GPa)
#
#
# Indices 1 2 3 4 5 6 
#
# 1 0.013739 -0.003695 -0.005144 -0.003002 0.000209 -0.001352
# 2 -0.003695 0.010638 -0.003458 -0.001004 -0.007147 0.000688
# 3 -0.005144 -0.003458 0.018779 0.007248 0.018044 0.000038
# 4 -0.003002 -0.001004 0.007248 0.032117 0.013093 -0.001425
# 5 0.000209 -0.007147 0.018044 0.013093 0.061454 0.000263
# 6 -0.001352 0.000688 0.000038 -0.001425 0.000263 0.022337
#
#
# Mechanical properties :
#
#
# Convention : Reuss Voigt Hill
#
# Bulk Modulus (GPa) = 53.87252 61.22230 57.54741
# Shear Modulus (GPa) = 26.33714 34.82241 30.57977
#
# Velocity S-wave (km/s) = 3.33669 3.83673 3.59541
# Velocity P-wave (km/s) = 6.13337 6.74595 6.44694
#
# Compressibility (1/GPa) = 0.01856234
#
# Stress axis : x y z
#
# Youngs Moduli (GPa) = 72.78630 94.00122 53.25041
#
# Poissons Ratio (x) = 0.34734 0.27392
# Poissons Ratio (y) = 0.26895 0.18413
# Poissons Ratio (z) = 0.37442 0.32504
#
# Static dielectric constant tensor:
#      x y z
#    x 4.558940 0.039960 0.120140 
#    y 0.039960 4.689980 -0.129640 
#    z 0.120140 -0.129640 4.160590 
# 
# 
# High freq. dielectric constant tensor:
#      x y z
#    x 1.946100 -0.001470 -0.003090 
#    y -0.001470 1.957750 -0.002520 
#    z -0.003090 -0.002520 1.929610 
# 
# From -- ./inp_files/38149.got.cif
#   From: 2010.06.25/outbox.cif.g09.slc.cpg/sg2_20_cif.got.tgz:38149.got - 2010.06.27 13:26:56.
