data_PCOD8011276
_publ_section_title
;
Structure prediction by ZEFSAII (Michael W. Deem and Ramdas Pophale) SiO2 
 PCOD8011276
Probable space group: P -1
;
_chemical_formula_sum "Si O2"
_cell_formula_units_Z 16
_cell_length_a 8.965412
_cell_length_b 17.126656
_cell_length_c 8.931562
_cell_angle_alpha 132.677530
_cell_angle_beta 114.472575
_cell_angle_gamma 55.439669
_cell_volume 829.314855
_symmetry_space_group_name_H-M "P -1"
_symmetry_group_IT_number 2
_symmetry_cell_setting 'triclinic'
loop_
_space_group_symop_operation_xyz
x,y,z
-x,-y,-z
loop_
_atom_site_type_symbol
_atom_site_label
_atom_site_fract_x
_atom_site_fract_y
_atom_site_fract_z
Si Si1 0.399246 0.644653 0.800735
Si Si2 0.272400 0.170112 0.121354
Si Si3 0.907219 0.182134 0.910241
Si Si4 0.731898 0.423516 0.623722
Si Si5 0.015807 0.248168 0.732043
Si Si6 0.751520 0.999127 0.613994
Si Si7 0.255989 0.347560 0.127664
Si Si8 0.499749 0.981966 0.727297
O O1 0.525731 0.505345 0.702822
O O2 0.274762 0.658150 0.620984
O O3 0.532627 0.708155 0.909057
O O4 0.271161 0.704649 0.965279
O O5 0.242672 0.300733 0.228479
O O6 0.389517 0.131676 0.270950
O O7 0.079573 0.166598 0.063402
O O8 0.370112 0.088717 0.914352
O O9 0.942602 0.200233 0.777135
O O10 0.882238 0.063550 0.764774
O O11 0.843624 0.342290 0.698116
O O12 0.821549 0.510175 0.716389
O O13 0.129842 0.140260 0.531123
O O14 0.141770 0.310513 0.914755
O O15 0.635137 0.021961 0.746703
O O16 0.620885 0.050952 0.482944
#
# Coordination Sequence:
#
# PCOD8011276 Si02
#       8
#     2   2   2   2   2   2   2   2
#     4   9  21  40  61  83 119 153 199 240 292 348
#     4  10  21  39  58  90 116 154 194 246 287 350
#     4  11  23  38  59  89 124 152 194 248 292 342
#     4   9  21  40  65  84 115 159 198 243 290 348
#     4  11  22  38  61  90 121 153 200 239 290 349
#     4  11  23  40  57  91 122 158 191 239 293 359
#     4   9  18  40  63  83 115 159 190 242 292 339
#     4  10  22  38  60  81 122 154 200 229 298 347
#
# _framework density 19.293033999999999
#
# number of rings (size 3 to 8) (size 9 to 14) (size 15 to 20)
#    0.750    1.250    2.500    1.500    3.500    2.000 
#    2.250    2.500    2.750    0.000    0.000    0.000 
#    0.000    0.000    0.000    0.000    0.000    0.000 
#
# Total GULP energy -198348.509093 kJ/mol
# GULP energy per Si atom -12396.781818 kJ/mol
# Density = 1.924912 g / cm^3
# Si number density = 19.293034 Si / 1000 Ang^3
#
#
#
# Elastic Constant Matrix: (Units=GPa)
#
#
# Indices 1 2 3 4 5 6 
#
# 1 103.2814 16.2066 29.7213 0.4427 4.8198 -4.4327
# 2 16.2066 93.4635 15.5333 -16.5077 2.4175 -11.9970
# 3 29.7213 15.5333 50.4742 -0.2751 -4.3106 -8.0513
# 4 0.4427 -16.5077 -0.2751 21.2362 3.3188 2.0599
# 5 4.8198 2.4175 -4.3106 3.3188 21.6817 -1.0632
# 6 -4.4327 -11.9970 -8.0513 2.0599 -1.0632 19.5442
#
#
#
# Elastic Compliance Matrix: (Units=1/GPa)
#
#
# Indices 1 2 3 4 5 6 
#
# 1 0.012090 -0.000975 -0.007334 -0.000372 -0.004032 -0.001058
# 2 -0.000975 0.014150 -0.003073 0.010936 -0.003358 0.005864
# 3 -0.007334 -0.003073 0.027129 -0.004022 0.008399 0.008507
# 4 -0.000372 0.010936 -0.004022 0.057396 -0.010804 -0.001665
# 5 -0.004032 -0.003358 0.008399 -0.010804 0.050932 0.004394
# 6 -0.001058 0.005864 0.008507 -0.001665 0.004394 0.058445
#
#
# Mechanical properties :
#
#
# Convention : Reuss Voigt Hill
#
# Bulk Modulus (GPa) = 32.67343 41.12684 36.90014
# Shear Modulus (GPa) = 19.75450 24.87627 22.31538
#
# Velocity S-wave (km/s) = 3.20334 3.59471 3.40465
# Velocity P-wave (km/s) = 5.53661 6.21228 5.88415
#
# Compressibility (1/GPa) = 0.03060591
#
# Stress axis : x y z
#
# Youngs Moduli (GPa) = 82.71168 70.67085 36.86108
#
# Poissons Ratio (x) = 0.06888 0.27035
# Poissons Ratio (y) = 0.08062 0.11326
# Poissons Ratio (z) = 0.60664 0.21714
#
# Static dielectric constant tensor:
#      x y z
#    x 3.556980 -0.088580 0.078680 
#    y -0.088580 3.463990 -0.062210 
#    z 0.078680 -0.062210 3.359430 
# 
# 
# High freq. dielectric constant tensor:
#      x y z
#    x 1.752410 -0.007380 0.008000 
#    y -0.007380 1.745500 -0.003200 
#    z 0.008000 -0.003200 1.739230 
# 
# From -- ./inp_files/213622.got.cif
#   From: 2010.06.25/outbox.cif.g09.slc.cpg/sg2_107_cif.got.tgz:213622.got - 2010.06.27 13:26:56.
