data_PCOD8011204
_publ_section_title
;
Structure prediction by ZEFSAII (Michael W. Deem and Ramdas Pophale) SiO2 
 PCOD8011204
Probable space group: P -1
;
_chemical_formula_sum "Si O2"
_cell_formula_units_Z 16
_cell_length_a 14.893578
_cell_length_b 11.256086
_cell_length_c 8.769980
_cell_angle_alpha 34.581782
_cell_angle_beta 69.093756
_cell_angle_gamma 83.258966
_cell_volume 735.126330
_symmetry_space_group_name_H-M "P -1"
_symmetry_group_IT_number 2
_symmetry_cell_setting 'triclinic'
loop_
_space_group_symop_operation_xyz
x,y,z
-x,-y,-z
loop_
_atom_site_type_symbol
_atom_site_label
_atom_site_fract_x
_atom_site_fract_y
_atom_site_fract_z
Si Si1 0.880735 0.247531 0.953797
Si Si2 0.602770 0.710950 0.702333
Si Si3 0.460647 0.703808 0.295615
Si Si4 0.707787 0.068483 0.481738
Si Si5 0.501499 0.056293 0.679805
Si Si6 0.108753 0.427373 0.662411
Si Si7 0.229848 0.139469 0.779118
Si Si8 0.741157 0.200105 0.654611
O O1 0.799080 0.223696 0.161664
O O2 0.853351 0.020605 0.114935
O O3 0.881145 0.456581 0.631272
O O4 0.991523 0.291758 0.914616
O O5 0.572310 0.918994 0.434744
O O6 0.682157 0.675390 0.567723
O O7 0.662084 0.812006 0.716506
O O8 0.500000 0.500000 0.000000
O O9 0.500000 0.500000 0.500000
O O10 0.523891 0.855957 0.234149
O O11 0.341397 0.670431 0.428281
O O12 0.490437 0.802404 0.001137
O O13 0.617315 0.176520 0.424327
O O14 0.746759 0.076635 0.623139
O O15 0.173499 0.260762 0.795184
O O16 0.151023 0.609627 0.577055
O O17 0.282084 0.990329 0.001279
#
# Coordination Sequence:
#
# PCOD8011204 Si02
#       8
#     2   2   2   2   2   2   2   2
#     4   9  21  42  62  95 122 161 207 263 314 361
#     4  11  24  39  62  92 123 171 213 248 317 369
#     4  10  22  38  62  87 126 167 206 250 306 373
#     4  10  23  42  59  83 136 157 200 268 309 359
#     4  10  22  39  58  89 121 165 208 253 302 370
#     4  10  21  38  70  91 119 163 214 253 312 379
#     4  10  21  41  65  90 129 160 210 258 304 371
#     4  10  22  41  62  94 123 166 205 258 310 372
#
# _framework density 21.764966000000001
#
# number of rings (size 3 to 8) (size 9 to 14) (size 15 to 20)
#    0.000    2.000    1.250    0.750    5.250    0.500 
#    2.250    1.250    0.000    0.000    0.000    0.000 
#    0.000    0.000    0.000    0.000    0.000    0.000 
#
# Total GULP energy -198238.875951 kJ/mol
# GULP energy per Si atom -12389.929747 kJ/mol
# Density = 2.171543 g / cm^3
# Si number density = 21.764966 Si / 1000 Ang^3
#
#
#
# Elastic Constant Matrix: (Units=GPa)
#
#
# Indices 1 2 3 4 5 6 
#
# 1 115.8851 47.9610 47.8069 0.2906 -15.1627 8.9126
# 2 47.9610 95.8512 39.5381 8.5534 -6.0481 10.0815
# 3 47.8069 39.5381 98.2339 1.9821 -14.4373 0.1570
# 4 0.2906 8.5534 1.9821 28.9376 -8.6682 0.0886
# 5 -15.1627 -6.0481 -14.4373 -8.6682 40.1887 -4.5909
# 6 8.9126 10.0815 0.1570 0.0886 -4.5909 41.3788
#
#
#
# Elastic Compliance Matrix: (Units=1/GPa)
#
#
# Indices 1 2 3 4 5 6 
#
# 1 0.012630 -0.004607 -0.003891 0.002420 0.003054 -0.001250
# 2 -0.004607 0.014984 -0.004024 -0.004784 -0.002291 -0.002887
# 3 -0.003891 -0.004024 0.014185 0.001314 0.003552 0.002156
# 4 0.002420 -0.004784 0.001314 0.038599 0.009170 0.001574
# 5 0.003054 -0.002291 0.003552 0.009170 0.029300 0.003118
# 6 -0.001250 -0.002887 0.002156 0.001574 0.003118 0.025474
#
#
# Mechanical properties :
#
#
# Convention : Reuss Voigt Hill
#
# Bulk Modulus (GPa) = 59.68089 64.50912 62.09501
# Shear Modulus (GPa) = 30.15647 33.74531 31.95089
#
# Velocity S-wave (km/s) = 3.72634 3.94184 3.83560
# Velocity P-wave (km/s) = 6.78191 7.10076 6.94316
#
# Compressibility (1/GPa) = 0.01675578
#
# Stress axis : x y z
#
# Youngs Moduli (GPa) = 79.17359 66.73750 70.49647
#
# Poissons Ratio (x) = 0.30745 0.27428
# Poissons Ratio (y) = 0.36474 0.28371
# Poissons Ratio (z) = 0.30804 0.26858
#
# Static dielectric constant tensor:
#      x y z
#    x 4.038680 0.170800 -0.181070 
#    y 0.170800 3.899460 0.048590 
#    z -0.181070 0.048590 4.015500 
# 
# 
# High freq. dielectric constant tensor:
#      x y z
#    x 1.858800 0.007430 -0.010170 
#    y 0.007430 1.850540 0.006580 
#    z -0.010170 0.006580 1.835100 
# 
# From -- ./inp_files/306070.got.cif
#   From: 2010.06.25/outbox.cif.g09.slc.cpg/sg2_154_cif.got.tgz:306070.got - 2010.06.27 13:26:56.
