data_PCOD8011267
_publ_section_title
;
Structure prediction by ZEFSAII (Michael W. Deem and Ramdas Pophale) SiO2 
 PCOD8011267
Probable space group: P -1
;
_chemical_formula_sum "Si O2"
_cell_formula_units_Z 16
_cell_length_a 27.996041
_cell_length_b 14.199398
_cell_length_c 8.926519
_cell_angle_alpha 50.225647
_cell_angle_beta 143.110363
_cell_angle_gamma 156.309504
_cell_volume 790.229932
_symmetry_space_group_name_H-M "P -1"
_symmetry_group_IT_number 2
_symmetry_cell_setting 'triclinic'
loop_
_space_group_symop_operation_xyz
x,y,z
-x,-y,-z
loop_
_atom_site_type_symbol
_atom_site_label
_atom_site_fract_x
_atom_site_fract_y
_atom_site_fract_z
Si Si1 0.367514 0.279257 0.563815
Si Si2 0.657115 0.841373 0.689845
Si Si3 0.418134 0.952585 0.048648
Si Si4 0.252911 0.576660 0.762152
Si Si5 0.822790 0.734950 0.887694
Si Si6 0.950584 0.306764 0.146837
Si Si7 0.304743 0.001492 0.924775
Si Si8 0.463660 0.759174 0.482828
O O1 0.555753 0.580973 0.741478
O O2 0.336054 0.139618 0.492775
O O3 0.252325 0.238007 0.277775
O O4 0.320371 0.154087 0.729655
O O5 0.566744 0.843259 0.515689
O O6 0.834406 0.073349 0.979292
O O7 0.587124 0.244256 0.117984
O O8 0.472247 0.917138 0.333843
O O9 0.300696 0.889175 0.905411
O O10 0.308001 0.752629 0.841174
O O11 0.111736 0.442975 0.439620
O O12 0.178929 0.356901 0.879840
O O13 0.722886 0.539682 0.697797
O O14 0.000000 0.000000 0.000000
O O15 0.859648 0.216815 0.166228
O O16 0.000000 0.500000 0.000000
O O17 0.466373 0.196327 0.231845
#
# Coordination Sequence:
#
# PCOD8011267 Si02
#       8
#     2   2   2   2   2   2   2   2
#     4  10  22  38  65  90 115 160 211 245 292 360
#     4   9  21  40  63  85 124 157 201 252 297 355
#     4  10  22  38  64  88 122 156 208 243 300 367
#     4  10  22  39  63  88 119 166 194 247 310 357
#     4  10  21  39  58  84 126 156 197 243 305 360
#     4  11  24  42  61  92 128 159 197 255 312 355
#     4  11  23  37  66  92 118 159 209 251 294 363
#     4   9  20  39  60  85 119 161 194 250 301 350
#
# _framework density 20.247271999999999
#
# number of rings (size 3 to 8) (size 9 to 14) (size 15 to 20)
#    0.000    2.000    0.000    2.625   10.500    6.000 
#    6.750    0.625    0.000    0.000    0.000    0.000 
#    0.000    0.000    0.000    0.000    0.000    0.000 
#
# Total GULP energy -198412.163428 kJ/mol
# GULP energy per Si atom -12400.760214 kJ/mol
# Density = 2.020119 g / cm^3
# Si number density = 20.247272 Si / 1000 Ang^3
#
#
#
# Elastic Constant Matrix: (Units=GPa)
#
#
# Indices 1 2 3 4 5 6 
#
# 1 70.3523 35.0703 10.5373 1.7119 -8.8433 1.5393
# 2 35.0703 127.1252 55.6083 -6.9584 -1.9773 17.0393
# 3 10.5373 55.6083 112.8874 0.2199 -2.6495 1.3918
# 4 1.7119 -6.9584 0.2199 41.1209 -0.3610 0.5394
# 5 -8.8433 -1.9773 -2.6495 -0.3610 22.9367 -3.4686
# 6 1.5393 17.0393 1.3918 0.5394 -3.4686 30.2269
#
#
#
# Elastic Compliance Matrix: (Units=1/GPa)
#
#
# Indices 1 2 3 4 5 6 
#
# 1 0.017816 -0.005940 0.001390 -0.001735 0.006975 0.003208
# 2 -0.005940 0.013153 -0.005908 0.002574 -0.002890 -0.007217
# 3 0.001390 -0.005908 0.011647 -0.001143 0.001800 0.002951
# 4 -0.001735 0.002574 -0.001143 0.024852 -0.000461 -0.001806
# 5 0.006975 -0.002890 0.001800 -0.000461 0.047240 0.006620
# 6 0.003208 -0.007217 0.002951 -0.001806 0.006620 0.037644
#
#
# Mechanical properties :
#
#
# Convention : Reuss Voigt Hill
#
# Bulk Modulus (GPa) = 46.08239 56.97742 51.52991
# Shear Modulus (GPa) = 27.70075 32.80016 30.25046
#
# Velocity S-wave (km/s) = 3.70283 4.02926 3.86949
# Velocity P-wave (km/s) = 6.41018 7.06035 6.74311
#
# Compressibility (1/GPa) = 0.02170027
#
# Stress axis : x y z
#
# Youngs Moduli (GPa) = 56.13074 76.03040 85.85762
#
# Poissons Ratio (x) = 0.45158 -0.11937
# Poissons Ratio (y) = 0.33339 0.50728
# Poissons Ratio (z) = -0.07804 0.44922
#
# Static dielectric constant tensor:
#      x y z
#    x 3.863480 0.147810 0.041240 
#    y 0.147810 3.809350 0.097240 
#    z 0.041240 0.097240 3.777810 
# 
# 
# High freq. dielectric constant tensor:
#      x y z
#    x 1.780460 0.000470 -0.000400 
#    y 0.000470 1.792730 -0.006710 
#    z -0.000400 -0.006710 1.794490 
# 
# From -- ./inp_files/321080.got.cif
#   From: 2010.06.25/outbox.cif.g09.slc.cpg/sg2_161_cif.got.tgz:321080.got - 2010.06.27 13:26:56.
