data_PCOD8011127
_publ_section_title
;
Structure prediction by ZEFSAII (Michael W. Deem and Ramdas Pophale) SiO2 
 PCOD8011127
Probable space group: P -1
;
_chemical_formula_sum "Si O2"
_cell_formula_units_Z 16
_cell_length_a 27.869526
_cell_length_b 27.453830
_cell_length_c 8.778644
_cell_angle_alpha 143.459859
_cell_angle_beta 142.342757
_cell_angle_gamma 10.319213
_cell_volume 716.312950
_symmetry_space_group_name_H-M "P -1"
_symmetry_group_IT_number 2
_symmetry_cell_setting 'triclinic'
loop_
_space_group_symop_operation_xyz
x,y,z
-x,-y,-z
loop_
_atom_site_type_symbol
_atom_site_label
_atom_site_fract_x
_atom_site_fract_y
_atom_site_fract_z
Si Si1 0.385306 0.931591 0.051820
Si Si2 0.644614 0.221406 0.519836
Si Si3 0.251865 0.303036 0.100504
Si Si4 0.747132 0.201138 0.421054
Si Si5 0.119002 0.530914 0.048059
Si Si6 0.960192 0.840757 0.866801
Si Si7 0.538919 0.758429 0.333082
Si Si8 0.132182 0.700166 0.621072
O O1 0.385643 0.946274 0.270934
O O2 0.670471 0.680522 0.088711
O O3 0.162981 0.202889 0.078136
O O4 0.350804 0.870050 0.781873
O O5 0.689395 0.246589 0.569508
O O6 0.386254 0.489728 0.651966
O O7 0.886009 0.991981 0.664202
O O8 0.295627 0.340236 0.403331
O O9 0.000000 0.500000 0.000000
O O10 0.202586 0.376236 0.985082
O O11 0.500000 0.000000 0.000000
O O12 0.500000 0.500000 0.500000
O O13 0.000000 0.000000 0.500000
O O14 0.790635 0.069810 0.123727
O O15 0.126653 0.608511 0.352181
O O16 0.216583 0.547406 0.865453
O O17 0.104131 0.741227 0.834953
O O18 0.714640 0.024237 0.658975
#
# Coordination Sequence:
#
# PCOD8011127 Si02
#       8
#     2   2   2   2   2   2   2   2
#     4  10  21  38  67  96 127 166 228 289 316 385
#     4  10  21  40  63  95 133 170 219 275 342 386
#     4  12  26  44  65  98 143 182 215 274 353 413
#     4  12  26  44  65  98 143 182 215 274 353 413
#     4  10  21  40  63  95 133 170 219 275 342 386
#     4  12  24  42  70 102 132 172 240 283 325 399
#     4  12  24  42  70 102 132 172 240 283 325 399
#     4  10  21  38  67  96 127 166 228 289 316 385
#
# _framework density 22.336606
#
# number of rings (size 3 to 8) (size 9 to 14) (size 15 to 20)
#    0.000    1.000    2.500    4.500    7.000    0.000 
#    0.000    7.500    0.000    0.000    0.000    0.000 
#    0.000    0.000    0.000    0.000    0.000    0.000 
#
# Total GULP energy -198262.865036 kJ/mol
# GULP energy per Si atom -12391.429065 kJ/mol
# Density = 2.228577 g / cm^3
# Si number density = 22.336606 Si / 1000 Ang^3
#
#
#
# Elastic Constant Matrix: (Units=GPa)
#
#
# Indices 1 2 3 4 5 6 
#
# 1 138.8747 57.3989 20.8767 15.0534 -12.6020 20.7241
# 2 57.3989 183.4527 21.3172 13.2885 0.6098 17.5526
# 3 20.8767 21.3172 35.8737 -2.5318 -10.2664 1.0201
# 4 15.0534 13.2885 -2.5318 36.9439 0.3648 2.5364
# 5 -12.6020 0.6098 -10.2664 0.3648 30.5868 -0.2827
# 6 20.7241 17.5526 1.0201 2.5364 -0.2827 53.1926
#
#
#
# Elastic Compliance Matrix: (Units=1/GPa)
#
#
# Indices 1 2 3 4 5 6 
#
# 1 0.009654 -0.002088 -0.003732 -0.003271 0.002779 -0.002830
# 2 -0.002088 0.006766 -0.003509 -0.001714 -0.002165 -0.001282
# 3 -0.003732 -0.003509 0.035403 0.004987 0.010372 0.001750
# 4 -0.003271 -0.001714 0.004987 0.029335 0.000013 0.000346
# 5 0.002779 -0.002165 0.010372 0.000013 0.037360 -0.000370
# 6 -0.002830 -0.001282 0.001750 0.000346 -0.000370 0.020273
#
#
# Mechanical properties :
#
#
# Convention : Reuss Voigt Hill
#
# Bulk Modulus (GPa) = 30.15346 61.93185 46.04266
# Shear Modulus (GPa) = 29.67252 41.38523 35.52888
#
# Velocity S-wave (km/s) = 3.64871 4.30908 3.99257
# Velocity P-wave (km/s) = 5.59282 7.24875 6.47395
#
# Compressibility (1/GPa) = 0.03316369
#
# Stress axis : x y z
#
# Youngs Moduli (GPa) = 103.58335 147.79432 28.24599
#
# Poissons Ratio (x) = 0.30866 0.10542
# Poissons Ratio (y) = 0.21632 0.09912
# Poissons Ratio (z) = 0.38659 0.51865
#
# Static dielectric constant tensor:
#      x y z
#    x 4.235090 0.081090 0.206950 
#    y 0.081090 4.352120 0.028510 
#    z 0.206950 0.028510 3.869630 
# 
# 
# High freq. dielectric constant tensor:
#      x y z
#    x 1.895750 -0.002170 -0.008400 
#    y -0.002170 1.906400 -0.004690 
#    z -0.008400 -0.004690 1.839800 
# 
# From -- ./inp_files/358031.got.cif
#   From: 2010.06.25/outbox.cif.g09.slc.cpg/sg2_180_cif.got.tgz:358031.got - 2010.06.27 13:26:56.
