data_PCOD8011548
_publ_section_title
;
Structure prediction by ZEFSAII (Michael W. Deem and Ramdas Pophale) SiO2 
 PCOD8011548
Probable space group: P -1
;
_chemical_formula_sum "Si O2"
_cell_formula_units_Z 16
_cell_length_a 8.528206
_cell_length_b 12.776049
_cell_length_c 7.844217
_cell_angle_alpha 113.339546
_cell_angle_beta 110.748324
_cell_angle_gamma 82.639351
_cell_volume 733.776078
_symmetry_space_group_name_H-M "P -1"
_symmetry_group_IT_number 2
_symmetry_cell_setting 'triclinic'
loop_
_space_group_symop_operation_xyz
x,y,z
-x,-y,-z
loop_
_atom_site_type_symbol
_atom_site_label
_atom_site_fract_x
_atom_site_fract_y
_atom_site_fract_z
Si Si1 0.690310 0.590293 0.285542
Si Si2 0.667214 0.570943 0.632198
Si Si3 0.503269 0.648673 0.936254
Si Si4 0.068708 0.828915 0.437170
Si Si5 0.964961 0.426271 0.773214
Si Si6 0.748346 0.955905 0.488016
Si Si7 0.333564 0.846762 0.829065
Si Si8 0.569414 0.966435 0.767539
O O1 0.693188 0.643094 0.512645
O O2 0.595751 0.469577 0.172051
O O3 0.878850 0.571411 0.290098
O O4 0.593958 0.672810 0.168778
O O5 0.500000 0.500000 0.500000
O O6 0.648355 0.648217 0.844415
O O7 0.813711 0.480277 0.646754
O O8 0.368978 0.745196 0.908055
O O9 0.081036 0.704245 0.276310
O O10 0.156278 0.827211 0.655616
O O11 0.873370 0.858812 0.408729
O O12 0.159030 0.920209 0.406579
O O13 0.000000 0.500000 0.000000
O O14 0.696021 0.929496 0.644828
O O15 0.581041 0.953459 0.307139
O O16 0.483141 0.855487 0.750970
O O17 0.324081 0.964472 0.005758
#
# Coordination Sequence:
#
# PCOD8011548 Si02
#       8
#     2   2   2   2   2   2   2   2
#     4  10  22  39  60  87 122 166 214 259 307 376
#     4  10  21  40  61  84 123 165 207 260 307 370
#     4  10  21  40  60  91 123 165 208 263 313 372
#     4  10  22  39  61  90 129 166 202 266 316 370
#     4  12  24  40  61  93 130 172 217 263 315 379
#     4   9  20  41  63  93 123 159 211 255 323 377
#     4  10  21  39  62  91 125 162 207 261 320 369
#     4   9  20  39  64  92 121 157 209 265 308 390
#
# _framework density 21.805015999999998
#
# number of rings (size 3 to 8) (size 9 to 14) (size 15 to 20)
#    0.000    2.000    1.250    1.875    1.750    2.500 
#    4.500    0.000    0.000    0.000    0.000    0.000 
#    0.000    0.000    0.000    0.000    0.000    0.000 
#
# Total GULP energy -198370.584327 kJ/mol
# GULP energy per Si atom -12398.161520 kJ/mol
# Density = 2.175539 g / cm^3
# Si number density = 21.805016 Si / 1000 Ang^3
#
#
#
# Elastic Constant Matrix: (Units=GPa)
#
#
# Indices 1 2 3 4 5 6 
#
# 1 76.2026 4.7086 18.2085 -15.2263 5.9943 2.0532
# 2 4.7086 76.4006 33.5413 -19.7191 3.4912 -8.3778
# 3 18.2085 33.5413 86.0582 -9.7807 2.3925 12.1367
# 4 -15.2263 -19.7191 -9.7807 34.7734 3.3002 -0.9518
# 5 5.9943 3.4912 2.3925 3.3002 28.7394 -14.9022
# 6 2.0532 -8.3778 12.1367 -0.9518 -14.9022 23.8648
#
#
#
# Elastic Compliance Matrix: (Units=1/GPa)
#
#
# Indices 1 2 3 4 5 6 
#
# 1 0.015710 0.002358 -0.002922 0.007838 -0.005263 -0.002012
# 2 0.002358 0.021600 -0.010113 0.010418 0.004790 0.015930
# 3 -0.002922 -0.010113 0.018945 -0.001314 -0.009349 -0.018824
# 4 0.007838 0.010418 -0.001314 0.038389 -0.006673 0.001015
# 5 -0.005263 0.004790 -0.009349 -0.006673 0.059582 0.043828
# 6 -0.002012 0.015930 -0.018824 0.001015 0.043828 0.084650
#
#
# Mechanical properties :
#
#
# Convention : Reuss Voigt Hill
#
# Bulk Modulus (GPa) = 28.65303 39.06425 33.85864
# Shear Modulus (GPa) = 18.39141 29.62238 24.00689
#
# Velocity S-wave (km/s) = 2.90737 3.68980 3.32170
# Velocity P-wave (km/s) = 4.94363 6.00891 5.50211
#
# Compressibility (1/GPa) = 0.03490032
#
# Stress axis : x y z
#
# Youngs Moduli (GPa) = 63.65425 46.29541 52.78349
#
# Poissons Ratio (x) = -0.10914 0.15423
# Poissons Ratio (y) = -0.15007 0.53381
# Poissons Ratio (z) = 0.18599 0.46820
#
# Static dielectric constant tensor:
#      x y z
#    x 3.841590 0.218530 0.008160 
#    y 0.218530 3.905500 -0.452020 
#    z 0.008160 -0.452020 4.120290 
# 
# 
# High freq. dielectric constant tensor:
#      x y z
#    x 1.853980 0.004540 0.004350 
#    y 0.004540 1.849860 -0.016920 
#    z 0.004350 -0.016920 1.855480 
# 
# From -- ./inp_files/189409.got.cif
#   From: 2010.06.25/outbox.cif.g09.slc.cpg/sg2_95_cif.got.tgz:189409.got - 2010.06.27 13:26:56.
