data_PCOD8011429
_publ_section_title
;
Structure prediction by ZEFSAII (Michael W. Deem and Ramdas Pophale) SiO2 
 PCOD8011429
Probable space group: P -1
;
_chemical_formula_sum "Si O2"
_cell_formula_units_Z 14
_cell_length_a 14.196965
_cell_length_b 10.106337
_cell_length_c 8.425395
_cell_angle_alpha 65.719760
_cell_angle_beta 46.111113
_cell_angle_gamma 49.890869
_cell_volume 664.943602
_symmetry_space_group_name_H-M "P -1"
_symmetry_group_IT_number 2
_symmetry_cell_setting 'triclinic'
loop_
_space_group_symop_operation_xyz
x,y,z
-x,-y,-z
loop_
_atom_site_type_symbol
_atom_site_label
_atom_site_fract_x
_atom_site_fract_y
_atom_site_fract_z
Si Si1 0.236852 0.883901 0.985363
Si Si2 0.678238 0.434446 0.124148
Si Si3 0.934893 0.978379 0.422643
Si Si4 0.013024 0.650583 0.344030
Si Si5 0.803978 0.464952 0.289305
Si Si6 0.861253 0.751383 0.132483
Si Si7 0.666664 0.297498 0.700050
O O1 0.311774 0.777974 0.111980
O O2 0.048076 0.972794 0.155316
O O3 0.314947 0.745526 0.818232
O O4 0.260011 0.043102 0.861488
O O5 0.705018 0.461371 0.260626
O O6 0.513852 0.597362 0.181445
O O7 0.806201 0.426560 0.862227
O O8 0.941327 0.800228 0.488605
O O9 0.757026 0.142669 0.539591
O O10 0.000000 0.000000 0.500000
O O11 0.000000 0.500000 0.500000
O O12 0.912939 0.728679 0.264267
O O13 0.769764 0.656733 0.254427
O O14 0.742126 0.414155 0.540735
O O15 0.989300 0.327770 0.119739
#
# Coordination Sequence:
#
# PCOD8011429 Si02
#       7
#     2   2   2   2   2   2   2
#     4  10  21  39  61  90 121 158 203 247 292 358
#     4  10  23  39  63  89 122 159 202 247 303 355
#     4   9  20  34  63  89 114 154 208 236 285 353
#     4  10  23  40  62  90 123 159 201 251 302 356
#     4  10  22  38  63  89 123 157 200 249 302 355
#     4  10  22  38  62  90 122 155 204 253 297 348
#     4  11  21  38  66  90 121 159 202 246 300 362
#
# _framework density 21.054417000000001
#
# number of rings (size 3 to 8) (size 9 to 14) (size 15 to 20)
#    0.000    2.000    1.429    0.857    8.000    5.143 
#    0.000    3.571    0.000    0.000    0.000    0.000 
#    0.000    0.000    0.000    0.000    0.000    0.000 
#
# Total GULP energy -173544.930222 kJ/mol
# GULP energy per Si atom -12396.066444 kJ/mol
# Density = 2.100650 g / cm^3
# Si number density = 21.054417 Si / 1000 Ang^3
#
#
#
# Elastic Constant Matrix: (Units=GPa)
#
#
# Indices 1 2 3 4 5 6 
#
# 1 98.0425 81.5061 40.2490 2.3030 5.8261 8.2758
# 2 81.5061 202.8046 57.2088 -8.7007 -3.8187 19.0210
# 3 40.2490 57.2088 60.1372 -6.3991 3.6250 -3.3052
# 4 2.3030 -8.7007 -6.3991 44.2690 -1.3621 -1.7033
# 5 5.8261 -3.8187 3.6250 -1.3621 25.0410 4.7439
# 6 8.2758 19.0210 -3.3052 -1.7033 4.7439 35.6938
#
#
#
# Elastic Compliance Matrix: (Units=1/GPa)
#
#
# Indices 1 2 3 4 5 6 
#
# 1 0.017963 -0.005218 -0.007265 -0.003192 -0.003773 -0.001708
# 2 -0.005218 0.009205 -0.005662 0.001215 0.004403 -0.004747
# 3 -0.007265 -0.005662 0.027965 0.003477 -0.004560 0.008063
# 4 -0.003192 0.001215 0.003477 0.023593 0.001453 0.001347
# 5 -0.003773 0.004403 -0.004560 0.001453 0.043668 -0.007628
# 6 -0.001708 -0.004747 0.008063 0.001347 -0.007628 0.032766
#
#
# Mechanical properties :
#
#
# Convention : Reuss Voigt Hill
#
# Bulk Modulus (GPa) = 53.06564 79.87912 66.47238
# Shear Modulus (GPa) = 25.28681 33.13545 29.21113
#
# Velocity S-wave (km/s) = 3.46934 3.97142 3.72884
# Velocity P-wave (km/s) = 6.42706 7.68448 7.08373
#
# Compressibility (1/GPa) = 0.01884458
#
# Stress axis : x y z
#
# Youngs Moduli (GPa) = 55.66959 108.63384 35.75892
#
# Poissons Ratio (x) = 0.56683 0.25978
# Poissons Ratio (y) = 0.29047 0.20246
# Poissons Ratio (z) = 0.40443 0.61506
#
# Static dielectric constant tensor:
#      x y z
#    x 3.719790 0.149050 0.099790 
#    y 0.149050 4.278350 0.227750 
#    z 0.099790 0.227750 3.900780 
# 
# 
# High freq. dielectric constant tensor:
#      x y z
#    x 1.808450 0.007850 0.015110 
#    y 0.007850 1.837820 0.003010 
#    z 0.015110 0.003010 1.807900 
# 
# From -- ./inp_files/294704.got.cif
#   From: 2010.06.25/outbox.cif.g09.slc.cpg/sg2_148_cif.got.tgz:294704.got - 2010.06.27 13:26:56.
