data_PCOD8011834
_publ_section_title
;
Structure prediction by ZEFSAII (Michael W. Deem and Ramdas Pophale) SiO2 
 PCOD8011834
Probable space group: P -1
;
_chemical_formula_sum "Si O2"
_cell_formula_units_Z 16
_cell_length_a 10.946781
_cell_length_b 13.665995
_cell_length_c 12.944081
_cell_angle_alpha 33.889864
_cell_angle_beta 133.197610
_cell_angle_gamma 113.596364
_cell_volume 716.815312
_symmetry_space_group_name_H-M "P -1"
_symmetry_group_IT_number 2
_symmetry_cell_setting 'triclinic'
loop_
_space_group_symop_operation_xyz
x,y,z
-x,-y,-z
loop_
_atom_site_type_symbol
_atom_site_label
_atom_site_fract_x
_atom_site_fract_y
_atom_site_fract_z
Si Si1 0.492039 0.986643 0.735659
Si Si2 0.848255 0.286376 0.245494
Si Si3 0.523152 0.642943 0.675261
Si Si4 0.698820 0.129107 0.459214
Si Si5 0.138639 0.224495 0.781054
Si Si6 0.105777 0.879796 0.954778
Si Si7 0.797170 0.421225 0.548275
Si Si8 0.209318 0.976296 0.720937
O O1 0.472467 0.205263 0.538589
O O2 0.401182 0.953938 0.607354
O O3 0.411300 0.962109 0.822674
O O4 0.704563 0.835765 0.987227
O O5 0.757002 0.290702 0.300819
O O6 0.835177 0.107751 0.335728
O O7 0.735652 0.492207 0.947388
O O8 0.070670 0.206217 0.454603
O O9 0.439159 0.764845 0.622534
O O10 0.403403 0.531190 0.660005
O O11 0.884811 0.952811 0.760694
O O12 0.159474 0.390986 0.576998
O O13 0.942952 0.284629 0.669760
O O14 0.170445 0.039531 0.894146
O O15 0.196839 0.842584 0.925565
O O16 0.185663 0.684753 0.239125
#
# Coordination Sequence:
#
# PCOD8011834 Si02
#       8
#     2   2   2   2   2   2   2   2
#     4  11  23  41  62  94 130 167 206 262 311 368
#     4   9  20  39  62  86 121 167 207 263 313 360
#     4  12  21  38  65  96 126 163 211 260 317 376
#     4  10  21  39  64  93 126 161 207 264 320 367
#     4  11  23  42  66  92 130 164 204 264 317 371
#     4  11  21  44  67  89 129 173 202 257 316 369
#     4  11  23  40  65  97 128 161 210 255 320 381
#     4   9  21  42  60  84 127 168 210 256 307 365
#
# _framework density 22.320951000000001
#
# number of rings (size 3 to 8) (size 9 to 14) (size 15 to 20)
#    0.000    1.500    2.500    4.125    0.000    1.000 
#    9.000    1.250    0.000    0.000    0.000    0.000 
#    0.000    0.000    0.000    0.000    0.000    0.000 
#
# Total GULP energy -198258.334155 kJ/mol
# GULP energy per Si atom -12391.145885 kJ/mol
# Density = 2.227015 g / cm^3
# Si number density = 22.320951 Si / 1000 Ang^3
#
#
#
# Elastic Constant Matrix: (Units=GPa)
#
#
# Indices 1 2 3 4 5 6 
#
# 1 90.4499 9.8740 23.4519 -1.8988 -13.5316 -4.0056
# 2 9.8740 51.3653 6.5796 11.2424 -0.6895 8.0079
# 3 23.4519 6.5796 108.4533 3.1782 -15.7352 1.7276
# 4 -1.8988 11.2424 3.1782 29.2983 3.8638 -4.0294
# 5 -13.5316 -0.6895 -15.7352 3.8638 33.0819 -0.7264
# 6 -4.0056 8.0079 1.7276 -4.0294 -0.7264 21.2281
#
#
#
# Elastic Compliance Matrix: (Units=1/GPa)
#
#
# Indices 1 2 3 4 5 6 
#
# 1 0.012820 -0.003369 -0.002134 0.002445 0.003971 0.004464
# 2 -0.003369 0.024474 -0.000225 -0.011243 0.000075 -0.011981
# 3 -0.002134 -0.000225 0.010393 -0.001932 0.004261 -0.001384
# 4 0.002445 -0.011243 -0.001932 0.041152 -0.004685 0.012511
# 5 0.003971 0.000075 0.004261 -0.004685 0.034442 0.000664
# 6 0.004464 -0.011981 -0.001384 0.012511 0.000664 0.054979
#
#
# Mechanical properties :
#
#
# Convention : Reuss Voigt Hill
#
# Bulk Modulus (GPa) = 27.60111 36.67547 32.13829
# Shear Modulus (GPa) = 24.77770 30.74585 27.76178
#
# Velocity S-wave (km/s) = 3.33538 3.71542 3.53052
# Velocity P-wave (km/s) = 5.21780 5.90529 5.57216
#
# Compressibility (1/GPa) = 0.03623042
#
# Stress axis : x y z
#
# Youngs Moduli (GPa) = 78.00268 40.85887 96.22240
#
# Poissons Ratio (x) = 0.13764 0.20538
# Poissons Ratio (y) = 0.26277 0.02166
# Poissons Ratio (z) = 0.16649 0.00920
#
# Static dielectric constant tensor:
#      x y z
#    x 4.287470 0.154460 0.079830 
#    y 0.154460 3.768950 0.183830 
#    z 0.079830 0.183830 4.031230 
# 
# 
# High freq. dielectric constant tensor:
#      x y z
#    x 1.881760 0.006600 0.000580 
#    y 0.006600 1.856310 0.013140 
#    z 0.000580 0.013140 1.879370 
# 
# From -- ./inp_files/425710.got.cif
#   From: 2010.06.25/outbox.cif.g09.slc.cpg/sg2_213_cif.got.tgz:425710.got - 2010.06.27 13:26:56.
