data_PCOD8011530
_publ_section_title
;
Structure prediction by ZEFSAII (Michael W. Deem and Ramdas Pophale) SiO2 
 PCOD8011530
Probable space group: P -1
;
_chemical_formula_sum "Si O2"
_cell_formula_units_Z 16
_cell_length_a 6.280133
_cell_length_b 6.255004
_cell_length_c 18.536596
_cell_angle_alpha 83.411228
_cell_angle_beta 97.087060
_cell_angle_gamma 96.368772
_cell_volume 714.356604
_symmetry_space_group_name_H-M "P -1"
_symmetry_group_IT_number 2
_symmetry_cell_setting 'triclinic'
loop_
_space_group_symop_operation_xyz
x,y,z
-x,-y,-z
loop_
_atom_site_type_symbol
_atom_site_label
_atom_site_fract_x
_atom_site_fract_y
_atom_site_fract_z
Si Si1 0.245728 0.048778 0.914751
Si Si2 0.176848 0.113545 0.166650
Si Si3 0.080659 0.850347 0.709614
Si Si4 0.590158 0.713840 0.455681
Si Si5 0.437473 0.282321 0.046510
Si Si6 0.545869 0.825960 0.222104
Si Si7 0.623515 0.455878 0.335403
Si Si8 0.298934 0.079988 0.406031
O O1 0.380242 0.204339 0.856406
O O2 0.340124 0.816708 0.922987
O O3 0.277717 0.135428 0.993342
O O4 0.994744 0.024058 0.886285
O O5 0.310145 0.298423 0.116402
O O6 0.059427 0.225767 0.222635
O O7 0.329186 0.944681 0.213056
O O8 0.172121 0.639960 0.687968
O O9 0.933460 0.950614 0.639501
O O10 0.268626 0.032038 0.731448
O O11 0.500000 0.500000 0.500000
O O12 0.713129 0.627545 0.394678
O O13 0.736892 0.860488 0.513101
O O14 0.401084 0.852696 0.413755
O O15 0.500000 0.500000 0.000000
O O16 0.504733 0.588261 0.264465
O O17 0.453577 0.266977 0.365758
#
# Coordination Sequence:
#
# PCOD8011530 Si02
#       8
#     2   2   2   2   2   2   2   2
#     4   9  21  39  60  88 119 157 200 244 298 360
#     4  10  21  41  62  85 124 162 198 247 302 359
#     4  11  23  38  60  90 121 157 201 250 301 358
#     4   9  20  40  63  88 120 161 201 247 302 359
#     4  10  21  39  62  90 122 154 199 252 298 352
#     4  10  23  41  60  86 122 159 201 249 300 359
#     4  11  22  39  62  89 122 157 201 251 302 358
#     4  10  22  41  63  88 122 158 202 252 300 357
#
# _framework density 22.397777000000001
#
# number of rings (size 3 to 8) (size 9 to 14) (size 15 to 20)
#    0.000    2.000    0.000    2.625    0.000    9.000 
#    0.000   15.000    0.000    0.000    0.000    0.000 
#    0.000    0.000    0.000    0.000    0.000    0.000 
#
# Total GULP energy -198351.660276 kJ/mol
# GULP energy per Si atom -12396.978767 kJ/mol
# Density = 2.234680 g / cm^3
# Si number density = 22.397777 Si / 1000 Ang^3
#
#
#
# Elastic Constant Matrix: (Units=GPa)
#
#
# Indices 1 2 3 4 5 6 
#
# 1 116.6957 45.3689 59.3992 -2.3723 15.5104 -17.1032
# 2 45.3689 90.6033 48.3680 -24.1684 -7.1016 -19.8338
# 3 59.3992 48.3680 123.0143 -17.6866 8.6407 -19.6370
# 4 -2.3723 -24.1684 -17.6866 48.6902 2.2703 -5.7040
# 5 15.5104 -7.1016 8.6407 2.2703 45.6487 4.8543
# 6 -17.1032 -19.8338 -19.6370 -5.7040 4.8543 24.3540
#
#
#
# Elastic Compliance Matrix: (Units=1/GPa)
#
#
# Indices 1 2 3 4 5 6 
#
# 1 0.013686 -0.005291 -0.004309 -0.003064 -0.004723 0.002051
# 2 -0.005291 0.020945 -0.002262 0.010713 0.003535 0.013323
# 3 -0.004309 -0.002262 0.013021 0.004339 -0.002324 0.007110
# 4 -0.003064 0.010713 0.004339 0.029366 -0.001406 0.017229
# 5 -0.004723 0.003535 -0.002324 -0.001406 0.025390 -0.007703
# 6 0.002051 0.013323 0.007110 0.017229 -0.007703 0.064655
#
#
# Mechanical properties :
#
#
# Convention : Reuss Voigt Hill
#
# Bulk Modulus (GPa) = 41.79217 70.73174 56.26196
# Shear Modulus (GPa) = 25.15517 35.55038 30.35277
#
# Velocity S-wave (km/s) = 3.35492 3.98833 3.68526
# Velocity P-wave (km/s) = 5.80576 7.27031 6.57891
#
# Compressibility (1/GPa) = 0.02392793
#
# Stress axis : x y z
#
# Youngs Moduli (GPa) = 73.06673 47.74302 76.79644
#
# Poissons Ratio (x) = 0.25262 0.33095
# Poissons Ratio (y) = 0.38662 0.17370
# Poissons Ratio (z) = 0.31488 0.10799
#
# Static dielectric constant tensor:
#      x y z
#    x 3.871920 -0.199010 -0.033210 
#    y -0.199010 3.897060 0.186200 
#    z -0.033210 0.186200 4.786960 
# 
# 
# High freq. dielectric constant tensor:
#      x y z
#    x 1.865160 -0.010890 -0.002240 
#    y -0.010890 1.864390 -0.000720 
#    z -0.002240 -0.000720 1.916350 
# 
# From -- ./inp_files/122743.got.cif
#   From: 2010.06.25/outbox.cif.g09.slc.cpg/sg2_62_cif.got.tgz:122743.got - 2010.06.27 13:26:56.
