data_PCOD8011644
_publ_section_title
;
Structure prediction by ZEFSAII (Michael W. Deem and Ramdas Pophale) SiO2 
 PCOD8011644
Probable space group: P -1
;
_chemical_formula_sum "Si O2"
_cell_formula_units_Z 16
_cell_length_a 9.005040
_cell_length_b 8.173383
_cell_length_c 11.877314
_cell_angle_alpha 60.680996
_cell_angle_beta 100.439057
_cell_angle_gamma 96.977657
_cell_volume 749.048899
_symmetry_space_group_name_H-M "P -1"
_symmetry_group_IT_number 2
_symmetry_cell_setting 'triclinic'
loop_
_space_group_symop_operation_xyz
x,y,z
-x,-y,-z
loop_
_atom_site_type_symbol
_atom_site_label
_atom_site_fract_x
_atom_site_fract_y
_atom_site_fract_z
Si Si1 0.529859 0.320290 0.491747
Si Si2 0.228760 0.982261 0.339219
Si Si3 0.660844 0.648098 0.883538
Si Si4 0.153707 0.318801 0.881772
Si Si5 0.642335 0.349265 0.254202
Si Si6 0.886721 0.349507 0.980738
Si Si7 0.094954 0.039742 0.775390
Si Si8 0.749866 0.953560 0.432123
O O1 0.500000 0.500000 0.500000
O O2 0.659998 0.189940 0.603328
O O3 0.575506 0.396957 0.350132
O O4 0.373038 0.206112 0.501747
O O5 0.086271 0.948170 0.248297
O O6 0.314531 0.179504 0.257675
O O7 0.167089 0.994025 0.456133
O O8 0.479880 0.599457 0.876816
O O9 0.732869 0.458465 0.906943
O O10 0.732400 0.722849 0.985814
O O11 0.199909 0.531416 0.779587
O O12 0.178425 0.176273 0.831087
O O13 0.975147 0.293129 0.897946
O O14 0.667590 0.132534 0.314246
O O15 0.000000 0.500000 0.000000
O O16 0.857033 0.171168 0.117955
O O17 0.141774 0.107050 0.633594
#
# Coordination Sequence:
#
# PCOD8011644 Si02
#       8
#     2   2   2   2   2   2   2   2
#     4  11  23  43  65  96 127 161 206 267 321 360
#     4  11  22  42  68  92 123 170 210 253 312 379
#     4  11  21  42  67  93 121 170 217 248 308 378
#     4  11  24  40  62  94 132 165 201 265 315 359
#     4  11  22  43  66  91 126 167 216 254 304 381
#     4  10  21  39  63  90 125 169 207 247 306 375
#     4  12  24  42  62  96 134 161 206 265 313 363
#     4  11  22  43  67  92 123 170 212 255 309 377
#
# _framework density 21.360422
#
# number of rings (size 3 to 8) (size 9 to 14) (size 15 to 20)
#    0.000    1.000    5.000    4.125    0.000    1.000 
#    0.000    4.375    0.000    0.000    0.000    0.000 
#    0.000    0.000    0.000    0.000    0.000    0.000 
#
# Total GULP energy -198328.782098 kJ/mol
# GULP energy per Si atom -12395.548881 kJ/mol
# Density = 2.131181 g / cm^3
# Si number density = 21.360422 Si / 1000 Ang^3
#
#
#
# Elastic Constant Matrix: (Units=GPa)
#
#
# Indices 1 2 3 4 5 6 
#
# 1 50.8952 14.7909 13.8338 8.0140 8.5314 5.9362
# 2 14.7909 98.4206 40.5941 8.2526 10.1419 -8.2600
# 3 13.8338 40.5941 82.8611 -1.9011 1.1013 -1.6791
# 4 8.0140 8.2526 -1.9011 30.8654 -4.0029 -3.5838
# 5 8.5314 10.1419 1.1013 -4.0029 43.0285 -2.4926
# 6 5.9362 -8.2600 -1.6791 -3.5838 -2.4926 29.7785
#
#
#
# Elastic Compliance Matrix: (Units=1/GPa)
#
#
# Indices 1 2 3 4 5 6 
#
# 1 0.023907 -0.001545 -0.003471 -0.007488 -0.005374 -0.006741
# 2 -0.001545 0.013993 -0.006581 -0.003772 -0.002994 0.003114
# 3 -0.003471 -0.006581 0.015943 0.003982 0.002227 0.000431
# 4 -0.007488 -0.003772 0.003982 0.037035 0.006043 0.005634
# 5 -0.005374 -0.002994 0.002227 0.006043 0.025705 0.003245
# 6 -0.006741 0.003114 0.000431 0.005634 0.003245 0.036763
#
#
# Mechanical properties :
#
#
# Convention : Reuss Voigt Hill
#
# Bulk Modulus (GPa) = 32.62893 41.17939 36.90416
# Shear Modulus (GPa) = 26.77295 31.59836 29.18566
#
# Velocity S-wave (km/s) = 3.54417 3.85033 3.70042
# Velocity P-wave (km/s) = 5.66187 6.25196 5.96421
#
# Compressibility (1/GPa) = 0.03064765
#
# Stress axis : x y z
#
# Youngs Moduli (GPa) = 41.82900 71.46311 62.72540
#
# Poissons Ratio (x) = 0.11042 0.21774
# Poissons Ratio (y) = 0.06463 0.41280
# Poissons Ratio (z) = 0.14520 0.47030
#
# Static dielectric constant tensor:
#      x y z
#    x 4.633260 -0.037410 -0.499330 
#    y -0.037410 5.507620 -0.836180 
#    z -0.499330 -0.836180 4.447580 
# 
# 
# High freq. dielectric constant tensor:
#      x y z
#    x 1.836030 0.002430 -0.013400 
#    y 0.002430 1.828160 -0.007430 
#    z -0.013400 -0.007430 1.847240 
# 
# From -- ./inp_files/307430.got.cif
#   From: 2010.06.25/outbox.cif.g09.slc.cpg/sg2_154_cif.got.tgz:307430.got - 2010.06.27 13:26:56.
