data_PCOD8011650
_publ_section_title
;
Structure prediction by ZEFSAII (Michael W. Deem and Ramdas Pophale) SiO2 
 PCOD8011650
Probable space group: P -1
;
_chemical_formula_sum "Si O2"
_cell_formula_units_Z 16
_cell_length_a 18.746916
_cell_length_b 12.292606
_cell_length_c 5.245802
_cell_angle_alpha 65.916800
_cell_angle_beta 101.459172
_cell_angle_gamma 131.528350
_cell_volume 821.647951
_symmetry_space_group_name_H-M "P -1"
_symmetry_group_IT_number 2
_symmetry_cell_setting 'triclinic'
loop_
_space_group_symop_operation_xyz
x,y,z
-x,-y,-z
loop_
_atom_site_type_symbol
_atom_site_label
_atom_site_fract_x
_atom_site_fract_y
_atom_site_fract_z
Si Si1 0.838662 0.147177 0.755072
Si Si2 0.658830 0.524274 0.918001
Si Si3 0.293821 0.184839 0.197804
Si Si4 0.905300 0.322736 0.122756
Si Si5 0.578680 0.867764 0.351450
Si Si6 0.462224 0.372464 0.809497
Si Si7 0.362357 0.642026 0.462791
Si Si8 0.717156 0.192056 0.904910
O O1 0.902848 0.258472 0.457727
O O2 0.744636 0.130676 0.750932
O O3 0.802971 0.974880 0.833457
O O4 0.902464 0.219691 0.991183
O O5 0.727155 0.715546 0.752698
O O6 0.551143 0.455857 0.989127
O O7 0.655287 0.454577 0.710705
O O8 0.691629 0.473918 0.220960
O O9 0.352327 0.145660 0.426116
O O10 0.361607 0.311167 0.904101
O O11 0.812601 0.309866 0.034767
O O12 0.000000 0.500000 0.000000
O O13 0.558144 0.782635 0.151730
O O14 0.474454 0.781123 0.484112
O O15 0.632623 0.048835 0.158352
O O16 0.500000 0.500000 0.500000
O O17 0.313933 0.717514 0.321324
#
# Coordination Sequence:
#
# PCOD8011650 Si02
#       8
#     2   2   2   2   2   2   2   2
#     4  10  22  36  62  87 114 140 180 244 298 337
#     4  11  24  34  53  77 113 159 204 233 274 320
#     4  12  19  35  54  81 114 148 199 247 282 316
#     4  10  21  39  63  91 113 136 180 239 306 353
#     4  11  20  35  53  80 116 157 198 239 281 316
#     4  11  19  32  49  76 110 154 203 244 278 309
#     4  11  25  37  51  80 119 169 197 223 269 340
#     4  10  23  38  58  83 120 147 193 231 288 353
#
# _framework density 19.473057000000001
#
# number of rings (size 3 to 8) (size 9 to 14) (size 15 to 20)
#    0.750    0.500    5.000    2.625    1.750    0.000 
#    0.000    2.500    0.000    0.000    0.000    5.250 
#    0.000    0.000    0.000    0.000    0.000    0.000 
#
# Total GULP energy -198212.824479 kJ/mol
# GULP energy per Si atom -12388.301530 kJ/mol
# Density = 1.942874 g / cm^3
# Si number density = 19.473057 Si / 1000 Ang^3
#
#
#
# Elastic Constant Matrix: (Units=GPa)
#
#
# Indices 1 2 3 4 5 6 
#
# 1 26.7400 24.5503 15.2902 -9.2590 5.6605 -1.9707
# 2 24.5503 129.6991 40.0680 -13.6343 -4.4146 4.7677
# 3 15.2902 40.0680 117.5715 -2.5700 -2.8057 -4.5471
# 4 -9.2590 -13.6343 -2.5700 28.6890 -3.2774 0.7823
# 5 5.6605 -4.4146 -2.8057 -3.2774 28.7811 -4.6392
# 6 -1.9707 4.7677 -4.5471 0.7823 -4.6392 17.9886
#
#
#
# Elastic Compliance Matrix: (Units=1/GPa)
#
#
# Indices 1 2 3 4 5 6 
#
# 1 0.053767 -0.008177 -0.004042 0.011828 -0.010251 0.003878
# 2 -0.008177 0.010545 -0.002556 0.002550 0.002660 -0.003762
# 3 -0.004042 -0.002556 0.010038 -0.001511 0.001739 0.003286
# 4 0.011828 0.002550 -0.001511 0.040041 0.002332 -0.000902
# 5 -0.010251 0.002660 0.001739 0.002332 0.038985 0.008564
# 6 0.003878 -0.003762 0.003286 -0.000902 0.008564 0.060091
#
#
# Mechanical properties :
#
#
# Convention : Reuss Voigt Hill
#
# Bulk Modulus (GPa) = 22.32185 48.20307 35.26246
# Shear Modulus (GPa) = 19.38366 28.03189 23.70777
#
# Velocity S-wave (km/s) = 3.15843 3.79822 3.49300
# Velocity P-wave (km/s) = 4.97883 6.63647 5.86649
#
# Compressibility (1/GPa) = 0.04479915
#
# Stress axis : x y z
#
# Youngs Moduli (GPa) = 18.59883 94.83602 99.62259
#
# Poissons Ratio (x) = 0.77545 0.40266
# Poissons Ratio (y) = 0.15208 0.25468
# Poissons Ratio (z) = 0.07517 0.24244
#
# Static dielectric constant tensor:
#      x y z
#    x 3.199490 -0.119670 0.000760 
#    y -0.119670 3.737540 0.014110 
#    z 0.000760 0.014110 3.558370 
# 
# 
# High freq. dielectric constant tensor:
#      x y z
#    x 1.689320 -0.016670 -0.003330 
#    y -0.016670 1.770130 0.001920 
#    z -0.003330 0.001920 1.766710 
# 
# From -- ./inp_files/118073.got.cif
#   From: 2010.06.25/outbox.cif.g09.slc.cpg/sg2_60_cif.got.tgz:118073.got - 2010.06.27 13:26:56.
