data_PCOD8011561
_publ_section_title
;
Structure prediction by ZEFSAII (Michael W. Deem and Ramdas Pophale) SiO2 
 PCOD8011561
Probable space group: P -1
;
_chemical_formula_sum "Si O2"
_cell_formula_units_Z 14
_cell_length_a 13.789173
_cell_length_b 14.163453
_cell_length_c 9.959401
_cell_angle_alpha 106.198573
_cell_angle_beta 55.711932
_cell_angle_gamma 150.685039
_cell_volume 669.834484
_symmetry_space_group_name_H-M "P -1"
_symmetry_group_IT_number 2
_symmetry_cell_setting 'triclinic'
loop_
_space_group_symop_operation_xyz
x,y,z
-x,-y,-z
loop_
_atom_site_type_symbol
_atom_site_label
_atom_site_fract_x
_atom_site_fract_y
_atom_site_fract_z
Si Si1 0.561885 0.876427 0.743532
Si Si2 0.607238 0.079009 0.297167
Si Si3 0.321713 0.333729 0.804243
Si Si4 0.797939 0.862221 0.911917
Si Si5 0.636369 0.951383 0.009095
Si Si6 0.110225 0.184105 0.427205
Si Si7 0.131013 0.394848 0.929019
O O1 0.511364 0.884568 0.934804
O O2 0.876942 0.089009 0.566551
O O3 0.473158 0.881653 0.697697
O O4 0.386891 0.645875 0.772431
O O5 0.500000 0.000000 0.500000
O O6 0.488614 0.898089 0.227118
O O7 0.935030 0.316064 0.142738
O O8 0.629381 0.573375 0.601531
O O9 0.223217 0.369815 0.933703
O O10 0.317311 0.258639 0.904722
O O11 0.116305 0.132712 0.775886
O O12 0.774259 0.753393 0.785762
O O13 0.617003 0.818794 0.988876
O O14 0.952595 0.222770 0.872546
O O15 0.000000 0.000000 0.500000
#
# Coordination Sequence:
#
# PCOD8011561 Si02
#       7
#     2   2   2   2   2   2   2
#     4  12  22  41  65  90 127 166 199 259 309 372
#     4  10  24  43  65  88 120 162 216 258 302 365
#     4  10  21  39  62  92 127 166 196 253 314 364
#     4  10  21  39  63  89 130 163 199 253 310 366
#     4   9  21  40  65  88 123 162 206 251 307 368
#     4  12  23  35  61  98 124 155 208 247 309 371
#     4   9  21  39  66  85 125 164 206 247 315 365
#
# _framework density 20.900686
#
# number of rings (size 3 to 8) (size 9 to 14) (size 15 to 20)
#    0.857    0.857    2.857    1.286    2.000    1.714 
#    0.000    0.714    0.000    0.000    0.000    0.000 
#    0.000    0.000    0.000    0.000    0.000    0.000 
#
# Total GULP energy -173474.089033 kJ/mol
# GULP energy per Si atom -12391.006359 kJ/mol
# Density = 2.085311 g / cm^3
# Si number density = 20.900686 Si / 1000 Ang^3
#
#
#
# Elastic Constant Matrix: (Units=GPa)
#
#
# Indices 1 2 3 4 5 6 
#
# 1 110.6384 22.1717 44.0502 -1.7778 3.8449 -8.0134
# 2 22.1717 66.2509 14.7375 -4.7930 4.3559 -7.3958
# 3 44.0502 14.7375 69.7298 -3.3142 -7.1814 -3.0631
# 4 -1.7778 -4.7930 -3.3142 43.9737 6.8889 -1.9401
# 5 3.8449 4.3559 -7.1814 6.8889 38.4535 4.7098
# 6 -8.0134 -7.3958 -3.0631 -1.9401 4.7098 22.5570
#
#
#
# Elastic Compliance Matrix: (Units=1/GPa)
#
#
# Indices 1 2 3 4 5 6 
#
# 1 0.012947 -0.001952 -0.007908 0.000349 -0.003048 0.003552
# 2 -0.001952 0.017293 -0.002407 0.002390 -0.003321 0.005549
# 3 -0.007908 -0.002407 0.020288 0.000069 0.005072 -0.001896
# 4 0.000349 0.002390 0.000069 0.023996 -0.005087 0.004043
# 5 -0.003048 -0.003321 0.005072 -0.005087 0.029535 -0.008087
# 6 0.003552 0.005549 -0.001896 0.004043 -0.008087 0.049192
#
#
# Mechanical properties :
#
#
# Convention : Reuss Voigt Hill
#
# Bulk Modulus (GPa) = 38.46806 45.39311 41.93058
# Shear Modulus (GPa) = 26.81712 32.04082 29.42897
#
# Velocity S-wave (km/s) = 3.58589 3.91961 3.75645
# Velocity P-wave (km/s) = 5.96573 6.50000 6.23859
#
# Compressibility (1/GPa) = 0.02599559
#
# Stress axis : x y z
#
# Youngs Moduli (GPa) = 77.23974 57.82581 49.29143
#
# Poissons Ratio (x) = 0.11285 0.38978
# Poissons Ratio (y) = 0.15074 0.11863
# Poissons Ratio (z) = 0.61078 0.13917
#
# Static dielectric constant tensor:
#      x y z
#    x 3.736180 0.079910 -0.134050 
#    y 0.079910 3.921510 -0.027770 
#    z -0.134050 -0.027770 3.580720 
# 
# 
# High freq. dielectric constant tensor:
#      x y z
#    x 1.823150 0.002470 -0.006590 
#    y 0.002470 1.818580 -0.005190 
#    z -0.006590 -0.005190 1.790170 
# 
# From -- ./inp_files/425942.got.cif
#   From: 2010.06.25/outbox.cif.g09.slc.cpg/sg2_213_cif.got.tgz:425942.got - 2010.06.27 13:26:56.
