data_PCOD8011272
_publ_section_title
;
Structure prediction by ZEFSAII (Michael W. Deem and Ramdas Pophale) SiO2 
 PCOD8011272
Probable space group: P -1
;
_chemical_formula_sum "Si O2"
_cell_formula_units_Z 16
_cell_length_a 6.862923
_cell_length_b 14.602816
_cell_length_c 11.337054
_cell_angle_alpha 48.535134
_cell_angle_beta 107.849789
_cell_angle_gamma 90.063549
_cell_volume 777.294629
_symmetry_space_group_name_H-M "P -1"
_symmetry_group_IT_number 2
_symmetry_cell_setting 'triclinic'
loop_
_space_group_symop_operation_xyz
x,y,z
-x,-y,-z
loop_
_atom_site_type_symbol
_atom_site_label
_atom_site_fract_x
_atom_site_fract_y
_atom_site_fract_z
Si Si1 0.672607 0.293212 0.732046
Si Si2 0.365740 0.655559 0.697590
Si Si3 0.579057 0.983140 0.720312
Si Si4 0.111190 0.859031 0.306013
Si Si5 0.351357 0.948872 0.931886
Si Si6 0.340898 0.452404 0.363789
Si Si7 0.318922 0.190651 0.319491
Si Si8 0.989826 0.403079 0.183343
O O1 0.863272 0.228304 0.731890
O O2 0.450435 0.347807 0.572449
O O3 0.729577 0.407025 0.714684
O O4 0.654872 0.189939 0.911933
O O5 0.178440 0.770410 0.508670
O O6 0.490773 0.557883 0.703469
O O7 0.533941 0.713296 0.747137
O O8 0.252257 0.582273 0.831153
O O9 0.444148 0.929897 0.834260
O O10 0.712789 0.864843 0.766907
O O11 0.735052 0.049863 0.759254
O O12 0.415700 0.080612 0.523651
O O13 0.874276 0.945949 0.201426
O O14 0.500000 0.000000 0.000000
O O15 0.128220 0.421388 0.306411
O O16 0.086349 0.263737 0.263632
O O17 0.000000 0.500000 0.000000
#
# Coordination Sequence:
#
# PCOD8011272 Si02
#       8
#     2   2   2   2   2   2   2   2
#     4  10  21  41  60  85 124 162 195 250 291 356
#     4   9  20  39  64  84 116 157 194 249 297 356
#     4  10  21  39  60  88 119 160 193 243 300 355
#     4  10  21  39  58  87 121 156 198 237 301 365
#     4  12  24  35  60  92 121 156 195 250 302 347
#     4   9  22  43  59  84 121 160 205 241 296 358
#     4   9  21  40  61  84 122 155 198 243 295 361
#     4  11  23  38  60  88 113 154 202 254 301 345
#
# _framework density 20.584215
#
# number of rings (size 3 to 8) (size 9 to 14) (size 15 to 20)
#    0.000    2.000    1.250    1.875    1.750    6.000 
#    2.250    5.625    0.000    0.000    0.000    0.000 
#    0.000    0.000    0.000    0.000    0.000    0.000 
#
# Total GULP energy -198422.363892 kJ/mol
# GULP energy per Si atom -12401.397743 kJ/mol
# Density = 2.053736 g / cm^3
# Si number density = 20.584215 Si / 1000 Ang^3
#
#
#
# Elastic Constant Matrix: (Units=GPa)
#
#
# Indices 1 2 3 4 5 6 
#
# 1 65.4667 17.4872 5.3974 5.9082 -13.2062 -15.8307
# 2 17.4872 136.1545 15.2285 -11.2134 -0.7643 -18.8953
# 3 5.3974 15.2285 27.1253 2.9474 -7.4988 -0.5577
# 4 5.9082 -11.2134 2.9474 16.8783 -4.2691 -3.3067
# 5 -13.2062 -0.7643 -7.4988 -4.2691 32.2706 0.5736
# 6 -15.8307 -18.8953 -0.5577 -3.3067 0.5736 20.8641
#
#
#
# Elastic Compliance Matrix: (Units=1/GPa)
#
#
# Indices 1 2 3 4 5 6 
#
# 1 0.020854 -0.000753 -0.001005 -0.002859 0.007648 0.014451
# 2 -0.000753 0.010491 -0.006775 0.010340 -0.000451 0.010400
# 3 -0.001005 -0.006775 0.044245 -0.011277 0.008355 -0.007732
# 4 -0.002859 0.010340 -0.011277 0.074214 0.005943 0.018492
# 5 0.007648 -0.000451 0.008355 0.005943 0.036736 0.005550
# 6 0.014451 0.010400 -0.007732 0.018492 0.005550 0.070884
#
#
# Mechanical properties :
#
#
# Convention : Reuss Voigt Hill
#
# Bulk Modulus (GPa) = 17.08639 33.88586 25.48613
# Shear Modulus (GPa) = 17.00688 26.71148 21.85918
#
# Velocity S-wave (km/s) = 2.87750 3.60622 3.26228
# Velocity P-wave (km/s) = 4.39986 5.81701 5.15734
#
# Compressibility (1/GPa) = 0.05852610
#
# Stress axis : x y z
#
# Youngs Moduli (GPa) = 47.95220 95.31584 22.60119
#
# Poissons Ratio (x) = 0.07179 0.02271
# Poissons Ratio (y) = 0.03612 0.15311
# Poissons Ratio (z) = 0.04818 0.64572
#
# Static dielectric constant tensor:
#      x y z
#    x 3.610740 -0.087820 -0.001580 
#    y -0.087820 3.986320 -0.013420 
#    z -0.001580 -0.013420 3.672480 
# 
# 
# High freq. dielectric constant tensor:
#      x y z
#    x 1.788880 -0.010220 0.001200 
#    y -0.010220 1.812050 -0.001660 
#    z 0.001200 -0.001660 1.809290 
# 
# From -- ./inp_files/66466.got.cif
#   From: 2010.06.25/outbox.cif.g09.slc.cpg/sg2_34_cif.got.tgz:66466.got - 2010.06.27 13:26:56.
