data_PCOD8011854
_publ_section_title
;
Structure prediction by ZEFSAII (Michael W. Deem and Ramdas Pophale) SiO2 
 PCOD8011854
Probable space group: P -1
;
_chemical_formula_sum "Si O2"
_cell_formula_units_Z 16
_cell_length_a 8.133389
_cell_length_b 21.450945
_cell_length_c 9.437473
_cell_angle_alpha 152.987153
_cell_angle_beta 97.079992
_cell_angle_gamma 82.537196
_cell_volume 741.406183
_symmetry_space_group_name_H-M "P -1"
_symmetry_group_IT_number 2
_symmetry_cell_setting 'triclinic'
loop_
_space_group_symop_operation_xyz
x,y,z
-x,-y,-z
loop_
_atom_site_type_symbol
_atom_site_label
_atom_site_fract_x
_atom_site_fract_y
_atom_site_fract_z
Si Si1 0.639765 0.646299 0.696216
Si Si2 0.345783 0.683976 0.361688
Si Si3 0.675406 0.954730 0.379284
Si Si4 0.707021 0.614592 0.331037
Si Si5 0.269271 0.608221 0.641991
Si Si6 0.039888 0.012844 0.361013
Si Si7 0.051189 0.736934 0.643968
Si Si8 0.229846 0.798855 0.294249
O O1 0.713060 0.576797 0.420972
O O2 0.440258 0.655563 0.688608
O O3 0.710195 0.553655 0.646814
O O4 0.706105 0.797658 0.018332
O O5 0.536191 0.709248 0.480917
O O6 0.200266 0.758129 0.590366
O O7 0.339802 0.739288 0.312733
O O8 0.307703 0.522915 0.040683
O O9 0.500000 0.000000 0.500000
O O10 0.763843 0.977409 0.587202
O O11 0.717498 0.049402 0.441519
O O12 0.881909 0.681572 0.443959
O O13 0.120956 0.633694 0.565956
O O14 0.231623 0.693913 0.952996
O O15 0.994765 0.883436 0.999952
O O16 0.000000 0.000000 0.500000
O O17 0.957258 0.157182 0.584140
#
# Coordination Sequence:
#
# PCOD8011854 Si02
#       8
#     2   2   2   2   2   2   2   2
#     4  11  22  39  67 106 130 176 231 276 341 402
#     4  11  26  46  64  97 144 181 224 276 336 405
#     4  11  21  39  66  99 136 170 217 279 341 392
#     4  11  24  42  70  96 138 182 225 279 338 404
#     4  11  22  40  71 100 136 171 227 294 334 389
#     4  10  21  39  64  94 134 166 218 282 333 393
#     4  12  23  45  70  99 138 179 224 280 346 396
#     4  11  22  44  65  96 137 178 215 286 338 390
#
# _framework density 21.580614000000001
#
# number of rings (size 3 to 8) (size 9 to 14) (size 15 to 20)
#    0.000    1.000    6.250    1.875    0.000    2.000 
#    2.250    2.500    0.000    0.000    0.000    0.000 
#    0.000    0.000    0.000    0.000    0.000    0.000 
#
# Total GULP energy -198231.388461 kJ/mol
# GULP energy per Si atom -12389.461779 kJ/mol
# Density = 2.153150 g / cm^3
# Si number density = 21.580614 Si / 1000 Ang^3
#
#
#
# Elastic Constant Matrix: (Units=GPa)
#
#
# Indices 1 2 3 4 5 6 
#
# 1 127.3829 24.9484 24.3609 0.5112 1.0491 -14.8797
# 2 24.9484 75.0037 10.7053 3.5848 5.2708 -5.3088
# 3 24.3609 10.7053 92.4003 7.2895 -2.0192 5.2963
# 4 0.5112 3.5848 7.2895 28.9392 -0.3136 -0.8204
# 5 1.0491 5.2708 -2.0192 -0.3136 36.2641 -2.1107
# 6 -14.8797 -5.3088 5.2963 -0.8204 -2.1107 23.1073
#
#
#
# Elastic Compliance Matrix: (Units=1/GPa)
#
#
# Indices 1 2 3 4 5 6 
#
# 1 0.009562 -0.002424 -0.002671 0.000985 0.000301 0.006276
# 2 -0.002424 0.014635 -0.001089 -0.001466 -0.002025 0.001814
# 3 -0.002671 -0.001089 0.012180 -0.003016 0.000608 -0.004814
# 4 0.000985 -0.001466 -0.003016 0.035549 0.000457 0.002293
# 5 0.000301 -0.002025 0.000608 0.000457 0.028025 0.002165
# 6 0.006276 0.001814 -0.004814 0.002293 0.002165 0.049117
#
#
# Mechanical properties :
#
#
# Convention : Reuss Voigt Hill
#
# Bulk Modulus (GPa) = 41.64979 46.09065 43.87022
# Shear Modulus (GPa) = 29.50910 33.31361 31.41136
#
# Velocity S-wave (km/s) = 3.70183 3.93323 3.81929
# Velocity P-wave (km/s) = 6.13294 6.48313 6.31046
#
# Compressibility (1/GPa) = 0.02400973
#
# Stress axis : x y z
#
# Youngs Moduli (GPa) = 104.57551 68.32903 82.10169
#
# Poissons Ratio (x) = 0.16560 0.21931
# Poissons Ratio (y) = 0.25344 0.08943
# Poissons Ratio (z) = 0.27934 0.07442
#
# Static dielectric constant tensor:
#      x y z
#    x 4.511820 -0.528700 0.933310 
#    y -0.528700 3.955130 -0.130050 
#    z 0.933310 -0.130050 0.013280 
# 
# 
# High freq. dielectric constant tensor:
#      x y z
#    x 1.864360 -0.018290 -0.016220 
#    y -0.018290 1.826460 0.000320 
#    z -0.016220 0.000320 1.844180 
# 
# From -- ./inp_files/224382.got.cif
#   From: 2010.06.25/outbox.cif.g09.slc.cpg/sg2_113_cif.got.tgz:224382.got - 2010.06.27 13:26:56.
