data_PCOD8011488
_publ_section_title
;
Structure prediction by ZEFSAII (Michael W. Deem and Ramdas Pophale) SiO2 
 PCOD8011488
Probable space group: P -1
;
_chemical_formula_sum "Si O2"
_cell_formula_units_Z 12
_cell_length_a 11.760564
_cell_length_b 8.845499
_cell_length_c 10.087069
_cell_angle_alpha 43.325600
_cell_angle_beta 56.621335
_cell_angle_gamma 48.158827
_cell_volume 532.054322
_symmetry_space_group_name_H-M "P -1"
_symmetry_group_IT_number 2
_symmetry_cell_setting 'triclinic'
loop_
_space_group_symop_operation_xyz
x,y,z
-x,-y,-z
loop_
_atom_site_type_symbol
_atom_site_label
_atom_site_fract_x
_atom_site_fract_y
_atom_site_fract_z
Si Si1 0.607467 0.616823 0.901320
Si Si2 0.649873 0.884583 0.238721
Si Si3 0.148692 0.836447 0.094271
Si Si4 0.745267 0.643857 0.058747
Si Si5 0.900755 0.449527 0.488829
Si Si6 0.017192 0.230827 0.286470
O O1 0.769887 0.449848 0.831432
O O2 0.635318 0.603026 0.050942
O O3 0.521892 0.914035 0.731816
O O4 0.500000 0.500000 0.000000
O O5 0.728725 0.681902 0.433680
O O6 0.644359 0.758685 0.182659
O O7 0.744001 0.035542 0.055225
O O8 0.108627 0.799055 0.296256
O O9 0.000000 0.000000 0.000000
O O10 0.814852 0.822736 0.841536
O O11 0.888784 0.372250 0.166829
O O12 0.000000 0.500000 0.500000
O O13 0.982072 0.414600 0.317438
O O14 0.000000 0.000000 0.500000
#
# Coordination Sequence:
#
# PCOD8011488 Si02
#       6
#     2   2   2   2   2   2
#     4  10  23  40  62  90 121 168 199 248 311 357
#     4  10  22  40  59  88 122 161 200 249 302 360
#     4  11  22  37  62  87 121 157 200 250 299 355
#     4  10  21  39  62  86 125 158 205 246 304 361
#     4  11  21  35  59  89 119 156 202 247 297 353
#     4  10  22  35  60  95 119 156 200 256 301 350
#
# _framework density 22.554088
#
# number of rings (size 3 to 8) (size 9 to 14) (size 15 to 20)
#    0.000    1.667    1.667    2.500    7.000    0.667 
#    0.000    3.333    0.000   12.000    0.000    0.000 
#    0.000    0.000    0.000    0.000    0.000    0.000 
#
# Total GULP energy -148714.957771 kJ/mol
# GULP energy per Si atom -12392.913148 kJ/mol
# Density = 2.250275 g / cm^3
# Si number density = 22.554088 Si / 1000 Ang^3
#
#
#
# Elastic Constant Matrix: (Units=GPa)
#
#
# Indices 1 2 3 4 5 6 
#
# 1 110.4092 24.3283 32.5871 -8.4697 30.5001 9.5494
# 2 24.3283 85.2666 13.2701 -10.4144 21.3087 -16.8720
# 3 32.5871 13.2701 125.4466 -18.8248 14.8425 -5.2479
# 4 -8.4697 -10.4144 -18.8248 27.6710 1.6113 3.9399
# 5 30.5001 21.3087 14.8425 1.6113 44.6820 -1.2545
# 6 9.5494 -16.8720 -5.2479 3.9399 -1.2545 29.5079
#
#
#
# Elastic Compliance Matrix: (Units=1/GPa)
#
#
# Indices 1 2 3 4 5 6 
#
# 1 0.013073 -0.002550 -0.002093 0.003008 -0.007311 -0.006774
# 2 -0.002550 0.016353 0.000807 0.004949 -0.006240 0.009393
# 3 -0.002093 0.000807 0.009709 0.006127 -0.002347 0.001947
# 4 0.003008 0.004949 0.006127 0.044031 -0.008128 -0.003279
# 5 -0.007311 -0.006240 -0.002347 -0.008128 0.031442 0.000802
# 6 -0.006774 0.009393 0.001947 -0.003279 0.000802 0.042270
#
#
# Mechanical properties :
#
#
# Convention : Reuss Voigt Hill
#
# Bulk Modulus (GPa) = 31.78581 51.27705 41.53143
# Shear Modulus (GPa) = 28.56528 37.10130 32.83329
#
# Velocity S-wave (km/s) = 3.56269 4.06025 3.81958
# Velocity P-wave (km/s) = 5.57202 6.69069 6.15681
#
# Compressibility (1/GPa) = 0.03146058
#
# Stress axis : x y z
#
# Youngs Moduli (GPa) = 76.49257 61.15266 103.00187
#
# Poissons Ratio (x) = 0.15595 0.21561
# Poissons Ratio (y) = 0.19507 -0.08307
# Poissons Ratio (z) = 0.16012 -0.04932
#
# Static dielectric constant tensor:
#      x y z
#    x 4.246550 -0.327540 0.236240 
#    y -0.327540 4.962650 0.027080 
#    z 0.236240 0.027080 4.328170 
# 
# 
# High freq. dielectric constant tensor:
#      x y z
#    x 1.879860 0.005980 0.024280 
#    y 0.005980 1.898590 -0.005320 
#    z 0.024280 -0.005320 1.881630 
# 
# From -- ./inp_files/94184.got.cif
#   From: 2010.06.25/outbox.cif.g09.slc.cpg/sg2_48_cif.got.tgz:94184.got - 2010.06.27 13:26:56.
