data_PCOD8011873
_publ_section_title
;
Structure prediction by ZEFSAII (Michael W. Deem and Ramdas Pophale) SiO2 
 PCOD8011873
Probable space group: P -1
;
_chemical_formula_sum "Si O2"
_cell_formula_units_Z 16
_cell_length_a 9.913915
_cell_length_b 6.518921
_cell_length_c 18.388518
_cell_angle_alpha 96.726634
_cell_angle_beta 37.863318
_cell_angle_gamma 88.948132
_cell_volume 712.328437
_symmetry_space_group_name_H-M "P -1"
_symmetry_group_IT_number 2
_symmetry_cell_setting 'triclinic'
loop_
_space_group_symop_operation_xyz
x,y,z
-x,-y,-z
loop_
_atom_site_type_symbol
_atom_site_label
_atom_site_fract_x
_atom_site_fract_y
_atom_site_fract_z
Si Si1 0.754248 0.939186 0.870737
Si Si2 0.035456 0.553335 0.370486
Si Si3 0.671787 0.118700 0.767919
Si Si4 0.950555 0.746451 0.182043
Si Si5 0.234769 0.848862 0.787191
Si Si6 0.715234 0.764567 0.631952
Si Si7 0.746542 0.459280 0.361981
Si Si8 0.822510 0.687718 0.966980
O O1 0.831238 0.725609 0.875870
O O2 0.761153 0.930435 0.779675
O O3 0.883252 0.123192 0.845737
O O4 0.500000 0.000000 0.000000
O O5 0.841392 0.717772 0.500073
O O6 0.925047 0.423969 0.351277
O O7 0.198610 0.689800 0.268788
O O8 0.178593 0.401562 0.360507
O O9 0.719809 0.004477 0.664798
O O10 0.408893 0.212911 0.893115
O O11 0.788764 0.655686 0.303369
O O12 0.108542 0.561842 0.061797
O O13 0.788183 0.899323 0.202238
O O14 0.456540 0.745656 0.731287
O O15 0.232018 0.752602 0.702797
O O16 0.019785 0.798016 0.921079
O O17 0.500000 0.500000 0.500000
#
# Coordination Sequence:
#
# PCOD8011873 Si02
#       8
#     2   2   2   2   2   2   2   2
#     4   9  19  35  60  96 129 161 208 268 324 379
#     4  11  25  45  67  95 130 177 218 273 325 386
#     4  11  23  40  66  97 131 175 215 262 336 394
#     4  10  21  39  64  95 133 164 215 274 325 384
#     4  10  23  44  64 100 131 175 212 273 325 388
#     4  11  26  45  64  92 138 173 220 269 321 393
#     4  11  22  42  70  96 127 169 229 274 326 380
#     4   9  22  40  65  99 133 168 214 271 327 391
#
# _framework density 22.461549999999999
#
# number of rings (size 3 to 8) (size 9 to 14) (size 15 to 20)
#    0.000    1.750    2.500    0.375    5.250    8.000 
#    2.250    1.250    0.000    0.000    0.000    0.000 
#    0.000    0.000    0.000    0.000    0.000    0.000 
#
# Total GULP energy -198276.220567 kJ/mol
# GULP energy per Si atom -12392.263785 kJ/mol
# Density = 2.241043 g / cm^3
# Si number density = 22.461550 Si / 1000 Ang^3
#
#
#
# Elastic Constant Matrix: (Units=GPa)
#
#
# Indices 1 2 3 4 5 6 
#
# 1 89.2066 23.2910 18.0898 6.7240 -24.5874 0.3071
# 2 23.2910 108.9748 30.5024 8.1643 -9.0111 -3.6179
# 3 18.0898 30.5024 90.8811 -3.8247 -28.2602 -7.5874
# 4 6.7240 8.1643 -3.8247 35.1843 3.7422 -2.9635
# 5 -24.5874 -9.0111 -28.2602 3.7422 40.3627 4.2313
# 6 0.3071 -3.6179 -7.5874 -2.9635 4.2313 26.9788
#
#
#
# Elastic Compliance Matrix: (Units=1/GPa)
#
#
# Indices 1 2 3 4 5 6 
#
# 1 0.014504 -0.002276 0.000399 -0.003355 0.009144 -0.002161
# 2 -0.002276 0.010754 -0.003643 -0.002277 -0.001368 0.000408
# 3 0.000399 -0.003643 0.015490 0.001614 0.009864 0.002494
# 4 -0.003355 -0.002277 0.001614 0.030629 -0.004711 0.004290
# 5 0.009144 -0.001368 0.009864 -0.004711 0.037798 -0.003959
# 6 -0.002161 0.000408 0.002494 0.004290 -0.003959 0.038939
#
#
# Mechanical properties :
#
#
# Convention : Reuss Voigt Hill
#
# Bulk Modulus (GPa) = 33.66274 48.09210 40.87742
# Shear Modulus (GPa) = 29.57582 34.98379 32.27980
#
# Velocity S-wave (km/s) = 3.63262 3.95079 3.79504
# Velocity P-wave (km/s) = 5.71086 6.50146 6.11894
#
# Compressibility (1/GPa) = 0.02970643
#
# Stress axis : x y z
#
# Youngs Moduli (GPa) = 68.94733 92.99209 64.55661
#
# Poissons Ratio (x) = 0.21163 -0.02573
# Poissons Ratio (y) = 0.15691 0.23521
# Poissons Ratio (z) = -0.02748 0.33881
#
# Static dielectric constant tensor:
#      x y z
#    x 6.308820 -0.796690 -1.626500 
#    y -0.796690 4.215150 0.557020 
#    z -1.626500 0.557020 5.231430 
# 
# 
# High freq. dielectric constant tensor:
#      x y z
#    x 1.883360 -0.000170 -0.017530 
#    y -0.000170 1.879980 0.007910 
#    z -0.017530 0.007910 1.896670 
# 
# From -- ./inp_files/609195.got.cif
#   From: 2010.06.25/outbox.cif.g09.slc.cpg/sg2_305_cif.got.tgz:609195.got - 2010.06.27 13:26:56.
