data_PCOD8011266
_publ_section_title
;
Structure prediction by ZEFSAII (Michael W. Deem and Ramdas Pophale) SiO2 
 PCOD8011266
Probable space group: P -1
;
_chemical_formula_sum "Si O2"
_cell_formula_units_Z 14
_cell_length_a 9.280578
_cell_length_b 16.771327
_cell_length_c 6.814173
_cell_angle_alpha 123.221849
_cell_angle_beta 48.421483
_cell_angle_gamma 107.906922
_cell_volume 661.036198
_symmetry_space_group_name_H-M "P -1"
_symmetry_group_IT_number 2
_symmetry_cell_setting 'triclinic'
loop_
_space_group_symop_operation_xyz
x,y,z
-x,-y,-z
loop_
_atom_site_type_symbol
_atom_site_label
_atom_site_fract_x
_atom_site_fract_y
_atom_site_fract_z
Si Si1 0.684055 0.414514 0.040308
Si Si2 0.582510 0.131939 0.631390
Si Si3 0.087738 0.297216 0.425653
Si Si4 0.002871 0.911681 0.730620
Si Si5 0.631686 0.993126 0.061677
Si Si6 0.589440 0.668142 0.083051
Si Si7 0.623744 0.630251 0.442429
O O1 0.728671 0.523354 0.184185
O O2 0.581998 0.371239 0.264010
O O3 0.531843 0.417814 0.999560
O O4 0.882109 0.353462 0.728458
O O5 0.420358 0.082825 0.829178
O O6 0.519520 0.242603 0.814020
O O7 0.775328 0.113643 0.569292
O O8 0.617317 0.093770 0.325008
O O9 0.064513 0.186410 0.249051
O O10 0.229032 0.305485 0.495210
O O11 0.187539 0.343348 0.208134
O O12 0.853012 0.952694 0.749653
O O13 0.000000 0.000000 0.000000
O O14 0.500000 0.000000 0.000000
O O15 0.580684 0.679156 0.337694
#
# Coordination Sequence:
#
# PCOD8011266 Si02
#       7
#     2   2   2   2   2   2   2
#     4  10  22  43  62  90 129 161 200 258 309 363
#     4  10  21  39  58  84 122 157 198 254 299 363
#     4  11  22  40  64  90 125 162 206 257 302 364
#     4  10  21  40  60  86 124 161 197 251 306 354
#     4  10  22  38  62  84 116 156 205 251 304 355
#     4  11  22  38  65  91 123 163 204 249 310 365
#     4  10  24  40  64  94 123 160 208 254 307 366
#
# _framework density 21.178871000000001
#
# number of rings (size 3 to 8) (size 9 to 14) (size 15 to 20)
#    0.000    1.714    2.857    0.857    2.000    2.286 
#    0.000    1.429    0.000    0.000    0.000    0.000 
#    0.000    0.000    0.000    0.000    0.000    0.000 
#
# Total GULP energy -173480.145503 kJ/mol
# GULP energy per Si atom -12391.438965 kJ/mol
# Density = 2.113067 g / cm^3
# Si number density = 21.178871 Si / 1000 Ang^3
#
#
#
# Elastic Constant Matrix: (Units=GPa)
#
#
# Indices 1 2 3 4 5 6 
#
# 1 115.5579 33.1564 53.7896 -1.9456 -7.7084 0.8461
# 2 33.1564 76.7597 34.9506 14.2428 -0.9256 10.3191
# 3 53.7896 34.9506 102.9326 0.0219 -16.6485 -6.9853
# 4 -1.9456 14.2428 0.0219 25.3083 -3.8460 2.9968
# 5 -7.7084 -0.9256 -16.6485 -3.8460 43.9024 1.8448
# 6 0.8461 10.3191 -6.9853 2.9968 1.8448 33.6432
#
#
#
# Elastic Compliance Matrix: (Units=1/GPa)
#
#
# Indices 1 2 3 4 5 6 
#
# 1 0.012095 -0.003322 -0.005176 0.002937 0.000375 -0.000642
# 2 -0.003322 0.020086 -0.006012 -0.011308 -0.003172 -0.006144
# 3 -0.005176 -0.006012 0.015578 0.003174 0.004954 0.004654
# 4 0.002937 -0.011308 0.003174 0.047006 0.005617 -0.000441
# 5 0.000375 -0.003172 0.004954 0.005617 0.025143 0.000113
# 6 -0.000642 -0.006144 0.004654 -0.000441 0.000113 0.032624
#
#
# Mechanical properties :
#
#
# Convention : Reuss Voigt Hill
#
# Bulk Modulus (GPa) = 53.36410 59.89372 56.62891
# Shear Modulus (GPa) = 26.62435 32.12769 29.37602
#
# Velocity S-wave (km/s) = 3.54943 3.89905 3.72834
# Velocity P-wave (km/s) = 6.48456 6.97219 6.73279
#
# Compressibility (1/GPa) = 0.01873919
#
# Stress axis : x y z
#
# Youngs Moduli (GPa) = 82.67602 49.78623 64.19331
#
# Poissons Ratio (x) = 0.16538 0.33229
# Poissons Ratio (y) = 0.27463 0.38592
# Poissons Ratio (z) = 0.42796 0.29931
#
# Static dielectric constant tensor:
#      x y z
#    x 3.957920 0.332650 -0.259210 
#    y 0.332650 3.816480 0.169620 
#    z -0.259210 0.169620 4.005770 
# 
# 
# High freq. dielectric constant tensor:
#      x y z
#    x 1.831310 0.021940 -0.017470 
#    y 0.021940 1.829400 0.018680 
#    z -0.017470 0.018680 1.826370 
# 
# From -- ./inp_files/48775.got.cif
#   From: 2010.06.25/outbox.cif.g09.slc.cpg/sg2_25_cif.got.tgz:48775.got - 2010.06.27 13:26:56.
