data_PCOD8011000
_publ_section_title
;
Structure prediction by ZEFSAII (Michael W. Deem and Ramdas Pophale) SiO2 
 PCOD8011000
Probable space group: P -1
;
_chemical_formula_sum "Si O2"
_cell_formula_units_Z 14
_cell_length_a 13.158525
_cell_length_b 8.017118
_cell_length_c 7.904857
_cell_angle_alpha 58.720727
_cell_angle_beta 59.949370
_cell_angle_gamma 73.206993
_cell_volume 616.428935
_symmetry_space_group_name_H-M "P -1"
_symmetry_group_IT_number 2
_symmetry_cell_setting 'triclinic'
loop_
_space_group_symop_operation_xyz
x,y,z
-x,-y,-z
loop_
_atom_site_type_symbol
_atom_site_label
_atom_site_fract_x
_atom_site_fract_y
_atom_site_fract_z
Si Si1 0.601459 0.319533 0.140914
Si Si2 0.756885 0.415875 0.463456
Si Si3 0.621439 0.091975 0.892564
Si Si4 0.342198 0.347125 0.291944
Si Si5 0.768794 0.014709 0.319015
Si Si6 0.789364 0.790712 0.067299
Si Si7 0.964817 0.162121 0.308722
O O1 0.464972 0.328408 0.306557
O O2 0.684165 0.209853 0.267032
O O3 0.607363 0.209207 0.015607
O O4 0.640722 0.543384 0.959907
O O5 0.665721 0.238417 0.630677
O O6 0.752712 0.522692 0.591791
O O7 0.729649 0.581212 0.255775
O O8 0.889675 0.332063 0.376628
O O9 0.500000 0.000000 0.000000
O O10 0.717342 0.915019 0.922948
O O11 0.294925 0.130505 0.420475
O O12 0.792181 0.910759 0.176301
O O13 0.891155 0.073163 0.263810
O O14 0.920516 0.747219 0.914474
O O15 0.000000 0.000000 0.500000
#
# Coordination Sequence:
#
# PCOD8011000 Si02
#       7
#     2   2   2   2   2   2   2
#     4   9  19  38  62  88 128 162 203 246 305 375
#     4  10  22  42  60  91 126 159 207 254 310 362
#     4  10  21  38  65  96 128 159 202 257 311 364
#     4   9  19  39  62  90 123 162 202 250 303 371
#     4  10  22  40  64  89 119 165 210 247 307 368
#     4  10  22  45  64  88 125 168 206 253 304 374
#     4  12  24  43  65  89 127 162 210 263 314 359
#
# _framework density 22.711458
#
# number of rings (size 3 to 8) (size 9 to 14) (size 15 to 20)
#    0.000    2.000    1.429    1.286    2.000    0.571 
#   12.857    1.429    0.000    0.000    0.000    0.000 
#    0.000    0.000    0.000    0.000    0.000    0.000 
#
# Total GULP energy -173571.260834 kJ/mol
# GULP energy per Si atom -12397.947202 kJ/mol
# Density = 2.265977 g / cm^3
# Si number density = 22.711458 Si / 1000 Ang^3
#
#
#
# Elastic Constant Matrix: (Units=GPa)
#
#
# Indices 1 2 3 4 5 6 
#
# 1 112.9978 37.6512 63.1911 -16.3938 -10.6826 -18.2012
# 2 37.6512 91.8810 51.1530 -16.1449 -3.5138 -30.9745
# 3 63.1911 51.1530 151.6186 -36.5766 -21.5071 -8.1895
# 4 -16.3938 -16.1449 -36.5766 43.2421 -5.6181 -5.7303
# 5 -10.6826 -3.5138 -21.5071 -5.6181 35.3725 1.0134
# 6 -18.2012 -30.9745 -8.1895 -5.7303 1.0134 26.6155
#
#
#
# Elastic Compliance Matrix: (Units=1/GPa)
#
#
# Indices 1 2 3 4 5 6 
#
# 1 0.013018 0.000573 -0.004177 0.003009 0.001673 0.008868
# 2 0.000573 0.025250 -0.004680 0.009785 0.000518 0.030424
# 3 -0.004177 -0.004680 0.012734 0.008008 0.007373 -0.002942
# 4 0.003009 0.009785 0.008008 0.039468 0.012333 0.023937
# 5 0.001673 0.000518 0.007373 0.012333 0.035116 0.005333
# 6 0.008868 0.030424 -0.002942 0.023937 0.005333 0.083089
#
#
# Mechanical properties :
#
#
# Convention : Reuss Voigt Hill
#
# Bulk Modulus (GPa) = 29.04120 73.38756 51.21438
# Shear Modulus (GPa) = 21.12198 34.67950 27.90074
#
# Velocity S-wave (km/s) = 3.05292 3.91187 3.50878
# Velocity P-wave (km/s) = 5.02413 7.26545 6.24615
#
# Compressibility (1/GPa) = 0.03443384
#
# Stress axis : x y z
#
# Youngs Moduli (GPa) = 76.81948 39.60375 78.52862
#
# Poissons Ratio (x) = -0.02270 0.32799
# Poissons Ratio (y) = -0.04403 0.36755
# Poissons Ratio (z) = 0.32085 0.18537
#
# Static dielectric constant tensor:
#      x y z
#    x 3.763370 -0.271160 -0.088780 
#    y -0.271160 4.366120 -0.245410 
#    z -0.088780 -0.245410 4.469480 
# 
# 
# High freq. dielectric constant tensor:
#      x y z
#    x 1.861860 -0.017010 -0.005910 
#    y -0.017010 1.910960 -0.008260 
#    z -0.005910 -0.008260 1.913970 
# 
# From -- ./inp_files/177183.got.cif
#   From: 2010.06.25/outbox.cif.g09.slc.cpg/sg2_89_cif.got.tgz:177183.got - 2010.06.27 13:26:56.
