data_PCOD8011660
_publ_section_title
;
Structure prediction by ZEFSAII (Michael W. Deem and Ramdas Pophale) SiO2 
 PCOD8011660
Probable space group: P -1
;
_chemical_formula_sum "Si O2"
_cell_formula_units_Z 16
_cell_length_a 9.304059
_cell_length_b 5.240273
_cell_length_c 17.220220
_cell_angle_alpha 110.966067
_cell_angle_beta 117.533335
_cell_angle_gamma 73.332370
_cell_volume 687.690629
_symmetry_space_group_name_H-M "P -1"
_symmetry_group_IT_number 2
_symmetry_cell_setting 'triclinic'
loop_
_space_group_symop_operation_xyz
x,y,z
-x,-y,-z
loop_
_atom_site_type_symbol
_atom_site_label
_atom_site_fract_x
_atom_site_fract_y
_atom_site_fract_z
Si Si1 0.618234 0.589498 0.768787
Si Si2 0.702434 0.197849 0.363124
Si Si3 0.442406 0.948263 0.355399
Si Si4 0.045658 0.980944 0.354398
Si Si5 0.312064 0.290868 0.490555
Si Si6 0.204619 0.201510 0.025397
Si Si7 0.895070 0.646295 0.733500
Si Si8 0.112328 0.642308 0.935421
O O1 0.422078 0.639109 0.713154
O O2 0.671761 0.255431 0.736727
O O3 0.657727 0.695620 0.874604
O O4 0.716881 0.744798 0.744237
O O5 0.860878 0.047852 0.344147
O O6 0.749788 0.393213 0.466224
O O7 0.601874 0.969577 0.347234
O O8 0.511991 0.793408 0.434782
O O9 0.338545 0.238027 0.396445
O O10 0.167755 0.112788 0.458197
O O11 0.060641 0.116617 0.287611
O O12 0.100860 0.652662 0.337372
O O13 0.026376 0.268280 0.025806
O O14 0.212241 0.354579 0.960858
O O15 0.236010 0.870698 0.984672
O O16 0.035303 0.598130 0.828356
#
# Coordination Sequence:
#
# PCOD8011660 Si02
#       8
#     2   2   2   2   2   2   2   2
#     4  10  22  38  64  96 123 166 207 260 311 372
#     4  11  25  39  62  90 131 164 212 260 310 369
#     4  10  21  39  63  91 125 161 211 260 312 364
#     4  12  26  41  65  92 127 172 209 257 309 371
#     4  10  22  40  61  92 119 168 210 262 309 366
#     4   9  18  32  61  92 123 151 201 255 313 358
#     4  11  24  42  66  93 128 164 212 255 313 373
#     4   9  18  35  58  93 122 154 197 261 307 361
#
# _framework density 23.266273999999999
#
# number of rings (size 3 to 8) (size 9 to 14) (size 15 to 20)
#    0.000    1.750    1.250    2.250    7.000    2.500 
#    0.000    0.000    0.000    4.500    0.000    0.000 
#    0.000    0.000    0.000    0.000    0.000    0.000 
#
# Total GULP energy -198277.649182 kJ/mol
# GULP energy per Si atom -12392.353074 kJ/mol
# Density = 2.321332 g / cm^3
# Si number density = 23.266274 Si / 1000 Ang^3
#
#
#
# Elastic Constant Matrix: (Units=GPa)
#
#
# Indices 1 2 3 4 5 6 
#
# 1 112.9472 11.4093 8.7014 4.4526 12.2314 -8.4463
# 2 11.4093 76.4831 5.1063 16.9247 6.4389 11.2785
# 3 8.7014 5.1063 107.9698 15.3078 26.1841 3.8552
# 4 4.4526 16.9247 15.3078 31.9160 8.5394 6.2883
# 5 12.2314 6.4389 26.1841 8.5394 22.5678 -0.6360
# 6 -8.4463 11.2785 3.8552 6.2883 -0.6360 31.1411
#
#
#
# Elastic Compliance Matrix: (Units=1/GPa)
#
#
# Indices 1 2 3 4 5 6 
#
# 1 0.009771 -0.001493 0.000465 0.000040 -0.005339 0.003016
# 2 -0.001493 0.015707 0.001152 -0.007052 -0.002477 -0.004863
# 3 0.000465 0.001152 0.013243 -0.002686 -0.014977 -0.001694
# 4 0.000040 -0.007052 -0.002686 0.040164 -0.010243 -0.005422
# 5 -0.005339 -0.002477 -0.014977 -0.010243 0.069299 0.004787
# 6 0.003016 -0.004863 -0.001694 -0.005422 0.004787 0.036093
#
#
# Mechanical properties :
#
#
# Convention : Reuss Voigt Hill
#
# Bulk Modulus (GPa) = 25.66201 38.64821 32.15511
# Shear Modulus (GPa) = 25.37820 35.27053 30.32437
#
# Velocity S-wave (km/s) = 3.30627 3.89775 3.61413
# Velocity P-wave (km/s) = 5.06249 6.07486 5.59163
#
# Compressibility (1/GPa) = 0.03896811
#
# Stress axis : x y z
#
# Youngs Moduli (GPa) = 102.34554 63.66688 75.50893
#
# Poissons Ratio (x) = 0.09503 -0.03508
# Poissons Ratio (y) = 0.15277 -0.08696
# Poissons Ratio (z) = -0.04754 -0.07332
#
# Static dielectric constant tensor:
#      x y z
#    x 3.824470 0.102070 0.188410 
#    y 0.102070 4.376680 -0.012210 
#    z 0.188410 -0.012210 4.322010 
# 
# 
# High freq. dielectric constant tensor:
#      x y z
#    x 1.874330 0.013610 0.017810 
#    y 0.013610 1.933030 -0.003070 
#    z 0.017810 -0.003070 1.930420 
# 
# From -- ./inp_files/39695.got.cif
#   From: 2010.06.25/outbox.cif.g09.slc.cpg/sg2_20_cif.got.tgz:39695.got - 2010.06.27 13:26:56.
