data_PCOD8011789
_publ_section_title
;
Structure prediction by ZEFSAII (Michael W. Deem and Ramdas Pophale) SiO2 
 PCOD8011789
Probable space group: P -1
;
_chemical_formula_sum "Si O2"
_cell_formula_units_Z 14
_cell_length_a 25.576919
_cell_length_b 9.820502
_cell_length_c 9.247422
_cell_angle_alpha 44.851637
_cell_angle_beta 149.822416
_cell_angle_gamma 148.153810
_cell_volume 613.243118
_symmetry_space_group_name_H-M "P -1"
_symmetry_group_IT_number 2
_symmetry_cell_setting 'triclinic'
loop_
_space_group_symop_operation_xyz
x,y,z
-x,-y,-z
loop_
_atom_site_type_symbol
_atom_site_label
_atom_site_fract_x
_atom_site_fract_y
_atom_site_fract_z
Si Si1 0.831147 0.987179 0.507364
Si Si2 0.088762 0.333363 0.058064
Si Si3 0.350643 0.234956 0.300304
Si Si4 0.803740 0.133688 0.028922
Si Si5 0.621409 0.949155 0.220000
Si Si6 0.969881 0.766505 0.686702
Si Si7 0.313994 0.582908 0.855006
O O1 0.820792 0.746364 0.701674
O O2 0.692516 0.929653 0.270618
O O3 0.834078 0.023211 0.315206
O O4 0.973761 0.241893 0.729495
O O5 0.197424 0.646511 0.085948
O O6 0.005418 0.189457 0.115851
O O7 0.500000 0.500000 0.500000
O O8 0.302843 0.039923 0.463329
O O9 0.339285 0.100846 0.222424
O O10 0.258954 0.316958 0.001078
O O11 0.928164 0.270255 0.106210
O O12 0.652211 0.217043 0.091063
O O13 0.453643 0.711286 0.997434
O O14 0.809075 0.499441 0.481859
O O15 0.000000 0.000000 0.500000
#
# Coordination Sequence:
#
# PCOD8011789 Si02
#       7
#     2   2   2   2   2   2   2
#     4  11  24  41  61  97 133 171 208 259 322 383
#     4  11  24  40  63  95 133 171 211 261 318 377
#     4  10  21  39  64  90 121 163 213 262 311 373
#     4  12  23  40  65  97 129 167 213 264 321 378
#     4  10  22  40  65  90 127 167 214 258 317 379
#     4  12  21  39  67  93 124 164 216 266 314 372
#     4  10  21  39  64  93 121 165 215 266 310 371
#
# _framework density 22.829443999999999
#
# number of rings (size 3 to 8) (size 9 to 14) (size 15 to 20)
#    0.000    1.143    2.857    3.429    0.000    1.143 
#    0.000    6.429    0.000   12.000    0.000    0.000 
#    0.000    0.000    0.000    0.000    0.000    0.000 
#
# Total GULP energy -173534.564225 kJ/mol
# GULP energy per Si atom -12395.326016 kJ/mol
# Density = 2.277748 g / cm^3
# Si number density = 22.829444 Si / 1000 Ang^3
#
#
#
# Elastic Constant Matrix: (Units=GPa)
#
#
# Indices 1 2 3 4 5 6 
#
# 1 89.6389 13.1446 34.9924 13.4795 4.6898 -11.6052
# 2 13.1446 119.4927 35.0433 3.7549 -2.4353 -28.3625
# 3 34.9924 35.0433 85.2001 25.1934 -3.1918 -7.7193
# 4 13.4795 3.7549 25.1934 44.3926 -5.1023 -1.0249
# 5 4.6898 -2.4353 -3.1918 -5.1023 54.5605 -3.6247
# 6 -11.6052 -28.3625 -7.7193 -1.0249 -3.6247 27.8247
#
#
#
# Elastic Compliance Matrix: (Units=1/GPa)
#
#
# Indices 1 2 3 4 5 6 
#
# 1 0.014084 0.001410 -0.005530 -0.001269 -0.001220 0.005572
# 2 0.001410 0.012586 -0.005153 0.001842 0.001122 0.012202
# 3 -0.005530 -0.005153 0.018355 -0.008324 0.000360 -0.002726
# 4 -0.001269 0.001842 -0.008324 0.027755 0.002324 0.000365
# 5 -0.001220 0.001122 0.000360 0.002324 0.018940 0.003288
# 6 0.005572 0.012202 -0.002726 0.000365 0.003288 0.050386
#
#
# Mechanical properties :
#
#
# Convention : Reuss Voigt Hill
#
# Bulk Modulus (GPa) = 37.76549 51.18805 44.47677
# Shear Modulus (GPa) = 29.50226 39.43233 34.46730
#
# Velocity S-wave (km/s) = 3.59874 4.16054 3.88980
# Velocity P-wave (km/s) = 5.81776 6.74913 6.30068
#
# Compressibility (1/GPa) = 0.02647920
#
# Stress axis : x y z
#
# Youngs Moduli (GPa) = 71.00360 79.45350 54.47972
#
# Poissons Ratio (x) = -0.11203 0.30127
# Poissons Ratio (y) = -0.10011 0.28073
# Poissons Ratio (z) = 0.39265 0.40943
#
# Static dielectric constant tensor:
#      x y z
#    x 3.918220 -0.214030 -0.022970 
#    y -0.214030 4.203850 -0.245050 
#    z -0.022970 -0.245050 4.945150 
# 
# 
# High freq. dielectric constant tensor:
#      x y z
#    x 1.865760 -0.016910 -0.008630 
#    y -0.016910 1.910930 -0.009950 
#    z -0.008630 -0.009950 1.913730 
# 
# From -- ./inp_files/352091.got.cif
#   From: 2010.06.25/outbox.cif.g09.slc.cpg/sg2_177_cif.got.tgz:352091.got - 2010.06.27 13:26:56.
