data_PCOD8011009
_publ_section_title
;
Structure prediction by ZEFSAII (Michael W. Deem and Ramdas Pophale) SiO2 
 PCOD8011009
Probable space group: P -1
;
_chemical_formula_sum "Si O2"
_cell_formula_units_Z 16
_cell_length_a 6.284234
_cell_length_b 11.922346
_cell_length_c 11.325735
_cell_angle_alpha 112.444268
_cell_angle_beta 106.882952
_cell_angle_gamma 65.637845
_cell_volume 705.483143
_symmetry_space_group_name_H-M "P -1"
_symmetry_group_IT_number 2
_symmetry_cell_setting 'triclinic'
loop_
_space_group_symop_operation_xyz
x,y,z
-x,-y,-z
loop_
_atom_site_type_symbol
_atom_site_label
_atom_site_fract_x
_atom_site_fract_y
_atom_site_fract_z
Si Si1 0.403696 0.320511 0.221287
Si Si2 0.767175 0.990733 0.323667
Si Si3 0.568056 0.263511 0.481398
Si Si4 0.679568 0.930489 0.882425
Si Si5 0.322694 0.224360 0.647218
Si Si6 0.184021 0.805966 0.174430
Si Si7 0.856902 0.391632 0.735750
Si Si8 0.802537 0.149206 0.078211
O O1 0.431866 0.333282 0.371046
O O2 0.285746 0.213561 0.123669
O O3 0.243441 0.455720 0.195825
O O4 0.664892 0.272774 0.184959
O O5 0.774241 0.893728 0.393404
O O6 0.987379 0.932428 0.248529
O O7 0.772288 0.125917 0.431312
O O8 0.520955 0.021699 0.227803
O O9 0.370546 0.237723 0.522463
O O10 0.687141 0.355069 0.600742
O O11 0.656516 0.045147 0.022790
O O12 0.932337 0.919972 0.857189
O O13 0.557281 0.198791 0.750376
O O14 0.120552 0.355257 0.711185
O O15 0.137625 0.679543 0.167175
O O16 0.174338 0.804862 0.032019
#
# Coordination Sequence:
#
# PCOD8011009 Si02
#       8
#     2   2   2   2   2   2   2   2
#     4  11  25  42  63  94 127 166 206 253 308 374
#     4  10  21  38  65  97 127 156 207 254 320 363
#     4  10  23  38  63  94 123 163 209 256 308 366
#     4  10  24  38  66  96 122 161 200 256 316 368
#     4  10  21  40  62  89 129 165 208 257 305 358
#     4  10  23  40  66  94 125 166 203 259 306 371
#     4  10  24  44  63  87 129 168 211 252 302 367
#     4  11  24  41  66  96 128 156 205 261 314 366
#
# _framework density 22.679493999999998
#
# number of rings (size 3 to 8) (size 9 to 14) (size 15 to 20)
#    0.000    1.750    1.250    1.125    8.750   10.500 
#    0.000    1.250    0.000    0.000    0.000    0.000 
#    0.000    0.000    0.000    0.000    0.000    0.000 
#
# Total GULP energy -198377.707432 kJ/mol
# GULP energy per Si atom -12398.606714 kJ/mol
# Density = 2.262787 g / cm^3
# Si number density = 22.679494 Si / 1000 Ang^3
#
#
#
# Elastic Constant Matrix: (Units=GPa)
#
#
# Indices 1 2 3 4 5 6 
#
# 1 64.0412 30.1196 36.6362 -1.4149 2.6798 -2.0237
# 2 30.1196 132.2670 32.0689 20.3171 -9.4507 -1.3668
# 3 36.6362 32.0689 80.3741 -6.8790 -15.4027 7.3594
# 4 -1.4149 20.3171 -6.8790 34.8328 7.6288 -6.7634
# 5 2.6798 -9.4507 -15.4027 7.6288 32.4334 -6.7608
# 6 -2.0237 -1.3668 7.3594 -6.7634 -6.7608 34.1601
#
#
#
# Elastic Compliance Matrix: (Units=1/GPa)
#
#
# Indices 1 2 3 4 5 6 
#
# 1 0.024399 -0.003999 -0.011143 0.003557 -0.008756 0.002657
# 2 -0.003999 0.010472 -0.002216 -0.007615 0.004114 -0.000034
# 3 -0.011143 -0.002216 0.020580 0.002388 0.008871 -0.002954
# 4 0.003557 -0.007615 0.002388 0.036682 -0.008991 0.004875
# 5 -0.008756 0.004114 0.008871 -0.008991 0.039884 0.003848
# 6 0.002657 -0.000034 -0.002954 0.004875 0.003848 0.031793
#
#
# Mechanical properties :
#
#
# Convention : Reuss Voigt Hill
#
# Bulk Modulus (GPa) = 48.22603 52.70351 50.46477
# Shear Modulus (GPa) = 24.33830 32.14243 28.24036
#
# Velocity S-wave (km/s) = 3.27944 3.76872 3.53256
# Velocity P-wave (km/s) = 5.97076 6.49819 6.24005
#
# Compressibility (1/GPa) = 0.02073569
#
# Stress axis : x y z
#
# Youngs Moduli (GPa) = 40.98491 95.49590 48.59098
#
# Poissons Ratio (x) = 0.38188 0.54145
# Poissons Ratio (y) = 0.16390 0.10766
# Poissons Ratio (z) = 0.45669 0.21159
#
# Static dielectric constant tensor:
#      x y z
#    x 4.319510 0.014850 -0.133580 
#    y 0.014850 4.120980 -0.029490 
#    z -0.133580 -0.029490 3.843870 
# 
# 
# High freq. dielectric constant tensor:
#      x y z
#    x 1.912250 -0.003080 -0.011910 
#    y -0.003080 1.892490 -0.008910 
#    z -0.011910 -0.008910 1.878110 
# 
# From -- ./inp_files/365060.got.cif
#   From: 2010.06.25/outbox.cif.g09.slc.cpg/sg2_183_cif.got.tgz:365060.got - 2010.06.27 13:26:56.
