data_PCOD8011707
_publ_section_title
;
Structure prediction by ZEFSAII (Michael W. Deem and Ramdas Pophale) SiO2 
 PCOD8011707
Probable space group: P -1
;
_chemical_formula_sum "Si O2"
_cell_formula_units_Z 14
_cell_length_a 10.131049
_cell_length_b 21.731212
_cell_length_c 11.787141
_cell_angle_alpha 34.598051
_cell_angle_beta 65.929476
_cell_angle_gamma 38.658774
_cell_volume 689.645300
_symmetry_space_group_name_H-M "P -1"
_symmetry_group_IT_number 2
_symmetry_cell_setting 'triclinic'
loop_
_space_group_symop_operation_xyz
x,y,z
-x,-y,-z
loop_
_atom_site_type_symbol
_atom_site_label
_atom_site_fract_x
_atom_site_fract_y
_atom_site_fract_z
Si Si1 0.647883 0.450019 0.636158
Si Si2 0.238261 0.995326 0.454755
Si Si3 0.759658 0.874438 0.172898
Si Si4 0.864914 0.653223 0.682358
Si Si5 0.775857 0.104082 0.830647
Si Si6 0.091539 0.892507 0.807299
Si Si7 0.828297 0.758660 0.766032
O O1 0.500000 0.500000 0.500000
O O2 0.498098 0.647056 0.445699
O O3 0.964760 0.287365 0.754079
O O4 0.649804 0.350281 0.876380
O O5 0.069572 0.211059 0.232024
O O6 0.082532 0.054952 0.308234
O O7 0.563940 0.800491 0.604268
O O8 0.224546 0.918199 0.678659
O O9 0.831618 0.744463 0.443545
O O10 0.500000 0.000000 0.000000
O O11 0.682370 0.042982 0.991756
O O12 0.969322 0.663216 0.735203
O O13 0.089763 0.410809 0.948786
O O14 0.890367 0.041915 0.758117
O O15 0.000000 0.000000 0.000000
O O16 0.500000 0.000000 0.500000
#
# Coordination Sequence:
#
# PCOD8011707 Si02
#       7
#     2   2   2   2   2   2   2
#     4  11  23  41  68  97 128 175 224 270 329 389
#     4  10  22  40  62  91 133 168 207 270 328 383
#     4  11  25  42  66 101 137 170 218 278 331 393
#     4  10  21  39  63  93 130 167 215 263 327 394
#     4  11  23  44  66  96 128 174 222 271 325 387
#     4  10  23  40  63  95 126 166 221 268 318 394
#     4   9  21  38  58  88 122 167 207 256 317 383
#
# _framework density 20.300291999999999
#
# number of rings (size 3 to 8) (size 9 to 14) (size 15 to 20)
#    0.000    1.714    2.857    1.714    2.000    9.714 
#    0.000    2.857    0.000    0.000    0.000    0.000 
#    0.000    0.000    0.000    0.000    0.000    0.000 
#
# Total GULP energy -173491.765301 kJ/mol
# GULP energy per Si atom -12392.268950 kJ/mol
# Density = 2.025409 g / cm^3
# Si number density = 20.300292 Si / 1000 Ang^3
#
#
#
# Elastic Constant Matrix: (Units=GPa)
#
#
# Indices 1 2 3 4 5 6 
#
# 1 111.8305 36.9754 43.4960 -0.5393 -16.1383 11.3718
# 2 36.9754 74.3660 61.5507 5.3091 -19.8713 8.3189
# 3 43.4960 61.5507 178.5715 1.0461 -32.5057 15.4831
# 4 -0.5393 5.3091 1.0461 48.3938 8.6662 -0.7510
# 5 -16.1383 -19.8713 -32.5057 8.6662 37.2372 -4.7244
# 6 11.3718 8.3189 15.4831 -0.7510 -4.7244 30.7747
#
#
#
# Elastic Compliance Matrix: (Units=1/GPa)
#
#
# Indices 1 2 3 4 5 6 
#
# 1 0.011099 -0.004241 -0.000766 0.000298 0.001513 -0.002330
# 2 -0.004241 0.021886 -0.005353 -0.003394 0.005852 -0.000840
# 3 -0.000766 -0.005353 0.008552 -0.000374 0.004117 -0.001950
# 4 0.000298 -0.003394 -0.000374 0.022335 -0.007150 0.000443
# 5 0.001513 0.005852 0.004117 -0.007150 0.036036 0.001145
# 6 -0.002330 -0.000840 -0.001950 0.000443 0.001145 0.034750
#
#
# Mechanical properties :
#
#
# Convention : Reuss Voigt Hill
#
# Bulk Modulus (GPa) = 48.03538 72.09024 60.06281
# Shear Modulus (GPa) = 30.80401 38.13087 34.46744
#
# Velocity S-wave (km/s) = 3.89963 4.33868 4.12500
# Velocity P-wave (km/s) = 6.63249 7.79025 7.23457
#
# Compressibility (1/GPa) = 0.02081799
#
# Stress axis : x y z
#
# Youngs Moduli (GPa) = 90.09858 45.69160 116.92892
#
# Poissons Ratio (x) = 0.19377 0.08956
# Poissons Ratio (y) = 0.38209 0.62589
# Poissons Ratio (z) = 0.06901 0.24458
#
# Static dielectric constant tensor:
#      x y z
#    x 4.113450 0.287260 -0.257300 
#    y 0.287260 3.801660 0.005480 
#    z -0.257300 0.005480 4.102890 
# 
# 
# High freq. dielectric constant tensor:
#      x y z
#    x 1.799330 0.013570 -0.004690 
#    y 0.013570 1.782900 0.000780 
#    z -0.004690 0.000780 1.814010 
# 
# From -- ./inp_files/405261.got.cif
#   From: 2010.06.25/outbox.cif.g09.slc.cpg/sg2_203_cif.got.tgz:405261.got - 2010.06.27 13:26:56.
