data_PCOD8011079
_publ_section_title
;
Structure prediction by ZEFSAII (Michael W. Deem and Ramdas Pophale) SiO2 
 PCOD8011079
Probable space group: P -1
;
_chemical_formula_sum "Si O2"
_cell_formula_units_Z 14
_cell_length_a 8.395748
_cell_length_b 13.269590
_cell_length_c 17.092910
_cell_angle_alpha 141.928066
_cell_angle_beta 149.696505
_cell_angle_gamma 49.641436
_cell_volume 589.356483
_symmetry_space_group_name_H-M "P -1"
_symmetry_group_IT_number 2
_symmetry_cell_setting 'triclinic'
loop_
_space_group_symop_operation_xyz
x,y,z
-x,-y,-z
loop_
_atom_site_type_symbol
_atom_site_label
_atom_site_fract_x
_atom_site_fract_y
_atom_site_fract_z
Si Si1 0.510475 0.975537 0.183300
Si Si2 0.716173 0.321837 0.440202
Si Si3 0.098299 0.098986 0.217966
Si Si4 0.509866 0.403508 0.567819
Si Si5 0.104231 0.307590 0.852604
Si Si6 0.434781 0.422032 0.839328
Si Si7 0.259152 0.871778 0.272974
O O1 0.692615 0.124547 0.300509
O O2 0.376094 0.032137 0.242696
O O3 0.761921 0.845419 0.228723
O O4 0.224891 0.887445 0.956755
O O5 0.496913 0.349830 0.438786
O O6 0.573918 0.406631 0.354217
O O7 0.066648 0.407674 0.655093
O O8 0.236370 0.280133 0.418672
O O9 0.037155 0.975781 0.189576
O O10 0.847676 0.385448 0.737859
O O11 0.965883 0.247617 0.840202
O O12 0.385706 0.454525 0.073330
O O13 0.552505 0.242207 0.773128
O O14 0.500000 0.500000 0.000000
O O15 0.500000 0.000000 0.500000
#
# Coordination Sequence:
#
# PCOD8011079 Si02
#       7
#     2   2   2   2   2   2   2
#     4  10  23  42  72 104 132 184 241 291 336 416
#     4  10  22  40  66 101 135 177 237 288 343 399
#     4  10  22  42  70  98 141 182 238 284 347 413
#     4  10  21  38  66  97 138 174 227 292 342 410
#     4  12  24  43  66 103 140 177 229 285 360 410
#     4  12  25  44  72 100 137 186 241 284 341 418
#     4  12  26  44  70 104 146 184 228 290 359 416
#
# _framework density 23.754722999999998
#
# number of rings (size 3 to 8) (size 9 to 14) (size 15 to 20)
#    0.000    1.143    2.857    3.000    2.000    4.000 
#    0.000    0.714    0.000    0.000    0.000    0.000 
#    0.000    0.000    0.000    0.000    0.000    0.000 
#
# Total GULP energy -173584.560989 kJ/mol
# GULP energy per Si atom -12398.897214 kJ/mol
# Density = 2.370066 g / cm^3
# Si number density = 23.754723 Si / 1000 Ang^3
#
#
#
# Elastic Constant Matrix: (Units=GPa)
#
#
# Indices 1 2 3 4 5 6 
#
# 1 62.8944 20.4756 21.8877 2.2617 9.0781 10.7052
# 2 20.4756 148.0857 46.4646 5.7798 15.7585 19.8565
# 3 21.8877 46.4646 113.2243 13.3819 28.1014 -2.2354
# 4 2.2617 5.7798 13.3819 41.2486 0.8704 0.8130
# 5 9.0781 15.7585 28.1014 0.8704 34.9659 8.9497
# 6 10.7052 19.8565 -2.2354 0.8130 8.9497 32.0335
#
#
#
# Elastic Compliance Matrix: (Units=1/GPa)
#
#
# Indices 1 2 3 4 5 6 
#
# 1 0.018311 -0.000679 -0.003347 0.000298 -0.000265 -0.005866
# 2 -0.000679 0.008693 -0.003735 0.000127 0.000695 -0.005620
# 3 -0.003347 -0.003735 0.014287 -0.003849 -0.010763 0.007535
# 4 0.000298 0.000127 -0.003849 0.025436 0.002806 -0.001876
# 5 -0.000265 0.000695 -0.010763 0.002806 0.040100 -0.012368
# 6 -0.005866 -0.005620 0.007535 -0.001876 -0.012368 0.040690
#
#
# Mechanical properties :
#
#
# Convention : Reuss Voigt Hill
#
# Bulk Modulus (GPa) = 38.80377 55.76223 47.28300
# Shear Modulus (GPa) = 29.13289 37.34137 33.23713
#
# Velocity S-wave (km/s) = 3.50580 3.96909 3.74462
# Velocity P-wave (km/s) = 5.72348 6.67308 6.21644
#
# Compressibility (1/GPa) = 0.02577069
#
# Stress axis : x y z
#
# Youngs Moduli (GPa) = 54.61149 115.03297 69.99597
#
# Poissons Ratio (x) = 0.07808 0.23425
# Poissons Ratio (y) = 0.03707 0.26142
# Poissons Ratio (z) = 0.18276 0.42962
#
# Static dielectric constant tensor:
#      x y z
#    x 4.135770 0.158900 0.272900 
#    y 0.158900 4.651960 0.365270 
#    z 0.272900 0.365270 4.181410 
# 
# 
# High freq. dielectric constant tensor:
#      x y z
#    x 1.916200 0.009610 0.021750 
#    y 0.009610 1.960590 0.014970 
#    z 0.021750 0.014970 1.938620 
# 
# From -- ./inp_files/157519.got.cif
#   From: 2010.06.25/outbox.cif.g09.slc.cpg/sg2_79_cif.got.tgz:157519.got - 2010.06.27 13:26:56.
