data_PCOD8011720
_publ_section_title
;
Structure prediction by ZEFSAII (Michael W. Deem and Ramdas Pophale) SiO2 
 PCOD8011720
Probable space group: P -1
;
_chemical_formula_sum "Si O2"
_cell_formula_units_Z 16
_cell_length_a 8.819607
_cell_length_b 9.247827
_cell_length_c 14.637061
_cell_angle_alpha 50.003431
_cell_angle_beta 84.122599
_cell_angle_gamma 114.589134
_cell_volume 704.741743
_symmetry_space_group_name_H-M "P -1"
_symmetry_group_IT_number 2
_symmetry_cell_setting 'triclinic'
loop_
_space_group_symop_operation_xyz
x,y,z
-x,-y,-z
loop_
_atom_site_type_symbol
_atom_site_label
_atom_site_fract_x
_atom_site_fract_y
_atom_site_fract_z
Si Si1 0.958871 0.776841 0.862520
Si Si2 0.046300 0.830007 0.239460
Si Si3 0.726583 0.239791 0.887559
Si Si4 0.949267 0.775552 0.656479
Si Si5 0.670770 0.072229 0.670233
Si Si6 0.361216 0.061900 0.468932
Si Si7 0.596219 0.427947 0.453376
Si Si8 0.732733 0.241574 0.093577
O O1 0.906282 0.798628 0.753747
O O2 0.189545 0.890130 0.808598
O O3 0.894588 0.904048 0.875546
O O4 0.835912 0.507248 0.021203
O O5 0.142843 0.803575 0.158955
O O6 0.122842 0.791643 0.344610
O O7 0.811889 0.659217 0.315892
O O8 0.775596 0.495214 0.746061
O O9 0.801427 0.284866 0.967364
O O10 0.500000 0.000000 0.000000
O O11 0.000000 0.000000 0.500000
O O12 0.154957 0.825212 0.618423
O O13 0.633738 0.254461 0.565739
O O14 0.659835 0.916387 0.648152
O O15 0.498982 0.903345 0.823216
O O16 0.451548 0.307704 0.421695
O O17 0.500000 0.000000 0.500000
O O18 0.500000 0.500000 0.500000
#
# Coordination Sequence:
#
# PCOD8011720 Si02
#       8
#     2   2   2   2   2   2   2   2
#     4  10  23  42  68  96 135 182 234 282 350 429
#     4  12  24  42  68 101 138 177 237 294 357 415
#     4  11  24  46  69 100 143 183 232 293 358 411
#     4  11  23  44  70  99 135 182 233 284 351 424
#     4  11  22  40  65  94 134 178 232 278 351 413
#     4  10  21  39  63  94 129 178 224 274 337 414
#     4  11  24  41  66 101 140 175 228 295 353 411
#     4  10  22  45  68  93 137 193 229 283 347 432
#
# _framework density 22.703353
#
# number of rings (size 3 to 8) (size 9 to 14) (size 15 to 20)
#    0.000    1.250    1.250    5.625    0.000    5.000 
#    4.500    0.000    0.000    0.000    0.000    0.000 
#    0.000    0.000    0.000    0.000    0.000    0.000 
#
# Total GULP energy -198217.148336 kJ/mol
# GULP energy per Si atom -12388.571771 kJ/mol
# Density = 2.265168 g / cm^3
# Si number density = 22.703353 Si / 1000 Ang^3
#
#
#
# Elastic Constant Matrix: (Units=GPa)
#
#
# Indices 1 2 3 4 5 6 
#
# 1 68.9114 40.5443 36.0365 -18.6830 -12.5470 -4.6974
# 2 40.5443 154.8320 53.5720 -1.5384 -5.5929 -20.6472
# 3 36.0365 53.5720 93.2601 -11.0440 -3.1015 -12.5414
# 4 -18.6830 -1.5384 -11.0440 38.9857 -3.0712 -2.0836
# 5 -12.5470 -5.5929 -3.1015 -3.0712 43.4009 0.3334
# 6 -4.6974 -20.6472 -12.5414 -2.0836 0.3334 38.0654
#
#
#
# Elastic Compliance Matrix: (Units=1/GPa)
#
#
# Indices 1 2 3 4 5 6 
#
# 1 0.023672 -0.004037 -0.005486 0.010124 0.006652 -0.000580
# 2 -0.004037 0.009129 -0.003566 -0.002451 -0.000443 0.003148
# 3 -0.005486 -0.003566 0.015404 0.001664 -0.000846 0.002563
# 4 0.010124 -0.002451 0.001664 0.031380 0.004934 0.002143
# 5 0.006652 -0.000443 -0.000846 0.004934 0.025193 0.000351
# 6 -0.000580 0.003148 0.002563 0.002143 0.000351 0.028865
#
#
# Mechanical properties :
#
#
# Convention : Reuss Voigt Hill
#
# Bulk Modulus (GPa) = 45.39705 64.14544 54.77124
# Shear Modulus (GPa) = 29.91096 36.54713 33.22905
#
# Velocity S-wave (km/s) = 3.63363 4.01654 3.82988
# Velocity P-wave (km/s) = 6.13543 7.05870 6.61320
#
# Compressibility (1/GPa) = 0.02202786
#
# Stress axis : x y z
#
# Youngs Moduli (GPa) = 42.24458 109.54148 64.91700
#
# Poissons Ratio (x) = 0.44222 0.35612
# Poissons Ratio (y) = 0.17054 0.23147
# Poissons Ratio (z) = 0.23175 0.39059
#
# Static dielectric constant tensor:
#      x y z
#    x 4.383100 0.229880 -0.219900 
#    y 0.229880 5.336100 0.261630 
#    z -0.219900 0.261630 4.106910 
# 
# 
# High freq. dielectric constant tensor:
#      x y z
#    x 1.903220 -0.003210 -0.011530 
#    y -0.003210 1.908960 -0.001390 
#    z -0.011530 -0.001390 1.880690 
# 
# From -- ./inp_files/494386.got.cif
#   From: 2010.06.25/outbox.cif.g09.slc.cpg/sg2_248_cif.got.tgz:494386.got - 2010.06.27 13:26:56.
