data_PCOD8011791
_publ_section_title
;
Structure prediction by ZEFSAII (Michael W. Deem and Ramdas Pophale) SiO2 
 PCOD8011791
Probable space group: P -1
;
_chemical_formula_sum "Si O2"
_cell_formula_units_Z 16
_cell_length_a 9.414157
_cell_length_b 12.215882
_cell_length_c 8.603795
_cell_angle_alpha 84.802007
_cell_angle_beta 86.776101
_cell_angle_gamma 47.462325
_cell_volume 726.048332
_symmetry_space_group_name_H-M "P -1"
_symmetry_group_IT_number 2
_symmetry_cell_setting 'triclinic'
loop_
_space_group_symop_operation_xyz
x,y,z
-x,-y,-z
loop_
_atom_site_type_symbol
_atom_site_label
_atom_site_fract_x
_atom_site_fract_y
_atom_site_fract_z
Si Si1 0.117284 0.873522 0.883993
Si Si2 0.728530 0.524408 0.733331
Si Si3 0.363549 0.947455 0.813502
Si Si4 0.638107 0.686472 0.034207
Si Si5 0.832030 0.731049 0.258082
Si Si6 0.151669 0.945913 0.365019
Si Si7 0.458544 0.194470 0.481591
Si Si8 0.664823 0.319321 0.833662
O O1 0.259053 0.886068 0.786659
O O2 0.238299 0.720194 0.993435
O O3 0.963161 0.908522 0.762304
O O4 0.000000 0.000000 0.000000
O O5 0.619746 0.645515 0.587613
O O6 0.615470 0.468153 0.764576
O O7 0.947435 0.386575 0.687765
O O8 0.733027 0.588723 0.885910
O O9 0.498672 0.902031 0.661065
O O10 0.216213 0.123852 0.829367
O O11 0.486872 0.862015 0.973665
O O12 0.797772 0.656014 0.139679
O O13 0.531333 0.647933 0.145074
O O14 0.704733 0.779571 0.412400
O O15 0.348066 0.897496 0.416585
O O16 0.195405 0.811285 0.283987
O O17 0.000000 0.000000 0.500000
#
# Coordination Sequence:
#
# PCOD8011791 Si02
#       8
#     2   2   2   2   2   2   2   2
#     4   9  18  34  61  91 122 151 196 257 309 351
#     4  11  25  42  65  87 130 171 206 246 315 374
#     4  10  21  39  64  90 123 163 203 258 314 363
#     4  10  22  42  65  92 124 158 212 268 303 356
#     4  12  22  42  64  90 123 170 213 248 307 372
#     4  11  20  37  63  93 129 155 204 262 314 353
#     4  11  24  41  61  92 132 165 202 258 306 373
#     4  10  21  42  65  91 123 166 203 255 314 367
#
# _framework density 22.037098
#
# number of rings (size 3 to 8) (size 9 to 14) (size 15 to 20)
#    0.000    1.500    2.500    3.375    0.000    0.500 
#    2.250    0.000    2.750    0.000    0.000    0.000 
#    0.000    0.000    0.000    0.000    0.000    0.000 
#
# Total GULP energy -198342.372894 kJ/mol
# GULP energy per Si atom -12396.398306 kJ/mol
# Density = 2.198694 g / cm^3
# Si number density = 22.037098 Si / 1000 Ang^3
#
#
#
# Elastic Constant Matrix: (Units=GPa)
#
#
# Indices 1 2 3 4 5 6 
#
# 1 74.8953 22.6621 24.3305 -12.5367 -1.0176 -9.3545
# 2 22.6621 68.0655 4.8740 -8.8506 -8.1508 1.2618
# 3 24.3305 4.8740 72.4330 1.3856 -6.3837 -2.7687
# 4 -12.5367 -8.8506 1.3856 37.2396 -7.3120 -5.1591
# 5 -1.0176 -8.1508 -6.3837 -7.3120 31.7884 1.3237
# 6 -9.3545 1.2618 -2.7687 -5.1591 1.3237 34.2455
#
#
#
# Elastic Compliance Matrix: (Units=1/GPa)
#
#
# Indices 1 2 3 4 5 6 
#
# 1 0.018488 -0.005180 -0.005827 0.005840 -0.000800 0.005681
# 2 -0.005180 0.017427 0.000907 0.003165 0.005284 -0.001711
# 3 -0.005827 0.000907 0.015961 -0.001881 0.002849 -0.000728
# 4 0.005840 0.003165 -0.001881 0.031969 0.007731 0.005844
# 5 -0.000800 0.005284 0.002849 0.007731 0.035153 -0.000377
# 6 0.005681 -0.001711 -0.000728 0.005844 -0.000377 0.031652
#
#
# Mechanical properties :
#
#
# Convention : Reuss Voigt Hill
#
# Bulk Modulus (GPa) = 31.56814 35.45855 33.51334
# Shear Modulus (GPa) = 27.56185 31.55650 29.55917
#
# Velocity S-wave (km/s) = 3.54036 3.78825 3.66640
# Velocity P-wave (km/s) = 5.57390 5.93799 5.75882
#
# Compressibility (1/GPa) = 0.03167751
#
# Stress axis : x y z
#
# Youngs Moduli (GPa) = 54.08771 57.38060 62.65143
#
# Poissons Ratio (x) = 0.29724 0.36506
# Poissons Ratio (y) = 0.28018 -0.05683
# Poissons Ratio (z) = 0.31516 -0.05205
#
# Static dielectric constant tensor:
#      x y z
#    x 3.577320 -0.157030 -0.066780 
#    y -0.157030 4.009780 -0.221280 
#    z -0.066780 -0.221280 4.361970 
# 
# 
# High freq. dielectric constant tensor:
#      x y z
#    x 1.846930 -0.020440 -0.010970 
#    y -0.020440 1.860530 -0.001390 
#    z -0.010970 -0.001390 1.877130 
# 
# From -- ./inp_files/186628.got.cif
#   From: 2010.06.25/outbox.cif.g09.slc.cpg/sg2_94_cif.got.tgz:186628.got - 2010.06.27 13:26:56.
