data_PCOD8011482
_publ_section_title
;
Structure prediction by ZEFSAII (Michael W. Deem and Ramdas Pophale) SiO2 
 PCOD8011482
Probable space group: P -1
;
_chemical_formula_sum "Si O2"
_cell_formula_units_Z 12
_cell_length_a 6.218842
_cell_length_b 5.012612
_cell_length_c 24.037811
_cell_angle_alpha 109.491378
_cell_angle_beta 49.470493
_cell_angle_gamma 104.395378
_cell_volume 536.370551
_symmetry_space_group_name_H-M "P -1"
_symmetry_group_IT_number 2
_symmetry_cell_setting 'triclinic'
loop_
_space_group_symop_operation_xyz
x,y,z
-x,-y,-z
loop_
_atom_site_type_symbol
_atom_site_label
_atom_site_fract_x
_atom_site_fract_y
_atom_site_fract_z
Si Si1 0.285933 0.515362 0.112271
Si Si2 0.336187 0.459363 0.771904
Si Si3 0.816801 0.281254 0.979001
Si Si4 0.319390 0.685841 0.403916
Si Si5 0.680784 0.709424 0.522157
Si Si6 0.353184 0.055946 0.845243
O O1 0.222752 0.583134 0.064479
O O2 0.447830 0.780869 0.132903
O O3 0.982180 0.464444 0.189527
O O4 0.499363 0.243989 0.057964
O O5 0.505538 0.364973 0.683897
O O6 0.347495 0.213852 0.798143
O O7 0.476623 0.747242 0.794808
O O8 0.021751 0.014109 0.920556
O O9 0.000000 0.500000 0.000000
O O10 0.330874 0.413043 0.422068
O O11 0.994948 0.732104 0.445189
O O12 0.441042 0.975235 0.433682
O O13 0.500000 0.500000 0.500000
#
# Coordination Sequence:
#
# PCOD8011482 Si02
#       6
#     2   2   2   2   2   2
#     4   9  19  36  58  82 113 151 189 236 287 329
#     4  11  23  38  57  85 117 147 186 234 282 334
#     4   8  16  36  58  81 111 149 194 236 277 333
#     4  10  22  38  58  87 116 145 188 231 273 337
#     4  10  21  39  62  85 113 150 186 226 278 333
#     4  10  22  37  56  83 113 150 192 232 280 335
#
# _framework density 22.372592999999998
#
# number of rings (size 3 to 8) (size 9 to 14) (size 15 to 20)
#    0.000    2.333    0.000    1.500    0.000    6.000 
#    0.000   28.333    0.000    0.000    0.000    0.000 
#    0.000    0.000    0.000    0.000    0.000    0.000 
#
# Total GULP energy -148684.287087 kJ/mol
# GULP energy per Si atom -12390.357257 kJ/mol
# Density = 2.232167 g / cm^3
# Si number density = 22.372593 Si / 1000 Ang^3
#
#
#
# Elastic Constant Matrix: (Units=GPa)
#
#
# Indices 1 2 3 4 5 6 
#
# 1 75.9532 5.8065 48.5254 -3.8992 1.1734 23.6530
# 2 5.8065 82.1660 44.3026 9.6861 -6.3853 3.0521
# 3 48.5254 44.3026 171.9496 3.9106 -7.2186 16.4389
# 4 -3.8992 9.6861 3.9106 33.8921 0.6590 1.2576
# 5 1.1734 -6.3853 -7.2186 0.6590 18.2528 5.6242
# 6 23.6530 3.0521 16.4389 1.2576 5.6242 21.1209
#
#
#
# Elastic Compliance Matrix: (Units=1/GPa)
#
#
# Indices 1 2 3 4 5 6 
#
# 1 0.023866 0.001701 -0.004687 0.003629 0.004717 -0.024797
# 2 0.001701 0.014987 -0.003886 -0.003650 0.004339 -0.001983
# 3 -0.004687 -0.003886 0.008399 -0.000398 0.002717 -0.001427
# 4 0.003629 -0.003650 -0.000398 0.031213 -0.001337 -0.004730
# 5 0.004717 0.004339 0.002717 -0.001337 0.064897 -0.025226
# 6 -0.024797 -0.001983 -0.001427 -0.004730 -0.025226 0.083512
#
#
# Mechanical properties :
#
#
# Convention : Reuss Voigt Hill
#
# Bulk Modulus (GPa) = 29.84525 58.59307 44.21916
# Shear Modulus (GPa) = 19.85783 30.08209 24.96996
#
# Velocity S-wave (km/s) = 2.98249 3.67085 3.34443
# Velocity P-wave (km/s) = 5.02288 6.64931 5.89248
#
# Compressibility (1/GPa) = 0.03350617
#
# Stress axis : x y z
#
# Youngs Moduli (GPa) = 41.90021 66.72439 119.05789
#
# Poissons Ratio (x) = -0.11347 0.55805
# Poissons Ratio (y) = -0.07125 0.46272
# Poissons Ratio (z) = 0.19640 0.25932
#
# Static dielectric constant tensor:
#      x y z
#    x 4.335760 0.083330 -0.377230 
#    y 0.083330 4.035930 0.096900 
#    z -0.377230 0.096900 4.249060 
# 
# 
# High freq. dielectric constant tensor:
#      x y z
#    x 1.883350 0.011620 -0.002040 
#    y 0.011620 1.876310 0.013500 
#    z -0.002040 0.013500 1.882610 
# 
# From -- ./inp_files/3596.got.cif
#   From: 2010.06.25/outbox.cif.g09.slc.cpg/sg2_2_cif.got.tgz:3596.got - 2010.06.27 13:26:56.
