data_PCOD8011705
_publ_section_title
;
Structure prediction by ZEFSAII (Michael W. Deem and Ramdas Pophale) SiO2 
 PCOD8011705
Probable space group: P -1
;
_chemical_formula_sum "Si O2"
_cell_formula_units_Z 16
_cell_length_a 6.355442
_cell_length_b 24.049974
_cell_length_c 21.373377
_cell_angle_alpha 18.625957
_cell_angle_beta 57.633896
_cell_angle_gamma 48.792430
_cell_volume 729.207098
_symmetry_space_group_name_H-M "P -1"
_symmetry_group_IT_number 2
_symmetry_cell_setting 'triclinic'
loop_
_space_group_symop_operation_xyz
x,y,z
-x,-y,-z
loop_
_atom_site_type_symbol
_atom_site_label
_atom_site_fract_x
_atom_site_fract_y
_atom_site_fract_z
Si Si1 0.913595 0.484286 0.362120
Si Si2 0.001338 0.069167 0.274933
Si Si3 0.409741 0.692188 0.135196
Si Si4 0.738092 0.879115 0.037120
Si Si5 0.483359 0.058443 0.754884
Si Si6 0.146928 0.601571 0.949353
Si Si7 0.027607 0.709627 0.714420
Si Si8 0.353976 0.569480 0.142227
O O1 0.626487 0.508913 0.346704
O O2 0.780872 0.657196 0.253976
O O3 0.136188 0.255686 0.600895
O O4 0.094528 0.527475 0.235720
O O5 0.012646 0.224578 0.156513
O O6 0.328516 0.905069 0.365729
O O7 0.870882 0.945433 0.460401
O O8 0.780280 0.204626 0.109083
O O9 0.479652 0.571492 0.187785
O O10 0.058685 0.824792 0.067793
O O11 0.509875 0.851605 0.948431
O O12 0.500000 0.000000 0.000000
O O13 0.627098 0.022400 0.839436
O O14 0.979069 0.719111 0.786368
O O15 0.500000 0.500000 0.000000
O O16 0.097529 0.413893 0.168452
O O17 0.381641 0.600383 0.763079
#
# Coordination Sequence:
#
# PCOD8011705 Si02
#       8
#     2   2   2   2   2   2   2   2
#     4  10  22  39  64  95 130 161 213 272 321 386
#     4  12  22  44  67  95 129 169 222 277 331 394
#     4  10  21  39  63  93 129 168 212 268 327 382
#     4  10  23  43  63  90 135 174 208 262 324 392
#     4  11  22  40  65  98 124 166 222 268 325 393
#     4  11  25  46  62  92 135 170 223 276 327 402
#     4  11  25  42  67  91 129 177 214 273 345 386
#     4  11  21  41  62  95 128 163 217 271 328 391
#
# _framework density 21.94164
#
# number of rings (size 3 to 8) (size 9 to 14) (size 15 to 20)
#    0.000    1.250    6.250    1.125    0.000    6.000 
#    4.500    1.250    0.000    0.000    0.000    0.000 
#    0.000    0.000    0.000    0.000    0.000    0.000 
#
# Total GULP energy -198378.051002 kJ/mol
# GULP energy per Si atom -12398.628188 kJ/mol
# Density = 2.189170 g / cm^3
# Si number density = 21.941640 Si / 1000 Ang^3
#
#
#
# Elastic Constant Matrix: (Units=GPa)
#
#
# Indices 1 2 3 4 5 6 
#
# 1 115.5341 34.2781 32.5005 -0.1044 14.3018 -1.0677
# 2 34.2781 118.0391 14.0835 -9.8295 4.5865 12.7917
# 3 32.5005 14.0835 85.1731 -6.9537 13.7927 4.2786
# 4 -0.1044 -9.8295 -6.9537 28.5465 -8.1578 -1.4871
# 5 14.3018 4.5865 13.7927 -8.1578 37.3614 -7.9103
# 6 -1.0677 12.7917 4.2786 -1.4871 -7.9103 24.3554
#
#
#
# Elastic Compliance Matrix: (Units=1/GPa)
#
#
# Indices 1 2 3 4 5 6 
#
# 1 0.010889 -0.003029 -0.003506 -0.002545 -0.002709 0.001649
# 2 -0.003029 0.010219 0.000097 0.003062 -0.000634 -0.005536
# 3 -0.003506 0.000097 0.014119 0.002033 -0.004274 -0.003949
# 4 -0.002545 0.003062 0.002033 0.039354 0.009138 0.003294
# 5 -0.002709 -0.000634 -0.004274 0.009138 0.034123 0.012606
# 6 0.001649 -0.005536 -0.003949 0.003294 0.012606 0.049028
#
#
# Mechanical properties :
#
#
# Convention : Reuss Voigt Hill
#
# Bulk Modulus (GPa) = 44.74159 53.38561 49.06360
# Shear Modulus (GPa) = 28.08069 33.91162 30.99615
#
# Velocity S-wave (km/s) = 3.58130 3.93560 3.76262
# Velocity P-wave (km/s) = 6.12669 6.71085 6.42541
#
# Compressibility (1/GPa) = 0.02235057
#
# Stress axis : x y z
#
# Youngs Moduli (GPa) = 91.83841 97.85293 70.82573
#
# Poissons Ratio (x) = 0.29641 0.24832
# Poissons Ratio (y) = 0.27819 -0.00686
# Poissons Ratio (z) = 0.32199 -0.00948
#
# Static dielectric constant tensor:
#      x y z
#    x 4.036220 -0.019670 0.163740 
#    y -0.019670 3.832020 -0.070250 
#    z 0.163740 -0.070250 3.989740 
# 
# 
# High freq. dielectric constant tensor:
#      x y z
#    x 1.860540 0.000970 0.011210 
#    y 0.000970 1.856330 -0.010630 
#    z 0.011210 -0.010630 1.860210 
# 
# From -- ./inp_files/53352.got.cif
#   From: 2010.06.25/outbox.cif.g09.slc.cpg/sg2_27_cif.got.tgz:53352.got - 2010.06.27 13:26:56.
