data_PCOD8011614
_publ_section_title
;
Structure prediction by ZEFSAII (Michael W. Deem and Ramdas Pophale) SiO2 
 PCOD8011614
Probable space group: P -1
;
_chemical_formula_sum "Si O2"
_cell_formula_units_Z 16
_cell_length_a 21.124041
_cell_length_b 21.586482
_cell_length_c 8.153647
_cell_angle_alpha 45.802729
_cell_angle_beta 42.985737
_cell_angle_gamma 18.068302
_cell_volume 786.207068
_symmetry_space_group_name_H-M "P -1"
_symmetry_group_IT_number 2
_symmetry_cell_setting 'triclinic'
loop_
_space_group_symop_operation_xyz
x,y,z
-x,-y,-z
loop_
_atom_site_type_symbol
_atom_site_label
_atom_site_fract_x
_atom_site_fract_y
_atom_site_fract_z
Si Si1 0.472812 0.024630 0.697838
Si Si2 0.190437 0.941691 0.423514
Si Si3 0.406644 0.915680 0.224725
Si Si4 0.188900 0.392204 0.749149
Si Si5 0.781980 0.208992 0.868094
Si Si6 0.073218 0.087919 0.010386
Si Si7 0.332597 0.651971 0.802598
Si Si8 0.863070 0.795310 0.512583
O O1 0.289991 0.245730 0.689720
O O2 0.500000 0.000000 0.500000
O O3 0.696579 0.860188 0.662258
O O4 0.411231 0.980762 0.950497
O O5 0.127727 0.030170 0.202676
O O6 0.974099 0.109471 0.628860
O O7 0.360726 0.861253 0.335964
O O8 0.313173 0.747145 0.534404
O O9 0.629605 0.727446 0.248537
O O10 0.203273 0.108898 0.365508
O O11 0.095506 0.555510 0.533742
O O12 0.000000 0.500000 0.000000
O O13 0.571662 0.417916 0.788041
O O14 0.814066 0.081612 0.997588
O O15 0.756454 0.238140 0.057361
O O16 0.818145 0.298155 0.071332
O O17 0.147000 0.121572 0.758199
#
# Coordination Sequence:
#
# PCOD8011614 Si02
#       8
#     2   2   2   2   2   2   2   2
#     4  11  23  40  64  93 127 158 197 260 318 363
#     4  11  23  38  58  91 124 160 199 252 311 357
#     4  11  22  40  64  87 122 161 208 252 305 372
#     4  11  21  43  66  90 117 167 211 251 302 371
#     4  10  21  40  63  86 120 161 206 250 300 363
#     4  11  23  38  60  89 126 160 197 255 310 358
#     4  10  21  39  63  88 117 163 209 247 298 367
#     4  11  22  41  64  88 121 162 210 250 304 372
#
# _framework density 20.350873
#
# number of rings (size 3 to 8) (size 9 to 14) (size 15 to 20)
#    0.000    1.250    2.500    6.000    0.000    7.500 
#    0.000    1.250    0.000    0.000    0.000    0.000 
#    0.000    0.000    0.000    0.000    0.000    0.000 
#
# Total GULP energy -198429.627144 kJ/mol
# GULP energy per Si atom -12401.851697 kJ/mol
# Density = 2.030455 g / cm^3
# Si number density = 20.350873 Si / 1000 Ang^3
#
#
#
# Elastic Constant Matrix: (Units=GPa)
#
#
# Indices 1 2 3 4 5 6 
#
# 1 70.7966 38.2378 12.7118 7.6160 -1.5577 -7.1059
# 2 38.2378 121.2329 47.2210 -8.3725 4.6313 -10.6298
# 3 12.7118 47.2210 122.2739 -9.5730 2.3729 -2.5908
# 4 7.6160 -8.3725 -9.5730 22.4018 -5.9266 0.3755
# 5 -1.5577 4.6313 2.3729 -5.9266 37.8353 -0.4521
# 6 -7.1059 -10.6298 -2.5908 0.3755 -0.4521 20.1173
#
#
#
# Elastic Compliance Matrix: (Units=1/GPa)
#
#
# Indices 1 2 3 4 5 6 
#
# 1 0.018786 -0.006155 -0.000192 -0.008774 0.000207 0.003527
# 2 -0.006155 0.012299 -0.003634 0.004882 -0.000721 0.003749
# 3 -0.000192 -0.003634 0.009814 0.002988 0.000280 -0.000774
# 4 -0.008774 0.004882 0.002988 0.052614 0.007084 -0.000957
# 5 0.000207 -0.000721 0.000280 0.007084 0.027622 0.000216
# 6 0.003527 0.003749 -0.000774 -0.000957 0.000216 0.052858
#
#
# Mechanical properties :
#
#
# Convention : Reuss Voigt Hill
#
# Bulk Modulus (GPa) = 47.76391 56.73831 52.25111
# Shear Modulus (GPa) = 24.88368 30.47973 27.68171
#
# Velocity S-wave (km/s) = 3.50055 3.87423 3.69212
# Velocity P-wave (km/s) = 6.31345 6.92484 6.62620
#
# Compressibility (1/GPa) = 0.02093631
#
# Stress axis : x y z
#
# Youngs Moduli (GPa) = 53.23035 81.30791 101.89609
#
# Poissons Ratio (x) = 0.50045 0.01959
# Poissons Ratio (y) = 0.32763 0.37030
# Poissons Ratio (z) = 0.01023 0.29548
#
# Static dielectric constant tensor:
#      x y z
#    x 3.405500 -0.040160 -0.168410 
#    y -0.040160 3.855350 -0.094680 
#    z -0.168410 -0.094680 3.849100 
# 
# 
# High freq. dielectric constant tensor:
#      x y z
#    x 1.795850 -0.012710 0.001260 
#    y -0.012710 1.796360 -0.005850 
#    z 0.001260 -0.005850 1.805230 
# 
# From -- ./inp_files/349690.got.cif
#   From: 2010.06.25/outbox.cif.g09.slc.cpg/sg2_175_cif.got.tgz:349690.got - 2010.06.27 13:26:56.
