data_PCOD8011697
_publ_section_title
;
Structure prediction by ZEFSAII (Michael W. Deem and Ramdas Pophale) SiO2 
 PCOD8011697
Probable space group: P -1
;
_chemical_formula_sum "Si O2"
_cell_formula_units_Z 16
_cell_length_a 9.190612
_cell_length_b 13.140266
_cell_length_c 28.088891
_cell_angle_alpha 27.466727
_cell_angle_beta 39.769697
_cell_angle_gamma 29.930962
_cell_volume 780.667146
_symmetry_space_group_name_H-M "P -1"
_symmetry_group_IT_number 2
_symmetry_cell_setting 'triclinic'
loop_
_space_group_symop_operation_xyz
x,y,z
-x,-y,-z
loop_
_atom_site_type_symbol
_atom_site_label
_atom_site_fract_x
_atom_site_fract_y
_atom_site_fract_z
Si Si1 0.982389 0.684277 0.026377
Si Si2 0.686158 0.325886 0.382128
Si Si3 0.376798 0.654027 0.416846
Si Si4 0.490565 0.314325 0.897947
Si Si5 0.320883 0.745065 0.843283
Si Si6 0.811536 0.811251 0.523727
Si Si7 0.244317 0.638663 0.278579
Si Si8 0.791257 0.764111 0.761861
O O1 0.801341 0.654854 0.044896
O O2 0.110924 0.455242 0.129870
O O3 0.252286 0.635555 0.951836
O O4 0.768918 0.996099 0.974146
O O5 0.596590 0.441466 0.409566
O O6 0.410745 0.509819 0.339854
O O7 0.935979 0.341429 0.296120
O O8 0.808048 0.999168 0.488265
O O9 0.500000 0.500000 0.500000
O O10 0.059580 0.734673 0.455294
O O11 0.351287 0.932992 0.304641
O O12 0.456991 0.518712 0.861190
O O13 0.536292 0.395017 0.801265
O O14 0.552952 0.790645 0.778385
O O15 0.025068 0.037545 0.777993
O O16 0.874647 0.524060 0.644595
O O17 0.500000 0.000000 0.500000
#
# Coordination Sequence:
#
# PCOD8011697 Si02
#       8
#     2   2   2   2   2   2   2   2
#     4  10  22  42  62  92 129 161 210 256 309 370
#     4  10  23  41  64  87 124 174 205 251 317 369
#     4  11  25  42  62  91 127 165 208 255 311 373
#     4  10  22  40  65  92 128 162 205 260 306 373
#     4  11  24  37  66  97 124 164 206 261 312 360
#     4   9  21  39  61  90 122 156 206 259 298 362
#     4  10  21  39  63  93 124 160 212 256 305 373
#     4  11  24  42  64  93 129 165 208 257 308 375
#
# _framework density 20.495291000000002
#
# number of rings (size 3 to 8) (size 9 to 14) (size 15 to 20)
#    0.000    1.750    1.250    1.500    1.750   10.500 
#    0.000    0.000    0.000    0.000    0.000    0.000 
#    0.000    0.000    0.000    0.000    0.000    0.000 
#
# Total GULP energy -198427.896217 kJ/mol
# GULP energy per Si atom -12401.743514 kJ/mol
# Density = 2.044864 g / cm^3
# Si number density = 20.495291 Si / 1000 Ang^3
#
#
#
# Elastic Constant Matrix: (Units=GPa)
#
#
# Indices 1 2 3 4 5 6 
#
# 1 71.3698 45.6586 34.7423 12.6357 -11.7438 2.8648
# 2 45.6586 104.1323 39.9809 2.7318 -5.0398 20.1689
# 3 34.7423 39.9809 116.5537 -5.7665 -8.2288 12.3424
# 4 12.6357 2.7318 -5.7665 26.1900 -3.3735 -7.8964
# 5 -11.7438 -5.0398 -8.2288 -3.3735 40.0333 2.7737
# 6 2.8648 20.1689 12.3424 -7.8964 2.7737 31.2416
#
#
#
# Elastic Compliance Matrix: (Units=1/GPa)
#
#
# Indices 1 2 3 4 5 6 
#
# 1 0.024461 -0.008876 -0.004735 -0.010708 0.004024 0.002294
# 2 -0.008876 0.015939 -0.001946 -0.000517 -0.000431 -0.008800
# 3 -0.004735 -0.001946 0.011143 0.004591 0.001158 -0.001654
# 4 -0.010708 -0.000517 0.004591 0.048024 0.000984 0.011553
# 5 0.004024 -0.000431 0.001158 0.000984 0.026611 -0.002662
# 6 0.002294 -0.008800 -0.001654 0.011553 -0.002662 0.041289
#
#
# Mechanical properties :
#
#
# Convention : Reuss Voigt Hill
#
# Bulk Modulus (GPa) = 48.95121 59.20213 54.07667
# Shear Modulus (GPa) = 24.34396 30.93790 27.64093
#
# Velocity S-wave (km/s) = 3.45016 3.88946 3.67638
# Velocity P-wave (km/s) = 6.30932 7.00849 6.66807
#
# Compressibility (1/GPa) = 0.02042850
#
# Stress axis : x y z
#
# Youngs Moduli (GPa) = 40.88186 62.73840 89.74404
#
# Poissons Ratio (x) = 0.55685 0.42496
# Poissons Ratio (y) = 0.36286 0.17465
# Poissons Ratio (z) = 0.19359 0.12209
#
# Static dielectric constant tensor:
#      x y z
#    x 3.580620 -0.245050 -0.499460 
#    y -0.245050 4.218100 0.608380 
#    z -0.499460 0.608380 5.420580 
# 
# 
# High freq. dielectric constant tensor:
#      x y z
#    x 1.790150 -0.013440 -0.016840 
#    y -0.013440 1.808780 -0.006670 
#    z -0.016840 -0.006670 1.816680 
# 
# From -- ./inp_files/46667.got.cif
#   From: 2010.06.25/outbox.cif.g09.slc.cpg/sg2_24_cif.got.tgz:46667.got - 2010.06.27 13:26:56.
