data_PCOD8011104
_publ_section_title
;
Structure prediction by ZEFSAII (Michael W. Deem and Ramdas Pophale) SiO2 
 PCOD8011104
Probable space group: P -1
;
_chemical_formula_sum "Si O2"
_cell_formula_units_Z 16
_cell_length_a 25.149008
_cell_length_b 9.416756
_cell_length_c 12.101409
_cell_angle_alpha 64.279094
_cell_angle_beta 151.361073
_cell_angle_gamma 134.876860
_cell_volume 815.773167
_symmetry_space_group_name_H-M "P -1"
_symmetry_group_IT_number 2
_symmetry_cell_setting 'triclinic'
loop_
_space_group_symop_operation_xyz
x,y,z
-x,-y,-z
loop_
_atom_site_type_symbol
_atom_site_label
_atom_site_fract_x
_atom_site_fract_y
_atom_site_fract_z
Si Si1 0.007882 0.990054 0.387142
Si Si2 0.504983 0.163957 0.187466
Si Si3 0.062329 0.416123 0.711975
Si Si4 0.228904 0.780565 0.406003
Si Si5 0.922933 0.241987 0.077697
Si Si6 0.666805 0.121557 0.824876
Si Si7 0.252745 0.982857 0.595082
Si Si8 0.684218 0.647909 0.318071
O O1 0.201651 0.201362 0.632324
O O2 0.921616 0.051074 0.153131
O O3 0.000000 0.000000 0.500000
O O4 0.926299 0.734728 0.287555
O O5 0.597885 0.096169 0.373282
O O6 0.669843 0.453608 0.397250
O O7 0.392770 0.064777 0.126228
O O8 0.389668 0.065729 0.903794
O O9 0.000000 0.500000 0.500000
O O10 0.933658 0.267140 0.628122
O O11 0.243215 0.640325 0.023440
O O12 0.296464 0.968688 0.559613
O O13 0.108841 0.519078 0.332351
O O14 0.134816 0.783725 0.142782
O O15 0.797936 0.180311 0.961940
O O16 0.500000 0.000000 0.500000
O O17 0.253237 0.174171 0.528225
O O18 0.500000 0.500000 0.000000
#
# Coordination Sequence:
#
# PCOD8011104 Si02
#       8
#     2   2   2   2   2   2   2   2
#     4  11  24  41  68  97 130 172 218 277 322 388
#     4  11  21  39  66  93 127 166 217 268 326 383
#     4  11  22  42  67  97 128 171 224 267 326 395
#     4  11  22  41  63  94 129 169 213 268 321 388
#     4  11  24  42  63  92 133 171 215 263 332 389
#     4  12  24  43  65  93 132 176 219 266 331 395
#     4  10  21  38  67  90 125 164 217 272 316 386
#     4   9  21  40  58  95 126 160 208 262 331 375
#
# _framework density 19.613294
#
# number of rings (size 3 to 8) (size 9 to 14) (size 15 to 20)
#    0.000    1.250    5.000    1.125    3.500    0.000 
#    6.750    1.875    0.000    0.000    0.000    0.000 
#    0.000    0.000    0.000    0.000    0.000    0.000 
#
# Total GULP energy -198268.868635 kJ/mol
# GULP energy per Si atom -12391.804290 kJ/mol
# Density = 1.956865 g / cm^3
# Si number density = 19.613294 Si / 1000 Ang^3
#
#
#
# Elastic Constant Matrix: (Units=GPa)
#
#
# Indices 1 2 3 4 5 6 
#
# 1 117.1565 67.7264 44.9492 -2.1646 0.0454 -3.7520
# 2 67.7264 121.1951 43.0881 8.2391 -10.1868 -9.7091
# 3 44.9492 43.0881 98.5812 9.7574 -4.4783 -7.3315
# 4 -2.1646 8.2391 9.7574 29.7208 1.5901 5.7308
# 5 0.0454 -10.1868 -4.4783 1.5901 34.8582 1.4497
# 6 -3.7520 -9.7091 -7.3315 5.7308 1.4497 28.1636
#
#
#
# Elastic Compliance Matrix: (Units=1/GPa)
#
#
# Indices 1 2 3 4 5 6 
#
# 1 0.014405 -0.007358 -0.004181 0.005114 -0.002831 -0.002601
# 2 -0.007358 0.013992 -0.001795 -0.004837 0.003916 0.004159
# 3 -0.004181 -0.001795 0.013636 -0.004995 0.001322 0.003322
# 4 0.005114 -0.004837 -0.004995 0.039125 -0.003428 -0.010071
# 5 -0.002831 0.003916 0.001322 -0.003428 0.030143 0.000463
# 6 -0.002601 0.004159 0.003322 -0.010071 0.000463 0.039484
#
#
# Mechanical properties :
#
#
# Convention : Reuss Voigt Hill
#
# Bulk Modulus (GPa) = 65.07385 72.05114 68.56249
# Shear Modulus (GPa) = 27.38616 30.62646 29.00631
#
# Velocity S-wave (km/s) = 3.74077 3.95589 3.84983
# Velocity P-wave (km/s) = 7.20474 7.59480 7.40234
#
# Compressibility (1/GPa) = 0.01536716
#
# Stress axis : x y z
#
# Youngs Moduli (GPa) = 69.41970 71.46943 73.33428
#
# Poissons Ratio (x) = 0.52584 0.30658
# Poissons Ratio (y) = 0.51076 0.13163
# Poissons Ratio (z) = 0.29021 0.12829
#
# Static dielectric constant tensor:
#      x y z
#    x 3.663300 0.053880 0.111180 
#    y 0.053880 1.912140 -0.212680 
#    z 0.111180 -0.212680 3.506880 
# 
# 
# High freq. dielectric constant tensor:
#      x y z
#    x 1.772910 -0.000800 0.011860 
#    y -0.000800 1.766780 0.008920 
#    z 0.011860 0.008920 1.757570 
# 
# From -- ./inp_files/257963.got.cif
#   From: 2010.06.25/outbox.cif.g09.slc.cpg/sg2_129_cif.got.tgz:257963.got - 2010.06.27 13:26:56.
