data_PCOD8011297
_publ_section_title
;
Structure prediction by ZEFSAII (Michael W. Deem and Ramdas Pophale) SiO2 
 PCOD8011297
Probable space group: P -1
;
_chemical_formula_sum "Si O2"
_cell_formula_units_Z 16
_cell_length_a 5.585923
_cell_length_b 11.542638
_cell_length_c 29.167960
_cell_angle_alpha 28.657006
_cell_angle_beta 122.561720
_cell_angle_gamma 113.213573
_cell_volume 745.790725
_symmetry_space_group_name_H-M "P -1"
_symmetry_group_IT_number 2
_symmetry_cell_setting 'triclinic'
loop_
_space_group_symop_operation_xyz
x,y,z
-x,-y,-z
loop_
_atom_site_type_symbol
_atom_site_label
_atom_site_fract_x
_atom_site_fract_y
_atom_site_fract_z
Si Si1 0.132013 0.088160 0.164717
Si Si2 0.810088 0.547783 0.026426
Si Si3 0.960206 0.381508 0.489032
Si Si4 0.955496 0.687727 0.780591
Si Si5 0.552513 0.031483 0.303504
Si Si6 0.897497 0.620821 0.309561
Si Si7 0.540183 0.671756 0.666215
Si Si8 0.602335 0.787545 0.529269
O O1 0.415124 0.952747 0.268789
O O2 0.030150 0.333134 0.098537
O O3 0.913245 0.900030 0.201834
O O4 0.180980 0.178611 0.086741
O O5 0.884485 0.534301 0.092878
O O6 0.500000 0.500000 0.000000
O O7 0.844263 0.603488 0.364528
O O8 0.000000 0.500000 0.500000
O O9 0.724772 0.204893 0.524762
O O10 0.271740 0.210342 0.568821
O O11 0.699799 0.855103 0.726140
O O12 0.804073 0.576498 0.761120
O O13 0.210735 0.810101 0.743451
O O14 0.189042 0.421115 0.404103
O O15 0.647969 0.541699 0.280518
O O16 0.659742 0.718028 0.612555
O O17 0.344401 0.934717 0.570918
#
# Coordination Sequence:
#
# PCOD8011297 Si02
#       8
#     2   2   2   2   2   2   2   2
#     4  10  23  40  62  94 124 162 211 265 340 383
#     4  10  21  41  67  91 119 158 211 275 330 392
#     4  11  24  35  58  93 131 168 209 261 318 383
#     4  11  23  40  69  94 123 167 218 270 316 381
#     4  11  23  39  64  95 128 166 210 267 321 386
#     4  11  24  39  60  89 133 174 207 267 313 383
#     4  10  22  38  60  90 124 175 221 253 304 380
#     4  10  21  39  59  87 127 174 221 249 310 374
#
# _framework density 21.453741000000001
#
# number of rings (size 3 to 8) (size 9 to 14) (size 15 to 20)
#    0.000    1.500    2.500    1.875    5.250    3.000 
#    0.000    0.625    0.000    1.500    0.000    0.000 
#    0.000    0.000    0.000    0.000    0.000    0.000 
#
# Total GULP energy -198254.387300 kJ/mol
# GULP energy per Si atom -12390.899206 kJ/mol
# Density = 2.140491 g / cm^3
# Si number density = 21.453741 Si / 1000 Ang^3
#
#
#
# Elastic Constant Matrix: (Units=GPa)
#
#
# Indices 1 2 3 4 5 6 
#
# 1 70.8965 24.5006 9.1769 2.9845 -12.2487 16.3528
# 2 24.5006 138.1819 53.2092 21.4738 -22.2152 22.6550
# 3 9.1769 53.2092 79.9689 21.2963 -29.5330 22.6322
# 4 2.9845 21.4738 21.2963 42.9179 9.8701 -3.0218
# 5 -12.2487 -22.2152 -29.5330 9.8701 33.3903 -6.3547
# 6 16.3528 22.6550 22.6322 -3.0218 -6.3547 32.3716
#
#
#
# Elastic Compliance Matrix: (Units=1/GPa)
#
#
# Indices 1 2 3 4 5 6 
#
# 1 0.020710 -0.000898 0.014597 -0.014241 0.020832 -0.017279
# 2 -0.000898 0.010936 -0.001395 -0.006629 0.006617 -0.005545
# 3 0.014597 -0.001395 0.057847 -0.045970 0.061755 -0.039008
# 4 -0.014241 -0.006629 -0.045970 0.067589 -0.063060 0.037903
# 5 0.020832 0.006617 0.061755 -0.063060 0.107032 -0.043205
# 6 -0.017279 -0.005545 -0.039008 0.037903 -0.043205 0.065829
#
#
# Mechanical properties :
#
#
# Convention : Reuss Voigt Hill
#
# Bulk Modulus (GPa) = 8.76421 51.42452 30.09437
# Shear Modulus (GPa) = 14.56155 35.21333 24.88744
#
# Velocity S-wave (km/s) = 2.60809 4.05577 3.40965
# Velocity P-wave (km/s) = 3.62816 6.77896 5.43681
#
# Compressibility (1/GPa) = 0.11410036
#
# Stress axis : x y z
#
# Youngs Moduli (GPa) = 48.28605 91.43797 17.28700
#
# Poissons Ratio (x) = 0.08208 -0.25233
# Poissons Ratio (y) = 0.04334 0.02412
# Poissons Ratio (z) = -0.70481 0.12760
#
# Static dielectric constant tensor:
#      x y z
#    x 3.829930 0.054790 -0.237230 
#    y 0.054790 3.924690 0.314760 
#    z -0.237230 0.314760 4.177790 
# 
# 
# High freq. dielectric constant tensor:
#      x y z
#    x 1.841780 0.008060 -0.008980 
#    y 0.008060 1.832680 0.025790 
#    z -0.008980 0.025790 1.835200 
# 
# From -- ./inp_files/68672.got.cif
#   From: 2010.06.25/outbox.cif.g09.slc.cpg/sg2_35_cif.got.tgz:68672.got - 2010.06.27 13:26:56.
