data_PCOD8011172
_publ_section_title
;
Structure prediction by ZEFSAII (Michael W. Deem and Ramdas Pophale) SiO2 
 PCOD8011172
Probable space group: P -1
;
_chemical_formula_sum "Si O2"
_cell_formula_units_Z 14
_cell_length_a 17.639934
_cell_length_b 10.985798
_cell_length_c 14.146525
_cell_angle_alpha 158.864650
_cell_angle_beta 36.741620
_cell_angle_gamma 142.963840
_cell_volume 574.673551
_symmetry_space_group_name_H-M "P -1"
_symmetry_group_IT_number 2
_symmetry_cell_setting 'triclinic'
loop_
_space_group_symop_operation_xyz
x,y,z
-x,-y,-z
loop_
_atom_site_type_symbol
_atom_site_label
_atom_site_fract_x
_atom_site_fract_y
_atom_site_fract_z
Si Si1 0.035895 0.549095 0.843897
Si Si2 0.603617 0.740225 0.504740
Si Si3 0.116999 0.311905 0.260502
Si Si4 0.377264 0.541310 0.059052
Si Si5 0.192230 0.665180 0.962952
Si Si6 0.237681 0.389289 0.397611
Si Si7 0.495104 0.145716 0.502971
O O1 0.105914 0.323481 0.543726
O O2 0.887298 0.347214 0.867419
O O3 0.100992 0.620230 0.931423
O O4 0.045476 0.909068 0.039969
O O5 0.500000 0.500000 0.500000
O O6 0.566430 0.645626 0.363514
O O7 0.614780 0.154031 0.807286
O O8 0.739599 0.652654 0.329857
O O9 0.224857 0.389406 0.125278
O O10 0.200386 0.434781 0.360114
O O11 0.000000 0.500000 0.500000
O O12 0.459195 0.734549 0.209657
O O13 0.438164 0.232890 0.726507
O O14 0.290466 0.043516 0.119350
O O15 0.347380 0.724742 0.562862
#
# Coordination Sequence:
#
# PCOD8011172 Si02
#       7
#     2   2   2   2   2   2   2
#     4  10  23  40  66  94 131 177 224 279 338 402
#     4  10  21  38  68  98 138 175 220 274 334 400
#     4  11  26  45  68  94 132 176 232 281 340 401
#     4  10  25  45  67 103 136 181 225 279 334 404
#     4  10  21  40  63  99 135 172 224 277 338 398
#     4  11  24  41  68  97 132 178 223 284 336 408
#     4  10  25  43  69 102 139 177 224 275 341 400
#
# _framework density 24.361657999999998
#
# number of rings (size 3 to 8) (size 9 to 14) (size 15 to 20)
#    0.857    0.857    0.000    3.000    6.000    6.286 
#    0.000    0.000    0.000    0.000    0.000    0.000 
#    0.000    0.000    0.000    0.000    0.000    0.000 
#
# Total GULP energy -173484.325101 kJ/mol
# GULP energy per Si atom -12391.737507 kJ/mol
# Density = 2.430621 g / cm^3
# Si number density = 24.361658 Si / 1000 Ang^3
#
#
#
# Elastic Constant Matrix: (Units=GPa)
#
#
# Indices 1 2 3 4 5 6 
#
# 1 29.4808 43.3978 43.0102 20.4803 -6.8898 -8.8367
# 2 43.3978 139.7351 48.4192 -11.7290 -8.6474 -9.9623
# 3 43.0102 48.4192 151.9895 -6.2323 -19.4613 -5.2678
# 4 20.4803 -11.7290 -6.2323 44.6485 -5.9575 -0.6190
# 5 -6.8898 -8.6474 -19.4613 -5.9575 18.9497 -5.9302
# 6 -8.8367 -9.9623 -5.2678 -0.6190 -5.9302 36.1199
#
#
#
# Elastic Compliance Matrix: (Units=1/GPa)
#
#
# Indices 1 2 3 4 5 6 
#
# 1 -0.219449 0.061765 0.051431 0.128436 0.034956 -0.021212
# 2 0.061765 -0.008912 -0.016563 -0.033738 -0.006539 0.008586
# 3 0.051431 -0.016563 -0.003485 -0.028204 0.000941 0.007177
# 4 0.128436 -0.033738 -0.028204 -0.050236 -0.008531 0.015742
# 5 0.034956 -0.006539 0.000941 -0.008531 0.066297 0.017624
# 6 -0.021212 0.008586 0.007177 0.015742 0.017624 0.029074
#
#
# Mechanical properties :
#
#
# Convention : Reuss Voigt Hill
#
# Bulk Modulus (GPa) = -25.92067 65.65109 19.86521
# Shear Modulus (GPa) = -12.72790 32.36883 9.82047
#
# Velocity S-wave (km/s) = -2.28821 3.64906 2.00994
# Velocity P-wave (km/s) = 4.20051 6.69038 3.68218
#
# Compressibility (1/GPa) = -0.03857925
#
# Stress axis : x y z
#
# Youngs Moduli (GPa) = -4.55687 -112.21355 -286.90782
#
# Poissons Ratio (x) = 6.93090 14.75590
# Poissons Ratio (y) = 0.28146 -4.75196
# Poissons Ratio (z) = 0.23436 -1.85856
#
# Static dielectric constant tensor:
#      x y z
#    x 4.507250 -0.135060 -0.507600 
#    y -0.135060 4.853070 0.027900 
#    z -0.507600 0.027900 4.763950 
# 
# 
# High freq. dielectric constant tensor:
#      x y z
#    x 1.960350 -0.020730 -0.016640 
#    y -0.020730 1.984250 0.007480 
#    z -0.016640 0.007480 1.971750 
# 
# From -- ./inp_files/538379.got.cif
#   From: 2010.06.25/outbox.cif.g09.slc.cpg/sg2_270_cif.got.tgz:538379.got - 2010.06.27 13:26:56.
