data_PCOD8011728
_publ_section_title
;
Structure prediction by ZEFSAII (Michael W. Deem and Ramdas Pophale) SiO2 
 PCOD8011728
Probable space group: P -1
;
_chemical_formula_sum "Si O2"
_cell_formula_units_Z 12
_cell_length_a 14.904183
_cell_length_b 12.356023
_cell_length_c 18.309664
_cell_angle_alpha 151.009882
_cell_angle_beta 20.388209
_cell_angle_gamma 149.616123
_cell_volume 550.768593
_symmetry_space_group_name_H-M "P -1"
_symmetry_group_IT_number 2
_symmetry_cell_setting 'triclinic'
loop_
_space_group_symop_operation_xyz
x,y,z
-x,-y,-z
loop_
_atom_site_type_symbol
_atom_site_label
_atom_site_fract_x
_atom_site_fract_y
_atom_site_fract_z
Si Si1 0.083442 0.967204 0.834746
Si Si2 0.624813 0.397364 0.181628
Si Si3 0.277753 0.191798 0.115416
Si Si4 0.561515 0.375714 0.670908
Si Si5 0.711562 0.925621 0.641065
Si Si6 0.047136 0.152006 0.733199
O O1 0.237109 0.767452 0.594616
O O2 0.821194 0.890602 0.939238
O O3 0.271062 0.209900 0.808487
O O4 0.000000 0.000000 0.000000
O O5 0.443644 0.429006 0.270584
O O6 0.446654 0.307582 0.335660
O O7 0.822418 0.644081 0.191154
O O8 0.793495 0.212946 0.922928
O O9 0.333350 0.470449 0.246149
O O10 0.044787 0.075603 0.281673
O O11 0.550165 0.120916 0.883917
O O12 0.737653 0.876495 0.506760
O O13 0.000000 0.000000 0.500000
#
# Coordination Sequence:
#
# PCOD8011728 Si02
#       6
#     2   2   2   2   2   2
#     4  11  27  45  66  95 125 171 226 270 321 379
#     4  10  21  39  63  95 129 174 206 263 318 387
#     4  11  24  44  68  96 133 170 213 270 325 381
#     4  11  24  44  68  92 132 169 216 269 324 380
#     4  11  23  37  63 103 132 168 215 256 320 397
#     4  10  21  39  64  95 133 168 211 256 326 386
#
# _framework density 21.787735000000001
#
# number of rings (size 3 to 8) (size 9 to 14) (size 15 to 20)
#    0.000    1.333    1.667    3.000    2.333    7.333 
#    0.000    0.000    0.000    0.000    0.000    0.000 
#    0.000    0.000    0.000    0.000    0.000    0.000 
#
# Total GULP energy -148823.613234 kJ/mol
# GULP energy per Si atom -12401.967770 kJ/mol
# Density = 2.173814 g / cm^3
# Si number density = 21.787735 Si / 1000 Ang^3
#
#
#
# Elastic Constant Matrix: (Units=GPa)
#
#
# Indices 1 2 3 4 5 6 
#
# 1 117.0413 39.9806 46.5642 1.9203 6.0091 5.3828
# 2 39.9806 95.1560 47.8759 9.6225 5.4545 12.1363
# 3 46.5642 47.8759 109.5407 -7.2310 16.1808 -2.6915
# 4 1.9203 9.6225 -7.2310 29.4219 3.9851 2.7249
# 5 6.0091 5.4545 16.1808 3.9851 36.3725 -4.9573
# 6 5.3828 12.1363 -2.6915 2.7249 -4.9573 36.3439
#
#
#
# Elastic Compliance Matrix: (Units=1/GPa)
#
#
# Indices 1 2 3 4 5 6 
#
# 1 0.010906 -0.002595 -0.003589 -0.000675 0.000129 -0.000946
# 2 -0.002595 0.016164 -0.006655 -0.006436 0.001004 -0.004887
# 3 -0.003589 -0.006655 0.014854 0.006546 -0.005376 0.002630
# 4 -0.000675 -0.006436 0.006546 0.038681 -0.006212 -0.001013
# 5 0.000129 0.001004 -0.005376 -0.006212 0.030929 0.003932
# 6 -0.000946 -0.004887 0.002630 -0.001013 0.003932 0.030094
#
#
# Mechanical properties :
#
#
# Convention : Reuss Voigt Hill
#
# Bulk Modulus (GPa) = 61.55011 65.61994 63.58502
# Shear Modulus (GPa) = 28.94823 32.91546 30.93184
#
# Velocity S-wave (km/s) = 3.64902 3.89103 3.77197
# Velocity P-wave (km/s) = 6.78712 7.09719 6.94388
#
# Compressibility (1/GPa) = 0.01624693
#
# Stress axis : x y z
#
# Youngs Moduli (GPa) = 91.69097 61.86491 67.32236
#
# Poissons Ratio (x) = 0.16055 0.24159
# Poissons Ratio (y) = 0.23796 0.44802
# Poissons Ratio (z) = 0.32904 0.41170
#
# Static dielectric constant tensor:
#      x y z
#    x 3.932440 0.053050 -0.021090 
#    y 0.053050 3.952320 -0.090780 
#    z -0.021090 -0.090780 4.017460 
# 
# 
# High freq. dielectric constant tensor:
#      x y z
#    x 1.858600 0.007870 0.000650 
#    y 0.007870 1.862650 -0.000060 
#    z 0.000650 -0.000060 1.852810 
# 
# From -- ./inp_files/23882.got.cif
#   From: 2010.06.25/outbox.cif.g09.slc.cpg/sg2_12_cif.got.tgz:23882.got - 2010.06.27 13:26:56.
