data_PCOD8011919
_publ_section_title
;
Structure prediction by ZEFSAII (Michael W. Deem and Ramdas Pophale) SiO2 
 PCOD8011919
Probable space group: P -1
;
_chemical_formula_sum "Si O2"
_cell_formula_units_Z 16
_cell_length_a 11.748184
_cell_length_b 9.044260
_cell_length_c 14.330828
_cell_angle_alpha 37.324003
_cell_angle_beta 129.675363
_cell_angle_gamma 124.422807
_cell_volume 705.166520
_symmetry_space_group_name_H-M "P -1"
_symmetry_group_IT_number 2
_symmetry_cell_setting 'triclinic'
loop_
_space_group_symop_operation_xyz
x,y,z
-x,-y,-z
loop_
_atom_site_type_symbol
_atom_site_label
_atom_site_fract_x
_atom_site_fract_y
_atom_site_fract_z
Si Si1 0.299637 0.634012 0.292023
Si Si2 0.806482 0.668334 0.440966
Si Si3 0.566473 0.803079 0.469053
Si Si4 0.112390 0.573487 0.623995
Si Si5 0.774670 0.151043 0.288575
Si Si6 0.616623 0.572304 0.944525
Si Si7 0.600450 0.355563 0.369612
Si Si8 0.843425 0.909098 0.009622
O O1 0.199316 0.526387 0.380490
O O2 0.464978 0.735119 0.360309
O O3 0.323907 0.408761 0.347670
O O4 0.219478 0.853947 0.094290
O O5 0.655826 0.608243 0.330160
O O6 0.947659 0.610603 0.477595
O O7 0.827064 0.944315 0.352809
O O8 0.471513 0.847986 0.489972
O O9 0.658256 0.054598 0.357812
O O10 0.096466 0.702315 0.653582
O O11 0.248428 0.716883 0.562843
O O12 0.144474 0.293235 0.801591
O O13 0.708751 0.343683 0.089595
O O14 0.531323 0.612622 0.785294
O O15 0.728066 0.809854 0.916616
O O16 0.500000 0.500000 0.000000
O O17 0.000000 0.000000 0.000000
#
# Coordination Sequence:
#
# PCOD8011919 Si02
#       8
#     2   2   2   2   2   2   2   2
#     4   9  18  36  61  88 118 158 210 242 298 375
#     4  10  21  40  61  89 123 163 208 248 312 371
#     4   9  20  37  60  91 119 158 200 253 307 363
#     4  11  22  39  60  93 125 162 209 253 310 365
#     4  10  21  39  65  88 122 167 203 252 307 374
#     4  11  22  41  61  94 126 159 210 256 312 366
#     4  11  23  40  61  93 127 158 202 269 306 363
#     4  11  21  38  66  87 120 171 209 247 301 381
#
# _framework density 22.689675000000001
#
# number of rings (size 3 to 8) (size 9 to 14) (size 15 to 20)
#    0.000    1.750    3.750    2.250    0.000    1.000 
#    4.500    0.000    0.000    0.750    0.000    0.000 
#    0.000    0.000    0.000    0.000    0.000    0.000 
#
# Total GULP energy -198237.758807 kJ/mol
# GULP energy per Si atom -12389.859925 kJ/mol
# Density = 2.263803 g / cm^3
# Si number density = 22.689675 Si / 1000 Ang^3
#
#
#
# Elastic Constant Matrix: (Units=GPa)
#
#
# Indices 1 2 3 4 5 6 
#
# 1 95.3909 13.6859 10.3036 0.0212 1.6913 9.5731
# 2 13.6859 51.4390 14.5182 -0.8315 5.6132 6.2906
# 3 10.3036 14.5182 65.6801 2.0952 11.5971 2.5320
# 4 0.0212 -0.8315 2.0952 33.6305 -7.5816 10.9399
# 5 1.6913 5.6132 11.5971 -7.5816 31.5303 -1.7085
# 6 9.5731 6.2906 2.5320 10.9399 -1.7085 37.1105
#
#
#
# Elastic Compliance Matrix: (Units=1/GPa)
#
#
# Indices 1 2 3 4 5 6 
#
# 1 0.011213 -0.002330 -0.001234 0.000964 0.000354 -0.002681
# 2 -0.002330 0.021855 -0.004003 0.001396 -0.002139 -0.003340
# 3 -0.001234 -0.004003 0.017488 -0.002707 -0.006287 0.000312
# 4 0.000964 0.001396 -0.002707 0.035225 0.008608 -0.010288
# 5 0.000354 -0.002139 -0.006287 0.008608 0.036451 -0.000159
# 6 -0.002681 -0.003340 0.000312 -0.010288 -0.000159 0.031209
#
#
# Mechanical properties :
#
#
# Convention : Reuss Voigt Hill
#
# Bulk Modulus (GPa) = 28.23161 32.16950 30.20055
# Shear Modulus (GPa) = 27.71874 32.05442 29.88658
#
# Velocity S-wave (km/s) = 3.49900 3.76271 3.63325
# Velocity P-wave (km/s) = 5.36595 5.75205 5.56236
#
# Compressibility (1/GPa) = 0.03542129
#
# Stress axis : x y z
#
# Youngs Moduli (GPa) = 89.17907 45.75639 57.18117
#
# Poissons Ratio (x) = 0.10663 0.07055
# Poissons Ratio (y) = 0.20782 0.22892
# Poissons Ratio (z) = 0.11003 0.18318
#
# Static dielectric constant tensor:
#      x y z
#    x 4.065350 0.057540 0.193060 
#    y 0.057540 4.209480 -0.293250 
#    z 0.193060 -0.293250 3.715100 
# 
# 
# High freq. dielectric constant tensor:
#      x y z
#    x 1.893500 0.008800 0.012390 
#    y 0.008800 1.908440 -0.008600 
#    z 0.012390 -0.008600 1.870450 
# 
# From -- ./inp_files/406770.got.cif
#   From: 2010.06.25/outbox.cif.g09.slc.cpg/sg2_204_cif.got.tgz:406770.got - 2010.06.27 13:26:56.
