data_PCOD8011888
_publ_section_title
;
Structure prediction by ZEFSAII (Michael W. Deem and Ramdas Pophale) SiO2 
 PCOD8011888
Probable space group: P -1
;
_chemical_formula_sum "Si O2"
_cell_formula_units_Z 16
_cell_length_a 6.379798
_cell_length_b 9.682068
_cell_length_c 13.548299
_cell_angle_alpha 62.711790
_cell_angle_beta 114.925329
_cell_angle_gamma 105.166810
_cell_volume 672.031125
_symmetry_space_group_name_H-M "P -1"
_symmetry_group_IT_number 2
_symmetry_cell_setting 'triclinic'
loop_
_space_group_symop_operation_xyz
x,y,z
-x,-y,-z
loop_
_atom_site_type_symbol
_atom_site_label
_atom_site_fract_x
_atom_site_fract_y
_atom_site_fract_z
Si Si1 0.303265 0.692801 0.399451
Si Si2 0.242090 0.995200 0.910455
Si Si3 0.901526 0.674622 0.788190
Si Si4 0.384612 0.035379 0.364157
Si Si5 0.856706 0.654401 0.212942
Si Si6 0.501039 0.509832 0.336210
Si Si7 0.136267 0.275175 0.020120
Si Si8 0.368498 0.826248 0.809060
O O1 0.284293 0.876895 0.342607
O O2 0.490468 0.650941 0.366699
O O3 0.366731 0.625956 0.540749
O O4 0.059586 0.609883 0.340747
O O5 0.144691 0.160114 0.851692
O O6 0.255597 0.955160 0.810592
O O7 0.066445 0.866287 0.972659
O O8 0.500000 0.000000 0.000000
O O9 0.755503 0.557479 0.724803
O O10 0.871412 0.623775 0.913941
O O11 0.172655 0.679881 0.809523
O O12 0.816904 0.849500 0.702901
O O13 0.500000 0.000000 0.500000
O O14 0.591670 0.113725 0.313079
O O15 0.623757 0.568278 0.240032
O O16 0.898509 0.612358 0.118706
O O17 0.391952 0.215324 0.079580
#
# Coordination Sequence:
#
# PCOD8011888 Si02
#       8
#     2   2   2   2   2   2   2   2
#     4  11  25  45  66  99 134 178 228 276 326 401
#     4  11  22  38  69 101 138 170 219 279 339 398
#     4  10  23  45  66  99 136 178 222 277 332 400
#     4  11  22  42  70  97 131 168 231 285 329 386
#     4  12  24  40  69  98 136 180 217 277 338 395
#     4  11  26  46  65  95 141 182 225 267 331 406
#     4  10  23  39  67 103 130 168 224 278 329 397
#     4  10  21  39  64  98 134 171 215 280 335 389
#
# _framework density 23.808422
#
# number of rings (size 3 to 8) (size 9 to 14) (size 15 to 20)
#    0.000    1.250    2.500    3.750    3.500    3.000 
#    4.500    1.250    0.000    0.000    0.000    0.000 
#    0.000    0.000    0.000    0.000    0.000    0.000 
#
# Total GULP energy -198374.638709 kJ/mol
# GULP energy per Si atom -12398.414919 kJ/mol
# Density = 2.375423 g / cm^3
# Si number density = 23.808422 Si / 1000 Ang^3
#
#
#
# Elastic Constant Matrix: (Units=GPa)
#
#
# Indices 1 2 3 4 5 6 
#
# 1 98.6408 27.8074 47.7531 4.1363 -8.1415 35.2983
# 2 27.8074 89.1614 38.5096 9.4374 -1.9508 19.4386
# 3 47.7531 38.5096 145.9174 17.7963 -15.4498 24.4143
# 4 4.1363 9.4374 17.7963 35.7045 2.9635 7.7978
# 5 -8.1415 -1.9508 -15.4498 2.9635 41.9866 1.9328
# 6 35.2983 19.4386 24.4143 7.7978 1.9328 40.4700
#
#
#
# Elastic Compliance Matrix: (Units=1/GPa)
#
#
# Indices 1 2 3 4 5 6 
#
# 1 0.016576 -0.001333 -0.003008 0.002479 0.002450 -0.012598
# 2 -0.001333 0.013606 -0.002396 -0.001433 -0.000239 -0.003640
# 3 -0.003008 -0.002396 0.009483 -0.003702 0.003120 -0.001382
# 4 0.002479 -0.001433 -0.003702 0.031308 -0.002921 -0.005134
# 5 0.002450 -0.000239 0.003120 -0.002921 0.025846 -0.004576
# 6 -0.012598 -0.003640 -0.001382 -0.005134 -0.004576 0.039487
#
#
# Mechanical properties :
#
#
# Convention : Reuss Voigt Hill
#
# Bulk Modulus (GPa) = 38.18112 62.42887 50.30499
# Shear Modulus (GPa) = 31.54354 38.27552 34.90953
#
# Velocity S-wave (km/s) = 3.64385 4.01390 3.83334
# Velocity P-wave (km/s) = 5.81164 6.91087 6.38495
#
# Compressibility (1/GPa) = 0.02619096
#
# Stress axis : x y z
#
# Youngs Moduli (GPa) = 60.32790 73.49589 105.45115
#
# Poissons Ratio (x) = 0.09795 0.31721
# Poissons Ratio (y) = 0.08040 0.25269
# Poissons Ratio (z) = 0.18147 0.17612
#
# Static dielectric constant tensor:
#      x y z
#    x 4.460450 0.037880 0.100280 
#    y 0.037880 4.353230 0.231720 
#    z 0.100280 0.231720 4.430700 
# 
# 
# High freq. dielectric constant tensor:
#      x y z
#    x 1.951390 -0.005140 0.002300 
#    y -0.005140 1.943080 0.014750 
#    z 0.002300 0.014750 1.948700 
# 
# From -- ./inp_files/482770.got.cif
#   From: 2010.06.25/outbox.cif.g09.slc.cpg/sg2_242_cif.got.tgz:482770.got - 2010.06.27 13:26:56.
