data_PCOD8011989
_publ_section_title
;
Structure prediction by ZEFSAII (Michael W. Deem and Ramdas Pophale) SiO2 
 PCOD8011989
Probable space group: P -1
;
_chemical_formula_sum "Si O2"
_cell_formula_units_Z 16
_cell_length_a 5.158173
_cell_length_b 21.028603
_cell_length_c 23.484818
_cell_angle_alpha 162.608665
_cell_angle_beta 107.510529
_cell_angle_gamma 78.251867
_cell_volume 694.254265
_symmetry_space_group_name_H-M "P -1"
_symmetry_group_IT_number 2
_symmetry_cell_setting 'triclinic'
loop_
_space_group_symop_operation_xyz
x,y,z
-x,-y,-z
loop_
_atom_site_type_symbol
_atom_site_label
_atom_site_fract_x
_atom_site_fract_y
_atom_site_fract_z
Si Si1 0.863937 0.464909 0.869332
Si Si2 0.882109 0.037012 0.828884
Si Si3 0.808877 0.837272 0.930028
Si Si4 0.126355 0.945471 0.548820
Si Si5 0.689909 0.595607 0.503747
Si Si6 0.322662 0.135699 0.842358
Si Si7 0.681240 0.206033 0.747175
Si Si8 0.006809 0.741385 0.748749
O O1 0.932023 0.309236 0.691794
O O2 0.677472 0.324531 0.788033
O O3 0.682498 0.615313 0.959452
O O4 0.163327 0.619267 0.045031
O O5 0.723765 0.782911 0.618211
O O6 0.643035 0.154988 0.898451
O O7 0.091148 0.031737 0.786416
O O8 0.069553 0.179611 0.013886
O O9 0.565138 0.614944 0.710057
O O10 0.040637 0.848999 0.905936
O O11 0.754481 0.079689 0.122929
O O12 0.246874 0.971934 0.643262
O O13 0.355629 0.104180 0.657023
O O14 0.836629 0.014453 0.585961
O O15 0.962048 0.502931 0.446110
O O16 0.702808 0.700670 0.658595
#
# Coordination Sequence:
#
# PCOD8011989 Si02
#       8
#     2   2   2   2   2   2   2   2
#     4  10  23  43  71  97 137 177 211 280 343 383
#     4  11  27  45  63  89 134 176 229 272 307 389
#     4  10  21  39  66  95 125 166 212 272 336 397
#     4  11  23  43  69  98 135 173 219 276 338 397
#     4  10  21  39  65  94 128 167 207 276 335 389
#     4  11  26  47  62  95 136 180 234 272 309 395
#     4  10  23  40  69 110 132 159 223 279 337 408
#     4   9  20  38  63 103 125 154 213 273 341 400
#
# _framework density 23.046312
#
# number of rings (size 3 to 8) (size 9 to 14) (size 15 to 20)
#    0.000    1.750    0.000    3.000    3.500    9.500 
#    4.500    2.500    0.000    0.000    0.000    0.000 
#    0.000    0.000    0.000    0.000    0.000    0.000 
#
# Total GULP energy -198223.209136 kJ/mol
# GULP energy per Si atom -12388.950571 kJ/mol
# Density = 2.299386 g / cm^3
# Si number density = 23.046312 Si / 1000 Ang^3
#
#
#
# Elastic Constant Matrix: (Units=GPa)
#
#
# Indices 1 2 3 4 5 6 
#
# 1 55.2957 19.8846 23.7686 -5.7312 -8.2745 10.1391
# 2 19.8846 121.1187 64.9019 -3.7337 -13.7778 -0.0325
# 3 23.7686 64.9019 157.6269 -26.1842 -17.3867 3.5514
# 4 -5.7312 -3.7337 -26.1842 16.9502 1.9240 -5.9843
# 5 -8.2745 -13.7778 -17.3867 1.9240 37.7283 -0.9439
# 6 10.1391 -0.0325 3.5514 -5.9843 -0.9439 24.9522
#
#
#
# Elastic Compliance Matrix: (Units=1/GPa)
#
#
# Indices 1 2 3 4 5 6 
#
# 1 0.021670 -0.002325 -0.001628 0.001073 0.002893 -0.008210
# 2 -0.002325 0.011443 -0.005275 -0.006520 0.001576 0.000207
# 3 -0.001628 -0.005275 0.011852 0.017475 0.002369 0.003248
# 4 0.001073 -0.006520 0.017475 0.091454 0.001721 0.019066
# 5 0.002893 0.001576 0.002369 0.001721 0.028719 -0.000012
# 6 -0.008210 0.000207 0.003248 0.019066 -0.000012 0.047523
#
#
# Mechanical properties :
#
#
# Convention : Reuss Voigt Hill
#
# Bulk Modulus (GPa) = 37.72254 61.23906 49.48080
# Shear Modulus (GPa) = 20.83737 30.95854 25.89795
#
# Velocity S-wave (km/s) = 3.01017 3.66911 3.35585
# Velocity P-wave (km/s) = 5.33715 6.67680 6.04421
#
# Compressibility (1/GPa) = 0.02650935
#
# Stress axis : x y z
#
# Youngs Moduli (GPa) = 46.14653 87.38965 84.37134
#
# Poissons Ratio (x) = 0.20322 0.13733
# Poissons Ratio (y) = 0.10731 0.44505
# Poissons Ratio (z) = 0.07511 0.46097
#
# Static dielectric constant tensor:
#      x y z
#    x 3.910700 0.052690 -0.192850 
#    y 0.052690 4.265450 -0.141830 
#    z -0.192850 -0.141830 4.620910 
# 
# 
# High freq. dielectric constant tensor:
#      x y z
#    x 1.886370 0.001160 -0.007180 
#    y 0.001160 1.918380 -0.008170 
#    z -0.007180 -0.008170 1.933290 
# 
# From -- ./inp_files/605148.got.cif
#   From: 2010.06.25/outbox.cif.g09.slc.cpg/sg2_303_cif.got.tgz:605148.got - 2010.06.27 13:26:56.
