data_PCOD8011244
_publ_section_title
;
Structure prediction by ZEFSAII (Michael W. Deem and Ramdas Pophale) SiO2 
 PCOD8011244
Probable space group: P -1
;
_chemical_formula_sum "Si O2"
_cell_formula_units_Z 16
_cell_length_a 12.079701
_cell_length_b 15.024938
_cell_length_c 6.995876
_cell_angle_alpha 62.098948
_cell_angle_beta 50.263982
_cell_angle_gamma 57.241727
_cell_volume 806.373797
_symmetry_space_group_name_H-M "P -1"
_symmetry_group_IT_number 2
_symmetry_cell_setting 'triclinic'
loop_
_space_group_symop_operation_xyz
x,y,z
-x,-y,-z
loop_
_atom_site_type_symbol
_atom_site_label
_atom_site_fract_x
_atom_site_fract_y
_atom_site_fract_z
Si Si1 0.655332 0.074731 0.708832
Si Si2 0.239464 0.784730 0.808997
Si Si3 0.907815 0.466825 0.975249
Si Si4 0.075083 0.253948 0.799267
Si Si5 0.305376 0.149764 0.975810
Si Si6 0.599892 0.231028 0.952415
Si Si7 0.644130 0.391289 0.445129
Si Si8 0.250681 0.302997 0.223699
O O1 0.766702 0.111224 0.412204
O O2 0.647558 0.123198 0.881378
O O3 0.724623 0.945825 0.778331
O O4 0.485720 0.114044 0.760230
O O5 0.351232 0.677107 0.684991
O O6 0.304579 0.793215 0.935368
O O7 0.066524 0.787560 0.016958
O O8 0.816214 0.567672 0.841626
O O9 0.022932 0.376087 0.806594
O O10 0.796805 0.419276 0.259743
O O11 0.000000 0.500000 0.000000
O O12 0.146711 0.253935 0.512281
O O13 0.205293 0.173902 0.870872
O O14 0.255828 0.256933 0.051070
O O15 0.639112 0.323315 0.704857
O O16 0.419628 0.269525 0.162991
O O17 0.500000 0.500000 0.500000
#
# Coordination Sequence:
#
# PCOD8011244 Si02
#       8
#     2   2   2   2   2   2   2   2
#     4   9  21  41  65  86 111 150 197 246 287 337
#     4  10  23  38  58  88 120 152 190 239 290 343
#     4  11  22  38  59  84 120 156 190 236 288 341
#     4  11  24  38  57  89 122 152 190 236 290 350
#     4  10  21  41  64  86 113 150 197 244 289 339
#     4  10  21  39  62  85 117 152 195 241 284 339
#     4  10  21  39  57  85 115 154 199 234 281 337
#     4  11  22  38  60  86 116 158 194 234 287 343
#
# _framework density 19.841916000000001
#
# number of rings (size 3 to 8) (size 9 to 14) (size 15 to 20)
#    0.000    1.750    2.500    1.125    1.750    4.000 
#    0.000    5.000    0.000    0.000    0.000    0.000 
#    0.000    0.000    0.000    0.000    0.000    0.000 
#
# Total GULP energy -198460.547957 kJ/mol
# GULP energy per Si atom -12403.784247 kJ/mol
# Density = 1.979675 g / cm^3
# Si number density = 19.841916 Si / 1000 Ang^3
#
#
#
# Elastic Constant Matrix: (Units=GPa)
#
#
# Indices 1 2 3 4 5 6 
#
# 1 108.7990 19.7379 36.1472 -0.1396 3.4448 9.4282
# 2 19.7379 68.2033 17.1715 -16.7910 -1.3550 -3.6068
# 3 36.1472 17.1715 107.6683 -8.5741 -18.2254 -1.2862
# 4 -0.1396 -16.7910 -8.5741 25.0093 5.4289 -5.2803
# 5 3.4448 -1.3550 -18.2254 5.4289 32.5005 -3.1103
# 6 9.4282 -3.6068 -1.2862 -5.2803 -3.1103 21.8272
#
#
#
# Elastic Compliance Matrix: (Units=1/GPa)
#
#
# Indices 1 2 3 4 5 6 
#
# 1 0.012318 -0.004174 -0.004656 -0.005173 -0.004002 -0.008107
# 2 -0.004174 0.020261 -0.000637 0.015377 -0.000804 0.008719
# 3 -0.004656 -0.000637 0.012508 0.003175 0.007378 0.004462
# 4 -0.005173 0.015377 0.003175 0.056164 -0.004701 0.017879
# 5 -0.004002 -0.000804 0.007378 -0.004701 0.036667 0.006118
# 6 -0.008107 0.008719 0.004462 0.017879 0.006118 0.056217
#
#
# Mechanical properties :
#
#
# Convention : Reuss Voigt Hill
#
# Bulk Modulus (GPa) = 38.23898 47.86485 43.05191
# Shear Modulus (GPa) = 22.54413 29.97499 26.25956
#
# Velocity S-wave (km/s) = 3.37439 3.89098 3.64186
# Velocity P-wave (km/s) = 5.87330 6.66046 6.27923
#
# Compressibility (1/GPa) = 0.02615132
#
# Stress axis : x y z
#
# Youngs Moduli (GPa) = 81.18189 49.35529 79.95176
#
# Poissons Ratio (x) = 0.20602 0.37226
# Poissons Ratio (y) = 0.33887 0.05097
# Poissons Ratio (z) = 0.37798 0.03146
#
# Static dielectric constant tensor:
#      x y z
#    x 3.610780 0.140380 -0.419210 
#    y 0.140380 3.826770 -0.308760 
#    z -0.419210 -0.308760 4.333870 
# 
# 
# High freq. dielectric constant tensor:
#      x y z
#    x 1.773770 0.004770 -0.012140 
#    y 0.004770 1.774740 -0.007710 
#    z -0.012140 -0.007710 1.777730 
# 
# From -- ./inp_files/77087.got.cif
#   From: 2010.06.25/outbox.cif.g09.slc.cpg/sg2_39_cif.got.tgz:77087.got - 2010.06.27 13:26:56.
