data_PCOD8011200
_publ_section_title
;
Structure prediction by ZEFSAII (Michael W. Deem and Ramdas Pophale) SiO2 
 PCOD8011200
Probable space group: P -1
;
_chemical_formula_sum "Si O2"
_cell_formula_units_Z 14
_cell_length_a 11.385481
_cell_length_b 13.587774
_cell_length_c 11.220260
_cell_angle_alpha 30.520111
_cell_angle_beta 130.037860
_cell_angle_gamma 138.118363
_cell_volume 588.485290
_symmetry_space_group_name_H-M "P -1"
_symmetry_group_IT_number 2
_symmetry_cell_setting 'triclinic'
loop_
_space_group_symop_operation_xyz
x,y,z
-x,-y,-z
loop_
_atom_site_type_symbol
_atom_site_label
_atom_site_fract_x
_atom_site_fract_y
_atom_site_fract_z
Si Si1 0.173370 0.324917 0.079257
Si Si2 0.656752 0.276495 0.401054
Si Si3 0.360908 0.154183 0.514459
Si Si4 0.617096 0.403301 0.625697
Si Si5 0.837477 0.647220 0.309093
Si Si6 0.134978 0.703259 0.953260
Si Si7 0.201553 0.037053 0.197840
O O1 0.268803 0.309646 0.279354
O O2 0.147105 0.115237 0.200889
O O3 0.976750 0.279769 0.026334
O O4 0.297998 0.565452 0.850372
O O5 0.461168 0.189947 0.415531
O O6 0.798845 0.427296 0.438256
O O7 0.658786 0.049768 0.603161
O O8 0.495738 0.215920 0.647199
O O9 0.207673 0.905934 0.696885
O O10 0.500000 0.500000 0.500000
O O11 0.782539 0.596203 0.463490
O O12 0.696277 0.311060 0.873579
O O13 0.726214 0.755283 0.063237
O O14 0.040795 0.824337 0.252866
O O15 0.000000 0.500000 0.000000
#
# Coordination Sequence:
#
# PCOD8011200 Si02
#       7
#     2   2   2   2   2   2   2
#     4  11  25  45  72 103 143 185 239 283 350 426
#     4  10  22  43  69 102 142 179 237 288 356 404
#     4  11  26  46  70 106 144 183 234 296 352 415
#     4  11  25  44  71 100 143 182 236 290 354 414
#     4   9  21  38  63 102 140 181 227 289 348 420
#     4  12  28  48  73 102 141 193 237 287 353 426
#     4  10  21  38  70 102 137 185 230 289 347 418
#
# _framework density 23.789888999999999
#
# number of rings (size 3 to 8) (size 9 to 14) (size 15 to 20)
#    0.000    1.429    0.000    3.429    8.000    6.286 
#    2.571    0.000    0.000    0.000    0.000    0.000 
#    0.000    0.000    0.000    0.000    0.000    0.000 
#
# Total GULP energy -173537.887666 kJ/mol
# GULP energy per Si atom -12395.563405 kJ/mol
# Density = 2.373574 g / cm^3
# Si number density = 23.789889 Si / 1000 Ang^3
#
#
#
# Elastic Constant Matrix: (Units=GPa)
#
#
# Indices 1 2 3 4 5 6 
#
# 1 120.6705 17.5194 57.7950 -6.8091 10.8082 4.2794
# 2 17.5194 62.7088 19.4562 5.7847 5.0313 0.9285
# 3 57.7950 19.4562 147.8926 4.6281 -2.1886 6.5759
# 4 -6.8091 5.7847 4.6281 42.8035 9.5166 4.5050
# 5 10.8082 5.0313 -2.1886 9.5166 50.4612 -5.8033
# 6 4.2794 0.9285 6.5759 4.5050 -5.8033 32.4833
#
#
#
# Elastic Compliance Matrix: (Units=1/GPa)
#
#
# Indices 1 2 3 4 5 6 
#
# 1 0.011080 -0.001830 -0.004170 0.003337 -0.003184 -0.001595
# 2 -0.001830 0.017205 -0.001500 -0.002267 -0.000938 0.000200
# 3 -0.004170 -0.001500 0.008695 -0.001705 0.001668 -0.000633
# 4 0.003337 -0.002267 -0.001705 0.026230 -0.006056 -0.004749
# 5 -0.003184 -0.000938 0.001668 -0.006056 0.022376 0.004946
# 6 -0.001595 0.000200 -0.000633 -0.004749 0.004946 0.032660
#
#
# Mechanical properties :
#
#
# Convention : Reuss Voigt Hill
#
# Bulk Modulus (GPa) = 45.49744 57.86813 51.68278
# Shear Modulus (GPa) = 35.56889 40.91635 38.24262
#
# Velocity S-wave (km/s) = 3.87088 4.15167 4.01373
# Velocity P-wave (km/s) = 6.25656 6.88181 6.57662
#
# Compressibility (1/GPa) = 0.02197926
#
# Stress axis : x y z
#
# Youngs Moduli (GPa) = 90.25344 58.12301 115.01272
#
# Poissons Ratio (x) = 0.10639 0.47957
# Poissons Ratio (y) = 0.16520 0.17251
# Poissons Ratio (z) = 0.37633 0.08718
#
# Static dielectric constant tensor:
#      x y z
#    x 4.469600 0.162920 -0.014080 
#    y 0.162920 4.423350 0.079030 
#    z -0.014080 0.079030 4.584960 
# 
# 
# High freq. dielectric constant tensor:
#      x y z
#    x 1.935970 0.003180 0.000540 
#    y 0.003180 1.948760 0.002250 
#    z 0.000540 0.002250 1.952430 
# 
# From -- ./inp_files/432374.got.cif
#   From: 2010.06.25/outbox.cif.g09.slc.cpg/sg2_217_cif.got.tgz:432374.got - 2010.06.27 13:26:56.
