data_PCOD8011418
_publ_section_title
;
Structure prediction by ZEFSAII (Michael W. Deem and Ramdas Pophale) SiO2 
 PCOD8011418
Probable space group: P -1
;
_chemical_formula_sum "Si O2"
_cell_formula_units_Z 16
_cell_length_a 8.505616
_cell_length_b 11.061200
_cell_length_c 17.981775
_cell_angle_alpha 52.701022
_cell_angle_beta 99.313127
_cell_angle_gamma 137.795142
_cell_volume 762.575615
_symmetry_space_group_name_H-M "P -1"
_symmetry_group_IT_number 2
_symmetry_cell_setting 'triclinic'
loop_
_space_group_symop_operation_xyz
x,y,z
-x,-y,-z
loop_
_atom_site_type_symbol
_atom_site_label
_atom_site_fract_x
_atom_site_fract_y
_atom_site_fract_z
Si Si1 0.335074 0.174744 0.569269
Si Si2 0.411778 0.399706 0.881046
Si Si3 0.885537 0.674998 0.496048
Si Si4 0.867503 0.265176 0.366656
Si Si5 0.879078 0.077168 0.046504
Si Si6 0.966664 0.478966 0.148101
Si Si7 0.491292 0.204577 0.303736
Si Si8 0.008243 0.799877 0.824250
O O1 0.665354 0.427611 0.515471
O O2 0.238609 0.266087 0.501300
O O3 0.268658 0.004534 0.562492
O O4 0.182002 0.017277 0.692867
O O5 0.692324 0.608684 0.871440
O O6 0.433480 0.559285 0.766016
O O7 0.166173 0.227164 0.985617
O O8 0.372808 0.216289 0.898103
O O9 0.948778 0.607653 0.593115
O O10 0.163588 0.924039 0.377619
O O11 0.064582 0.473197 0.235080
O O12 0.623348 0.202975 0.380882
O O13 0.856872 0.049976 0.143443
O O14 0.849116 0.228387 0.961620
O O15 0.986346 0.378692 0.118425
O O16 0.639577 0.268827 0.213442
#
# Coordination Sequence:
#
# PCOD8011418 Si02
#       8
#     2   2   2   2   2   2   2   2
#     4  10  23  37  58  94 116 153 206 241 291 363
#     4  10  21  39  61  89 121 150 200 249 287 358
#     4  11  20  39  63  83 122 159 197 244 298 350
#     4   9  20  39  59  84 122 158 193 243 299 341
#     4  10  21  39  63  87 118 155 199 240 301 359
#     4   8  20  37  60  90 120 151 202 241 289 361
#     4   9  19  38  62  85 123 159 193 248 291 345
#     4  11  20  39  60  86 123 159 189 247 305 341
#
# _framework density 20.981525000000001
#
# number of rings (size 3 to 8) (size 9 to 14) (size 15 to 20)
#    0.750    1.500    1.250    1.500    0.000    3.000 
#    4.500    3.750    0.000    0.000    0.000    0.000 
#    0.000    0.000    0.000    0.000    0.000    0.000 
#
# Total GULP energy -198326.429977 kJ/mol
# GULP energy per Si atom -12395.401874 kJ/mol
# Density = 2.093377 g / cm^3
# Si number density = 20.981525 Si / 1000 Ang^3
#
#
#
# Elastic Constant Matrix: (Units=GPa)
#
#
# Indices 1 2 3 4 5 6 
#
# 1 77.9625 24.1817 13.8019 -3.2583 16.9040 3.2240
# 2 24.1817 60.0443 14.7279 4.0368 7.9445 7.2040
# 3 13.8019 14.7279 61.0297 -6.0929 5.2853 5.1017
# 4 -3.2583 4.0368 -6.0929 15.8954 -3.2228 -3.8452
# 5 16.9040 7.9445 5.2853 -3.2228 30.1231 -5.2429
# 6 3.2240 7.2040 5.1017 -3.8452 -5.2429 31.3065
#
#
#
# Elastic Compliance Matrix: (Units=1/GPa)
#
#
# Indices 1 2 3 4 5 6 
#
# 1 0.016522 -0.005302 -0.001465 0.002339 -0.007579 -0.001225
# 2 -0.005302 0.021779 -0.004264 -0.010484 -0.004143 -0.005752
# 3 -0.001465 -0.004264 0.018650 0.007520 -0.000713 -0.001103
# 4 0.002339 -0.010484 0.007520 0.073806 0.010065 0.011697
# 5 -0.007579 -0.004143 -0.000713 0.010065 0.041492 0.010035
# 6 -0.001225 -0.005752 -0.001103 0.011697 0.010035 0.036689
#
#
# Mechanical properties :
#
#
# Convention : Reuss Voigt Hill
#
# Bulk Modulus (GPa) = 28.66132 33.82885 31.24508
# Shear Modulus (GPa) = 20.60760 25.22002 22.91381
#
# Velocity S-wave (km/s) = 3.13737 3.47076 3.30827
# Velocity P-wave (km/s) = 5.17823 5.67625 5.43295
#
# Compressibility (1/GPa) = 0.03489023
#
# Stress axis : x y z
#
# Youngs Moduli (GPa) = 60.52407 45.91648 53.61830
#
# Poissons Ratio (x) = 0.24346 0.07854
# Poissons Ratio (y) = 0.32092 0.22860
# Poissons Ratio (z) = 0.08865 0.19577
#
# Static dielectric constant tensor:
#      x y z
#    x 3.952060 0.013250 0.177030 
#    y 0.013250 3.357820 -0.120730 
#    z 0.177030 -0.120730 3.747020 
# 
# 
# High freq. dielectric constant tensor:
#      x y z
#    x 1.833310 0.003180 0.008140 
#    y 0.003180 1.784660 -0.006120 
#    z 0.008140 -0.006120 1.824390 
# 
# From -- ./inp_files/589017.got.cif
#   From: 2010.06.25/outbox.cif.g09.slc.cpg/sg2_295_cif.got.tgz:589017.got - 2010.06.27 13:26:56.
