data_PCOD8011513
_publ_section_title
;
Structure prediction by ZEFSAII (Michael W. Deem and Ramdas Pophale) SiO2 
 PCOD8011513
Probable space group: P -1
;
_chemical_formula_sum "Si O2"
_cell_formula_units_Z 16
_cell_length_a 11.829727
_cell_length_b 15.175492
_cell_length_c 7.871423
_cell_angle_alpha 130.945098
_cell_angle_beta 128.694833
_cell_angle_gamma 57.952903
_cell_volume 815.350738
_symmetry_space_group_name_H-M "P -1"
_symmetry_group_IT_number 2
_symmetry_cell_setting 'triclinic'
loop_
_space_group_symop_operation_xyz
x,y,z
-x,-y,-z
loop_
_atom_site_type_symbol
_atom_site_label
_atom_site_fract_x
_atom_site_fract_y
_atom_site_fract_z
Si Si1 0.866765 0.095849 0.076557
Si Si2 0.824729 0.308402 0.892890
Si Si3 0.404016 0.796343 0.256240
Si Si4 0.324872 0.234771 0.744417
Si Si5 0.890093 0.540627 0.103093
Si Si6 0.847999 0.080325 0.420833
Si Si7 0.590764 0.001596 0.256766
Si Si8 0.028696 0.283333 0.367316
O O1 0.810630 0.065469 0.169974
O O2 0.924889 0.218503 0.303637
O O3 0.723780 0.110844 0.843334
O O4 0.000000 0.000000 0.000000
O O5 0.672822 0.299774 0.839136
O O6 0.847978 0.216146 0.642798
O O7 0.808947 0.437769 0.960084
O O8 0.970233 0.283864 0.120006
O O9 0.534575 0.728252 0.170831
O O10 0.482898 0.881979 0.555438
O O11 0.242751 0.346115 0.926223
O O12 0.389269 0.120955 0.776019
O O13 0.201324 0.212544 0.460431
O O14 0.985152 0.582782 0.400691
O O15 0.000000 0.500000 0.000000
O O16 0.748671 0.023369 0.381379
O O17 0.000000 0.000000 0.500000
O O18 0.500000 0.000000 0.000000
#
# Coordination Sequence:
#
# PCOD8011513 Si02
#       8
#     2   2   2   2   2   2   2   2
#     4  11  20  37  59  87 122 160 202 247 310 366
#     4  10  21  39  62  89 120 157 209 254 304 359
#     4  10  22  39  61  86 124 158 201 253 308 370
#     4  10  22  39  59  89 122 163 203 246 315 352
#     4  10  22  39  63  88 124 162 210 257 298 362
#     4  11  22  34  59  89 118 156 200 256 300 362
#     4  11  23  38  57  89 123 160 196 250 310 370
#     4   9  20  36  60  89 116 158 208 244 306 353
#
# _framework density 19.623456000000001
#
# number of rings (size 3 to 8) (size 9 to 14) (size 15 to 20)
#    0.750    1.000    0.000    6.000    1.750    2.500 
#    0.000    0.000    0.000    9.750    0.000    0.000 
#    0.000    0.000    0.000    0.000    0.000    0.000 
#
# Total GULP energy -198245.854934 kJ/mol
# GULP energy per Si atom -12390.365933 kJ/mol
# Density = 1.957879 g / cm^3
# Si number density = 19.623456 Si / 1000 Ang^3
#
#
#
# Elastic Constant Matrix: (Units=GPa)
#
#
# Indices 1 2 3 4 5 6 
#
# 1 112.8653 47.1727 36.4929 12.7524 -11.6310 -4.6902
# 2 47.1727 76.8803 30.6855 12.4330 7.9913 8.8176
# 3 36.4929 30.6855 97.5842 3.0711 -2.2334 0.3946
# 4 12.7524 12.4330 3.0711 35.7276 1.5249 4.9517
# 5 -11.6310 7.9913 -2.2334 1.5249 27.4061 -0.6861
# 6 -4.6902 8.8176 0.3946 4.9517 -0.6861 35.8434
#
#
#
# Elastic Compliance Matrix: (Units=1/GPa)
#
#
# Indices 1 2 3 4 5 6 
#
# 1 0.014994 -0.009264 -0.002410 -0.002985 0.009156 0.004855
# 2 -0.009264 0.022519 -0.003748 -0.002842 -0.010809 -0.006525
# 3 -0.002410 -0.003748 0.012318 0.001013 0.001026 0.000351
# 4 -0.002985 -0.002842 0.001013 0.030599 -0.002157 -0.003971
# 5 0.009156 -0.010809 0.001026 -0.002157 0.043854 0.004983
# 6 0.004855 -0.006525 0.000351 -0.003971 0.004983 0.030780
#
#
# Mechanical properties :
#
#
# Convention : Reuss Voigt Hill
#
# Bulk Modulus (GPa) = 52.67140 57.33689 55.00415
# Shear Modulus (GPa) = 26.00959 31.32733 28.66846
#
# Velocity S-wave (km/s) = 3.64460 3.99986 3.82636
# Velocity P-wave (km/s) = 6.67908 7.11434 6.90014
#
# Compressibility (1/GPa) = 0.01898564
#
# Stress axis : x y z
#
# Youngs Moduli (GPa) = 66.69417 44.40708 81.18365
#
# Poissons Ratio (x) = 0.41138 0.19567
# Poissons Ratio (y) = 0.61785 0.30430
# Poissons Ratio (z) = 0.16075 0.16645
#
# Static dielectric constant tensor:
#      x y z
#    x 3.511970 0.065760 0.026290 
#    y 0.065760 3.368900 0.068390 
#    z 0.026290 0.068390 3.905340 
# 
# 
# High freq. dielectric constant tensor:
#      x y z
#    x 1.768760 0.008990 0.005640 
#    y 0.008990 1.747810 0.004340 
#    z 0.005640 0.004340 1.766670 
# 
# From -- ./inp_files/269066.got.cif
#   From: 2010.06.25/outbox.cif.g09.slc.cpg/sg2_135_cif.got.tgz:269066.got - 2010.06.27 13:26:56.
