data_PCOD8011912
_publ_section_title
;
Structure prediction by ZEFSAII (Michael W. Deem and Ramdas Pophale) SiO2 
 PCOD8011912
Probable space group: P -1
;
_chemical_formula_sum "Si O2"
_cell_formula_units_Z 16
_cell_length_a 6.526835
_cell_length_b 17.660496
_cell_length_c 14.256918
_cell_angle_alpha 36.774994
_cell_angle_beta 129.184278
_cell_angle_gamma 131.936543
_cell_volume 714.468760
_symmetry_space_group_name_H-M "P -1"
_symmetry_group_IT_number 2
_symmetry_cell_setting 'triclinic'
loop_
_space_group_symop_operation_xyz
x,y,z
-x,-y,-z
loop_
_atom_site_type_symbol
_atom_site_label
_atom_site_fract_x
_atom_site_fract_y
_atom_site_fract_z
Si Si1 0.112799 0.805120 0.895126
Si Si2 0.851956 0.637502 0.418356
Si Si3 0.716752 0.271359 0.163632
Si Si4 0.248843 0.144003 0.938015
Si Si5 0.964449 0.730287 0.555677
Si Si6 0.357388 0.587405 0.552787
Si Si7 0.253476 0.348206 0.895574
Si Si8 0.265309 0.025844 0.343148
O O1 0.067180 0.730625 0.854037
O O2 0.445618 0.873743 0.947744
O O3 0.952698 0.912737 0.731787
O O4 0.969520 0.691813 0.044227
O O5 0.740500 0.761158 0.244218
O O6 0.632524 0.491835 0.463661
O O7 0.935297 0.630935 0.558001
O O8 0.131399 0.662539 0.409254
O O9 0.837597 0.291637 0.283471
O O10 0.446087 0.129768 0.214489
O O11 0.576799 0.384441 0.991578
O O12 0.179986 0.223042 0.926916
O O13 0.000000 0.000000 0.000000
O O14 0.075212 0.879962 0.394495
O O15 0.660954 0.699575 0.546518
O O16 0.254239 0.483151 0.712527
O O17 0.500000 0.000000 0.500000
#
# Coordination Sequence:
#
# PCOD8011912 Si02
#       8
#     2   2   2   2   2   2   2   2
#     4  10  21  39  65  85 130 167 201 259 325 355
#     4  10  24  41  59  88 129 158 211 263 305 370
#     4   9  21  40  61  95 126 158 209 262 311 378
#     4  10  23  38  64  93 122 161 213 263 308 374
#     4  11  23  37  64  90 121 168 205 255 320 367
#     4  10  23  42  62  88 123 169 212 256 305 374
#     4   9  21  42  61  89 124 162 211 258 310 370
#     4   9  21  38  60  93 128 160 204 254 314 378
#
# _framework density 22.394262000000001
#
# number of rings (size 3 to 8) (size 9 to 14) (size 15 to 20)
#    0.000    2.250    0.000    0.375    7.000   12.000 
#    0.000    1.250    0.000    0.000    0.000    0.000 
#    0.000    0.000    0.000    0.000    0.000    0.000 
#
# Total GULP energy -198221.026915 kJ/mol
# GULP energy per Si atom -12388.814182 kJ/mol
# Density = 2.234329 g / cm^3
# Si number density = 22.394262 Si / 1000 Ang^3
#
#
#
# Elastic Constant Matrix: (Units=GPa)
#
#
# Indices 1 2 3 4 5 6 
#
# 1 108.2474 34.0818 31.9135 11.8620 1.7183 -2.8298
# 2 34.0818 87.1929 35.6674 13.5621 -5.3176 8.9804
# 3 31.9135 35.6674 90.1451 20.3409 11.3211 -4.7034
# 4 11.8620 13.5621 20.3409 30.5930 -0.6689 -5.3383
# 5 1.7183 -5.3176 11.3211 -0.6689 41.5366 13.1771
# 6 -2.8298 8.9804 -4.7034 -5.3383 13.1771 29.8643
#
#
#
# Elastic Compliance Matrix: (Units=1/GPa)
#
#
# Indices 1 2 3 4 5 6 
#
# 1 0.011174 -0.003664 -0.002033 -0.001008 -0.001070 0.002132
# 2 -0.003664 0.017623 -0.006280 -0.003905 0.007422 -0.010608
# 3 -0.002033 -0.006280 0.017133 -0.006849 -0.007564 0.006507
# 4 -0.001008 -0.003905 -0.006849 0.040646 -0.000281 0.007390
# 5 -0.001070 0.007422 -0.007564 -0.000281 0.032860 -0.018074
# 6 0.002132 -0.010608 0.006507 0.007390 -0.018074 0.047197
#
#
# Mechanical properties :
#
#
# Convention : Reuss Voigt Hill
#
# Bulk Modulus (GPa) = 45.50615 54.32343 49.91479
# Shear Modulus (GPa) = 25.26361 32.66028 28.96195
#
# Velocity S-wave (km/s) = 3.36241 3.82307 3.60012
# Velocity P-wave (km/s) = 5.95306 6.61802 6.29433
#
# Compressibility (1/GPa) = 0.02197505
#
# Stress axis : x y z
#
# Youngs Moduli (GPa) = 89.49046 56.74547 58.36806
#
# Poissons Ratio (x) = 0.20793 0.11867
# Poissons Ratio (y) = 0.32792 0.36654
# Poissons Ratio (z) = 0.18195 0.35635
#
# Static dielectric constant tensor:
#      x y z
#    x 3.930150 0.195300 -0.000840 
#    y 0.195300 3.986510 0.044280 
#    z -0.000840 0.044280 4.636830 
# 
# 
# High freq. dielectric constant tensor:
#      x y z
#    x 1.879050 0.011840 -0.000470 
#    y 0.011840 1.867550 0.016670 
#    z -0.000470 0.016670 1.894340 
# 
# From -- ./inp_files/70040.got.cif
#   From: 2010.06.25/outbox.cif.g09.slc.cpg/sg2_36_cif.got.tgz:70040.got - 2010.06.27 13:26:56.
