data_PCOD8011423
_publ_section_title
;
Structure prediction by ZEFSAII (Michael W. Deem and Ramdas Pophale) SiO2 
 PCOD8011423
Probable space group: P -1
;
_chemical_formula_sum "Si O2"
_cell_formula_units_Z 16
_cell_length_a 16.165439
_cell_length_b 5.997687
_cell_length_c 8.456725
_cell_angle_alpha 60.725651
_cell_angle_beta 72.088841
_cell_angle_gamma 63.853708
_cell_volume 637.571149
_symmetry_space_group_name_H-M "P -1"
_symmetry_group_IT_number 2
_symmetry_cell_setting 'triclinic'
loop_
_space_group_symop_operation_xyz
x,y,z
-x,-y,-z
loop_
_atom_site_type_symbol
_atom_site_label
_atom_site_fract_x
_atom_site_fract_y
_atom_site_fract_z
Si Si1 0.744042 0.177888 0.546514
Si Si2 0.565004 0.689713 0.068107
Si Si3 0.754099 0.690555 0.907681
Si Si4 0.914281 0.767813 0.991232
Si Si5 0.856425 0.319222 0.706830
Si Si6 0.161167 0.194672 0.641064
Si Si7 0.512774 0.742639 0.745621
Si Si8 0.644636 0.759997 0.399468
O O1 0.786262 0.284415 0.631677
O O2 0.660542 0.448386 0.442384
O O3 0.712318 0.937482 0.718974
O O4 0.817186 0.066774 0.397309
O O5 0.670532 0.650245 0.072001
O O6 0.571470 0.594365 0.913924
O O7 0.524811 0.474362 0.250847
O O8 0.500000 0.000000 0.000000
O O9 0.821427 0.744577 0.979310
O O10 0.806920 0.422678 0.867665
O O11 0.933367 0.024352 0.807372
O O12 0.903417 0.815252 0.170261
O O13 0.000000 0.500000 0.000000
O O14 0.895011 0.538822 0.526638
O O15 0.259368 0.191257 0.650515
O O16 0.585737 0.829119 0.571394
O O17 0.424881 0.017295 0.756116
#
# Coordination Sequence:
#
# PCOD8011423 Si02
#       8
#     2   2   2   2   2   2   2   2
#     4   9  18  39  67  94 127 179 223 268 340 396
#     4  11  23  37  62  92 132 178 220 270 329 394
#     4  10  22  42  69  95 135 181 220 279 342 394
#     4  11  26  45  71 103 133 173 227 282 343 413
#     4   9  21  42  67  95 135 173 218 279 334 407
#     4  10  22  40  68  98 130 178 222 271 347 404
#     4  10  23  38  57  94 131 171 228 271 321 393
#     4  10  21  39  61  89 131 172 222 279 320 393
#
# _framework density 25.095238999999999
#
# number of rings (size 3 to 8) (size 9 to 14) (size 15 to 20)
#    0.000    2.000    0.000    3.000    3.500    6.000 
#    0.000    8.750    0.000    0.000    0.000    0.000 
#    0.000    0.000    0.000    0.000    0.000    0.000 
#
# Total GULP energy -198252.595342 kJ/mol
# GULP energy per Si atom -12390.787209 kJ/mol
# Density = 2.503812 g / cm^3
# Si number density = 25.095239 Si / 1000 Ang^3
#
#
#
# Elastic Constant Matrix: (Units=GPa)
#
#
# Indices 1 2 3 4 5 6 
#
# 1 39.0969 9.3180 6.8481 -6.3402 2.5787 -5.5234
# 2 9.3180 153.2400 36.3260 -24.4647 10.3848 -17.5599
# 3 6.8481 36.3260 85.9660 -1.4035 9.0649 -13.3451
# 4 -6.3402 -24.4647 -1.4035 51.9105 -1.2887 10.2261
# 5 2.5787 10.3848 9.0649 -1.2887 18.7697 1.4407
# 6 -5.5234 -17.5599 -13.3451 10.2261 1.4407 31.5656
#
#
#
# Elastic Compliance Matrix: (Units=1/GPa)
#
#
# Indices 1 2 3 4 5 6 
#
# 1 0.026924 -0.000413 -0.001081 0.002316 -0.003051 0.003413
# 2 -0.000413 0.008184 -0.002656 0.003169 -0.003161 0.002475
# 3 -0.001081 -0.002656 0.014247 -0.002194 -0.005823 0.005333
# 4 0.002316 0.003169 -0.002194 0.022185 0.000971 -0.005991
# 5 -0.003051 -0.003161 -0.005823 0.000971 0.058920 -0.007758
# 6 0.003413 0.002475 0.005333 -0.005991 -0.007758 0.038204
#
#
# Mechanical properties :
#
#
# Convention : Reuss Voigt Hill
#
# Bulk Modulus (GPa) = 24.35728 42.58745 33.47237
# Shear Modulus (GPa) = 26.22612 35.50321 30.86467
#
# Velocity S-wave (km/s) = 3.23625 3.76538 3.51080
# Velocity P-wave (km/s) = 4.86739 5.99260 5.45906
#
# Compressibility (1/GPa) = 0.04105548
#
# Stress axis : x y z
#
# Youngs Moduli (GPa) = 37.14101 122.18618 70.19016
#
# Poissons Ratio (x) = 0.05049 0.07586
# Poissons Ratio (y) = 0.01535 0.18643
# Poissons Ratio (z) = 0.04014 0.32454
#
# Static dielectric constant tensor:
#      x y z
#    x 4.157650 0.145980 0.261120 
#    y 0.145980 4.943400 -0.389840 
#    z 0.261120 -0.389840 4.833790 
# 
# 
# High freq. dielectric constant tensor:
#      x y z
#    x 1.966110 0.009010 0.017170 
#    y 0.009010 2.014960 -0.008860 
#    z 0.017170 -0.008860 2.005470 
# 
# From -- ./inp_files/323307.got.cif
#   From: 2010.06.25/outbox.cif.g09.slc.cpg/sg2_162_cif.got.tgz:323307.got - 2010.06.27 13:26:56.
