data_PCOD8011808
_publ_section_title
;
Structure prediction by ZEFSAII (Michael W. Deem and Ramdas Pophale) SiO2 
 PCOD8011808
Probable space group: P -1
;
_chemical_formula_sum "Si O2"
_cell_formula_units_Z 16
_cell_length_a 8.181842
_cell_length_b 26.267201
_cell_length_c 8.449943
_cell_angle_alpha 46.363511
_cell_angle_beta 105.985046
_cell_angle_gamma 139.239936
_cell_volume 731.178913
_symmetry_space_group_name_H-M "P -1"
_symmetry_group_IT_number 2
_symmetry_cell_setting 'triclinic'
loop_
_space_group_symop_operation_xyz
x,y,z
-x,-y,-z
loop_
_atom_site_type_symbol
_atom_site_label
_atom_site_fract_x
_atom_site_fract_y
_atom_site_fract_z
Si Si1 0.817879 0.940919 0.920453
Si Si2 0.856493 0.171186 0.370935
Si Si3 0.170989 0.623787 0.714962
Si Si4 0.247323 0.186788 0.350207
Si Si5 0.162650 0.404835 0.099229
Si Si6 0.207562 0.215368 0.919204
Si Si7 0.360782 0.900779 0.886144
Si Si8 0.774479 0.440735 0.430585
O O1 0.797992 0.855008 0.040559
O O2 0.506082 0.874014 0.026152
O O3 0.984620 0.041747 0.612188
O O4 0.000000 0.000000 0.000000
O O5 0.743381 0.146071 0.219044
O O6 0.154884 0.226826 0.329068
O O7 0.942641 0.271255 0.265606
O O8 0.599999 0.043311 0.669068
O O9 0.457730 0.739014 0.647493
O O10 0.243917 0.634591 0.527593
O O11 0.951364 0.614703 0.711772
O O12 0.000000 0.500000 0.000000
O O13 0.290764 0.216843 0.112764
O O14 0.500000 0.500000 0.000000
O O15 0.124501 0.456686 0.857251
O O16 0.915900 0.165926 0.940018
O O17 0.461808 0.349899 0.624960
O O18 0.000000 0.500000 0.500000
#
# Coordination Sequence:
#
# PCOD8011808 Si02
#       8
#     2   2   2   2   2   2   2   2
#     4  11  24  40  64  98 137 179 227 279 344 409
#     4   9  19  40  67  96 130 168 226 286 329 406
#     4  10  21  39  64  91 128 171 219 271 330 403
#     4  10  21  41  66  97 127 174 225 275 338 410
#     4  11  24  42  70  99 131 179 229 280 350 408
#     4  11  23  43  68  94 137 179 225 279 348 404
#     4   9  22  40  65 100 133 173 228 283 337 405
#     4  11  25  45  65  98 137 180 226 283 337 415
#
# _framework density 21.882466999999998
#
# number of rings (size 3 to 8) (size 9 to 14) (size 15 to 20)
#    0.000    1.750    0.000    4.875    5.250    2.500 
#    4.500    3.125    0.000    0.000    0.000    0.000 
#    0.000    0.000    0.000    0.000    0.000    0.000 
#
# Total GULP energy -198303.457519 kJ/mol
# GULP energy per Si atom -12393.966095 kJ/mol
# Density = 2.183266 g / cm^3
# Si number density = 21.882467 Si / 1000 Ang^3
#
#
#
# Elastic Constant Matrix: (Units=GPa)
#
#
# Indices 1 2 3 4 5 6 
#
# 1 160.3620 56.5161 19.4565 -7.4255 -27.0167 2.3848
# 2 56.5161 97.5042 16.2160 -9.2056 -14.2844 -3.3393
# 3 19.4565 16.2160 40.8765 -1.5096 -23.7716 -12.1870
# 4 -7.4255 -9.2056 -1.5096 32.6911 0.2971 3.1534
# 5 -27.0167 -14.2844 -23.7716 0.2971 40.4210 -5.1659
# 6 2.3848 -3.3393 -12.1870 3.1534 -5.1659 40.5028
#
#
#
# Elastic Compliance Matrix: (Units=1/GPa)
#
#
# Indices 1 2 3 4 5 6 
#
# 1 0.008464 -0.004244 -0.000089 0.000727 0.004047 -0.000415
# 2 -0.004244 0.013510 -0.003093 0.002673 0.000130 0.000241
# 3 -0.000089 -0.003093 0.048309 -0.000676 0.029578 0.018111
# 4 0.000727 0.002673 -0.000676 0.031706 0.000489 -0.002432
# 5 0.004047 0.000130 0.029578 0.000489 0.046747 0.014596
# 6 -0.000415 0.000241 0.018111 -0.002432 0.014596 0.032235
#
#
# Mechanical properties :
#
#
# Convention : Reuss Voigt Hill
#
# Bulk Modulus (GPa) = 18.04050 53.67998 35.86024
# Shear Modulus (GPa) = 23.33190 36.49324 29.91257
#
# Velocity S-wave (km/s) = 3.26887 4.08817 3.70126
# Velocity P-wave (km/s) = 4.74442 6.84606 5.88974
#
# Compressibility (1/GPa) = 0.05543082
#
# Stress axis : x y z
#
# Youngs Moduli (GPa) = 118.14831 74.01947 20.70016
#
# Poissons Ratio (x) = 0.31413 0.00184
# Poissons Ratio (y) = 0.50141 0.06403
# Poissons Ratio (z) = 0.01048 0.22897
#
# Static dielectric constant tensor:
#      x y z
#    x 4.349680 -0.070140 -0.100020 
#    y -0.070140 3.932040 -0.121920 
#    z -0.100020 -0.121920 4.235160 
# 
# 
# High freq. dielectric constant tensor:
#      x y z
#    x 1.872170 -0.001190 -0.013860 
#    y -0.001190 1.858630 -0.009330 
#    z -0.013860 -0.009330 1.857810 
# 
# From -- ./inp_files/227392.got.cif
#   From: 2010.06.25/outbox.cif.g09.slc.cpg/sg2_114_cif.got.tgz:227392.got - 2010.06.27 13:26:56.
