data_PCOD8011988
_publ_section_title
;
Structure prediction by ZEFSAII (Michael W. Deem and Ramdas Pophale) SiO2 
 PCOD8011988
Probable space group: P -1
;
_chemical_formula_sum "Si O2"
_cell_formula_units_Z 14
_cell_length_a 11.687679
_cell_length_b 15.288228
_cell_length_c 10.888607
_cell_angle_alpha 46.370302
_cell_angle_beta 37.848910
_cell_angle_gamma 28.612508
_cell_volume 571.654902
_symmetry_space_group_name_H-M "P -1"
_symmetry_group_IT_number 2
_symmetry_cell_setting 'triclinic'
loop_
_space_group_symop_operation_xyz
x,y,z
-x,-y,-z
loop_
_atom_site_type_symbol
_atom_site_label
_atom_site_fract_x
_atom_site_fract_y
_atom_site_fract_z
Si Si1 0.211869 0.371288 0.110052
Si Si2 0.295464 0.986302 0.840964
Si Si3 0.991832 0.895054 0.269555
Si Si4 0.615398 0.202091 0.461843
Si Si5 0.052391 0.353762 0.728549
Si Si6 0.389271 0.415580 0.679331
Si Si7 0.628958 0.488049 0.777059
O O1 0.384119 0.183301 0.218696
O O2 0.151635 0.510623 0.117708
O O3 0.934412 0.435709 0.235966
O O4 0.401273 0.341875 0.871316
O O5 0.270010 0.013150 0.687830
O O6 0.151217 0.169366 0.851449
O O7 0.126638 0.950966 0.054274
O O8 0.233646 0.675608 0.275806
O O9 0.863925 0.986529 0.425555
O O10 0.323344 0.304724 0.549390
O O11 0.594199 0.234629 0.593844
O O12 0.628344 0.324169 0.260244
O O13 0.890094 0.444132 0.647593
O O14 0.500000 0.500000 0.500000
O O15 0.500000 0.500000 0.000000
#
# Coordination Sequence:
#
# PCOD8011988 Si02
#       7
#     2   2   2   2   2   2   2
#     4  10  22  46  68  90 131 170 219 271 323 378
#     4  10  21  39  65  94 127 170 202 258 330 388
#     4  10  22  37  62 100 130 160 212 256 314 403
#     4  11  23  40  60  93 129 164 216 266 321 379
#     4  10  22  38  64  94 128 163 205 266 325 390
#     4  10  25  43  68  94 122 176 228 272 317 377
#     4  11  22  37  65  95 126 173 204 255 329 391
#
# _framework density 24.490300999999999
#
# number of rings (size 3 to 8) (size 9 to 14) (size 15 to 20)
#    0.000    1.714    0.000    4.714    6.000    5.714 
#    0.000    8.571    0.000    0.000    0.000    0.000 
#    0.000    0.000    0.000    0.000    0.000    0.000 
#
# Total GULP energy -173470.292142 kJ/mol
# GULP energy per Si atom -12390.735153 kJ/mol
# Density = 2.443456 g / cm^3
# Si number density = 24.490301 Si / 1000 Ang^3
#
#
#
# Elastic Constant Matrix: (Units=GPa)
#
#
# Indices 1 2 3 4 5 6 
#
# 1 77.3923 49.0619 15.7130 3.2274 5.1077 24.9602
# 2 49.0619 87.7584 -0.4170 21.9043 4.9177 28.1395
# 3 15.7130 -0.4170 50.1070 18.8945 5.4315 22.2855
# 4 3.2274 21.9043 18.8945 36.8728 12.5839 12.7230
# 5 5.1077 4.9177 5.4315 12.5839 26.1181 6.6388
# 6 24.9602 28.1395 22.2855 12.7230 6.6388 44.5832
#
#
#
# Elastic Compliance Matrix: (Units=1/GPa)
#
#
# Indices 1 2 3 4 5 6 
#
# 1 0.029763 -0.022015 -0.017266 0.022063 -0.008943 0.000898
# 2 -0.022015 0.035599 0.024135 -0.030058 0.010944 -0.015260
# 3 -0.017266 0.024135 0.046052 -0.032783 0.010330 -0.020769
# 4 0.022063 -0.030058 -0.032783 0.065802 -0.025584 0.008038
# 5 -0.008943 0.010944 0.010330 -0.025584 0.049986 -0.007206
# 6 0.000898 -0.015260 -0.020769 0.008038 -0.007206 0.040719
#
#
# Mechanical properties :
#
#
# Convention : Reuss Voigt Hill
#
# Bulk Modulus (GPa) = 12.32718 38.21928 25.27323
# Shear Modulus (GPa) = 15.37252 31.57481 23.47366
#
# Velocity S-wave (km/s) = 2.50811 3.59455 3.09930
# Velocity P-wave (km/s) = 3.66496 5.73301 4.81141
#
# Compressibility (1/GPa) = 0.08112157
#
# Stress axis : x y z
#
# Youngs Moduli (GPa) = 33.59826 28.09039 21.71458
#
# Poissons Ratio (x) = 0.61841 0.37493
# Poissons Ratio (y) = 0.73967 -0.52408
# Poissons Ratio (z) = 0.58012 -0.67796
#
# Static dielectric constant tensor:
#      x y z
#    x 4.842210 0.252380 -0.110810 
#    y 0.252380 5.005250 0.065090 
#    z -0.110810 0.065090 4.317590 
# 
# 
# High freq. dielectric constant tensor:
#      x y z
#    x 1.973790 0.013930 -0.013830 
#    y 0.013930 1.971060 0.005120 
#    z -0.013830 0.005120 1.971790 
# 
# From -- ./inp_files/269722.got.cif
#   From: 2010.06.25/outbox.cif.g09.slc.cpg/sg2_135_cif.got.tgz:269722.got - 2010.06.27 13:26:56.
