data_PCOD8011284
_publ_section_title
;
Structure prediction by ZEFSAII (Michael W. Deem and Ramdas Pophale) SiO2 
 PCOD8011284
Probable space group: P -1
;
_chemical_formula_sum "Si O2"
_cell_formula_units_Z 16
_cell_length_a 8.079111
_cell_length_b 8.797035
_cell_length_c 13.762457
_cell_angle_alpha 85.641259
_cell_angle_beta 84.910861
_cell_angle_gamma 132.125196
_cell_volume 710.340638
_symmetry_space_group_name_H-M "P -1"
_symmetry_group_IT_number 2
_symmetry_cell_setting 'triclinic'
loop_
_space_group_symop_operation_xyz
x,y,z
-x,-y,-z
loop_
_atom_site_type_symbol
_atom_site_label
_atom_site_fract_x
_atom_site_fract_y
_atom_site_fract_z
Si Si1 0.216289 0.364634 0.610172
Si Si2 0.572557 0.854754 0.815169
Si Si3 0.827058 0.313080 0.735819
Si Si4 0.320447 0.495719 0.386224
Si Si5 0.684266 0.745064 0.995332
Si Si6 0.930120 0.915781 0.679584
Si Si7 0.136710 0.961729 0.868147
Si Si8 0.088587 0.592399 0.884467
O O1 0.294313 0.501922 0.502872
O O2 0.439538 0.439048 0.651280
O O3 0.060008 0.381812 0.680500
O O4 0.064001 0.123204 0.597707
O O5 0.667854 0.875172 0.915504
O O6 0.682928 0.822646 0.726461
O O7 0.310129 0.635163 0.840027
O O8 0.634202 0.069287 0.781321
O O9 0.702610 0.351408 0.666814
O O10 0.887423 0.442203 0.825097
O O11 0.108345 0.264216 0.367651
O O12 0.925238 0.816911 0.960740
O O13 0.500000 0.500000 0.000000
O O14 0.672914 0.810648 0.101668
O O15 0.080985 0.992681 0.764480
O O16 0.207914 0.832223 0.860460
O O17 0.000000 0.500000 0.000000
#
# Coordination Sequence:
#
# PCOD8011284 Si02
#       8
#     2   2   2   2   2   2   2   2
#     4  10  24  42  67 101 133 168 226 276 328 412
#     4  10  24  40  60  93 130 172 219 268 331 389
#     4  11  24  43  67  96 139 174 217 281 330 394
#     4  11  22  42  71  98 128 179 218 270 348 394
#     4  10  21  39  59  83 121 170 213 266 320 376
#     4  10  21  42  63  92 132 168 217 276 326 393
#     4  10  22  36  57  88 118 160 218 258 314 386
#     4  12  24  40  62  92 132 173 220 272 325 392
#
# _framework density 22.524405999999999
#
# number of rings (size 3 to 8) (size 9 to 14) (size 15 to 20)
#    0.000    1.500    1.250    3.000    1.750    9.000 
#    0.000    0.000    0.000    8.250    0.000    0.000 
#    0.000    0.000    0.000    0.000    0.000    0.000 
#
# Total GULP energy -198319.585336 kJ/mol
# GULP energy per Si atom -12394.974083 kJ/mol
# Density = 2.247314 g / cm^3
# Si number density = 22.524406 Si / 1000 Ang^3
#
#
#
# Elastic Constant Matrix: (Units=GPa)
#
#
# Indices 1 2 3 4 5 6 
#
# 1 98.0655 28.6212 41.1219 -11.4071 16.5619 2.8483
# 2 28.6212 112.6336 36.9986 2.7853 8.8896 -8.4149
# 3 41.1219 36.9986 87.8798 -13.3740 11.0003 0.4419
# 4 -11.4071 2.7853 -13.3740 32.3392 -2.9211 -1.3007
# 5 16.5619 8.8896 11.0003 -2.9211 25.9804 -8.2153
# 6 2.8483 -8.4149 0.4419 -1.3007 -8.2153 37.1130
#
#
#
# Elastic Compliance Matrix: (Units=1/GPa)
#
#
# Indices 1 2 3 4 5 6 
#
# 1 0.014248 -0.001825 -0.004605 0.002513 -0.007158 -0.002949
# 2 -0.001825 0.011039 -0.004258 -0.003291 -0.000393 0.002491
# 3 -0.004605 -0.004258 0.016428 0.005280 -0.002329 -0.001138
# 4 0.002513 -0.003291 0.005280 0.034414 0.001314 0.000495
# 5 -0.007158 -0.000393 -0.002329 0.001314 0.047840 0.011124
# 6 -0.002949 0.002491 -0.001138 0.000495 0.011124 0.030229
#
#
# Mechanical properties :
#
#
# Convention : Reuss Voigt Hill
#
# Bulk Modulus (GPa) = 49.16853 56.89583 53.03218
# Shear Modulus (GPa) = 27.41916 31.87565 29.64741
#
# Velocity S-wave (km/s) = 3.49278 3.76594 3.63193
# Velocity P-wave (km/s) = 6.17595 6.65013 6.41742
#
# Compressibility (1/GPa) = 0.02033821
#
# Stress axis : x y z
#
# Youngs Moduli (GPa) = 70.18489 90.58543 60.87353
#
# Poissons Ratio (x) = 0.16534 0.28034
# Poissons Ratio (y) = 0.12811 0.25918
# Poissons Ratio (z) = 0.32323 0.38569
#
# Static dielectric constant tensor:
#      x y z
#    x 4.173660 -0.036190 0.002590 
#    y -0.036190 3.967050 -0.065830 
#    z 0.002590 -0.065830 3.896680 
# 
# 
# High freq. dielectric constant tensor:
#      x y z
#    x 1.890820 0.001850 0.001490 
#    y 0.001850 1.889240 -0.007900 
#    z 0.001490 -0.007900 1.882970 
# 
# From -- ./inp_files/106493.got.cif
#   From: 2010.06.25/outbox.cif.g09.slc.cpg/sg2_54_cif.got.tgz:106493.got - 2010.06.27 13:26:56.
