data_PCOD8011493
_publ_section_title
;
Structure prediction by ZEFSAII (Michael W. Deem and Ramdas Pophale) SiO2 
 PCOD8011493
Probable space group: P -1
;
_chemical_formula_sum "Si O2"
_cell_formula_units_Z 12
_cell_length_a 17.957760
_cell_length_b 9.097004
_cell_length_c 6.251635
_cell_angle_alpha 60.636807
_cell_angle_beta 118.111456
_cell_angle_gamma 142.962629
_cell_volume 529.896663
_symmetry_space_group_name_H-M "P -1"
_symmetry_group_IT_number 2
_symmetry_cell_setting 'triclinic'
loop_
_space_group_symop_operation_xyz
x,y,z
-x,-y,-z
loop_
_atom_site_type_symbol
_atom_site_label
_atom_site_fract_x
_atom_site_fract_y
_atom_site_fract_z
Si Si1 0.263807 0.025525 0.938508
Si Si2 0.958444 0.281667 0.456391
Si Si3 0.200821 0.168060 0.131916
Si Si4 0.596496 0.002767 0.566468
Si Si5 0.202211 0.463836 0.605760
Si Si6 0.633796 0.523629 0.490963
O O1 0.141999 0.801165 0.793231
O O2 0.357025 0.284844 0.753057
O O3 0.222445 0.045065 0.091998
O O4 0.339988 0.971179 0.146671
O O5 0.000000 0.500000 0.500000
O O6 0.076024 0.373107 0.423682
O O7 0.903997 0.047047 0.690032
O O8 0.327578 0.400131 0.265129
O O9 0.162700 0.280115 0.873220
O O10 0.513844 0.740599 0.519257
O O11 0.500000 0.000000 0.500000
O O12 0.703459 0.248292 0.389007
O O13 0.270652 0.467257 0.501739
#
# Coordination Sequence:
#
# PCOD8011493 Si02
#       6
#     2   2   2   2   2   2
#     4  10  22  41  62  88 120 155 199 247 294 349
#     4  11  24  40  62  89 119 157 199 245 297 352
#     4  10  22  39  62  90 120 156 196 243 297 353
#     4  10  21  39  62  87 121 159 196 244 294 347
#     4  10  22  39  60  91 122 155 197 243 294 350
#     4   9  21  40  63  89 119 158 198 241 294 349
#
# _framework density 22.645924000000001
#
# number of rings (size 3 to 8) (size 9 to 14) (size 15 to 20)
#    0.000    2.000    0.000    2.000    0.000   14.000 
#    0.000    6.667    0.000    0.000    0.000    0.000 
#    0.000    0.000    0.000    0.000    0.000    0.000 
#
# Total GULP energy -148737.164475 kJ/mol
# GULP energy per Si atom -12394.763706 kJ/mol
# Density = 2.259438 g / cm^3
# Si number density = 22.645924 Si / 1000 Ang^3
#
#
#
# Elastic Constant Matrix: (Units=GPa)
#
#
# Indices 1 2 3 4 5 6 
#
# 1 70.5167 39.6372 60.6290 11.7314 23.0335 7.9645
# 2 39.6372 169.8782 63.1990 17.9141 12.4753 5.9624
# 3 60.6290 63.1990 100.2799 21.0283 24.6366 -6.9913
# 4 11.7314 17.9141 21.0283 40.4184 -5.0559 -1.6426
# 5 23.0335 12.4753 24.6366 -5.0559 39.7613 4.9829
# 6 7.9645 5.9624 -6.9913 -1.6426 4.9829 25.4157
#
#
#
# Elastic Compliance Matrix: (Units=1/GPa)
#
#
# Indices 1 2 3 4 5 6 
#
# 1 0.036926 0.000834 -0.022450 -0.000811 -0.005732 -0.016871
# 2 0.000834 0.008056 -0.005988 -0.000723 0.001116 -0.004064
# 3 -0.022450 -0.005988 0.032373 -0.007985 -0.008509 0.018497
# 4 -0.000811 -0.000723 -0.007985 0.030602 0.009749 -0.001707
# 5 -0.005732 0.001116 -0.008509 0.009749 0.035527 -0.007141
# 6 -0.016871 -0.004064 0.018497 -0.001707 -0.007141 0.051964
#
#
# Mechanical properties :
#
#
# Convention : Reuss Voigt Hill
#
# Bulk Modulus (GPa) = 45.14658 74.17837 59.66247
# Shear Modulus (GPa) = 19.37696 32.93304 26.15500
#
# Velocity S-wave (km/s) = 2.92832 3.81761 3.40215
# Velocity P-wave (km/s) = 5.60469 7.22904 6.46806
#
# Compressibility (1/GPa) = 0.02215007
#
# Stress axis : x y z
#
# Youngs Moduli (GPa) = 27.08089 124.12460 30.88973
#
# Poissons Ratio (x) = -0.10358 0.69346
# Poissons Ratio (y) = -0.02260 0.18496
# Poissons Ratio (z) = 0.60796 0.74324
#
# Static dielectric constant tensor:
#      x y z
#    x 3.828660 0.067350 0.188810 
#    y 0.067350 5.230240 -0.100490 
#    z 0.188810 -0.100490 4.088030 
# 
# 
# High freq. dielectric constant tensor:
#      x y z
#    x 1.877460 0.004150 0.018670 
#    y 0.004150 1.914920 -0.008640 
#    z 0.018670 -0.008640 1.886290 
# 
# From -- ./inp_files/22043.got.cif
#   From: 2010.06.25/outbox.cif.g09.slc.cpg/sg2_12_cif.got.tgz:22043.got - 2010.06.27 13:26:56.
