data_PCOD8011855
_publ_section_title
;
Structure prediction by ZEFSAII (Michael W. Deem and Ramdas Pophale) SiO2 
 PCOD8011855
Probable space group: P -1
;
_chemical_formula_sum "Si O2"
_cell_formula_units_Z 16
_cell_length_a 25.644571
_cell_length_b 9.360167
_cell_length_c 23.193537
_cell_angle_alpha 152.487599
_cell_angle_beta 17.173728
_cell_angle_gamma 142.923411
_cell_volume 707.516507
_symmetry_space_group_name_H-M "P -1"
_symmetry_group_IT_number 2
_symmetry_cell_setting 'triclinic'
loop_
_space_group_symop_operation_xyz
x,y,z
-x,-y,-z
loop_
_atom_site_type_symbol
_atom_site_label
_atom_site_fract_x
_atom_site_fract_y
_atom_site_fract_z
Si Si1 0.949545 0.320354 0.128270
Si Si2 0.742885 0.447492 0.172093
Si Si3 0.935264 0.388648 0.698075
Si Si4 0.388331 0.765909 0.259726
Si Si5 0.764475 0.689306 0.560720
Si Si6 0.446331 0.556786 0.910999
Si Si7 0.348667 0.472260 0.572822
Si Si8 0.003790 0.289466 0.364228
O O1 0.822859 0.637682 0.413810
O O2 0.821439 0.276166 0.195227
O O3 0.135245 0.380377 0.930461
O O4 0.000000 0.000000 0.000000
O O5 0.526443 0.593431 0.429729
O O6 0.740045 0.540895 0.275502
O O7 0.813711 0.048514 0.948014
O O8 0.044768 0.510310 0.675375
O O9 0.001402 0.461354 0.592197
O O10 0.705378 0.567539 0.006456
O O11 0.000000 0.000000 0.500000
O O12 0.458546 0.659664 0.212160
O O13 0.169595 0.830411 0.504654
O O14 0.415941 0.110272 0.342789
O O15 0.500000 0.500000 0.000000
O O16 0.607377 0.532265 0.685752
O O17 0.674279 0.076512 0.807758
O O18 0.000000 0.500000 0.500000
#
# Coordination Sequence:
#
# PCOD8011855 Si02
#       8
#     2   2   2   2   2   2   2   2
#     4  12  28  45  73 102 143 189 242 293 355 430
#     4  11  27  49  75 103 144 189 247 300 355 431
#     4  10  22  39  62  95 135 177 222 279 347 421
#     4  12  23  41  72 102 139 182 238 298 359 423
#     4  10  23  41  61  97 136 181 222 281 349 418
#     4  10  21  39  64  94 134 178 222 280 353 414
#     4  11  26  50  74 103 142 189 244 299 360 427
#     4  12  25  42  70 105 141 182 237 300 359 421
#
# _framework density 22.614312999999999
#
# number of rings (size 3 to 8) (size 9 to 14) (size 15 to 20)
#    0.000    1.000    2.500    3.375    7.000    1.500 
#    0.000    0.000    0.000    0.000    0.000    0.000 
#    0.000    0.000    0.000    0.000    0.000    0.000 
#
# Total GULP energy -198382.049208 kJ/mol
# GULP energy per Si atom -12398.878075 kJ/mol
# Density = 2.256284 g / cm^3
# Si number density = 22.614313 Si / 1000 Ang^3
#
#
#
# Elastic Constant Matrix: (Units=GPa)
#
#
# Indices 1 2 3 4 5 6 
#
# 1 136.7821 55.4108 41.0590 -22.9381 -16.8841 5.0415
# 2 55.4108 93.3677 42.9454 -21.8304 -5.7059 -11.8992
# 3 41.0590 42.9454 92.7223 -19.1570 2.8167 5.2798
# 4 -22.9381 -21.8304 -19.1570 52.3113 3.6169 -7.7265
# 5 -16.8841 -5.7059 2.8167 3.6169 39.9372 -8.2236
# 6 5.0415 -11.8992 5.2798 -7.7265 -8.2236 38.5922
#
#
#
# Elastic Compliance Matrix: (Units=1/GPa)
#
#
# Indices 1 2 3 4 5 6 
#
# 1 0.010720 -0.005069 -0.002139 0.001315 0.003497 -0.001662
# 2 -0.005069 0.018847 -0.006118 0.004527 0.002367 0.008721
# 3 -0.002139 -0.006118 0.015284 0.001758 -0.003875 -0.004172
# 4 0.001315 0.004527 0.001758 0.023047 0.000151 0.005630
# 5 0.003497 0.002367 -0.003875 0.000151 0.028540 0.006915
# 6 -0.001662 0.008721 -0.004172 0.005630 0.006915 0.031989
#
#
# Mechanical properties :
#
#
# Convention : Reuss Voigt Hill
#
# Bulk Modulus (GPa) = 54.94765 66.85584 60.90175
# Shear Modulus (GPa) = 31.02804 38.39861 34.71332
#
# Velocity S-wave (km/s) = 3.70814 4.12512 3.92218
# Velocity P-wave (km/s) = 6.53332 7.23302 6.89205
#
# Compressibility (1/GPa) = 0.01819914
#
# Stress axis : x y z
#
# Youngs Moduli (GPa) = 93.28530 53.05922 65.42687
#
# Poissons Ratio (x) = 0.26894 0.13997
# Poissons Ratio (y) = 0.47282 0.40028
# Poissons Ratio (z) = 0.19957 0.32461
#
# Static dielectric constant tensor:
#      x y z
#    x 4.572140 0.215180 -0.231400 
#    y 0.215180 4.113030 -0.176650 
#    z -0.231400 -0.176650 4.322150 
# 
# 
# High freq. dielectric constant tensor:
#      x y z
#    x 1.903560 0.003740 -0.015100 
#    y 0.003740 1.893810 -0.008000 
#    z -0.015100 -0.008000 1.894550 
# 
# From -- ./inp_files/601959.got.cif
#   From: 2010.06.25/outbox.cif.g09.slc.cpg/sg2_301_cif.got.tgz:601959.got - 2010.06.27 13:26:56.
