data_PCOD8011953
_publ_section_title
;
Structure prediction by ZEFSAII (Michael W. Deem and Ramdas Pophale) SiO2 
 PCOD8011953
Probable space group: P -1
;
_chemical_formula_sum "Si O2"
_cell_formula_units_Z 14
_cell_length_a 28.242042
_cell_length_b 22.861522
_cell_length_c 5.131250
_cell_angle_alpha 73.167735
_cell_angle_beta 107.140608
_cell_angle_gamma 170.623021
_cell_volume 515.798678
_symmetry_space_group_name_H-M "P -1"
_symmetry_group_IT_number 2
_symmetry_cell_setting 'triclinic'
loop_
_space_group_symop_operation_xyz
x,y,z
-x,-y,-z
loop_
_atom_site_type_symbol
_atom_site_label
_atom_site_fract_x
_atom_site_fract_y
_atom_site_fract_z
Si Si1 0.062916 0.862887 0.089649
Si Si2 0.929410 0.497201 0.917677
Si Si3 0.718491 0.822370 0.457541
Si Si4 0.712057 0.085631 0.560763
Si Si5 0.364885 0.743750 0.073926
Si Si6 0.574527 0.386293 0.206893
Si Si7 0.240142 0.338183 0.355485
O O1 0.057563 0.899775 0.291675
O O2 0.326694 0.136006 0.161526
O O3 0.759938 0.458037 0.071546
O O4 0.098825 0.955580 0.797118
O O5 0.890487 0.519789 0.919284
O O6 0.110967 0.720003 0.659985
O O7 0.077666 0.636880 0.215418
O O8 0.618321 0.087725 0.888499
O O9 0.500000 0.500000 0.500000
O O10 0.543468 0.672201 0.393119
O O11 0.478953 0.852654 0.389864
O O12 0.556059 0.838864 0.764315
O O13 0.754892 0.603857 0.488119
O O14 0.803754 0.682433 0.967146
O O15 0.000000 0.000000 0.500000
#
# Coordination Sequence:
#
# PCOD8011953 Si02
#       7
#     2   2   2   2   2   2   2
#     4  10  22  40  67  93 137 178 229 284 352 418
#     4  11  27  46  72 104 154 186 246 308 356 426
#     4  10  22  40  65  94 131 176 223 287 346 416
#     4  12  25  46  72 104 148 191 246 299 359 429
#     4  11  26  46  74 109 140 203 242 294 372 433
#     4  10  21  40  64  94 132 180 224 290 343 413
#     4  10  21  39  65  91 130 177 222 278 357 415
#
# _framework density 27.142372999999999
#
# number of rings (size 3 to 8) (size 9 to 14) (size 15 to 20)
#    0.000    1.429    1.429    2.571    4.000    6.857 
#    0.000    2.857    0.000    0.000    0.000    0.000 
#    0.000    0.000    0.000    0.000    0.000    0.000 
#
# Total GULP energy -173584.966140 kJ/mol
# GULP energy per Si atom -12398.926153 kJ/mol
# Density = 2.708060 g / cm^3
# Si number density = 27.142373 Si / 1000 Ang^3
#
#
#
# Elastic Constant Matrix: (Units=GPa)
#
#
# Indices 1 2 3 4 5 6 
#
# 1 86.4570 21.3353 29.5413 -9.5711 -2.7677 -17.5158
# 2 21.3353 87.5480 36.1589 8.1522 -3.5744 -33.6346
# 3 29.5413 36.1589 138.1249 -14.4445 -0.9842 -8.5571
# 4 -9.5711 8.1522 -14.4445 35.9334 -0.2683 -2.9420
# 5 -2.7677 -3.5744 -0.9842 -0.2683 41.5394 10.0478
# 6 -17.5158 -33.6346 -8.5571 -2.9420 10.0478 47.4019
#
#
#
# Elastic Compliance Matrix: (Units=1/GPa)
#
#
# Indices 1 2 3 4 5 6 
#
# 1 0.013772 -0.001309 -0.001987 0.003498 -0.000202 0.004061
# 2 -0.001309 0.018569 -0.004418 -0.005376 -0.001502 0.011879
# 3 -0.001987 -0.004418 0.009113 0.003972 0.000219 -0.002024
# 4 0.003498 -0.005376 0.003972 0.031590 0.000033 0.000148
# 5 -0.000202 -0.001502 0.000219 0.000033 0.025510 -0.006506
# 6 0.004061 0.011879 -0.002024 0.000148 -0.006506 0.032049
#
#
# Mechanical properties :
#
#
# Convention : Reuss Voigt Hill
#
# Bulk Modulus (GPa) = 38.42349 54.02232 46.22291
# Shear Modulus (GPa) = 32.31924 39.98123 36.15024
#
# Velocity S-wave (km/s) = 3.45444 3.84216 3.65344
# Velocity P-wave (km/s) = 5.48615 6.29519 5.90454
#
# Compressibility (1/GPa) = 0.02602575
#
# Stress axis : x y z
#
# Youngs Moduli (GPa) = 72.61163 53.85233 109.73452
#
# Poissons Ratio (x) = 0.07051 0.21802
# Poissons Ratio (y) = 0.09507 0.48481
# Poissons Ratio (z) = 0.14426 0.23792
#
# Static dielectric constant tensor:
#      x y z
#    x 2.706410 0.393930 2.072360 
#    y 0.393930 4.952580 -0.063840 
#    z 2.072360 -0.063840 3.347450 
# 
# 
# High freq. dielectric constant tensor:
#      x y z
#    x 2.113940 0.009520 0.000900 
#    y 0.009520 2.096470 0.003590 
#    z 0.000900 0.003590 2.102990 
# 
# From -- ./inp_files/128823.got.cif
#   From: 2010.06.25/outbox.cif.g09.slc.cpg/sg2_65_cif.got.tgz:128823.got - 2010.06.27 13:26:56.
