data_PCOD8011613
_publ_section_title
;
Structure prediction by ZEFSAII (Michael W. Deem and Ramdas Pophale) SiO2 
 PCOD8011613
Probable space group: P -1
;
_chemical_formula_sum "Si O2"
_cell_formula_units_Z 12
_cell_length_a 13.321315
_cell_length_b 11.101794
_cell_length_c 6.370470
_cell_angle_alpha 88.130493
_cell_angle_beta 89.895583
_cell_angle_gamma 31.519002
_cell_volume 491.657560
_symmetry_space_group_name_H-M "P -1"
_symmetry_group_IT_number 2
_symmetry_cell_setting 'triclinic'
loop_
_space_group_symop_operation_xyz
x,y,z
-x,-y,-z
loop_
_atom_site_type_symbol
_atom_site_label
_atom_site_fract_x
_atom_site_fract_y
_atom_site_fract_z
Si Si1 0.843789 0.956871 0.416584
Si Si2 0.148243 0.488022 0.297250
Si Si3 0.995346 0.185921 0.123297
Si Si4 0.884675 0.552602 0.212811
Si Si5 0.565625 0.028923 0.329344
Si Si6 0.713586 0.259556 0.086743
O O1 0.696083 0.997041 0.442531
O O2 0.728888 0.194384 0.329584
O O3 0.956739 0.873258 0.629224
O O4 0.009843 0.748272 0.252944
O O5 0.123722 0.486050 0.546084
O O6 0.366644 0.291260 0.230867
O O7 0.071733 0.446109 0.179435
O O8 0.909468 0.410239 0.066124
O O9 0.828871 0.264152 0.055666
O O10 0.197858 0.943585 0.030867
O O11 0.689898 0.831471 0.161151
O O12 0.500000 0.000000 0.500000
O O13 0.500000 0.500000 0.000000
#
# Coordination Sequence:
#
# PCOD8011613 Si02
#       6
#     2   2   2   2   2   2
#     4  10  21  39  63  88 117 156 195 237 296 351
#     4   8  15  29  55  88 117 145 186 233 285 351
#     4  10  22  41  62  82 118 158 194 245 294 339
#     4   8  15  30  54  85 114 149 188 230 287 348
#     4   9  16  29  58  95 120 146 189 235 287 356
#     4  11  26  42  58  86 117 153 207 252 285 340
#
# _framework density 24.407233000000002
#
# number of rings (size 3 to 8) (size 9 to 14) (size 15 to 20)
#    0.000    2.667    0.000    3.500    0.000    8.667 
#    0.000    3.333    0.000   13.000    0.000    0.000 
#    0.000    0.000    0.000    0.000    0.000    0.000 
#
# Total GULP energy -148746.944981 kJ/mol
# GULP energy per Si atom -12395.578748 kJ/mol
# Density = 2.435168 g / cm^3
# Si number density = 24.407233 Si / 1000 Ang^3
#
#
#
# Elastic Constant Matrix: (Units=GPa)
#
#
# Indices 1 2 3 4 5 6 
#
# 1 97.4838 73.7477 15.9273 4.0191 1.9581 -5.0398
# 2 73.7477 215.6399 40.6546 -10.4914 10.6499 -18.6637
# 3 15.9273 40.6546 41.8340 3.4643 15.9048 3.5303
# 4 4.0191 -10.4914 3.4643 38.2914 7.6839 -2.3425
# 5 1.9581 10.6499 15.9048 7.6839 34.7309 -4.0006
# 6 -5.0398 -18.6637 3.5303 -2.3425 -4.0006 47.3167
#
#
#
# Elastic Compliance Matrix: (Units=1/GPa)
#
#
# Indices 1 2 3 4 5 6 
#
# 1 0.014248 -0.004957 -0.001014 -0.003153 0.001837 -0.000363
# 2 -0.004957 0.008020 -0.006662 0.003425 0.000498 0.003344
# 3 -0.001014 -0.006662 0.037355 -0.002460 -0.015261 -0.006935
# 4 -0.003153 0.003425 -0.002460 0.028922 -0.005899 0.002132
# 5 0.001837 0.000498 -0.015261 -0.005899 0.037337 0.004396
# 6 -0.000363 0.003344 -0.006935 0.002132 0.004396 0.023409
#
#
# Mechanical properties :
#
#
# Convention : Reuss Voigt Hill
#
# Bulk Modulus (GPa) = 29.10581 68.40190 48.75385
# Shear Modulus (GPa) = 26.88028 39.04300 32.96164
#
# Velocity S-wave (km/s) = 3.32222 4.00390 3.67888
# Velocity P-wave (km/s) = 5.16403 7.03285 6.16961
#
# Compressibility (1/GPa) = 0.03435740
#
# Stress axis : x y z
#
# Youngs Moduli (GPa) = 70.18389 124.68582 26.76998
#
# Poissons Ratio (x) = 0.61809 0.02714
# Poissons Ratio (y) = 0.34792 0.17834
# Poissons Ratio (z) = 0.07116 0.83067
#
# Static dielectric constant tensor:
#      x y z
#    x 4.257920 -0.006090 0.013590 
#    y -0.006090 5.683690 -0.046170 
#    z 0.013590 -0.046170 4.531840 
# 
# 
# High freq. dielectric constant tensor:
#      x y z
#    x 1.959250 0.008790 -0.005970 
#    y 0.008790 1.987560 -0.007810 
#    z -0.005970 -0.007810 1.991360 
# 
# From -- ./inp_files/300961.got.cif
#   From: 2010.06.25/outbox.cif.g09.slc.cpg/sg2_151_cif.got.tgz:300961.got - 2010.06.27 13:26:56.
