data_PCOD8011753
_publ_section_title
;
Structure prediction by ZEFSAII (Michael W. Deem and Ramdas Pophale) SiO2 
 PCOD8011753
Probable space group: P -1
;
_chemical_formula_sum "Si O2"
_cell_formula_units_Z 16
_cell_length_a 15.610740
_cell_length_b 18.434537
_cell_length_c 8.885106
_cell_angle_alpha 138.885747
_cell_angle_beta 28.717688
_cell_angle_gamma 147.392047
_cell_volume 661.012825
_symmetry_space_group_name_H-M "P -1"
_symmetry_group_IT_number 2
_symmetry_cell_setting 'triclinic'
loop_
_space_group_symop_operation_xyz
x,y,z
-x,-y,-z
loop_
_atom_site_type_symbol
_atom_site_label
_atom_site_fract_x
_atom_site_fract_y
_atom_site_fract_z
Si Si1 0.577796 0.858692 0.743695
Si Si2 0.301112 0.343292 0.729142
Si Si3 0.545449 0.274584 0.761092
Si Si4 0.913568 0.355343 0.845654
Si Si5 0.223438 0.015230 0.660731
Si Si6 0.602271 0.114078 0.644773
Si Si7 0.279635 0.366307 0.459706
Si Si8 0.918288 0.556318 0.592611
O O1 0.705978 0.788997 0.440141
O O2 0.711347 0.980417 0.608112
O O3 0.332333 0.754746 0.899222
O O4 0.577382 0.914303 0.996884
O O5 0.210063 0.339158 0.697993
O O6 0.546341 0.473831 0.579557
O O7 0.138717 0.344642 0.097171
O O8 0.419863 0.154853 0.649100
O O9 0.683470 0.249663 0.633864
O O10 0.698002 0.414549 0.652980
O O11 0.373173 0.281368 0.136404
O O12 0.067945 0.312854 0.600884
O O13 0.914131 0.362225 0.673557
O O14 0.000000 0.500000 0.000000
O O15 0.209271 0.888927 0.563106
O O16 0.000000 0.000000 0.000000
O O17 0.500000 0.000000 0.500000
O O18 0.000000 0.500000 0.500000
#
# Coordination Sequence:
#
# PCOD8011753 Si02
#       8
#     2   2   2   2   2   2   2   2
#     4  12  24  44  72  98 135 182 217 290 353 393
#     4  10  22  40  66  98 142 180 220 261 341 425
#     4  10  22  43  69  95 137 183 216 280 340 396
#     4  12  24  39  66 105 145 177 220 263 339 431
#     4  11  27  46  70  98 129 171 245 296 337 391
#     4  10  23  48  71  92 130 180 238 292 337 394
#     4  10  21  39  64 100 141 178 217 264 329 430
#     4  11  24  39  68 108 146 179 219 266 339 431
#
# _framework density 24.205279000000001
#
# number of rings (size 3 to 8) (size 9 to 14) (size 15 to 20)
#    0.000    1.250    2.500    2.625    5.250    2.000 
#    0.000    5.000    0.000    0.000    0.000    0.000 
#    0.000    0.000    0.000    0.000    0.000    0.000 
#
# Total GULP energy -198401.724853 kJ/mol
# GULP energy per Si atom -12400.107803 kJ/mol
# Density = 2.415019 g / cm^3
# Si number density = 24.205279 Si / 1000 Ang^3
#
#
#
# Elastic Constant Matrix: (Units=GPa)
#
#
# Indices 1 2 3 4 5 6 
#
# 1 118.6497 23.4598 43.0547 -2.6310 -9.1474 -15.8442
# 2 23.4598 62.2928 30.8319 1.0159 1.2011 -21.1117
# 3 43.0547 30.8319 134.4025 8.3242 -7.4996 -16.5148
# 4 -2.6310 1.0159 8.3242 42.9861 -4.5802 3.0792
# 5 -9.1474 1.2011 -7.4996 -4.5802 52.4248 6.2779
# 6 -15.8442 -21.1117 -16.5148 3.0792 6.2779 33.0229
#
#
#
# Elastic Compliance Matrix: (Units=1/GPa)
#
#
# Indices 1 2 3 4 5 6 
#
# 1 0.010129 -0.001914 -0.002558 0.001157 0.001307 0.002000
# 2 -0.001914 0.022703 -0.003118 -0.001273 -0.002934 0.012713
# 3 -0.002558 -0.003118 0.009313 -0.001929 0.000609 0.001501
# 4 0.001157 -0.001273 -0.001929 0.024295 0.002554 -0.003975
# 5 0.001307 -0.002934 0.000609 0.002554 0.020284 -0.005038
# 6 0.002000 0.012713 0.001501 -0.003975 -0.005038 0.041448
#
#
# Mechanical properties :
#
#
# Convention : Reuss Voigt Hill
#
# Bulk Modulus (GPa) = 37.08658 56.67087 46.87873
# Shear Modulus (GPa) = 32.82138 40.22000 36.52069
#
# Velocity S-wave (km/s) = 3.68633 4.08072 3.88853
# Velocity P-wave (km/s) = 5.78564 6.75770 6.29047
#
# Compressibility (1/GPa) = 0.02696393
#
# Stress axis : x y z
#
# Youngs Moduli (GPa) = 98.73104 44.04677 107.37740
#
# Poissons Ratio (x) = 0.08432 0.27471
# Poissons Ratio (y) = 0.18901 0.33475
# Poissons Ratio (z) = 0.25259 0.13732
#
# Static dielectric constant tensor:
#      x y z
#    x 4.818540 -0.075210 0.024060 
#    y -0.075210 4.566140 0.235320 
#    z 0.024060 0.235320 4.456670 
# 
# 
# High freq. dielectric constant tensor:
#      x y z
#    x 1.970560 -0.004380 0.001720 
#    y -0.004380 1.955760 0.017410 
#    z 0.001720 0.017410 1.970790 
# 
# From -- ./inp_files/318122.got.cif
#   From: 2010.06.25/outbox.cif.g09.slc.cpg/sg2_160_cif.got.tgz:318122.got - 2010.06.27 13:26:56.
