data_PCOD8011503
_publ_section_title
;
Structure prediction by ZEFSAII (Michael W. Deem and Ramdas Pophale) SiO2 
 PCOD8011503
Probable space group: P -1
;
_chemical_formula_sum "Si O2"
_cell_formula_units_Z 16
_cell_length_a 8.816562
_cell_length_b 18.230363
_cell_length_c 11.545927
_cell_angle_alpha 129.383595
_cell_angle_beta 60.257246
_cell_angle_gamma 149.839222
_cell_volume 714.041468
_symmetry_space_group_name_H-M "P -1"
_symmetry_group_IT_number 2
_symmetry_cell_setting 'triclinic'
loop_
_space_group_symop_operation_xyz
x,y,z
-x,-y,-z
loop_
_atom_site_type_symbol
_atom_site_label
_atom_site_fract_x
_atom_site_fract_y
_atom_site_fract_z
Si Si1 0.264524 0.246580 0.326714
Si Si2 0.141225 0.773696 0.616856
Si Si3 0.455173 0.644623 0.911057
Si Si4 0.660209 0.059815 0.876751
Si Si5 0.732424 0.457221 0.567761
Si Si6 0.915018 0.909235 0.176515
Si Si7 0.642912 0.318951 0.685064
Si Si8 0.039953 0.621369 0.003823
O O1 0.478656 0.360000 0.248192
O O2 0.473208 0.332506 0.445460
O O3 0.019034 0.222094 0.403470
O O4 0.089628 0.069768 0.203736
O O5 0.237234 0.726974 0.456243
O O6 0.895854 0.632083 0.666585
O O7 0.424027 0.948294 0.748811
O O8 0.345602 0.706396 0.019679
O O9 0.762065 0.774990 0.001811
O O10 0.194299 0.461852 0.884995
O O11 0.852525 0.049172 0.794240
O O12 0.883014 0.247700 0.959499
O O13 0.500000 0.000000 0.000000
O O14 0.572692 0.367117 0.661149
O O15 0.000000 0.500000 0.500000
O O16 0.666452 0.841142 0.290187
O O17 0.896231 0.478431 0.830288
#
# Coordination Sequence:
#
# PCOD8011503 Si02
#       8
#     2   2   2   2   2   2   2   2
#     4  12  23  39  64  94 128 168 214 260 314 378
#     4  11  24  41  64  94 128 168 211 261 316 377
#     4  10  21  40  63  91 128 166 211 257 317 377
#     4  12  24  41  66  96 128 167 216 262 317 379
#     4  10  21  39  62  88 124 166 206 256 311 370
#     4  11  24  40  65  94 128 169 209 266 320 373
#     4  10  23  44  64  93 131 166 212 260 320 381
#     4  10  22  41  67  93 128 169 204 264 320 373
#
# _framework density 22.407662999999999
#
# number of rings (size 3 to 8) (size 9 to 14) (size 15 to 20)
#    0.000    1.250    0.000    6.750    0.000    5.500 
#    0.000    3.750    0.000    0.000    0.000    0.000 
#    0.000    0.000    0.000    0.000    0.000    0.000 
#
# Total GULP energy -198413.182000 kJ/mol
# GULP energy per Si atom -12400.823875 kJ/mol
# Density = 2.235666 g / cm^3
# Si number density = 22.407663 Si / 1000 Ang^3
#
#
#
# Elastic Constant Matrix: (Units=GPa)
#
#
# Indices 1 2 3 4 5 6 
#
# 1 140.6498 41.3459 30.9865 4.8883 3.8044 2.1211
# 2 41.3459 122.2959 42.5839 -4.1153 -4.8321 -13.8121
# 3 30.9865 42.5839 80.0128 -3.3078 4.2485 1.0466
# 4 4.8883 -4.1153 -3.3078 31.8320 -6.9367 5.5423
# 5 3.8044 -4.8321 4.2485 -6.9367 39.6771 8.0304
# 6 2.1211 -13.8121 1.0466 5.5423 8.0304 39.9330
#
#
#
# Elastic Compliance Matrix: (Units=1/GPa)
#
#
# Indices 1 2 3 4 5 6 
#
# 1 0.008336 -0.002302 -0.002016 -0.001892 -0.001050 -0.000712
# 2 -0.002302 0.011281 -0.005204 0.000967 0.001570 0.003711
# 3 -0.002016 -0.005204 0.016212 0.001333 -0.001540 -0.001993
# 4 -0.001892 0.000967 0.001333 0.034607 0.007399 -0.005891
# 5 -0.001050 0.001570 -0.001540 0.007399 0.028179 -0.006055
# 6 -0.000712 0.003711 -0.001993 -0.005891 -0.006055 0.028451
#
#
# Mechanical properties :
#
#
# Convention : Reuss Voigt Hill
#
# Bulk Modulus (GPa) = 59.58247 63.64346 61.61297
# Shear Modulus (GPa) = 32.95890 37.49122 35.22506
#
# Velocity S-wave (km/s) = 3.83936 4.09484 3.96916
# Velocity P-wave (km/s) = 6.80457 7.12890 6.96862
#
# Compressibility (1/GPa) = 0.01678346
#
# Stress axis : x y z
#
# Youngs Moduli (GPa) = 119.96795 88.64568 61.68399
#
# Poissons Ratio (x) = 0.20403 0.12437
# Poissons Ratio (y) = 0.27612 0.32103
# Poissons Ratio (z) = 0.24189 0.46135
#
# Static dielectric constant tensor:
#      x y z
#    x 4.323180 -0.133240 0.165910 
#    y -0.133240 4.376480 -0.052210 
#    z 0.165910 -0.052210 3.714920 
# 
# 
# High freq. dielectric constant tensor:
#      x y z
#    x 1.899050 -0.001980 0.012430 
#    y -0.001980 1.893150 0.001250 
#    z 0.012430 0.001250 1.864130 
# 
# From -- ./inp_files/271451.got.cif
#   From: 2010.06.25/outbox.cif.g09.slc.cpg/sg2_136_cif.got.tgz:271451.got - 2010.06.27 13:26:56.
