data_PCOD8011325
_publ_section_title
;
Structure prediction by ZEFSAII (Michael W. Deem and Ramdas Pophale) SiO2 
 PCOD8011325
Probable space group: P -1
;
_chemical_formula_sum "Si O2"
_cell_formula_units_Z 16
_cell_length_a 19.254405
_cell_length_b 13.246260
_cell_length_c 8.604803
_cell_angle_alpha 42.031022
_cell_angle_beta 42.741088
_cell_angle_gamma 31.360586
_cell_volume 732.427828
_symmetry_space_group_name_H-M "P -1"
_symmetry_group_IT_number 2
_symmetry_cell_setting 'triclinic'
loop_
_space_group_symop_operation_xyz
x,y,z
-x,-y,-z
loop_
_atom_site_type_symbol
_atom_site_label
_atom_site_fract_x
_atom_site_fract_y
_atom_site_fract_z
Si Si1 0.652050 0.641412 0.447028
Si Si2 0.939343 0.249532 0.441681
Si Si3 0.652036 0.554500 0.900948
Si Si4 0.452858 0.531805 0.363478
Si Si5 0.939314 0.371806 0.619028
Si Si6 0.547130 0.937540 0.816331
Si Si7 0.807996 0.818397 0.364953
Si Si8 0.808022 0.065551 0.827048
O O1 0.816028 0.482993 0.317047
O O2 0.627873 0.622097 0.686095
O O3 0.575144 0.610050 0.483776
O O4 0.587236 0.871542 0.276312
O O5 0.005038 0.244929 0.497561
O O6 0.864005 0.164375 0.697888
O O7 0.061079 0.132816 0.251881
O O8 0.816013 0.384956 0.866995
O O9 0.575121 0.739694 0.941067
O O10 0.587223 0.453995 0.136479
O O11 0.500000 0.500000 0.500000
O O12 0.319246 0.770740 0.267795
O O13 0.863877 0.607675 0.438202
O O14 0.061028 0.245201 0.686995
O O15 0.680740 0.909264 0.587027
O O16 0.500000 0.000000 0.000000
O O17 0.760725 0.989272 0.119634
#
# Coordination Sequence:
#
# PCOD8011325 Si02
#       8
#     2   2   2   2   2   2   2   2
#     4  10  21  39  60  85 119 159 202 246 298 357
#     4   9  21  39  60  88 119 156 198 242 295 349
#     4  10  21  39  60  85 119 159 202 246 298 357
#     4  11  23  38  59  88 120 156 201 252 302 353
#     4   9  21  39  60  88 119 156 198 242 295 349
#     4  11  23  38  59  88 120 156 201 252 302 353
#     4  10  22  40  61  88 122 157 198 245 294 355
#     4  10  22  40  61  88 122 157 198 245 294 355
#
# _framework density 21.845157
#
# number of rings (size 3 to 8) (size 9 to 14) (size 15 to 20)
#    0.000    2.000    0.000    2.250    0.000   13.000 
#    0.000    0.000    0.000    0.000    0.000    0.000 
#    0.000    0.000    0.000    0.000    0.000    0.000 
#
# Total GULP energy -198299.299829 kJ/mol
# GULP energy per Si atom -12393.706239 kJ/mol
# Density = 2.179544 g / cm^3
# Si number density = 21.845157 Si / 1000 Ang^3
#
#
#
# Elastic Constant Matrix: (Units=GPa)
#
#
# Indices 1 2 3 4 5 6 
#
# 1 103.4900 24.7101 18.8365 14.2211 16.5517 0.6321
# 2 24.7101 90.3775 21.7141 7.5100 11.4381 -8.7440
# 3 18.8365 21.7141 85.6565 12.9475 11.3363 -13.9249
# 4 14.2211 7.5100 12.9475 28.3917 -4.2527 6.1800
# 5 16.5517 11.4381 11.3363 -4.2527 31.3963 6.8730
# 6 0.6321 -8.7440 -13.9249 6.1800 6.8730 32.9813
#
#
#
# Elastic Compliance Matrix: (Units=1/GPa)
#
#
# Indices 1 2 3 4 5 6 
#
# 1 0.012203 -0.001598 0.000217 -0.007423 -0.007455 0.002379
# 2 -0.001598 0.013224 -0.000820 -0.004240 -0.005371 0.005104
# 3 0.000217 -0.000820 0.016612 -0.011308 -0.009741 0.010941
# 4 -0.007423 -0.004240 -0.011308 0.052733 0.021068 -0.020027
# 5 -0.007455 -0.005371 -0.009741 0.021068 0.048360 -0.019419
# 6 0.002379 0.005104 0.010941 -0.020027 -0.019419 0.044047
#
#
# Mechanical properties :
#
#
# Convention : Reuss Voigt Hill
#
# Bulk Modulus (GPa) = 26.56907 45.56061 36.06484
# Shear Modulus (GPa) = 24.49480 32.83808 28.66644
#
# Velocity S-wave (km/s) = 3.35220 3.88134 3.62644
# Velocity P-wave (km/s) = 5.21266 6.40218 5.83780
#
# Compressibility (1/GPa) = 0.03763776
#
# Stress axis : x y z
#
# Youngs Moduli (GPa) = 81.94908 75.61785 60.19911
#
# Poissons Ratio (x) = 0.12083 -0.01307
# Poissons Ratio (y) = 0.13095 0.04934
# Poissons Ratio (z) = -0.01779 0.06197
#
# Static dielectric constant tensor:
#      x y z
#    x 4.097070 0.004130 -0.163860 
#    y 0.004130 4.192810 0.011170 
#    z -0.163860 0.011170 3.905820 
# 
# 
# High freq. dielectric constant tensor:
#      x y z
#    x 1.868980 -0.000290 -0.004540 
#    y -0.000290 1.869140 0.008650 
#    z -0.004540 0.008650 1.841050 
# 
# From -- ./inp_files/347124.got.cif
#   From: 2010.06.25/outbox.cif.g09.slc.cpg/sg2_174_cif.got.tgz:347124.got - 2010.06.27 13:26:56.
