data_PCOD8011675
_publ_section_title
;
Structure prediction by ZEFSAII (Michael W. Deem and Ramdas Pophale) SiO2 
 PCOD8011675
Probable space group: P -1
;
_chemical_formula_sum "Si O2"
_cell_formula_units_Z 12
_cell_length_a 8.996365
_cell_length_b 9.956727
_cell_length_c 11.286323
_cell_angle_alpha 99.028834
_cell_angle_beta 141.467325
_cell_angle_gamma 71.525855
_cell_volume 590.217931
_symmetry_space_group_name_H-M "P -1"
_symmetry_group_IT_number 2
_symmetry_cell_setting 'triclinic'
loop_
_space_group_symop_operation_xyz
x,y,z
-x,-y,-z
loop_
_atom_site_type_symbol
_atom_site_label
_atom_site_fract_x
_atom_site_fract_y
_atom_site_fract_z
Si Si1 0.777546 0.098266 0.168210
Si Si2 0.591552 0.965954 0.231915
Si Si3 0.949027 0.713632 0.549805
Si Si4 0.944859 0.898982 0.048868
Si Si5 0.765508 0.474030 0.511964
Si Si6 0.817682 0.426836 0.812123
O O1 0.847432 0.245507 0.235088
O O2 0.768443 0.044284 0.289345
O O3 0.983111 0.969142 0.208544
O O4 0.506132 0.130087 0.938543
O O5 0.736587 0.863717 0.411985
O O6 0.349203 0.089911 0.150033
O O7 0.077053 0.644938 0.497722
O O8 0.820628 0.619914 0.533553
O O9 0.119323 0.736047 0.126042
O O10 0.000000 0.000000 0.000000
O O11 0.859777 0.429044 0.697555
O O12 0.470157 0.492537 0.319726
O O13 0.000000 0.500000 0.000000
#
# Coordination Sequence:
#
# PCOD8011675 Si02
#       6
#     2   2   2   2   2   2
#     4   9  21  36  62  91 120 161 199 258 321 338
#     4   9  20  37  60  92 122 150 210 258 302 363
#     4  11  21  41  64  92 126 157 210 264 303 362
#     4  10  21  39  63  92 119 156 212 255 292 373
#     4  10  26  40  61  94 124 166 211 246 305 387
#     4  11  25  45  64  85 134 169 201 248 318 370
#
# _framework density 20.331472000000002
#
# number of rings (size 3 to 8) (size 9 to 14) (size 15 to 20)
#    1.000    1.000    0.000    2.500    4.667    0.000 
#    3.000    5.000    0.000    0.000    0.000    0.000 
#    0.000    0.000    0.000    0.000    0.000    0.000 
#
# Total GULP energy -148717.963802 kJ/mol
# GULP energy per Si atom -12393.163650 kJ/mol
# Density = 2.028520 g / cm^3
# Si number density = 20.331472 Si / 1000 Ang^3
#
#
#
# Elastic Constant Matrix: (Units=GPa)
#
#
# Indices 1 2 3 4 5 6 
#
# 1 86.8528 25.0934 28.2649 -3.8579 2.6279 13.4958
# 2 25.0934 84.8480 34.7397 2.6678 -1.4706 14.1054
# 3 28.2649 34.7397 80.7692 8.9972 8.1605 7.8100
# 4 -3.8579 2.6678 8.9972 42.7803 3.4156 2.1160
# 5 2.6279 -1.4706 8.1605 3.4156 17.3786 -2.2019
# 6 13.4958 14.1054 7.8100 2.1160 -2.2019 32.5547
#
#
#
# Elastic Compliance Matrix: (Units=1/GPa)
#
#
# Indices 1 2 3 4 5 6 
#
# 1 0.014170 -0.002021 -0.003791 0.002544 -0.001586 -0.004362
# 2 -0.002021 0.015606 -0.005992 0.000002 0.003904 -0.004223
# 3 -0.003791 -0.005992 0.017415 -0.003011 -0.007561 -0.000326
# 4 0.002544 0.000002 -0.003011 0.024675 -0.004101 -0.002214
# 5 -0.001586 0.003904 -0.007561 -0.004101 0.063142 0.005317
# 6 -0.004362 -0.004223 -0.000326 -0.002214 0.005317 0.034937
#
#
# Mechanical properties :
#
#
# Convention : Reuss Voigt Hill
#
# Bulk Modulus (GPa) = 42.39964 47.62955 45.01460
# Shear Modulus (GPa) = 24.82447 29.50087 27.16267
#
# Velocity S-wave (km/s) = 3.49805 3.81333 3.65909
# Velocity P-wave (km/s) = 6.10038 6.54721 6.32774
#
# Compressibility (1/GPa) = 0.02358511
#
# Stress axis : x y z
#
# Youngs Moduli (GPa) = 70.57144 64.07694 57.42026
#
# Poissons Ratio (x) = 0.12950 0.21767
# Poissons Ratio (y) = 0.14262 0.34403
# Poissons Ratio (z) = 0.26752 0.38392
#
# Static dielectric constant tensor:
#      x y z
#    x 3.845400 -0.079630 0.131430 
#    y -0.079630 3.710680 -0.030360 
#    z 0.131430 -0.030360 3.576440 
# 
# 
# High freq. dielectric constant tensor:
#      x y z
#    x 1.800480 0.013340 0.005140 
#    y 0.013340 1.787020 0.002910 
#    z 0.005140 0.002910 1.785710 
# 
# From -- ./inp_files/382471.got.cif
#   From: 2010.06.25/outbox.cif.g09.slc.cpg/sg2_192_cif.got.tgz:382471.got - 2010.06.27 13:26:56.
