data_PCOD8011846
_publ_section_title
;
Structure prediction by ZEFSAII (Michael W. Deem and Ramdas Pophale) SiO2 
 PCOD8011846
Probable space group: P -1
;
_chemical_formula_sum "Si O2"
_cell_formula_units_Z 16
_cell_length_a 8.499426
_cell_length_b 11.216029
_cell_length_c 15.432500
_cell_angle_alpha 70.703974
_cell_angle_beta 60.276225
_cell_angle_gamma 117.629827
_cell_volume 775.590155
_symmetry_space_group_name_H-M "P -1"
_symmetry_group_IT_number 2
_symmetry_cell_setting 'triclinic'
loop_
_space_group_symop_operation_xyz
x,y,z
-x,-y,-z
loop_
_atom_site_type_symbol
_atom_site_label
_atom_site_fract_x
_atom_site_fract_y
_atom_site_fract_z
Si Si1 0.819610 0.681886 0.947037
Si Si2 0.995674 0.042875 0.822701
Si Si3 0.441872 0.765572 0.308888
Si Si4 0.957340 0.657823 0.551008
Si Si5 0.685711 0.059829 0.016112
Si Si6 0.218345 0.312797 0.238995
Si Si7 0.138677 0.988176 0.323703
Si Si8 0.214795 0.721472 0.918696
O O1 0.826336 0.648783 0.852112
O O2 0.778208 0.809601 0.941028
O O3 0.557449 0.475358 0.117601
O O4 0.118898 0.797343 0.876509
O O5 0.304244 0.149841 0.722359
O O6 0.939966 0.084065 0.737288
O O7 0.939110 0.106930 0.902452
O O8 0.293715 0.560845 0.363705
O O9 0.250040 0.743314 0.432524
O O10 0.510965 0.891897 0.177795
O O11 0.915284 0.659919 0.663981
O O12 0.945860 0.790340 0.478522
O O13 0.809918 0.255003 0.977931
O O14 0.500000 0.000000 0.000000
O O15 0.066055 0.094917 0.340552
O O16 0.464716 0.140300 0.222456
O O17 0.000000 0.500000 0.000000
#
# Coordination Sequence:
#
# PCOD8011846 Si02
#       8
#     2   2   2   2   2   2   2   2
#     4  10  21  39  64  94 123 158 211 272 313 379
#     4  11  22  40  66  93 124 161 219 264 323 365
#     4  11  24  39  65  89 127 169 212 269 306 381
#     4  11  23  42  60  89 127 172 218 251 320 382
#     4  12  23  41  68  98 127 164 210 270 326 375
#     4  10  22  38  64  90 123 168 207 260 323 378
#     4  11  22  42  60  91 131 167 207 269 316 378
#     4  12  23  39  64  96 133 161 205 270 323 370
#
# _framework density 20.629453999999999
#
# number of rings (size 3 to 8) (size 9 to 14) (size 15 to 20)
#    0.000    1.000    5.000    1.500    1.750    1.500 
#    0.000    6.875    0.000    0.000    0.000    0.000 
#    0.000    0.000    0.000    0.000    0.000    0.000 
#
# Total GULP energy -198361.063085 kJ/mol
# GULP energy per Si atom -12397.566443 kJ/mol
# Density = 2.058250 g / cm^3
# Si number density = 20.629454 Si / 1000 Ang^3
#
#
#
# Elastic Constant Matrix: (Units=GPa)
#
#
# Indices 1 2 3 4 5 6 
#
# 1 94.9504 31.8072 36.2772 4.0057 -4.9931 17.9262
# 2 31.8072 150.9360 58.1784 15.3090 0.1214 -2.8761
# 3 36.2772 58.1784 92.1344 12.0827 2.5970 1.8224
# 4 4.0057 15.3090 12.0827 38.7356 -6.5532 -2.7214
# 5 -4.9931 0.1214 2.5970 -6.5532 24.0408 -3.2279
# 6 17.9262 -2.8761 1.8224 -2.7214 -3.2279 34.2386
#
#
#
# Elastic Compliance Matrix: (Units=1/GPa)
#
#
# Indices 1 2 3 4 5 6 
#
# 1 0.014250 -0.001357 -0.004757 0.000505 0.002674 -0.007029
# 2 -0.001357 0.009037 -0.004968 -0.001781 -0.000063 0.001586
# 3 -0.004757 -0.004968 0.016371 -0.003204 -0.003522 0.000615
# 4 0.000505 -0.001781 -0.003204 0.029160 0.008798 0.002904
# 5 0.002674 -0.000063 -0.003522 0.008798 0.045436 0.003765
# 6 -0.007029 0.001586 0.000615 0.002904 0.003765 0.033573
#
#
# Mechanical properties :
#
#
# Convention : Reuss Voigt Hill
#
# Bulk Modulus (GPa) = 57.15995 65.61628 61.38812
# Shear Modulus (GPa) = 28.43772 33.52019 30.97896
#
# Velocity S-wave (km/s) = 3.71685 4.03534 3.87936
# Velocity P-wave (km/s) = 6.79618 7.32039 7.06315
#
# Compressibility (1/GPa) = 0.01749477
#
# Stress axis : x y z
#
# Youngs Moduli (GPa) = 70.17475 110.65340 61.08305
#
# Poissons Ratio (x) = 0.15014 0.29055
# Poissons Ratio (y) = 0.09522 0.30348
# Poissons Ratio (z) = 0.33380 0.54977
#
# Static dielectric constant tensor:
#      x y z
#    x 3.798920 -0.142380 0.058750 
#    y -0.142380 4.116950 -0.055020 
#    z 0.058750 -0.055020 3.614020 
# 
# 
# High freq. dielectric constant tensor:
#      x y z
#    x 1.810050 -0.006070 0.000790 
#    y -0.006070 1.829430 -0.002340 
#    z 0.000790 -0.002340 1.783010 
# 
# From -- ./inp_files/273473.got.cif
#   From: 2010.06.25/outbox.cif.g09.slc.cpg/sg2_137_cif.got.tgz:273473.got - 2010.06.27 13:26:56.
