data_PCOD8011252
_publ_section_title
;
Structure prediction by ZEFSAII (Michael W. Deem and Ramdas Pophale) SiO2 
 PCOD8011252
Probable space group: P -1
;
_chemical_formula_sum "Si O2"
_cell_formula_units_Z 16
_cell_length_a 9.863717
_cell_length_b 18.278325
_cell_length_c 5.353906
_cell_angle_alpha 124.982653
_cell_angle_beta 110.651141
_cell_angle_gamma 52.224760
_cell_volume 625.116530
_symmetry_space_group_name_H-M "P -1"
_symmetry_group_IT_number 2
_symmetry_cell_setting 'triclinic'
loop_
_space_group_symop_operation_xyz
x,y,z
-x,-y,-z
loop_
_atom_site_type_symbol
_atom_site_label
_atom_site_fract_x
_atom_site_fract_y
_atom_site_fract_z
Si Si1 0.782134 0.406450 0.240191
Si Si2 0.467037 0.116040 0.722715
Si Si3 0.344110 0.119945 0.148990
Si Si4 0.558183 0.333604 0.789996
Si Si5 0.311611 0.800350 0.879729
Si Si6 0.002130 0.795104 0.698825
Si Si7 0.953868 0.645436 0.079947
Si Si8 0.249171 0.446872 0.124950
O O1 0.846446 0.309776 0.281558
O O2 0.669305 0.520894 0.530863
O O3 0.659198 0.394456 0.941603
O O4 0.951306 0.393683 0.199258
O O5 0.380297 0.174130 0.515427
O O6 0.500000 0.000000 0.500000
O O7 0.337379 0.176897 0.994052
O O8 0.646109 0.107964 0.880365
O O9 0.161585 0.129542 0.084161
O O10 0.500000 0.000000 0.000000
O O11 0.586753 0.266011 0.429889
O O12 0.614051 0.266878 0.952287
O O13 0.355865 0.418400 0.878942
O O14 0.105768 0.852023 0.804747
O O15 0.930776 0.758852 0.350714
O O16 0.068618 0.557894 0.192985
O O17 0.775670 0.647487 0.978771
#
# Coordination Sequence:
#
# PCOD8011252 Si02
#       8
#     2   2   2   2   2   2   2   2
#     4  10  21  40  59  89 129 176 218 265 321 378
#     4  10  23  44  67  97 131 160 209 266 321 394
#     4  10  23  43  68 100 127 163 209 263 327 388
#     4  11  24  40  63  96 127 175 217 269 314 377
#     4  11  24  42  64  98 129 168 221 259 326 385
#     4  10  23  40  63  92 130 171 211 270 318 386
#     4  10  21  39  57  87 128 169 223 258 327 371
#     4  10  23  36  57  90 127 173 220 270 316 374
#
# _framework density 25.595224000000002
#
# number of rings (size 3 to 8) (size 9 to 14) (size 15 to 20)
#    0.000    1.750    1.250    1.500    7.000    0.500 
#    0.000    5.000    0.000    0.000    0.000    0.000 
#    0.000    0.000    0.000    0.000    0.000    0.000 
#
# Total GULP energy -198223.122143 kJ/mol
# GULP energy per Si atom -12388.945134 kJ/mol
# Density = 2.553697 g / cm^3
# Si number density = 25.595224 Si / 1000 Ang^3
#
#
#
# Elastic Constant Matrix: (Units=GPa)
#
#
# Indices 1 2 3 4 5 6 
#
# 1 204.5459 9.5620 83.7413 14.7608 11.0386 -4.6848
# 2 9.5620 21.0825 23.5079 -0.2206 -4.7122 -1.3196
# 3 83.7413 23.5079 150.5924 -6.6921 9.7870 12.0234
# 4 14.7608 -0.2206 -6.6921 32.1784 9.4833 -9.5043
# 5 11.0386 -4.7122 9.7870 9.4833 58.2311 -1.3651
# 6 -4.6848 -1.3196 12.0234 -9.5043 -1.3651 33.0739
#
#
#
# Elastic Compliance Matrix: (Units=1/GPa)
#
#
# Indices 1 2 3 4 5 6 
#
# 1 0.006912 0.001950 -0.004456 -0.003671 0.000233 0.001632
# 2 0.001950 0.061767 -0.011856 -0.003184 0.007291 0.006436
# 3 -0.004456 -0.011856 0.011674 0.003943 -0.002820 -0.004331
# 4 -0.003671 -0.003184 0.003943 0.037913 -0.006198 0.008559
# 5 0.000233 0.007291 -0.002820 -0.006198 0.019211 0.000361
# 6 0.001632 0.006436 -0.004331 0.008559 0.000361 0.034772
#
#
# Mechanical properties :
#
#
# Convention : Reuss Voigt Hill
#
# Bulk Modulus (GPa) = 19.36926 67.76039 43.56482
# Shear Modulus (GPa) = 22.91662 41.99063 32.45363
#
# Velocity S-wave (km/s) = 2.99548 4.05478 3.56470
# Velocity P-wave (km/s) = 4.42129 6.96082 5.83099
#
# Compressibility (1/GPa) = 0.05162821
#
# Stress axis : x y z
#
# Youngs Moduli (GPa) = 144.67767 16.18993 85.66342
#
# Poissons Ratio (x) = -0.03157 0.38176
# Poissons Ratio (y) = -0.28212 1.01559
# Poissons Ratio (z) = 0.64475 0.19194
#
# Static dielectric constant tensor:
#      x y z
#    x 5.600540 1.505560 -1.350570 
#    y 1.505560 9.395290 -5.387310 
#    z -1.350570 -5.387310 10.108950 
# 
# 
# High freq. dielectric constant tensor:
#      x y z
#    x 2.037270 0.003110 -0.000200 
#    y 0.003110 1.990790 -0.014950 
#    z -0.000200 -0.014950 2.029430 
# 
# From -- ./inp_files/39174.got.cif
#   From: 2010.06.25/outbox.cif.g09.slc.cpg/sg2_20_cif.got.tgz:39174.got - 2010.06.27 13:26:56.
