data_PCOD8011986
_publ_section_title
;
Structure prediction by ZEFSAII (Michael W. Deem and Ramdas Pophale) SiO2 
 PCOD8011986
Probable space group: P -1
;
_chemical_formula_sum "Si O2"
_cell_formula_units_Z 16
_cell_length_a 21.341714
_cell_length_b 15.360880
_cell_length_c 9.151333
_cell_angle_alpha 120.805150
_cell_angle_beta 108.262514
_cell_angle_gamma 21.270441
_cell_volume 795.081035
_symmetry_space_group_name_H-M "P -1"
_symmetry_group_IT_number 2
_symmetry_cell_setting 'triclinic'
loop_
_space_group_symop_operation_xyz
x,y,z
-x,-y,-z
loop_
_atom_site_type_symbol
_atom_site_label
_atom_site_fract_x
_atom_site_fract_y
_atom_site_fract_z
Si Si1 0.609803 0.626441 0.430013
Si Si2 0.614434 0.625803 0.082727
Si Si3 0.640478 0.192135 0.502805
Si Si4 0.583924 0.885802 0.623227
Si Si5 0.262644 0.866039 0.782038
Si Si6 0.202693 0.126848 0.168169
Si Si7 0.006076 0.368388 0.533780
Si Si8 0.028700 0.003189 0.684265
O O1 0.637477 0.587807 0.242131
O O2 0.421850 0.831572 0.521407
O O3 0.559702 0.811243 0.616088
O O4 0.816370 0.289675 0.363978
O O5 0.545291 0.837742 0.156290
O O6 0.444260 0.793819 0.049858
O O7 0.820294 0.297912 0.872522
O O8 0.461900 0.527487 0.714146
O O9 0.664298 0.169634 0.327932
O O10 0.858184 0.895249 0.481920
O O11 0.821333 0.568201 0.516731
O O12 0.500000 0.000000 0.500000
O O13 0.108506 0.002873 0.733277
O O14 0.148051 0.105941 0.018073
O O15 0.076919 0.407213 0.259273
O O16 0.149855 0.186873 0.348844
O O17 0.000000 0.000000 0.500000
#
# Coordination Sequence:
#
# PCOD8011986 Si02
#       8
#     2   2   2   2   2   2   2   2
#     4  10  21  41  64  94 120 163 205 263 307 362
#     4  10  21  41  63  95 121 158 208 255 312 365
#     4  10  22  42  61  89 126 161 214 253 304 361
#     4   9  21  37  64  93 125 157 198 259 311 364
#     4  10  25  41  61  90 125 171 205 252 309 368
#     4  10  22  39  64  93 123 162 204 258 307 365
#     4  10  21  39  65  94 124 159 208 257 307 365
#     4  11  26  42  62  88 128 167 207 254 309 369
#
# _framework density 20.123736999999998
#
# number of rings (size 3 to 8) (size 9 to 14) (size 15 to 20)
#    0.000    2.000    1.250    0.375   12.250    1.000 
#    0.000    0.625    0.000    0.000    0.000    0.000 
#    0.000    0.000    0.000    0.000    0.000    0.000 
#
# Total GULP energy -198361.923693 kJ/mol
# GULP energy per Si atom -12397.620231 kJ/mol
# Density = 2.007793 g / cm^3
# Si number density = 20.123737 Si / 1000 Ang^3
#
#
#
# Elastic Constant Matrix: (Units=GPa)
#
#
# Indices 1 2 3 4 5 6 
#
# 1 123.8529 45.5646 45.9617 -2.8507 13.7915 2.0148
# 2 45.5646 132.5746 44.9036 8.2971 3.4675 -10.1848
# 3 45.9617 44.9036 76.5879 -5.9156 14.7753 -2.7311
# 4 -2.8507 8.2971 -5.9156 19.9253 -8.2286 -0.0091
# 5 13.7915 3.4675 14.7753 -8.2286 30.1035 -5.1232
# 6 2.0148 -10.1848 -2.7311 -0.0091 -5.1232 26.2092
#
#
#
# Elastic Compliance Matrix: (Units=1/GPa)
#
#
# Indices 1 2 3 4 5 6 
#
# 1 0.011092 -0.002304 -0.004846 -0.000112 -0.002950 -0.002830
# 2 -0.002304 0.010878 -0.005621 -0.005836 0.001671 0.004143
# 3 -0.004846 -0.005621 0.020806 0.005336 -0.006025 -0.000819
# 4 -0.000112 -0.005836 0.005336 0.060295 0.014792 0.001209
# 5 -0.002950 0.001671 -0.006025 0.014792 0.042847 0.008629
# 6 -0.002830 0.004143 -0.000819 0.001209 0.008629 0.041584
#
#
# Mechanical properties :
#
#
# Convention : Reuss Voigt Hill
#
# Bulk Modulus (GPa) = 58.02318 67.31946 62.67132
# Shear Modulus (GPa) = 22.85311 28.35331 25.60321
#
# Velocity S-wave (km/s) = 3.37357 3.75767 3.57079
# Velocity P-wave (km/s) = 6.63855 7.23548 6.94343
#
# Compressibility (1/GPa) = 0.01723449
#
# Stress axis : x y z
#
# Youngs Moduli (GPa) = 90.15438 91.92493 48.06326
#
# Poissons Ratio (x) = 0.21180 0.23292
# Poissons Ratio (y) = 0.20772 0.27015
# Poissons Ratio (z) = 0.43690 0.51669
#
# Static dielectric constant tensor:
#      x y z
#    x 3.978990 0.104130 0.247220 
#    y 0.104130 3.813570 0.172940 
#    z 0.247220 0.172940 3.508630 
# 
# 
# High freq. dielectric constant tensor:
#      x y z
#    x 1.793600 -0.002530 0.009560 
#    y -0.002530 1.795550 0.014140 
#    z 0.009560 0.014140 1.765750 
# 
# From -- ./inp_files/158707.got.cif
#   From: 2010.06.25/outbox.cif.g09.slc.cpg/sg2_80_cif.got.tgz:158707.got - 2010.06.27 13:26:56.
