data_PCOD8011141
_publ_section_title
;
Structure prediction by ZEFSAII (Michael W. Deem and Ramdas Pophale) SiO2 
 PCOD8011141
Probable space group: P -1
;
_chemical_formula_sum "Si O2"
_cell_formula_units_Z 16
_cell_length_a 8.656548
_cell_length_b 24.750226
_cell_length_c 8.241080
_cell_angle_alpha 48.735680
_cell_angle_beta 128.372960
_cell_angle_gamma 147.603648
_cell_volume 702.074960
_symmetry_space_group_name_H-M "P -1"
_symmetry_group_IT_number 2
_symmetry_cell_setting 'triclinic'
loop_
_space_group_symop_operation_xyz
x,y,z
-x,-y,-z
loop_
_atom_site_type_symbol
_atom_site_label
_atom_site_fract_x
_atom_site_fract_y
_atom_site_fract_z
Si Si1 0.677761 0.861129 0.186746
Si Si2 0.850961 0.288399 0.645914
Si Si3 0.551961 0.603914 0.138172
Si Si4 0.624543 0.338261 0.833550
Si Si5 0.663510 0.968697 0.686364
Si Si6 0.786066 0.435060 0.311020
Si Si7 0.220478 0.745848 0.698408
Si Si8 0.382939 0.423632 0.230909
O O1 0.463341 0.818061 0.281593
O O2 0.583236 0.764971 0.213645
O O3 0.659733 0.930578 0.936880
O O4 0.994605 0.931074 0.332729
O O5 0.899210 0.385934 0.510724
O O6 0.887000 0.275529 0.510451
O O7 0.107254 0.312737 0.854546
O O8 0.518256 0.627576 0.251765
O O9 0.419562 0.486759 0.284620
O O10 0.392805 0.608532 0.887471
O O11 0.937442 0.437283 0.758986
O O12 0.678909 0.307616 0.093463
O O13 0.496835 0.872175 0.645832
O O14 0.500000 0.000000 0.500000
O O15 0.581016 0.404114 0.394215
O O16 0.954926 0.693047 0.756376
O O17 0.500000 0.500000 0.000000
#
# Coordination Sequence:
#
# PCOD8011141 Si02
#       8
#     2   2   2   2   2   2   2   2
#     4  10  26  47  69 103 131 168 229 288 330 404
#     4  12  27  40  67 108 139 173 226 272 335 406
#     4  11  23  38  62 100 142 180 218 265 323 403
#     4  11  21  44  69  92 147 182 221 274 329 392
#     4  10  25  49  77  93 125 174 230 281 348 396
#     4  11  23  41  64 101 142 186 218 268 332 394
#     4  11  23  43  70  99 134 179 225 279 336 395
#     4  10  21  38  67  99 136 185 225 262 326 401
#
# _framework density 22.78959
#
# number of rings (size 3 to 8) (size 9 to 14) (size 15 to 20)
#    0.000    1.250    3.750    1.875    8.750    4.500 
#    0.000    0.625    0.000    0.000    0.000    0.000 
#    0.000    0.000    0.000    0.000    0.000    0.000 
#
# Total GULP energy -198301.095165 kJ/mol
# GULP energy per Si atom -12393.818448 kJ/mol
# Density = 2.273772 g / cm^3
# Si number density = 22.789590 Si / 1000 Ang^3
#
#
#
# Elastic Constant Matrix: (Units=GPa)
#
#
# Indices 1 2 3 4 5 6 
#
# 1 139.5802 64.0000 24.7476 5.9855 8.0316 13.6752
# 2 64.0000 160.7556 35.6611 7.0961 3.8418 28.8041
# 3 24.7476 35.6611 62.0022 3.7765 21.9745 10.2155
# 4 5.9855 7.0961 3.7765 29.7613 2.2592 3.5189
# 5 8.0316 3.8418 21.9745 2.2592 35.1698 0.6688
# 6 13.6752 28.8041 10.2155 3.5189 0.6688 31.8634
#
#
#
# Elastic Compliance Matrix: (Units=1/GPa)
#
#
# Indices 1 2 3 4 5 6 
#
# 1 0.008967 -0.003126 -0.001376 -0.000767 -0.000788 -0.000480
# 2 -0.003126 0.009359 -0.003958 -0.000586 0.002313 -0.005834
# 3 -0.001376 -0.003958 0.024716 -0.000405 -0.014606 -0.003404
# 4 -0.000767 -0.000586 -0.000405 0.034401 -0.001665 -0.002775
# 5 -0.000788 0.002313 -0.014606 -0.001665 0.037549 0.002325
# 6 -0.000480 -0.005834 -0.003404 -0.002775 0.002325 0.038213
#
#
# Mechanical properties :
#
#
# Convention : Reuss Voigt Hill
#
# Bulk Modulus (GPa) = 38.28204 67.90615 53.09410
# Shear Modulus (GPa) = 27.95914 35.22085 31.58999
#
# Velocity S-wave (km/s) = 3.50642 3.93552 3.72715
# Velocity P-wave (km/s) = 5.76436 7.10724 6.47073
#
# Compressibility (1/GPa) = 0.02612191
#
# Stress axis : x y z
#
# Youngs Moduli (GPa) = 111.52160 106.84828 40.45921
#
# Poissons Ratio (x) = 0.33400 0.05567
# Poissons Ratio (y) = 0.34861 0.16015
# Poissons Ratio (z) = 0.15345 0.42293
#
# Static dielectric constant tensor:
#      x y z
#    x 4.292920 0.064320 0.273100 
#    y 0.064320 4.222340 0.029860 
#    z 0.273100 0.029860 4.303850 
# 
# 
# High freq. dielectric constant tensor:
#      x y z
#    x 1.900840 0.008650 0.010150 
#    y 0.008650 1.893960 0.013440 
#    z 0.010150 0.013440 1.905680 
# 
# From -- ./inp_files/227425.got.cif
#   From: 2010.06.25/outbox.cif.g09.slc.cpg/sg2_114_cif.got.tgz:227425.got - 2010.06.27 13:26:56.
