data_PCOD8011506
_publ_section_title
;
Structure prediction by ZEFSAII (Michael W. Deem and Ramdas Pophale) SiO2 
 PCOD8011506
Probable space group: P -1
;
_chemical_formula_sum "Si O2"
_cell_formula_units_Z 16
_cell_length_a 18.331529
_cell_length_b 8.917773
_cell_length_c 6.842818
_cell_angle_alpha 106.192927
_cell_angle_beta 48.601752
_cell_angle_gamma 107.943213
_cell_volume 793.875061
_symmetry_space_group_name_H-M "P -1"
_symmetry_group_IT_number 2
_symmetry_cell_setting 'triclinic'
loop_
_space_group_symop_operation_xyz
x,y,z
-x,-y,-z
loop_
_atom_site_type_symbol
_atom_site_label
_atom_site_fract_x
_atom_site_fract_y
_atom_site_fract_z
Si Si1 0.755507 0.682617 0.647784
Si Si2 0.604833 0.662808 0.236136
Si Si3 0.395932 0.894914 0.100199
Si Si4 0.614043 0.343713 0.312440
Si Si5 0.290037 0.142492 0.554743
Si Si6 0.944794 0.935433 0.381447
Si Si7 0.881769 0.104222 0.203355
Si Si8 0.730089 0.331705 0.487015
O O1 0.724100 0.704151 0.487512
O O2 0.857031 0.798224 0.556775
O O3 0.766611 0.501078 0.582316
O O4 0.668090 0.720922 0.955270
O O5 0.635939 0.498870 0.193601
O O6 0.489000 0.648412 0.389909
O O7 0.627822 0.800732 0.408612
O O8 0.367747 0.756938 0.261261
O O9 0.317544 0.013342 0.304633
O O10 0.392356 0.815699 0.863878
O O11 0.500000 0.000000 0.000000
O O12 0.700906 0.341798 0.314725
O O13 0.187302 0.059729 0.807512
O O14 0.905978 0.076275 0.380133
O O15 0.000000 0.000000 0.500000
O O16 0.018267 0.858901 0.083817
O O17 0.824275 0.248376 0.322432
#
# Coordination Sequence:
#
# PCOD8011506 Si02
#       8
#     2   2   2   2   2   2   2   2
#     4  11  23  39  66  91 122 167 208 261 318 367
#     4  11  22  38  60  92 124 170 219 252 299 367
#     4  11  23  40  57  88 127 164 213 264 306 356
#     4  11  24  38  62  89 129 173 214 254 308 364
#     4  10  21  39  62  88 126 165 205 258 311 369
#     4  10  21  43  69  92 117 161 206 254 323 390
#     4   9  22  41  63  92 127 153 202 260 320 376
#     4  11  24  41  62  93 130 163 208 264 313 366
#
# _framework density 20.154302000000001
#
# number of rings (size 3 to 8) (size 9 to 14) (size 15 to 20)
#    0.000    1.500    3.750    0.750    1.750    6.500 
#    0.000    0.625    0.000    0.000    0.000    0.000 
#    0.000    0.000    0.000    0.000    0.000    0.000 
#
# Total GULP energy -198351.333870 kJ/mol
# GULP energy per Si atom -12396.958367 kJ/mol
# Density = 2.010843 g / cm^3
# Si number density = 20.154302 Si / 1000 Ang^3
#
#
#
# Elastic Constant Matrix: (Units=GPa)
#
#
# Indices 1 2 3 4 5 6 
#
# 1 95.7526 23.9180 18.6779 9.4384 4.4055 -4.8677
# 2 23.9180 92.3864 34.2107 2.5918 1.7335 -3.4494
# 3 18.6779 34.2107 85.2503 -1.7697 -10.0751 5.1765
# 4 9.4384 2.5918 -1.7697 33.1235 9.0484 -5.1196
# 5 4.4055 1.7335 -10.0751 9.0484 27.8077 4.0305
# 6 -4.8677 -3.4494 5.1765 -5.1196 4.0305 32.6258
#
#
#
# Elastic Compliance Matrix: (Units=1/GPa)
#
#
# Indices 1 2 3 4 5 6 
#
# 1 0.011808 -0.002096 -0.002133 -0.002517 -0.001944 0.001724
# 2 -0.002096 0.013521 -0.005457 0.000436 -0.002980 0.002419
# 3 -0.002133 -0.005457 0.015483 -0.000770 0.007170 -0.004359
# 4 -0.002517 0.000436 -0.000770 0.035274 -0.012379 0.006857
# 5 -0.001944 -0.002980 0.007170 -0.012379 0.044410 -0.009172
# 6 0.001724 0.002419 -0.004359 0.006857 -0.009172 0.034064
#
#
# Mechanical properties :
#
#
# Convention : Reuss Voigt Hill
#
# Bulk Modulus (GPa) = 46.63747 47.44472 47.04110
# Shear Modulus (GPa) = 27.61217 31.81693 29.71455
#
# Velocity S-wave (km/s) = 3.70542 3.97755 3.84390
# Velocity P-wave (km/s) = 6.44184 6.68479 6.56444
#
# Compressibility (1/GPa) = 0.02144199
#
# Stress axis : x y z
#
# Youngs Moduli (GPa) = 84.68619 73.95643 64.58539
#
# Poissons Ratio (x) = 0.15500 0.13774
# Poissons Ratio (y) = 0.17749 0.35244
# Poissons Ratio (z) = 0.18061 0.40358
#
# Static dielectric constant tensor:
#      x y z
#    x 3.581070 0.016590 -0.121950 
#    y 0.016590 3.693520 -0.148030 
#    z -0.121950 -0.148030 3.760240 
# 
# 
# High freq. dielectric constant tensor:
#      x y z
#    x 1.782080 0.002240 -0.004710 
#    y 0.002240 1.789980 -0.010070 
#    z -0.004710 -0.010070 1.785390 
# 
# From -- ./inp_files/39947.got.cif
#   From: 2010.06.25/outbox.cif.g09.slc.cpg/sg2_20_cif.got.tgz:39947.got - 2010.06.27 13:26:56.
