data_PCOD8011115
_publ_section_title
;
Structure prediction by ZEFSAII (Michael W. Deem and Ramdas Pophale) SiO2 
 PCOD8011115
Probable space group: P -1
;
_chemical_formula_sum "Si O2"
_cell_formula_units_Z 16
_cell_length_a 9.163857
_cell_length_b 15.810535
_cell_length_c 9.846592
_cell_angle_alpha 135.654704
_cell_angle_beta 98.593768
_cell_angle_gamma 109.553648
_cell_volume 758.528434
_symmetry_space_group_name_H-M "P -1"
_symmetry_group_IT_number 2
_symmetry_cell_setting 'triclinic'
loop_
_space_group_symop_operation_xyz
x,y,z
-x,-y,-z
loop_
_atom_site_type_symbol
_atom_site_label
_atom_site_fract_x
_atom_site_fract_y
_atom_site_fract_z
Si Si1 0.760148 0.347656 0.701049
Si Si2 0.181861 0.111698 0.565209
Si Si3 0.670965 0.569176 0.003296
Si Si4 0.361356 0.355235 0.217443
Si Si5 0.073226 0.857657 0.061735
Si Si6 0.543396 0.986279 0.838036
Si Si7 0.503389 0.800539 0.082389
Si Si8 0.121146 0.644168 0.988648
O O1 0.573912 0.197588 0.426232
O O2 0.936593 0.457091 0.745133
O O3 0.730703 0.462465 0.899177
O O4 0.814834 0.294190 0.776583
O O5 0.180533 0.256122 0.712438
O O6 0.369257 0.157264 0.718704
O O7 0.157375 0.027501 0.325606
O O8 0.000000 0.000000 0.500000
O O9 0.500000 0.500000 0.000000
O O10 0.630192 0.577786 0.850720
O O11 0.500000 0.500000 0.500000
O O12 0.441416 0.260967 0.103116
O O13 0.148737 0.240041 0.124607
O O14 0.224454 0.906966 0.019071
O O15 0.067073 0.748319 0.046446
O O16 0.468151 0.048868 0.795605
O O17 0.500000 0.000000 0.000000
O O18 0.283073 0.666588 0.944004
#
# Coordination Sequence:
#
# PCOD8011115 Si02
#       8
#     2   2   2   2   2   2   2   2
#     4  11  21  39  62  98 129 157 207 267 315 370
#     4  11  19  38  67  96 125 159 212 261 315 373
#     4  11  22  38  64  97 129 162 209 269 319 366
#     4  11  24  42  66  91 128 173 215 255 313 393
#     4  11  21  44  66  92 123 173 211 261 318 381
#     4  11  26  41  64  89 130 168 214 259 312 376
#     4  10  22  41  62  93 122 167 209 255 314 380
#     4  10  21  38  67  93 125 159 206 263 321 369
#
# _framework density 21.093474000000001
#
# number of rings (size 3 to 8) (size 9 to 14) (size 15 to 20)
#    0.000    1.250    3.750    3.750    1.750    4.000 
#    0.000    4.375    0.000    0.000    0.000    0.000 
#    0.000    0.000    0.000    0.000    0.000    0.000 
#
# Total GULP energy -198281.516794 kJ/mol
# GULP energy per Si atom -12392.594800 kJ/mol
# Density = 2.104546 g / cm^3
# Si number density = 21.093474 Si / 1000 Ang^3
#
#
#
# Elastic Constant Matrix: (Units=GPa)
#
#
# Indices 1 2 3 4 5 6 
#
# 1 143.1244 40.2613 54.5172 19.3788 1.3380 27.9413
# 2 40.2613 88.5653 36.8749 20.2707 -1.6281 25.8822
# 3 54.5172 36.8749 134.0131 22.8556 -0.5519 13.3098
# 4 19.3788 20.2707 22.8556 30.7266 3.5664 -0.9670
# 5 1.3380 -1.6281 -0.5519 3.5664 30.0189 8.5055
# 6 27.9413 25.8822 13.3098 -0.9670 8.5055 39.3393
#
#
#
# Elastic Compliance Matrix: (Units=1/GPa)
#
#
# Indices 1 2 3 4 5 6 
#
# 1 0.009912 -0.000579 -0.002482 -0.004430 0.001797 -0.006316
# 2 -0.000579 0.018932 -0.001583 -0.012078 0.006182 -0.013142
# 3 -0.002482 -0.001583 0.009823 -0.004842 0.001024 -0.000859
# 4 -0.004430 -0.012078 -0.004842 0.048692 -0.010949 0.016295
# 5 0.001797 0.006182 0.001024 -0.010949 0.038963 -0.014383
# 6 -0.006316 -0.013142 -0.000859 0.016295 -0.014383 0.042354
#
#
# Mechanical properties :
#
#
# Convention : Reuss Voigt Hill
#
# Bulk Modulus (GPa) = 34.04048 69.88997 51.96522
# Shear Modulus (GPa) = 26.63007 35.62027 31.12517
#
# Velocity S-wave (km/s) = 3.55699 4.11382 3.84550
# Velocity P-wave (km/s) = 5.74826 7.46794 6.66381
#
# Compressibility (1/GPa) = 0.02937679
#
# Stress axis : x y z
#
# Youngs Moduli (GPa) = 100.89258 52.81935 101.80349
#
# Poissons Ratio (x) = 0.03061 0.25272
# Poissons Ratio (y) = 0.05846 0.16116
# Poissons Ratio (z) = 0.25046 0.08362
#
# Static dielectric constant tensor:
#      x y z
#    x 4.222160 0.146910 -0.027790 
#    y 0.146910 3.905670 0.327350 
#    z -0.027790 0.327350 3.570900 
# 
# 
# High freq. dielectric constant tensor:
#      x y z
#    x 1.845310 0.014060 -0.004530 
#    y 0.014060 1.826330 0.026460 
#    z -0.004530 0.026460 1.805040 
# 
# From -- ./inp_files/209055.got.cif
#   From: 2010.06.25/outbox.cif.g09.slc.cpg/sg2_105_cif.got.tgz:209055.got - 2010.06.27 13:26:56.
