data_PCOD8011518
_publ_section_title
;
Structure prediction by ZEFSAII (Michael W. Deem and Ramdas Pophale) SiO2 
 PCOD8011518
Probable space group: P -1
;
_chemical_formula_sum "Si O2"
_cell_formula_units_Z 14
_cell_length_a 6.378554
_cell_length_b 5.920932
_cell_length_c 20.211405
_cell_angle_alpha 118.061405
_cell_angle_beta 71.209376
_cell_angle_gamma 87.191855
_cell_volume 619.047929
_symmetry_space_group_name_H-M "P -1"
_symmetry_group_IT_number 2
_symmetry_cell_setting 'triclinic'
loop_
_space_group_symop_operation_xyz
x,y,z
-x,-y,-z
loop_
_atom_site_type_symbol
_atom_site_label
_atom_site_fract_x
_atom_site_fract_y
_atom_site_fract_z
Si Si1 0.113802 0.738590 0.531971
Si Si2 0.756663 0.278664 0.619154
Si Si3 0.450954 0.770768 0.238129
Si Si4 0.022151 0.239577 0.313796
Si Si5 0.583681 0.202468 0.106875
Si Si6 0.673943 0.220753 0.952808
Si Si7 0.854594 0.998905 0.176847
O O1 0.315235 0.694760 0.448843
O O2 0.000000 0.500000 0.500000
O O3 0.170685 0.738451 0.604642
O O4 0.939239 0.008145 0.570670
O O5 0.544348 0.277062 0.688914
O O6 0.871373 0.509248 0.664001
O O7 0.436760 0.503104 0.165111
O O8 0.681867 0.846474 0.205083
O O9 0.227390 0.984719 0.269263
O O10 0.897592 0.214603 0.254354
O O11 0.419582 0.004189 0.106442
O O12 0.764763 0.158580 0.141731
O O13 0.711726 0.146814 0.016019
O O14 0.916290 0.221482 0.895426
O O15 0.500000 0.500000 0.000000
#
# Coordination Sequence:
#
# PCOD8011518 Si02
#       7
#     2   2   2   2   2   2   2
#     4   8  16  32  60  90 119 162 207 247 296 351
#     4   9  17  35  61  88 121 163 206 247 297 353
#     4  11  23  39  61  90 124 160 200 251 302 358
#     4  10  21  39  62  89 124 163 203 250 301 356
#     4  11  25  42  63  89 119 158 199 249 305 361
#     4  11  25  46  66  87 119 158 201 249 302 363
#     4  12  24  39  61  92 123 155 199 249 305 361
#
# _framework density 22.615372000000001
#
# number of rings (size 3 to 8) (size 9 to 14) (size 15 to 20)
#    0.000    1.714    0.000    4.714    0.000    8.000 
#    0.000    0.714    0.000   35.143    0.000    0.000 
#    0.000    0.000    0.000    0.000    0.000    0.000 
#
# Total GULP energy -173473.111057 kJ/mol
# GULP energy per Si atom -12390.936504 kJ/mol
# Density = 2.256390 g / cm^3
# Si number density = 22.615372 Si / 1000 Ang^3
#
#
#
# Elastic Constant Matrix: (Units=GPa)
#
#
# Indices 1 2 3 4 5 6 
#
# 1 80.4212 41.8787 62.6957 -10.5262 17.4840 1.0092
# 2 41.8787 121.9244 55.6964 16.3939 6.5189 6.3608
# 3 62.6957 55.6964 151.0419 -15.8338 18.7024 5.8233
# 4 -10.5262 16.3939 -15.8338 65.3052 -0.5403 -2.9826
# 5 17.4840 6.5189 18.7024 -0.5403 22.5301 -8.5492
# 6 1.0092 6.3608 5.8233 -2.9826 -8.5492 23.4878
#
#
#
# Elastic Compliance Matrix: (Units=1/GPa)
#
#
# Indices 1 2 3 4 5 6 
#
# 1 0.022386 -0.004807 -0.005589 0.003256 -0.012127 -0.002275
# 2 -0.004807 0.011849 -0.003000 -0.004560 0.001863 -0.002160
# 3 -0.005589 -0.003000 0.011057 0.002341 -0.005157 -0.003269
# 4 0.003256 -0.004560 0.002341 0.017627 -0.001953 0.002042
# 5 -0.012127 0.001863 -0.005157 -0.001953 0.067165 0.025494
# 6 -0.002275 -0.002160 -0.003269 0.002042 0.025494 0.053607
#
#
# Mechanical properties :
#
#
# Convention : Reuss Voigt Hill
#
# Bulk Modulus (GPa) = 54.05037 74.88101 64.46569
# Shear Modulus (GPa) = 23.07884 35.13908 29.10896
#
# Velocity S-wave (km/s) = 3.19798 3.94607 3.59155
# Velocity P-wave (km/s) = 6.13089 7.34469 6.76507
#
# Compressibility (1/GPa) = 0.01850126
#
# Stress axis : x y z
#
# Youngs Moduli (GPa) = 44.67103 84.39366 90.44253
#
# Poissons Ratio (x) = 0.40565 0.50549
# Poissons Ratio (y) = 0.21472 0.27129
# Poissons Ratio (z) = 0.24967 0.25315
#
# Static dielectric constant tensor:
#      x y z
#    x 3.511590 -0.032670 0.068720 
#    y -0.032670 4.286020 -0.466670 
#    z 0.068720 -0.466670 5.143080 
# 
# 
# High freq. dielectric constant tensor:
#      x y z
#    x 1.833010 -0.003790 0.003590 
#    y -0.003790 1.910620 -0.009650 
#    z 0.003590 -0.009650 1.936190 
# 
# From -- ./inp_files/6312.got.cif
#   From: 2010.06.25/outbox.cif.g09.slc.cpg/sg2_4_cif.got.tgz:6312.got - 2010.06.27 13:26:56.
