data_PCOD8011273
_publ_section_title
;
Structure prediction by ZEFSAII (Michael W. Deem and Ramdas Pophale) SiO2 
 PCOD8011273
Probable space group: P -1
;
_chemical_formula_sum "Si O2"
_cell_formula_units_Z 16
_cell_length_a 9.046905
_cell_length_b 7.694183
_cell_length_c 12.701260
_cell_angle_alpha 100.691554
_cell_angle_beta 78.676701
_cell_angle_gamma 80.620482
_cell_volume 833.415904
_symmetry_space_group_name_H-M "P -1"
_symmetry_group_IT_number 2
_symmetry_cell_setting 'triclinic'
loop_
_space_group_symop_operation_xyz
x,y,z
-x,-y,-z
loop_
_atom_site_type_symbol
_atom_site_label
_atom_site_fract_x
_atom_site_fract_y
_atom_site_fract_z
Si Si1 0.020160 0.290373 0.987579
Si Si2 0.222151 0.992161 0.795779
Si Si3 0.265270 0.792278 0.101721
Si Si4 0.484980 0.984593 0.377246
Si Si5 0.067456 0.155693 0.201551
Si Si6 0.437397 0.718081 0.873908
Si Si7 0.604853 0.377150 0.730134
Si Si8 0.704460 0.708351 0.696042
O O1 0.162942 0.179177 0.887803
O O2 0.866094 0.241204 0.961634
O O3 0.039352 0.245528 0.102233
O O4 0.000000 0.500000 0.000000
O O5 0.347896 0.020906 0.696549
O O6 0.290307 0.839346 0.852538
O O7 0.080362 0.923991 0.750167
O O8 0.281816 0.674412 0.191718
O O9 0.222929 0.000579 0.163376
O O10 0.422476 0.744019 0.005240
O O11 0.430625 0.798591 0.339990
O O12 0.500000 0.000000 0.500000
O O13 0.357557 0.158596 0.377283
O O14 0.117327 0.290798 0.297121
O O15 0.448482 0.508087 0.812018
O O16 0.594594 0.776477 0.820775
O O17 0.688061 0.499073 0.652248
#
# Coordination Sequence:
#
# PCOD8011273 Si02
#       8
#     2   2   2   2   2   2   2   2
#     4  11  22  31  57  89 132 170 200 227 300 373
#     4  10  21  39  58  87 124 161 203 253 300 353
#     4  11  18  34  53  88 126 166 194 235 288 370
#     4  11  24  44  66  85 113 159 215 271 311 342
#     4  11  19  37  59  85 131 164 194 238 299 376
#     4   9  19  35  55  88 123 162 196 234 294 360
#     4  10  22  37  61  89 122 154 212 247 300 366
#     4   9  22  37  59  87 117 159 196 257 304 346
#
# _framework density 19.198097000000001
#
# number of rings (size 3 to 8) (size 9 to 14) (size 15 to 20)
#    0.750    1.000    3.750    1.875    1.750    2.000 
#    0.000    0.625    0.000    0.750    0.000    0.000 
#    0.000    0.000    0.000    0.000    0.000    0.000 
#
# Total GULP energy -198211.940796 kJ/mol
# GULP energy per Si atom -12388.246300 kJ/mol
# Density = 1.915440 g / cm^3
# Si number density = 19.198097 Si / 1000 Ang^3
#
#
#
# Elastic Constant Matrix: (Units=GPa)
#
#
# Indices 1 2 3 4 5 6 
#
# 1 77.5174 37.7750 38.4603 -6.2742 17.2249 10.3076
# 2 37.7750 150.1497 47.2840 -11.1723 14.9499 0.8980
# 3 38.4603 47.2840 85.7483 -15.2728 15.6319 4.0483
# 4 -6.2742 -11.1723 -15.2728 17.7210 -4.3155 2.8310
# 5 17.2249 14.9499 15.6319 -4.3155 20.0246 -0.2378
# 6 10.3076 0.8980 4.0483 2.8310 -0.2378 32.6137
#
#
#
# Elastic Compliance Matrix: (Units=1/GPa)
#
#
# Indices 1 2 3 4 5 6 
#
# 1 0.019917 -0.002157 -0.005576 -0.001018 -0.011455 -0.005539
# 2 -0.002157 0.008470 -0.003200 0.001293 -0.001683 0.000721
# 3 -0.005576 -0.003200 0.018965 0.011332 -0.005196 -0.001525
# 4 -0.001018 0.001293 0.011332 0.069220 0.005897 -0.007086
# 5 -0.011455 -0.001683 -0.005196 0.005897 0.066426 0.004284
# 6 -0.005539 0.000721 -0.001525 -0.007086 0.004284 0.033228
#
#
# Mechanical properties :
#
#
# Convention : Reuss Voigt Hill
#
# Bulk Modulus (GPa) = 39.23612 62.27268 50.75440
# Shear Modulus (GPa) = 20.27688 26.73160 23.50424
#
# Velocity S-wave (km/s) = 3.25344 3.73555 3.50280
# Velocity P-wave (km/s) = 5.88175 7.14934 6.54630
#
# Compressibility (1/GPa) = 0.02548672
#
# Stress axis : x y z
#
# Youngs Moduli (GPa) = 50.20777 118.06558 52.72906
#
# Poissons Ratio (x) = 0.25468 0.29399
# Poissons Ratio (y) = 0.10830 0.16873
# Poissons Ratio (z) = 0.27994 0.37781
#
# Static dielectric constant tensor:
#      x y z
#    x 3.483840 -0.085240 0.003160 
#    y -0.085240 3.738340 -0.086490 
#    z 0.003160 -0.086490 3.065360 
# 
# 
# High freq. dielectric constant tensor:
#      x y z
#    x 1.742800 -0.000980 0.012950 
#    y -0.000980 1.763360 -0.011200 
#    z 0.012950 -0.011200 1.703570 
# 
# From -- ./inp_files/374545.got.cif
#   From: 2010.06.25/outbox.cif.g09.slc.cpg/sg2_188_cif.got.tgz:374545.got - 2010.06.27 13:26:56.
