data_PCOD8011649
_publ_section_title
;
Structure prediction by ZEFSAII (Michael W. Deem and Ramdas Pophale) SiO2 
 PCOD8011649
Probable space group: P -1
;
_chemical_formula_sum "Si O2"
_cell_formula_units_Z 16
_cell_length_a 23.101878
_cell_length_b 15.188924
_cell_length_c 8.242976
_cell_angle_alpha 117.024278
_cell_angle_beta 70.174847
_cell_angle_gamma 161.310309
_cell_volume 782.320706
_symmetry_space_group_name_H-M "P -1"
_symmetry_group_IT_number 2
_symmetry_cell_setting 'triclinic'
loop_
_space_group_symop_operation_xyz
x,y,z
-x,-y,-z
loop_
_atom_site_type_symbol
_atom_site_label
_atom_site_fract_x
_atom_site_fract_y
_atom_site_fract_z
Si Si1 0.207268 0.631129 0.610692
Si Si2 0.807165 0.616196 0.522447
Si Si3 0.773302 0.662800 0.251926
Si Si4 0.419052 0.678984 0.179982
Si Si5 0.548916 0.674781 0.685315
Si Si6 0.978178 0.572584 0.664953
Si Si7 0.617753 0.771450 0.058511
Si Si8 0.903801 0.322028 0.781124
O O1 0.179980 0.482308 0.588420
O O2 0.163612 0.565268 0.403263
O O3 0.042412 0.451819 0.681439
O O4 0.417968 0.993333 0.743537
O O5 0.730150 0.534613 0.350477
O O6 0.678113 0.444584 0.658436
O O7 0.007674 0.973458 0.663321
O O8 0.649831 0.573698 0.304134
O O9 0.720332 0.527463 0.018388
O O10 0.510003 0.709748 0.144654
O O11 0.500000 0.500000 0.500000
O O12 0.690752 0.955948 0.679080
O O13 0.658791 0.821976 0.871536
O O14 0.000000 0.500000 0.500000
O O15 0.885119 0.400611 0.779118
O O16 0.184940 0.935857 0.788547
O O17 0.500000 0.500000 0.000000
O O18 0.000000 0.500000 0.000000
#
# Coordination Sequence:
#
# PCOD8011649 Si02
#       8
#     2   2   2   2   2   2   2   2
#     4  11  24  41  65  96 130 164 219 259 319 399
#     4  11  25  45  67  90 129 179 218 265 323 378
#     4  10  25  46  63  93 133 167 223 273 312 386
#     4  11  23  46  66  94 129 171 218 270 322 385
#     4  11  24  38  65  96 126 169 210 266 335 380
#     4  10  21  39  63  90 133 164 198 267 324 374
#     4  11  24  40  63 102 129 165 218 264 329 402
#     4  11  20  41  63  93 132 163 205 267 327 382
#
# _framework density 20.451969999999999
#
# number of rings (size 3 to 8) (size 9 to 14) (size 15 to 20)
#    0.000    1.250    3.750    2.250   10.500    0.500 
#    2.250    0.000    0.000    0.000    0.000    0.000 
#    0.000    0.000    0.000    0.000    0.000    0.000 
#
# Total GULP energy -198271.613129 kJ/mol
# GULP energy per Si atom -12391.975821 kJ/mol
# Density = 2.040542 g / cm^3
# Si number density = 20.451970 Si / 1000 Ang^3
#
#
#
# Elastic Constant Matrix: (Units=GPa)
#
#
# Indices 1 2 3 4 5 6 
#
# 1 81.6891 12.8213 40.8347 4.4252 6.5792 -23.4308
# 2 12.8213 84.8735 23.1326 10.4238 0.1911 -12.7077
# 3 40.8347 23.1326 95.8229 9.7920 12.9189 -8.8405
# 4 4.4252 10.4238 9.7920 44.8244 -0.9627 -2.6186
# 5 6.5792 0.1911 12.9189 -0.9627 33.2596 -0.0308
# 6 -23.4308 -12.7077 -8.8405 -2.6186 -0.0308 35.6358
#
#
#
# Elastic Compliance Matrix: (Units=1/GPa)
#
#
# Indices 1 2 3 4 5 6 
#
# 1 0.018876 0.000700 -0.007090 0.000139 -0.000970 0.010911
# 2 0.000700 0.013426 -0.003031 -0.002257 0.000900 0.004331
# 3 -0.007090 -0.003031 0.014784 -0.002049 -0.004384 -0.002229
# 4 0.000139 -0.002257 -0.002049 0.023328 0.001457 0.000494
# 5 -0.000970 0.000900 -0.004384 0.001457 0.031997 -0.001269
# 6 0.010911 0.004331 -0.002229 0.000494 -0.001269 0.036262
#
#
# Mechanical properties :
#
#
# Convention : Reuss Voigt Hill
#
# Bulk Modulus (GPa) = 35.40514 46.21808 40.81161
# Shear Modulus (GPa) = 29.95284 35.11710 32.53497
#
# Velocity S-wave (km/s) = 3.83109 4.14823 3.99281
# Velocity P-wave (km/s) = 6.07607 6.75212 6.42300
#
# Compressibility (1/GPa) = 0.02824449
#
# Stress axis : x y z
#
# Youngs Moduli (GPa) = 52.97757 74.48163 67.64273
#
# Poissons Ratio (x) = -0.05211 0.47956
# Poissons Ratio (y) = -0.03706 0.20499
# Poissons Ratio (z) = 0.37559 0.22572
#
# Static dielectric constant tensor:
#      x y z
#    x 2.311600 -0.510800 -0.773200 
#    y -0.510800 3.879840 -0.333270 
#    z -0.773200 -0.333270 3.164580 
# 
# 
# High freq. dielectric constant tensor:
#      x y z
#    x 1.793080 -0.015240 0.014290 
#    y -0.015240 1.809490 0.005530 
#    z 0.014290 0.005530 1.814640 
# 
# From -- ./inp_files/354562.got.cif
#   From: 2010.06.25/outbox.cif.g09.slc.cpg/sg2_178_cif.got.tgz:354562.got - 2010.06.27 13:26:56.
