data_PCOD8011082
_publ_section_title
;
Structure prediction by ZEFSAII (Michael W. Deem and Ramdas Pophale) SiO2 
 PCOD8011082
Probable space group: P -1
;
_chemical_formula_sum "Si O2"
_cell_formula_units_Z 16
_cell_length_a 8.896845
_cell_length_b 16.149357
_cell_length_c 15.406790
_cell_angle_alpha 151.491149
_cell_angle_beta 100.052626
_cell_angle_gamma 99.487836
_cell_volume 765.547478
_symmetry_space_group_name_H-M "P -1"
_symmetry_group_IT_number 2
_symmetry_cell_setting 'triclinic'
loop_
_space_group_symop_operation_xyz
x,y,z
-x,-y,-z
loop_
_atom_site_type_symbol
_atom_site_label
_atom_site_fract_x
_atom_site_fract_y
_atom_site_fract_z
Si Si1 0.082249 0.050306 0.958170
Si Si2 0.315931 0.245512 0.474108
Si Si3 0.414969 0.700479 0.950722
Si Si4 0.313248 0.001349 0.405150
Si Si5 0.280575 0.548777 0.380099
Si Si6 0.634741 0.058291 0.149908
Si Si7 0.024200 0.524885 0.846878
Si Si8 0.678627 0.037714 0.439003
O O1 0.199818 0.960565 0.874492
O O2 0.237246 0.330155 0.217753
O O3 0.896227 0.913050 0.745276
O O4 0.000000 0.000000 0.000000
O O5 0.420016 0.511966 0.740651
O O6 0.481053 0.256661 0.448486
O O7 0.268659 0.130074 0.457698
O O8 0.183479 0.573048 0.836750
O O9 0.486425 0.885778 0.054050
O O10 0.572745 0.830256 0.167294
O O11 0.296248 0.047213 0.546074
O O12 0.542336 0.105198 0.503571
O O13 0.144971 0.720232 0.114082
O O14 0.245209 0.675402 0.562749
O O15 0.129387 0.459800 0.201593
O O16 0.500000 0.000000 0.000000
O O17 0.902769 0.269484 0.640651
#
# Coordination Sequence:
#
# PCOD8011082 Si02
#       8
#     2   2   2   2   2   2   2   2
#     4  12  29  46  70 104 134 172 227 277 331 403
#     4  12  24  44  67  97 136 176 222 279 332 392
#     4  11  25  41  65  97 136 173 223 278 331 399
#     4  10  21  38  66  98 128 176 224 274 328 396
#     4  12  24  45  73  95 137 181 219 276 333 394
#     4  12  27  47  71 100 136 176 222 277 335 399
#     4  11  20  41  67  95 129 179 221 271 337 391
#     4  10  21  40  64  96 133 172 227 272 329 395
#
# _framework density 20.900075000000001
#
# number of rings (size 3 to 8) (size 9 to 14) (size 15 to 20)
#    0.000    0.750    5.000    2.625    3.500    2.000 
#    0.000    0.625    0.000    0.000    0.000    0.000 
#    0.000    0.000    0.000    0.000    0.000    0.000 
#
# Total GULP energy -198493.647150 kJ/mol
# GULP energy per Si atom -12405.852947 kJ/mol
# Density = 2.085251 g / cm^3
# Si number density = 20.900075 Si / 1000 Ang^3
#
#
#
# Elastic Constant Matrix: (Units=GPa)
#
#
# Indices 1 2 3 4 5 6 
#
# 1 118.3603 50.3145 44.9043 -2.0105 6.6380 0.7172
# 2 50.3145 154.6243 52.3356 -18.0915 8.0432 -4.7976
# 3 44.9043 52.3356 117.4564 -3.7353 -4.3904 0.0801
# 4 -2.0105 -18.0915 -3.7353 30.3511 -0.4768 5.1303
# 5 6.6380 8.0432 -4.3904 -0.4768 39.5468 1.9658
# 6 0.7172 -4.7976 0.0801 5.1303 1.9658 32.4836
#
#
#
# Elastic Compliance Matrix: (Units=1/GPa)
#
#
# Indices 1 2 3 4 5 6 
#
# 1 0.010765 -0.002514 -0.003092 -0.001137 -0.001637 -0.000323
# 2 -0.002514 0.008934 -0.002936 0.004644 -0.001702 0.000752
# 3 -0.003092 -0.002936 0.011078 -0.000477 0.002363 -0.000460
# 4 -0.001137 0.004644 -0.000477 0.036431 -0.000117 -0.005034
# 5 -0.001637 -0.001702 0.002363 -0.000117 0.026257 -0.001792
# 6 -0.000323 0.000752 -0.000460 -0.005034 -0.001792 0.031808
#
#
# Mechanical properties :
#
#
# Convention : Reuss Voigt Hill
#
# Bulk Modulus (GPa) = 73.03689 76.17220 74.60455
# Shear Modulus (GPa) = 34.03136 36.66875 35.35005
#
# Velocity S-wave (km/s) = 4.03958 4.19319 4.11711
# Velocity P-wave (km/s) = 7.53520 7.74396 7.64029
#
# Compressibility (1/GPa) = 0.01369171
#
# Stress axis : x y z
#
# Youngs Moduli (GPa) = 92.89162 111.92607 90.27019
#
# Poissons Ratio (x) = 0.28141 0.27916
# Poissons Ratio (y) = 0.23355 0.26505
# Poissons Ratio (z) = 0.28726 0.32864
#
# Static dielectric constant tensor:
#      x y z
#    x 3.821620 0.050950 0.003270 
#    y 0.050950 3.912840 -0.036500 
#    z 0.003270 -0.036500 3.888000 
# 
# 
# High freq. dielectric constant tensor:
#      x y z
#    x 1.813030 0.002860 0.008150 
#    y 0.002860 1.828600 -0.002250 
#    z 0.008150 -0.002250 1.827590 
# 
# From -- ./inp_files/46817.got.cif
#   From: 2010.06.25/outbox.cif.g09.slc.cpg/sg2_24_cif.got.tgz:46817.got - 2010.06.27 13:26:56.
