data_PCOD8011114
_publ_section_title
;
Structure prediction by ZEFSAII (Michael W. Deem and Ramdas Pophale) SiO2 
 PCOD8011114
Probable space group: P -1
;
_chemical_formula_sum "Si O2"
_cell_formula_units_Z 16
_cell_length_a 5.069317
_cell_length_b 8.454675
_cell_length_c 18.732511
_cell_angle_alpha 84.881867
_cell_angle_beta 114.207983
_cell_angle_gamma 95.548003
_cell_volume 727.745707
_symmetry_space_group_name_H-M "P -1"
_symmetry_group_IT_number 2
_symmetry_cell_setting 'triclinic'
loop_
_space_group_symop_operation_xyz
x,y,z
-x,-y,-z
loop_
_atom_site_type_symbol
_atom_site_label
_atom_site_fract_x
_atom_site_fract_y
_atom_site_fract_z
Si Si1 0.974432 0.860968 0.557698
Si Si2 0.281126 0.783719 0.855851
Si Si3 0.931920 0.988120 0.292104
Si Si4 0.881621 0.938817 0.914522
Si Si5 0.327903 0.591993 0.666862
Si Si6 0.322159 0.830062 0.232776
Si Si7 0.294761 0.416610 0.536006
Si Si8 0.070523 0.475251 0.239609
O O1 0.238520 0.745521 0.605597
O O2 0.721289 0.759412 0.491598
O O3 0.908029 0.941831 0.622271
O O4 0.000000 0.000000 0.500000
O O5 0.164510 0.598831 0.841146
O O6 0.200491 0.864833 0.768735
O O7 0.626625 0.800273 0.903622
O O8 0.142508 0.866629 0.904313
O O9 0.671625 0.850571 0.281333
O O10 0.188914 0.916217 0.281164
O O11 0.759763 0.087913 0.853780
O O12 0.000000 0.000000 0.000000
O O13 0.399209 0.440492 0.628799
O O14 0.650669 0.634439 0.732034
O O15 0.080748 0.532664 0.698517
O O16 0.184914 0.650507 0.220780
O O17 0.500000 0.500000 0.500000
O O18 0.000000 0.500000 0.500000
#
# Coordination Sequence:
#
# PCOD8011114 Si02
#       8
#     2   2   2   2   2   2   2   2
#     4  11  25  42  63  91 124 160 222 275 324 374
#     4  10  21  38  67  93 124 170 209 249 304 376
#     4  10  22  42  59  89 124 165 212 263 316 371
#     4  10  21  42  67  99 134 164 198 249 313 373
#     4  11  24  42  65  86 123 173 207 275 325 376
#     4  10  24  40  66  93 126 166 211 253 310 374
#     4  10  23  43  59  82 117 159 207 257 333 376
#     4  12  23  41  68  90 126 164 222 254 310 375
#
# _framework density 21.985700999999999
#
# number of rings (size 3 to 8) (size 9 to 14) (size 15 to 20)
#    0.000    1.500    1.250    3.375    7.000    1.000 
#    0.000    8.750    0.000    0.000    0.000    0.000 
#    0.000    0.000    0.000    0.000    0.000    0.000 
#
# Total GULP energy -198224.893447 kJ/mol
# GULP energy per Si atom -12389.055840 kJ/mol
# Density = 2.193566 g / cm^3
# Si number density = 21.985701 Si / 1000 Ang^3
#
#
#
# Elastic Constant Matrix: (Units=GPa)
#
#
# Indices 1 2 3 4 5 6 
#
# 1 104.5797 20.6375 16.8008 -10.1141 -6.8735 21.0018
# 2 20.6375 118.1151 43.1918 16.6687 -0.7985 23.9967
# 3 16.8008 43.1918 116.5508 18.0274 -15.2230 6.6895
# 4 -10.1141 16.6687 18.0274 21.9119 4.0360 7.9976
# 5 -6.8735 -0.7985 -15.2230 4.0360 28.1503 2.6530
# 6 21.0018 23.9967 6.6895 7.9976 2.6530 29.7216
#
#
#
# Elastic Compliance Matrix: (Units=1/GPa)
#
#
# Indices 1 2 3 4 5 6 
#
# 1 0.014153 -0.000773 -0.003088 0.014072 0.000929 -0.012551
# 2 -0.000773 0.011815 -0.003298 -0.003948 -0.000397 -0.007153
# 3 -0.003088 -0.003298 0.012913 -0.012626 0.007506 0.004666
# 4 0.014072 -0.003948 -0.012626 0.076302 -0.012243 -0.023353
# 5 0.000929 -0.000397 0.007506 -0.012243 0.041785 -0.002461
# 6 -0.012551 -0.007153 0.004666 -0.023353 -0.002461 0.053743
#
#
# Mechanical properties :
#
#
# Convention : Reuss Voigt Hill
#
# Bulk Modulus (GPa) = 40.71280 55.61174 48.16227
# Shear Modulus (GPa) = 21.43921 33.19778 27.31849
#
# Velocity S-wave (km/s) = 3.12612 3.89005 3.52882
# Velocity P-wave (km/s) = 5.62034 6.74730 6.20944
#
# Compressibility (1/GPa) = 0.02456230
#
# Stress axis : x y z
#
# Youngs Moduli (GPa) = 70.65481 84.63871 77.44338
#
# Poissons Ratio (x) = 0.06544 0.23918
# Poissons Ratio (y) = 0.05463 0.25538
# Poissons Ratio (z) = 0.21822 0.27911
#
# Static dielectric constant tensor:
#      x y z
#    x 4.179550 0.207390 0.170380 
#    y 0.207390 4.091350 0.451460 
#    z 0.170380 0.451460 4.469090 
# 
# 
# High freq. dielectric constant tensor:
#      x y z
#    x 1.873380 0.014070 -0.006800 
#    y 0.014070 1.859570 0.026180 
#    z -0.006800 0.026180 1.856290 
# 
# From -- ./inp_files/45734.got.cif
#   From: 2010.06.25/outbox.cif.g09.slc.cpg/sg2_23_cif.got.tgz:45734.got - 2010.06.27 13:26:56.
