data_PCOD8011142
_publ_section_title
;
Structure prediction by ZEFSAII (Michael W. Deem and Ramdas Pophale) SiO2 
 PCOD8011142
Probable space group: P -1
;
_chemical_formula_sum "Si O2"
_cell_formula_units_Z 16
_cell_length_a 17.725186
_cell_length_b 23.268390
_cell_length_c 5.629005
_cell_angle_alpha 113.842789
_cell_angle_beta 65.715390
_cell_angle_gamma 158.942891
_cell_volume 758.859139
_symmetry_space_group_name_H-M "P -1"
_symmetry_group_IT_number 2
_symmetry_cell_setting 'triclinic'
loop_
_space_group_symop_operation_xyz
x,y,z
-x,-y,-z
loop_
_atom_site_type_symbol
_atom_site_label
_atom_site_fract_x
_atom_site_fract_y
_atom_site_fract_z
Si Si1 0.959813 0.507531 0.313463
Si Si2 0.965195 0.941128 0.197498
Si Si3 0.301722 0.829367 0.595392
Si Si4 0.146684 0.946435 0.815481
Si Si5 0.410366 0.391787 0.743248
Si Si6 0.181836 0.319065 0.563412
Si Si7 0.485368 0.834787 0.609361
Si Si8 0.830956 0.137491 0.976518
O O1 0.707270 0.345617 0.363481
O O2 0.000000 0.500000 0.500000
O O3 0.113496 0.676197 0.401950
O O4 0.000000 0.500000 0.000000
O O5 0.714889 0.751186 0.204413
O O6 0.000000 0.000000 0.500000
O O7 0.122825 0.990738 0.087648
O O8 0.000000 0.000000 0.000000
O O9 0.385644 0.828184 0.622389
O O10 0.206819 0.814655 0.873757
O O11 0.500000 0.000000 0.500000
O O12 0.118302 0.859228 0.832930
O O13 0.947668 0.813416 0.675741
O O14 0.373329 0.105557 0.659087
O O15 0.237511 0.309054 0.679148
O O16 0.603708 0.500475 0.516336
O O17 0.500000 0.500000 0.000000
O O18 0.031646 0.270508 0.765745
O O19 0.627117 0.956342 0.848576
#
# Coordination Sequence:
#
# PCOD8011142 Si02
#       8
#     2   2   2   2   2   2   2   2
#     4  10  23  43  65  93 135 178 222 272 338 400
#     4  12  27  45  69 100 136 178 229 286 343 419
#     4  11  21  40  68 104 128 177 233 277 328 400
#     4  11  22  43  66  99 134 180 224 280 352 405
#     4  11  21  41  73  93 131 178 231 276 351 411
#     4  10  21  38  68 100 130 177 228 280 344 411
#     4  10  23  40  69  94 137 185 219 275 348 406
#     4  11  21  38  70  96 136 170 235 283 332 403
#
# _framework density 21.084282999999999
#
# number of rings (size 3 to 8) (size 9 to 14) (size 15 to 20)
#    0.000    1.250    3.750    1.875    5.250    1.000 
#    2.250    0.000    0.000    0.000    0.000    0.000 
#    0.000    0.000    0.000    0.000    0.000    0.000 
#
# Total GULP energy -198256.817463 kJ/mol
# GULP energy per Si atom -12391.051091 kJ/mol
# Density = 2.103629 g / cm^3
# Si number density = 21.084283 Si / 1000 Ang^3
#
#
#
# Elastic Constant Matrix: (Units=GPa)
#
#
# Indices 1 2 3 4 5 6 
#
# 1 69.2085 41.3068 40.1019 -3.4970 -2.1108 8.9456
# 2 41.3068 192.2863 71.8968 -8.1389 -9.2318 -2.9327
# 3 40.1019 71.8968 151.4055 1.4664 -9.0010 3.2722
# 4 -3.4970 -8.1389 1.4664 33.8722 4.5518 2.7207
# 5 -2.1108 -9.2318 -9.0010 4.5518 42.7712 -5.0388
# 6 8.9456 -2.9327 3.2722 2.7207 -5.0388 33.5969
#
#
#
# Elastic Compliance Matrix: (Units=1/GPa)
#
#
# Indices 1 2 3 4 5 6 
#
# 1 0.018985 -0.002748 -0.003705 0.002057 -0.001278 -0.005292
# 2 -0.002748 0.006852 -0.002520 0.001226 0.000872 0.001607
# 3 -0.003705 -0.002520 0.008873 -0.001570 0.001334 0.000230
# 4 0.002057 0.001226 -0.001570 0.030854 -0.003641 -0.003332
# 5 -0.001278 0.000872 0.001334 -0.003641 0.024678 0.004282
# 6 -0.005292 0.001607 0.000230 -0.003332 0.004282 0.032204
#
#
# Mechanical properties :
#
#
# Convention : Reuss Voigt Hill
#
# Bulk Modulus (GPa) = 59.65846 79.94569 69.80208
# Shear Modulus (GPa) = 34.25123 39.35436 36.80280
#
# Velocity S-wave (km/s) = 4.03487 4.32502 4.18246
# Velocity P-wave (km/s) = 7.07556 7.93351 7.51678
#
# Compressibility (1/GPa) = 0.01676208
#
# Stress axis : x y z
#
# Youngs Moduli (GPa) = 52.67282 145.95228 112.70698
#
# Poissons Ratio (x) = 0.40108 0.41759
# Poissons Ratio (y) = 0.14475 0.28407
# Poissons Ratio (z) = 0.19516 0.36787
#
# Static dielectric constant tensor:
#      x y z
#    x 3.384100 0.430010 0.063840 
#    y 0.430010 4.607460 -0.080290 
#    z 0.063840 -0.080290 4.014150 
# 
# 
# High freq. dielectric constant tensor:
#      x y z
#    x 1.798040 0.014670 0.009270 
#    y 0.014670 1.843750 -0.012170 
#    z 0.009270 -0.012170 1.839630 
# 
# From -- ./inp_files/56959.got.cif
#   From: 2010.06.25/outbox.cif.g09.slc.cpg/sg2_29_cif.got.tgz:56959.got - 2010.06.27 13:26:56.
