data_PCOD8011598
_publ_section_title
;
Structure prediction by ZEFSAII (Michael W. Deem and Ramdas Pophale) SiO2 
 PCOD8011598
Probable space group: P -1
;
_chemical_formula_sum "Si O2"
_cell_formula_units_Z 16
_cell_length_a 9.674598
_cell_length_b 9.104108
_cell_length_c 15.483357
_cell_angle_alpha 108.624126
_cell_angle_beta 37.293120
_cell_angle_gamma 119.599530
_cell_volume 711.412538
_symmetry_space_group_name_H-M "P -1"
_symmetry_group_IT_number 2
_symmetry_cell_setting 'triclinic'
loop_
_space_group_symop_operation_xyz
x,y,z
-x,-y,-z
loop_
_atom_site_type_symbol
_atom_site_label
_atom_site_fract_x
_atom_site_fract_y
_atom_site_fract_z
Si Si1 0.610492 0.893822 0.325150
Si Si2 0.100075 0.886018 0.641073
Si Si3 0.347492 0.912299 0.973794
Si Si4 0.935068 0.833342 0.401230
Si Si5 0.514114 0.687516 0.721009
Si Si6 0.203612 0.468402 0.334687
Si Si7 0.191612 0.345128 0.744035
Si Si8 0.561144 0.175553 0.787487
O O1 0.371208 0.919098 0.479485
O O2 0.598207 0.713142 0.332426
O O3 0.605724 0.913477 0.229315
O O4 0.867288 0.039849 0.263958
O O5 0.923335 0.688356 0.696444
O O6 0.986980 0.986371 0.653220
O O7 0.460375 0.811766 0.836438
O O8 0.370420 0.081830 0.942299
O O9 0.070535 0.776944 0.105357
O O10 0.500000 0.000000 0.000000
O O11 0.714625 0.804956 0.573427
O O12 0.835997 0.679875 0.350928
O O13 0.177872 0.844446 0.334804
O O14 0.613494 0.568700 0.700379
O O15 0.269631 0.544904 0.765823
O O16 0.362305 0.623554 0.221667
O O17 0.000000 0.500000 0.500000
#
# Coordination Sequence:
#
# PCOD8011598 Si02
#       8
#     2   2   2   2   2   2   2   2
#     4  10  21  39  66  97 138 173 228 278 347 403
#     4  10  21  39  63 105 141 178 214 287 350 411
#     4  12  28  49  70  95 144 190 241 280 341 422
#     4  11  23  42  79 105 141 174 240 283 356 409
#     4  12  24  43  75 107 136 186 231 290 347 411
#     4  12  22  39  69 103 147 169 228 288 354 408
#     4  11  24  48  69 103 142 184 227 293 344 413
#     4  12  23  45  68 103 134 187 222 287 346 411
#
# _framework density 22.490466999999999
#
# number of rings (size 3 to 8) (size 9 to 14) (size 15 to 20)
#    0.000    0.750    5.000    2.250    1.750    2.000 
#    4.500    0.625    0.000    0.000    0.000    0.000 
#    0.000    0.000    0.000    0.000    0.000    0.000 
#
# Total GULP energy -198248.480862 kJ/mol
# GULP energy per Si atom -12390.530054 kJ/mol
# Density = 2.243928 g / cm^3
# Si number density = 22.490467 Si / 1000 Ang^3
#
#
#
# Elastic Constant Matrix: (Units=GPa)
#
#
# Indices 1 2 3 4 5 6 
#
# 1 134.1308 53.6054 12.2758 1.5284 23.2371 5.0585
# 2 53.6054 141.9871 26.9850 -2.2657 20.8921 19.5147
# 3 12.2758 26.9850 47.2171 1.6373 14.3347 6.8827
# 4 1.5284 -2.2657 1.6373 35.5636 1.1386 6.7783
# 5 23.2371 20.8921 14.3347 1.1386 33.4565 6.0367
# 6 5.0585 19.5147 6.8827 6.7783 6.0367 41.1684
#
#
#
# Elastic Compliance Matrix: (Units=1/GPa)
#
#
# Indices 1 2 3 4 5 6 
#
# 1 0.009493 -0.003127 0.000745 -0.000678 -0.005127 0.001055
# 2 -0.003127 0.009709 -0.003754 0.001669 -0.001686 -0.003618
# 3 0.000745 -0.003754 0.026102 -0.000956 -0.009111 -0.001182
# 4 -0.000678 0.001669 -0.000956 0.029324 -0.000195 -0.005348
# 5 -0.005127 -0.001686 -0.009111 -0.000195 0.038905 -0.002720
# 6 0.001055 -0.003618 -0.001182 -0.005348 -0.002720 0.027353
#
#
# Mechanical properties :
#
#
# Convention : Reuss Voigt Hill
#
# Bulk Modulus (GPa) = 30.27329 56.56304 43.41817
# Shear Modulus (GPa) = 30.45655 37.40230 33.92943
#
# Velocity S-wave (km/s) = 3.68394 4.08245 3.88830
# Velocity P-wave (km/s) = 5.62004 6.88667 6.28535
#
# Compressibility (1/GPa) = 0.03303242
#
# Stress axis : x y z
#
# Youngs Moduli (GPa) = 105.33927 102.99715 38.31107
#
# Poissons Ratio (x) = 0.32208 -0.02856
# Poissons Ratio (y) = 0.32940 0.14383
# Poissons Ratio (z) = -0.07852 0.38668
#
# Static dielectric constant tensor:
#      x y z
#    x 4.942960 0.601550 0.160100 
#    y 0.601550 4.848160 0.101380 
#    z 0.160100 0.101380 4.038300 
# 
# 
# High freq. dielectric constant tensor:
#      x y z
#    x 1.905520 0.016160 0.001580 
#    y 0.016160 1.898870 0.000410 
#    z 0.001580 0.000410 1.859220 
# 
# From -- ./inp_files/495115.got.cif
#   From: 2010.06.25/outbox.cif.g09.slc.cpg/sg2_248_cif.got.tgz:495115.got - 2010.06.27 13:26:56.
