data_PCOD8011140
_publ_section_title
;
Structure prediction by ZEFSAII (Michael W. Deem and Ramdas Pophale) SiO2 
 PCOD8011140
Probable space group: P -1
;
_chemical_formula_sum "Si O2"
_cell_formula_units_Z 16
_cell_length_a 12.165975
_cell_length_b 15.468403
_cell_length_c 10.505881
_cell_angle_alpha 145.491382
_cell_angle_beta 53.524404
_cell_angle_gamma 106.337863
_cell_volume 800.717591
_symmetry_space_group_name_H-M "P -1"
_symmetry_group_IT_number 2
_symmetry_cell_setting 'triclinic'
loop_
_space_group_symop_operation_xyz
x,y,z
-x,-y,-z
loop_
_atom_site_type_symbol
_atom_site_label
_atom_site_fract_x
_atom_site_fract_y
_atom_site_fract_z
Si Si1 0.593144 0.822360 0.861566
Si Si2 0.244821 0.977292 0.922131
Si Si3 0.448046 0.475713 0.340703
Si Si4 0.797790 0.290240 0.897228
Si Si5 0.694129 0.157979 0.013377
Si Si6 0.889718 0.544036 0.245572
Si Si7 0.946192 0.295776 0.540451
Si Si8 0.341029 0.619456 0.321406
O O1 0.593031 0.674361 0.772764
O O2 0.429776 0.915670 0.013529
O O3 0.737585 0.726752 0.549985
O O4 0.623528 0.959215 0.089105
O O5 0.217723 0.921534 0.014758
O O6 0.306274 0.819388 0.589947
O O7 0.077240 0.125017 0.175327
O O8 0.403910 0.631951 0.661974
O O9 0.345420 0.555351 0.383044
O O10 0.627447 0.403651 0.095103
O O11 0.909581 0.240429 0.637961
O O12 0.804119 0.126102 0.774228
O O13 0.841681 0.391644 0.100724
O O14 0.983662 0.568215 0.329236
O O15 0.000000 0.500000 0.000000
O O16 0.798099 0.389126 0.667860
O O17 0.500000 0.500000 0.000000
#
# Coordination Sequence:
#
# PCOD8011140 Si02
#       8
#     2   2   2   2   2   2   2   2
#     4  10  17  34  53  86 117 143 181 231 284 320
#     4  10  23  35  54  84 115 149 176 233 291 325
#     4  10  18  32  61  86 107 146 192 231 264 323
#     4  10  16  32  57  86 112 142 183 226 276 330
#     4  10  18  31  58  86 115 145 183 224 274 339
#     4   9  17  28  52  82 113 143 175 222 276 329
#     4  10  21  36  55  81 118 148 179 229 287 324
#     4  11  22  40  61  79 104 148 206 229 262 340
#
# _framework density 19.982074999999998
#
# number of rings (size 3 to 8) (size 9 to 14) (size 15 to 20)
#    0.000    2.000    3.750    1.500    0.000    0.500 
#    0.000    3.125    2.750    0.000    0.000    0.000 
#    0.000    0.000    0.000    0.000    0.000    0.000 
#
# Total GULP energy -198241.919099 kJ/mol
# GULP energy per Si atom -12390.119944 kJ/mol
# Density = 1.993660 g / cm^3
# Si number density = 19.982075 Si / 1000 Ang^3
#
#
#
# Elastic Constant Matrix: (Units=GPa)
#
#
# Indices 1 2 3 4 5 6 
#
# 1 123.1496 21.6021 38.8631 1.3362 -6.9589 17.0315
# 2 21.6021 44.5932 7.1718 -2.6066 1.2481 13.1272
# 3 38.8631 7.1718 90.9731 -2.6540 -0.9686 12.2239
# 4 1.3362 -2.6066 -2.6540 20.0637 2.1474 -1.3329
# 5 -6.9589 1.2481 -0.9686 2.1474 28.0029 0.7174
# 6 17.0315 13.1272 12.2239 -1.3329 0.7174 24.7781
#
#
#
# Elastic Compliance Matrix: (Units=1/GPa)
#
#
# Indices 1 2 3 4 5 6 
#
# 1 0.010671 -0.003678 -0.003804 -0.002254 0.002952 -0.003717
# 2 -0.003678 0.027997 0.001138 0.003415 -0.002061 -0.012622
# 3 -0.003804 0.001138 0.013163 0.001914 -0.000576 -0.004363
# 4 -0.002254 0.003415 0.001914 0.051295 -0.004623 0.001689
# 5 0.002952 -0.002061 -0.000576 -0.004623 0.036921 -0.001971
# 6 -0.003717 -0.012622 -0.004363 0.001689 -0.001971 0.051900
#
#
# Mechanical properties :
#
#
# Convention : Reuss Voigt Hill
#
# Bulk Modulus (GPa) = 25.54699 43.77668 34.66183
# Shear Modulus (GPa) = 22.96917 27.30751 25.13834
#
# Velocity S-wave (km/s) = 3.39409 3.70077 3.55074
# Velocity P-wave (km/s) = 5.30778 6.34164 5.84760
#
# Compressibility (1/GPa) = 0.03914356
#
# Stress axis : x y z
#
# Youngs Moduli (GPa) = 93.71231 35.71860 75.96852
#
# Poissons Ratio (x) = 0.13137 0.28895
# Poissons Ratio (y) = 0.34466 -0.08644
# Poissons Ratio (z) = 0.35644 -0.04064
#
# Static dielectric constant tensor:
#      x y z
#    x 4.164890 0.527140 0.050670 
#    y 0.527140 3.679470 0.039110 
#    z 0.050670 0.039110 3.629060 
# 
# 
# High freq. dielectric constant tensor:
#      x y z
#    x 1.781530 0.022730 -0.008610 
#    y 0.022730 1.763500 -0.002490 
#    z -0.008610 -0.002490 1.768790 
# 
# From -- ./inp_files/189201.got.cif
#   From: 2010.06.25/outbox.cif.g09.slc.cpg/sg2_95_cif.got.tgz:189201.got - 2010.06.27 13:26:56.
