data_PCOD8011173
_publ_section_title
;
Structure prediction by ZEFSAII (Michael W. Deem and Ramdas Pophale) SiO2 
 PCOD8011173
Probable space group: P -1
;
_chemical_formula_sum "Si O2"
_cell_formula_units_Z 16
_cell_length_a 8.865313
_cell_length_b 6.406392
_cell_length_c 16.572978
_cell_angle_alpha 100.505937
_cell_angle_beta 128.712402
_cell_angle_gamma 98.071903
_cell_volume 681.272290
_symmetry_space_group_name_H-M "P -1"
_symmetry_group_IT_number 2
_symmetry_cell_setting 'triclinic'
loop_
_space_group_symop_operation_xyz
x,y,z
-x,-y,-z
loop_
_atom_site_type_symbol
_atom_site_label
_atom_site_fract_x
_atom_site_fract_y
_atom_site_fract_z
Si Si1 0.663241 0.145267 0.892246
Si Si2 0.678085 0.979423 0.447646
Si Si3 0.807326 0.530728 0.089835
Si Si4 0.738153 0.800628 0.290414
Si Si5 0.988518 0.448197 0.586688
Si Si6 0.527894 0.790594 0.947564
Si Si7 0.908900 0.857713 0.653131
Si Si8 0.782328 0.113857 0.753988
O O1 0.493550 0.261903 0.821687
O O2 0.785131 0.112389 0.851838
O O3 0.566272 0.889340 0.876308
O O4 0.806665 0.326419 0.014926
O O5 0.785489 0.239183 0.525337
O O6 0.775704 0.959974 0.392540
O O7 0.735769 0.830623 0.524941
O O8 0.433615 0.893730 0.355800
O O9 0.676515 0.426775 0.119975
O O10 0.043484 0.657254 0.201203
O O11 0.720379 0.717709 0.034844
O O12 0.795683 0.583375 0.320105
O O13 0.888711 0.928533 0.279120
O O14 0.974204 0.639318 0.656065
O O15 0.000000 0.500000 0.500000
O O16 0.500000 0.000000 0.000000
O O17 0.828334 0.896057 0.717592
#
# Coordination Sequence:
#
# PCOD8011173 Si02
#       8
#     2   2   2   2   2   2   2   2
#     4  10  23  45  68 100 141 176 223 282 340 407
#     4  10  21  43  62  95 137 177 222 283 331 406
#     4  10  22  45  71  99 132 182 228 277 338 406
#     4  10  21  38  68  99 129 176 229 280 327 397
#     4  11  19  39  68  96 128 179 234 278 330 391
#     4   9  21  42  71  96 131 169 230 285 326 393
#     4  11  22  39  65  93 138 172 229 282 331 397
#     4  11  25  42  65 102 145 177 216 281 354 400
#
# _framework density 23.485468999999998
#
# number of rings (size 3 to 8) (size 9 to 14) (size 15 to 20)
#    0.000    1.750    2.500    1.500    5.250    2.000 
#    2.250    5.000    0.000    0.000    0.000    0.000 
#    0.000    0.000    0.000    0.000    0.000    0.000 
#
# Total GULP energy -198329.038270 kJ/mol
# GULP energy per Si atom -12395.564892 kJ/mol
# Density = 2.343202 g / cm^3
# Si number density = 23.485469 Si / 1000 Ang^3
#
#
#
# Elastic Constant Matrix: (Units=GPa)
#
#
# Indices 1 2 3 4 5 6 
#
# 1 131.8326 38.7285 34.1049 2.2427 -1.9759 -9.4260
# 2 38.7285 117.2196 23.0234 -13.3725 10.5288 -6.4835
# 3 34.1049 23.0234 65.7787 3.0676 12.4648 3.1005
# 4 2.2427 -13.3725 3.0676 21.8138 -0.2449 -1.1113
# 5 -1.9759 10.5288 12.4648 -0.2449 41.6406 13.0715
# 6 -9.4260 -6.4835 3.1005 -1.1113 13.0715 37.1401
#
#
#
# Elastic Compliance Matrix: (Units=1/GPa)
#
#
# Indices 1 2 3 4 5 6 
#
# 1 0.009687 -0.002621 -0.004462 -0.001870 0.001933 0.001637
# 2 -0.002621 0.011171 -0.002459 0.007571 -0.003044 0.002788
# 3 -0.004462 -0.002459 0.019578 -0.003937 -0.004984 -0.001560
# 4 -0.001870 0.007571 -0.003937 0.051379 -0.001545 0.003257
# 5 0.001933 -0.003044 -0.004984 -0.001545 0.029517 -0.010059
# 6 0.001637 0.002788 -0.001560 0.003257 -0.010059 0.031595
#
#
# Mechanical properties :
#
#
# Convention : Reuss Voigt Hill
#
# Bulk Modulus (GPa) = 46.83009 56.28271 51.55640
# Shear Modulus (GPa) = 27.91296 34.71717 31.31506
#
# Velocity S-wave (km/s) = 3.45123 3.84896 3.65551
# Velocity P-wave (km/s) = 5.98871 6.61586 6.31008
#
# Compressibility (1/GPa) = 0.02135379
#
# Stress axis : x y z
#
# Youngs Moduli (GPa) = 103.22755 89.51620 51.07755
#
# Poissons Ratio (x) = 0.23459 0.22789
# Poissons Ratio (y) = 0.27053 0.12560
# Poissons Ratio (z) = 0.46057 0.22012
#
# Static dielectric constant tensor:
#      x y z
#    x 4.402810 -0.010720 -0.143210 
#    y -0.010720 4.383210 -0.058360 
#    z -0.143210 -0.058360 4.142590 
# 
# 
# High freq. dielectric constant tensor:
#      x y z
#    x 1.931640 -0.011180 -0.008730 
#    y -0.011180 1.918420 0.005670 
#    z -0.008730 0.005670 1.931590 
# 
# From -- ./inp_files/553672.got.cif
#   From: 2010.06.25/outbox.cif.g09.slc.cpg/sg2_277_cif.got.tgz:553672.got - 2010.06.27 13:26:56.
