data_PCOD8011709
_publ_section_title
;
Structure prediction by ZEFSAII (Michael W. Deem and Ramdas Pophale) SiO2 
 PCOD8011709
Probable space group: P -1
;
_chemical_formula_sum "Si O2"
_cell_formula_units_Z 16
_cell_length_a 9.569328
_cell_length_b 10.904367
_cell_length_c 12.121630
_cell_angle_alpha 125.536665
_cell_angle_beta 110.913162
_cell_angle_gamma 42.136034
_cell_volume 684.149445
_symmetry_space_group_name_H-M "P -1"
_symmetry_group_IT_number 2
_symmetry_cell_setting 'triclinic'
loop_
_space_group_symop_operation_xyz
x,y,z
-x,-y,-z
loop_
_atom_site_type_symbol
_atom_site_label
_atom_site_fract_x
_atom_site_fract_y
_atom_site_fract_z
Si Si1 0.423358 0.203096 0.391171
Si Si2 0.704554 0.807818 0.892738
Si Si3 0.004816 0.821722 0.880820
Si Si4 0.223236 0.562619 0.223723
Si Si5 0.824850 0.347352 0.490443
Si Si6 0.141055 0.984121 0.622399
Si Si7 0.515199 0.549173 0.153875
Si Si8 0.242592 0.043003 0.343399
O O1 0.368425 0.191758 0.247521
O O2 0.289934 0.448682 0.513148
O O3 0.667811 0.063142 0.403754
O O4 0.377651 0.100328 0.408841
O O5 0.801884 0.599584 0.880523
O O6 0.876010 0.819760 0.936909
O O7 0.500000 0.000000 0.000000
O O8 0.242404 0.592840 0.823259
O O9 0.901371 0.869484 0.758980
O O10 0.000000 0.000000 0.000000
O O11 0.256964 0.573294 0.367292
O O12 0.422005 0.484259 0.171306
O O13 0.008706 0.792547 0.237973
O O14 0.770683 0.210130 0.371576
O O15 0.079175 0.180281 0.469810
O O16 0.000000 0.000000 0.500000
O O17 0.391241 0.792789 0.267389
O O18 0.500000 0.500000 0.000000
#
# Coordination Sequence:
#
# PCOD8011709 Si02
#       8
#     2   2   2   2   2   2   2   2
#     4  10  23  40  65  95 131 172 221 279 337 403
#     4  10  23  42  67  96 133 176 223 279 335 394
#     4  11  24  44  68  97 138 179 228 275 333 407
#     4  10  23  43  64  97 135 167 225 282 328 406
#     4  10  21  44  67  93 128 175 222 274 340 397
#     4  10  21  39  63  93 130 167 216 269 334 400
#     4  12  25  43  69  95 136 183 223 277 342 402
#     4  11  24  43  68  99 135 176 226 278 339 403
#
# _framework density 23.386700999999999
#
# number of rings (size 3 to 8) (size 9 to 14) (size 15 to 20)
#    0.000    1.500    2.500    1.500    3.500    6.000 
#    0.000    3.750    0.000    0.000    0.000    0.000 
#    0.000    0.000    0.000    0.000    0.000    0.000 
#
# Total GULP energy -198332.798678 kJ/mol
# GULP energy per Si atom -12395.799917 kJ/mol
# Density = 2.333347 g / cm^3
# Si number density = 23.386701 Si / 1000 Ang^3
#
#
#
# Elastic Constant Matrix: (Units=GPa)
#
#
# Indices 1 2 3 4 5 6 
#
# 1 235.1220 60.1235 53.7827 26.1047 -1.0335 -4.7708
# 2 60.1235 104.2421 33.1202 31.1969 5.8160 -7.2314
# 3 53.7827 33.1202 70.5252 33.1662 -5.0895 4.9971
# 4 26.1047 31.1969 33.1662 40.2024 1.6394 1.5472
# 5 -1.0335 5.8160 -5.0895 1.6394 42.5733 12.0380
# 6 -4.7708 -7.2314 4.9971 1.5472 12.0380 47.7058
#
#
#
# Elastic Compliance Matrix: (Units=1/GPa)
#
#
# Indices 1 2 3 4 5 6 
#
# 1 0.005600 -0.002353 -0.003870 0.001368 -0.000234 0.000623
# 2 -0.002353 0.014262 -0.001344 -0.008437 -0.002696 0.003021
# 3 -0.003870 -0.001344 0.027438 -0.019135 0.005288 -0.004179
# 4 0.001368 -0.008437 -0.019135 0.046434 -0.002916 0.000092
# 5 -0.000234 -0.002696 0.005288 -0.002916 0.026757 -0.007643
# 6 0.000623 0.003021 -0.004179 0.000092 -0.007643 0.023845
#
#
# Mechanical properties :
#
#
# Convention : Reuss Voigt Hill
#
# Bulk Modulus (GPa) = 31.08910 78.21581 54.65246
# Shear Modulus (GPa) = 29.37843 43.62050 36.49946
#
# Velocity S-wave (km/s) = 3.54814 4.32346 3.95485
# Velocity P-wave (km/s) = 5.48708 7.64462 6.65388
#
# Compressibility (1/GPa) = 0.03216561
#
# Stress axis : x y z
#
# Youngs Moduli (GPa) = 178.57813 70.11426 36.44602
#
# Poissons Ratio (x) = 0.16501 0.14103
# Poissons Ratio (y) = 0.42027 0.04899
# Poissons Ratio (z) = 0.69102 0.09425
#
# Static dielectric constant tensor:
#      x y z
#    x 4.919370 0.477230 0.166300 
#    y 0.477230 4.641420 0.668650 
#    z 0.166300 0.668650 4.513320 
# 
# 
# High freq. dielectric constant tensor:
#      x y z
#    x 1.947590 0.010490 -0.002650 
#    y 0.010490 1.924620 0.028920 
#    z -0.002650 0.028920 1.913700 
# 
# From -- ./inp_files/404699.got.cif
#   From: 2010.06.25/outbox.cif.g09.slc.cpg/sg2_203_cif.got.tgz:404699.got - 2010.06.27 13:26:56.
