data_PCOD8011580
_publ_section_title
;
Structure prediction by ZEFSAII (Michael W. Deem and Ramdas Pophale) SiO2 
 PCOD8011580
Probable space group: P -1
;
_chemical_formula_sum "Si O2"
_cell_formula_units_Z 16
_cell_length_a 9.051331
_cell_length_b 12.823263
_cell_length_c 14.242926
_cell_angle_alpha 50.969468
_cell_angle_beta 75.857737
_cell_angle_gamma 117.452355
_cell_volume 719.337215
_symmetry_space_group_name_H-M "P -1"
_symmetry_group_IT_number 2
_symmetry_cell_setting 'triclinic'
loop_
_space_group_symop_operation_xyz
x,y,z
-x,-y,-z
loop_
_atom_site_type_symbol
_atom_site_label
_atom_site_fract_x
_atom_site_fract_y
_atom_site_fract_z
Si Si1 0.785654 0.565583 0.642846
Si Si2 0.469079 0.342761 0.328800
Si Si3 0.211972 0.910025 0.681823
Si Si4 0.282578 0.852477 0.503088
Si Si5 0.390046 0.564458 0.949417
Si Si6 0.050945 0.400656 0.798519
Si Si7 0.001471 0.347861 0.618322
Si Si8 0.553362 0.185298 0.031879
O O1 0.665384 0.609756 0.682616
O O2 0.104857 0.785582 0.485625
O O3 0.768223 0.553273 0.538923
O O4 0.644997 0.336369 0.841057
O O5 0.304892 0.132862 0.547605
O O6 0.771937 0.581011 0.183411
O O7 0.468885 0.287278 0.252675
O O8 0.407450 0.946783 0.686901
O O9 0.243515 0.915129 0.563370
O O10 0.916901 0.673783 0.894431
O O11 0.184712 0.636329 0.671557
O O12 0.500000 0.500000 0.000000
O O13 0.438534 0.714983 0.933348
O O14 0.074062 0.384068 0.694463
O O15 0.750949 0.197944 0.998485
O O16 0.000000 0.500000 0.500000
O O17 0.730614 0.076347 0.795883
#
# Coordination Sequence:
#
# PCOD8011580 Si02
#       8
#     2   2   2   2   2   2   2   2
#     4  11  23  43  64  98 130 172 220 269 325 390
#     4  11  26  40  66  98 139 173 211 272 331 387
#     4  10  21  39  62  94 137 173 213 268 318 391
#     4   9  18  38  63  90 131 166 214 268 311 387
#     4  12  24  40  67 100 136 180 212 257 339 396
#     4  10  22  46  62  99 132 166 227 276 316 389
#     4  12  25  42  76  93 120 180 227 272 336 369
#     4  11  24  43  69  99 132 164 230 269 315 408
#
# _framework density 22.242699000000002
#
# number of rings (size 3 to 8) (size 9 to 14) (size 15 to 20)
#    0.000    1.250    6.250    0.375    3.500    3.000 
#    0.000    0.625    0.000    0.000    0.000    0.000 
#    0.000    0.000    0.000    0.000    0.000    0.000 
#
# Total GULP energy -198260.285971 kJ/mol
# GULP energy per Si atom -12391.267873 kJ/mol
# Density = 2.219207 g / cm^3
# Si number density = 22.242699 Si / 1000 Ang^3
#
#
#
# Elastic Constant Matrix: (Units=GPa)
#
#
# Indices 1 2 3 4 5 6 
#
# 1 107.0999 31.7532 28.7100 -1.1996 -16.4185 2.9160
# 2 31.7532 101.4430 46.3674 16.7217 2.6859 7.4296
# 3 28.7100 46.3674 84.3501 -2.7326 -10.1990 0.4936
# 4 -1.1996 16.7217 -2.7326 37.1150 -0.4543 -0.6744
# 5 -16.4185 2.6859 -10.1990 -0.4543 16.7952 4.5169
# 6 2.9160 7.4296 0.4936 -0.6744 4.5169 23.6760
#
#
#
# Elastic Compliance Matrix: (Units=1/GPa)
#
#
# Indices 1 2 3 4 5 6 
#
# 1 0.013026 -0.004670 -0.000038 0.002647 0.014279 -0.002787
# 2 -0.004670 0.018055 -0.010215 -0.009247 -0.013201 -0.002622
# 3 -0.000038 -0.010215 0.019298 0.006194 0.013366 0.000434
# 4 0.002647 -0.009247 0.006194 0.031784 0.008206 0.001786
# 5 0.014279 -0.013201 0.013366 0.008206 0.087827 -0.014417
# 6 -0.002787 -0.002622 0.000434 0.001786 -0.014417 0.046195
#
#
# Mechanical properties :
#
#
# Convention : Reuss Voigt Hill
#
# Bulk Modulus (GPa) = 48.70524 56.28381 52.49453
# Shear Modulus (GPa) = 19.77249 27.92137 23.84693
#
# Velocity S-wave (km/s) = 2.98475 3.54687 3.27788
# Velocity P-wave (km/s) = 5.81576 6.49100 6.16263
#
# Compressibility (1/GPa) = 0.02053167
#
# Stress axis : x y z
#
# Youngs Moduli (GPa) = 76.76683 55.38712 51.81897
#
# Poissons Ratio (x) = 0.25868 0.00196
# Poissons Ratio (y) = 0.35853 0.52936
# Poissons Ratio (z) = 0.00290 0.56581
#
# Static dielectric constant tensor:
#      x y z
#    x 4.173110 0.032650 -0.236930 
#    y 0.032650 4.164220 0.063180 
#    z -0.236930 0.063180 4.181730 
# 
# 
# High freq. dielectric constant tensor:
#      x y z
#    x 1.866820 -0.000410 -0.008860 
#    y -0.000410 1.873640 0.005160 
#    z -0.008860 0.005160 1.876040 
# 
# From -- ./inp_files/500032.got.cif
#   From: 2010.06.25/outbox.cif.g09.slc.cpg/sg2_251_cif.got.tgz:500032.got - 2010.06.27 13:26:56.
