data_PCOD8011424
_publ_section_title
;
Structure prediction by ZEFSAII (Michael W. Deem and Ramdas Pophale) SiO2 
 PCOD8011424
Probable space group: P -1
;
_chemical_formula_sum "Si O2"
_cell_formula_units_Z 16
_cell_length_a 14.297476
_cell_length_b 14.862802
_cell_length_c 11.703658
_cell_angle_alpha 28.175019
_cell_angle_beta 141.035976
_cell_angle_gamma 137.983118
_cell_volume 724.435957
_symmetry_space_group_name_H-M "P -1"
_symmetry_group_IT_number 2
_symmetry_cell_setting 'triclinic'
loop_
_space_group_symop_operation_xyz
x,y,z
-x,-y,-z
loop_
_atom_site_type_symbol
_atom_site_label
_atom_site_fract_x
_atom_site_fract_y
_atom_site_fract_z
Si Si1 0.811668 0.062248 0.021619
Si Si2 0.178040 0.047199 0.103027
Si Si3 0.980756 0.637574 0.981899
Si Si4 0.334171 0.503199 0.075768
Si Si5 0.560214 0.248582 0.535794
Si Si6 0.678045 0.527332 0.156740
Si Si7 0.001862 0.779158 0.597128
Si Si8 0.705086 0.084407 0.416432
O O1 0.947798 0.244255 0.971768
O O2 0.654285 0.126199 0.844393
O O3 0.853231 0.874865 0.333621
O O4 0.780050 0.013791 0.913805
O O5 0.247421 0.915388 0.406411
O O6 0.243326 0.274158 0.930746
O O7 0.000000 0.000000 0.000000
O O8 0.798422 0.605067 0.846469
O O9 0.038263 0.761913 0.784559
O O10 0.034162 0.431261 0.261449
O O11 0.487088 0.417609 0.337944
O O12 0.258239 0.483934 0.897945
O O13 0.373095 0.731543 0.888480
O O14 0.687570 0.348346 0.451808
O O15 0.414256 0.112072 0.495938
O O16 0.500000 0.500000 0.000000
O O17 0.148109 0.913507 0.526821
#
# Coordination Sequence:
#
# PCOD8011424 Si02
#       8
#     2   2   2   2   2   2   2   2
#     4  12  25  37  67  98 130 165 211 273 326 381
#     4  12  23  39  65 100 138 166 221 272 319 390
#     4  10  23  46  70  92 124 170 221 275 325 385
#     4  10  21  40  66  89 128 174 217 252 321 387
#     4  11  25  39  61  97 136 173 212 258 322 408
#     4  10  21  39  61  89 140 178 207 254 321 400
#     4  10  23  46  70  93 123 169 224 272 327 382
#     4  11  22  42  66  94 132 177 211 264 327 388
#
# _framework density 22.086147
#
# number of rings (size 3 to 8) (size 9 to 14) (size 15 to 20)
#    0.000    1.250    3.750    2.625    5.250    1.000 
#    0.000    5.625    0.000    4.500    0.000    0.000 
#    0.000    0.000    0.000    0.000    0.000    0.000 
#
# Total GULP energy -198297.096860 kJ/mol
# GULP energy per Si atom -12393.568554 kJ/mol
# Density = 2.203588 g / cm^3
# Si number density = 22.086147 Si / 1000 Ang^3
#
#
#
# Elastic Constant Matrix: (Units=GPa)
#
#
# Indices 1 2 3 4 5 6 
#
# 1 65.6329 22.0226 37.0484 -7.9188 -5.0830 4.3173
# 2 22.0226 89.3929 34.9556 -16.6836 -10.4646 12.5496
# 3 37.0484 34.9556 137.9754 -3.7671 28.0680 16.3269
# 4 -7.9188 -16.6836 -3.7671 27.3112 5.4625 3.8350
# 5 -5.0830 -10.4646 28.0680 5.4625 38.8907 -0.1619
# 6 4.3173 12.5496 16.3269 3.8350 -0.1619 21.1316
#
#
#
# Elastic Compliance Matrix: (Units=1/GPa)
#
#
# Indices 1 2 3 4 5 6 
#
# 1 0.020077 -0.001337 -0.006466 0.002622 0.006568 0.001262
# 2 -0.001337 0.016524 -0.003744 0.009224 0.005644 -0.008278
# 3 -0.006466 -0.003744 0.013095 0.000894 -0.011457 -0.006823
# 4 0.002622 0.009224 0.000894 0.046127 -0.004362 -0.015109
# 5 0.006568 0.005644 -0.011457 -0.004362 0.036994 0.005234
# 6 0.001262 -0.008278 -0.006823 -0.015109 0.005234 0.060035
#
#
# Mechanical properties :
#
#
# Convention : Reuss Voigt Hill
#
# Bulk Modulus (GPa) = 37.59102 53.45050 45.52076
# Shear Modulus (GPa) = 22.24073 30.73166 26.48619
#
# Velocity S-wave (km/s) = 3.17677 3.73425 3.46674
# Velocity P-wave (km/s) = 5.52385 6.54571 6.05637
#
# Compressibility (1/GPa) = 0.02660210
#
# Stress axis : x y z
#
# Youngs Moduli (GPa) = 49.80882 60.51719 76.36459
#
# Poissons Ratio (x) = 0.08089 0.49379
# Poissons Ratio (y) = 0.06657 0.28592
# Poissons Ratio (z) = 0.32208 0.22659
#
# Static dielectric constant tensor:
#      x y z
#    x 4.922850 -0.398360 0.053760 
#    y -0.398360 3.966580 -0.304950 
#    z 0.053760 -0.304950 4.431150 
# 
# 
# High freq. dielectric constant tensor:
#      x y z
#    x 1.855200 0.001010 0.012720 
#    y 0.001010 1.860750 -0.023200 
#    z 0.012720 -0.023200 1.877400 
# 
# From -- ./inp_files/454414.got.cif
#   From: 2010.06.25/outbox.cif.g09.slc.cpg/sg2_228_cif.got.tgz:454414.got - 2010.06.27 13:26:56.
