data_PCOD8011074
_publ_section_title
;
Structure prediction by ZEFSAII (Michael W. Deem and Ramdas Pophale) SiO2 
 PCOD8011074
Probable space group: P -1
;
_chemical_formula_sum "Si O2"
_cell_formula_units_Z 16
_cell_length_a 13.164624
_cell_length_b 14.076078
_cell_length_c 10.338082
_cell_angle_alpha 31.996782
_cell_angle_beta 68.099752
_cell_angle_gamma 50.406854
_cell_volume 713.351326
_symmetry_space_group_name_H-M "P -1"
_symmetry_group_IT_number 2
_symmetry_cell_setting 'triclinic'
loop_
_space_group_symop_operation_xyz
x,y,z
-x,-y,-z
loop_
_atom_site_type_symbol
_atom_site_label
_atom_site_fract_x
_atom_site_fract_y
_atom_site_fract_z
Si Si1 0.306996 0.134381 0.290154
Si Si2 0.006021 0.764382 0.335330
Si Si3 0.740034 0.012635 0.983130
Si Si4 0.788412 0.119312 0.227137
Si Si5 0.609456 0.808141 0.384205
Si Si6 0.887916 0.693339 0.057318
Si Si7 0.200201 0.511546 0.107243
Si Si8 0.705600 0.374821 0.720668
O O1 0.301280 0.314911 0.176718
O O2 0.278049 0.983448 0.555993
O O3 0.466117 0.952361 0.368586
O O4 0.189623 0.286053 0.059486
O O5 0.096253 0.488979 0.641725
O O6 0.120389 0.777296 0.199968
O O7 0.878262 0.851508 0.197731
O O8 0.944944 0.904255 0.339895
O O9 0.624735 0.983746 0.108299
O O10 0.788983 0.944223 0.890168
O O11 0.661666 0.289806 0.721596
O O12 0.798793 0.272428 0.148170
O O13 0.681739 0.293129 0.960957
O O14 0.747741 0.612331 0.633837
O O15 0.608887 0.658098 0.442726
O O16 0.039453 0.616270 0.035459
#
# Coordination Sequence:
#
# PCOD8011074 Si02
#       8
#     2   2   2   2   2   2   2   2
#     4  12  27  42  56  94 133 164 199 244 308 370
#     4  11  19  39  68  96 120 152 206 267 302 348
#     4  11  20  39  66  93 119 158 209 255 303 355
#     4  10  22  39  65  92 124 155 205 260 301 356
#     4  11  23  41  66  89 122 164 208 251 297 362
#     4  12  23  40  66  91 127 161 198 256 311 361
#     4  11  22  42  67  90 116 166 209 249 302 359
#     4  10  21  38  66  97 117 151 211 264 300 348
#
# _framework density 22.429341000000001
#
# number of rings (size 3 to 8) (size 9 to 14) (size 15 to 20)
#    0.000    1.000    3.750    5.625    0.000    4.000 
#    2.250    0.625    0.000    0.000    0.000    0.000 
#    0.000    0.000    0.000    0.000    0.000    0.000 
#
# Total GULP energy -198415.699140 kJ/mol
# GULP energy per Si atom -12400.981196 kJ/mol
# Density = 2.237829 g / cm^3
# Si number density = 22.429341 Si / 1000 Ang^3
#
#
#
# Elastic Constant Matrix: (Units=GPa)
#
#
# Indices 1 2 3 4 5 6 
#
# 1 38.1701 22.9974 23.9627 -19.2035 -20.6278 -1.0998
# 2 22.9974 137.2986 28.3836 -30.0471 -34.2405 -7.6904
# 3 23.9627 28.3836 41.3624 -8.3974 -28.2896 -1.2786
# 4 -19.2035 -30.0471 -8.3974 26.3856 7.7633 -29.5539
# 5 -20.6278 -34.2405 -28.2896 7.7633 31.8040 -12.3596
# 6 -1.0998 -7.6904 -1.2786 -29.5539 -12.3596 21.7776
#
#
#
# Elastic Compliance Matrix: (Units=1/GPa)
#
#
# Indices 1 2 3 4 5 6 
#
# 1 0.036291 -0.006196 -0.028178 -0.006527 -0.013891 -0.018751
# 2 -0.006196 0.006766 -0.003812 -0.006703 -0.001673 -0.008194
# 3 -0.028178 -0.003812 0.065689 -0.020577 0.039315 -0.004523
# 4 -0.006527 -0.006703 -0.020577 -0.001388 -0.040623 -0.028844
# 5 -0.013891 -0.001673 0.039315 -0.040623 0.057079 -0.021719
# 6 -0.018751 -0.008194 -0.004523 -0.028844 -0.021719 -0.009658
#
#
# Mechanical properties :
#
#
# Convention : Reuss Voigt Hill
#
# Bulk Modulus (GPa) = 30.88888 40.83540 35.86214
# Shear Modulus (GPa) = 20.66614 25.42591 23.04603
#
# Velocity S-wave (km/s) = 3.03873 3.37055 3.20893
# Velocity P-wave (km/s) = 5.11013 5.77869 5.45466
#
# Compressibility (1/GPa) = 0.03237411
#
# Stress axis : x y z
#
# Youngs Moduli (GPa) = 27.55526 147.79607 15.22327
#
# Poissons Ratio (x) = 0.91579 0.42896
# Poissons Ratio (y) = 0.17074 0.05803
# Poissons Ratio (z) = 0.77645 0.56336
#
# Static dielectric constant tensor:
#      x y z
#    x 3.921350 0.306350 -0.404820 
#    y 0.306350 4.232680 -0.286860 
#    z -0.404820 -0.286860 3.974770 
# 
# 
# High freq. dielectric constant tensor:
#      x y z
#    x 1.866230 0.010900 -0.028600 
#    y 0.010900 1.897770 -0.014340 
#    z -0.028600 -0.014340 1.871930 
# 
# From -- ./inp_files/271540.got.cif
#   From: 2010.06.25/outbox.cif.g09.slc.cpg/sg2_136_cif.got.tgz:271540.got - 2010.06.27 13:26:56.
