data_PCOD8011315
_publ_section_title
;
Structure prediction by ZEFSAII (Michael W. Deem and Ramdas Pophale) SiO2 
 PCOD8011315
Probable space group: P -1
;
_chemical_formula_sum "Si O2"
_cell_formula_units_Z 16
_cell_length_a 22.068465
_cell_length_b 6.618805
_cell_length_c 9.410547
_cell_angle_alpha 130.663943
_cell_angle_beta 49.158558
_cell_angle_gamma 105.609191
_cell_volume 758.683808
_symmetry_space_group_name_H-M "P -1"
_symmetry_group_IT_number 2
_symmetry_cell_setting 'triclinic'
loop_
_space_group_symop_operation_xyz
x,y,z
-x,-y,-z
loop_
_atom_site_type_symbol
_atom_site_label
_atom_site_fract_x
_atom_site_fract_y
_atom_site_fract_z
Si Si1 0.615455 0.236957 0.595121
Si Si2 0.788860 0.932865 0.670900
Si Si3 0.059523 0.811143 0.434613
Si Si4 0.043726 0.230445 0.156934
Si Si5 0.344799 0.076328 0.907148
Si Si6 0.122849 0.666204 0.684602
Si Si7 0.521869 0.868361 0.058770
Si Si8 0.270574 0.692464 0.309049
O O1 0.562142 0.074977 0.693480
O O2 0.700839 0.220373 0.541294
O O3 0.633622 0.112713 0.352088
O O4 0.562329 0.551568 0.811398
O O5 0.832643 0.608649 0.418717
O O6 0.855960 0.103060 0.656636
O O7 0.727442 0.069460 0.698800
O O8 0.738552 0.963970 0.909863
O O9 0.085061 0.480800 0.219535
O O10 0.006582 0.855604 0.678026
O O11 0.000000 0.000000 0.500000
O O12 0.973804 0.323825 0.184036
O O13 0.121160 0.960727 0.892164
O O14 0.417092 0.000070 0.880885
O O15 0.331179 0.398065 0.030183
O O16 0.176885 0.657773 0.453760
O O17 0.500000 0.000000 0.000000
#
# Coordination Sequence:
#
# PCOD8011315 Si02
#       8
#     2   2   2   2   2   2   2   2
#     4  10  22  40  64  91 128 167 202 248 310 365
#     4  11  22  39  63  87 125 164 211 263 313 379
#     4  11  22  37  58  86 116 154 209 260 318 377
#     4  10  22  38  59  84 116 156 203 266 320 374
#     4  10  23  40  63  92 129 166 206 252 311 369
#     4  10  21  39  60  82 118 158 205 261 320 369
#     4  10  21  40  66  97 128 159 205 253 296 368
#     4  10  22  40  58  89 126 165 207 262 310 369
#
# _framework density 21.089155000000002
#
# number of rings (size 3 to 8) (size 9 to 14) (size 15 to 20)
#    0.000    1.750    2.500    1.125    0.000    5.000 
#    0.000    2.500    0.000    0.000    0.000    0.000 
#    0.000    0.000    0.000    0.000    0.000    0.000 
#
# Total GULP energy -198260.232981 kJ/mol
# GULP energy per Si atom -12391.264561 kJ/mol
# Density = 2.104116 g / cm^3
# Si number density = 21.089155 Si / 1000 Ang^3
#
#
#
# Elastic Constant Matrix: (Units=GPa)
#
#
# Indices 1 2 3 4 5 6 
#
# 1 79.3584 31.0475 50.9167 -9.6025 4.1746 -13.3649
# 2 31.0475 -43.4647 83.1953 -132.0108 -41.3966 -58.0107
# 3 50.9167 83.1953 121.7497 26.8034 19.2767 4.2758
# 4 -9.6025 -132.0108 26.8034 -68.6071 -27.6145 -33.9068
# 5 4.1746 -41.3966 19.2767 -27.6145 23.0642 -13.5359
# 6 -13.3649 -58.0107 4.2758 -33.9068 -13.5359 27.6928
#
#
#
# Elastic Compliance Matrix: (Units=1/GPa)
#
#
# Indices 1 2 3 4 5 6 
#
# 1 0.018126 -0.003470 -0.005319 0.001283 -0.001761 0.003010
# 2 -0.003470 0.005708 -0.000168 -0.009315 -0.001097 -0.001633
# 3 -0.005319 -0.000168 0.009634 0.004802 -0.001087 0.000943
# 4 0.001283 -0.009315 0.004802 0.013219 -0.010044 -0.008360
# 5 -0.001761 -0.001097 -0.001087 -0.010044 0.030320 -0.000458
# 6 0.003010 -0.001633 0.000943 -0.008360 -0.000458 0.023538
#
#
# Mechanical properties :
#
#
# Convention : Reuss Voigt Hill
#
# Bulk Modulus (GPa) = 64.28500 54.21803 59.25152
# Shear Modulus (GPa) = 40.43906 -4.07109 18.18398
#
# Velocity S-wave (km/s) = 4.38371 -1.39090 2.93958
# Velocity P-wave (km/s) = 7.49475 4.81511 6.29907
#
# Compressibility (1/GPa) = 0.01555573
#
# Stress axis : x y z
#
# Youngs Moduli (GPa) = 55.16964 175.18609 103.79711
#
# Poissons Ratio (x) = 0.60789 0.55206
# Poissons Ratio (y) = 0.19144 0.01741
# Poissons Ratio (z) = 0.29343 0.02938
#
# Static dielectric constant tensor:
#      x y z
#    x 4.027310 -0.086300 -0.178830 
#    y -0.086300 3.981990 0.077640 
#    z -0.178830 0.077640 3.786140 
# 
# 
# High freq. dielectric constant tensor:
#      x y z
#    x 1.825650 -0.001950 -0.012660 
#    y -0.001950 1.836380 0.001900 
#    z -0.012660 0.001900 1.817910 
# 
# From -- ./inp_files/350839.got.cif
#   From: 2010.06.25/outbox.cif.g09.slc.cpg/sg2_176_cif.got.tgz:350839.got - 2010.06.27 13:26:56.
