data_PCOD8011165
_publ_section_title
;
Structure prediction by ZEFSAII (Michael W. Deem and Ramdas Pophale) SiO2 
 PCOD8011165
Probable space group: P -1
;
_chemical_formula_sum "Si O2"
_cell_formula_units_Z 16
_cell_length_a 23.322299
_cell_length_b 11.707708
_cell_length_c 16.240502
_cell_angle_alpha 33.842035
_cell_angle_beta 149.694214
_cell_angle_gamma 158.703812
_cell_volume 804.372384
_symmetry_space_group_name_H-M "P -1"
_symmetry_group_IT_number 2
_symmetry_cell_setting 'triclinic'
loop_
_space_group_symop_operation_xyz
x,y,z
-x,-y,-z
loop_
_atom_site_type_symbol
_atom_site_label
_atom_site_fract_x
_atom_site_fract_y
_atom_site_fract_z
Si Si1 0.020001 0.424516 0.385588
Si Si2 0.865199 0.841143 0.246418
Si Si3 0.362162 0.585293 0.160612
Si Si4 0.403071 0.534432 0.996200
Si Si5 0.717796 0.245341 0.185459
Si Si6 0.215115 0.054014 0.178762
Si Si7 0.815205 0.099872 0.164534
Si Si8 0.913318 0.675943 0.910366
O O1 0.108988 0.360685 0.581046
O O2 0.912207 0.412355 0.326514
O O3 0.883876 0.156884 0.307936
O O4 0.178968 0.773024 0.332345
O O5 0.676800 0.611991 0.105632
O O6 0.864023 0.966120 0.254045
O O7 0.023477 0.135483 0.208359
O O8 0.279359 0.268215 0.209066
O O9 0.279159 0.500077 0.199632
O O10 0.574922 0.873001 0.256572
O O11 0.314102 0.724086 0.966161
O O12 0.297616 0.582141 0.876199
O O13 0.365698 0.281274 0.158462
O O14 0.607912 0.857794 0.052610
O O15 0.038217 0.902470 0.008004
O O16 0.908524 0.423587 0.043883
#
# Coordination Sequence:
#
# PCOD8011165 Si02
#       8
#     2   2   2   2   2   2   2   2
#     4  11  22  38  57  87 118 149 184 231 291 339
#     4  11  25  37  56  86 120 151 184 235 285 331
#     4  10  16  32  57  89 108 144 195 233 271 332
#     4  10  21  38  61  86 109 146 197 237 278 324
#     4  10  18  33  60  83 114 145 186 236 283 336
#     4   9  19  31  58  85 113 147 186 233 277 343
#     4  11  20  42  63  79 110 155 199 230 269 336
#     4  10  19  35  57  86 110 145 197 234 274 326
#
# _framework density 19.891286000000001
#
# number of rings (size 3 to 8) (size 9 to 14) (size 15 to 20)
#    0.000    1.750    3.750    3.000    3.500    0.500 
#    0.000    3.750    0.000    0.000    0.000    0.000 
#    0.000    0.000    0.000    0.000    0.000    0.000 
#
# Total GULP energy -198362.948415 kJ/mol
# GULP energy per Si atom -12397.684276 kJ/mol
# Density = 1.984601 g / cm^3
# Si number density = 19.891286 Si / 1000 Ang^3
#
#
#
# Elastic Constant Matrix: (Units=GPa)
#
#
# Indices 1 2 3 4 5 6 
#
# 1 63.7973 18.2930 17.6113 -6.5557 2.6058 7.1775
# 2 18.2930 99.3111 23.3628 -16.1969 -0.5339 9.9516
# 3 17.6113 23.3628 75.5399 -18.6736 -0.2443 13.3200
# 4 -6.5557 -16.1969 -18.6736 20.2254 -1.2561 -3.4995
# 5 2.6058 -0.5339 -0.2443 -1.2561 16.6635 -5.8441
# 6 7.1775 9.9516 13.3200 -3.4995 -5.8441 21.4721
#
#
#
# Elastic Compliance Matrix: (Units=1/GPa)
#
#
# Indices 1 2 3 4 5 6 
#
# 1 0.017737 -0.002142 -0.002544 0.000643 -0.004391 -0.004449
# 2 -0.002142 0.012246 -0.000795 0.007850 0.000210 -0.003130
# 3 -0.002544 -0.000795 0.019241 0.014725 -0.001274 -0.008664
# 4 0.000643 0.007850 0.014725 0.069869 0.005607 -0.000075
# 5 -0.004391 0.000210 -0.001274 0.005607 0.068750 0.021787
# 6 -0.004449 -0.003130 -0.008664 -0.000075 0.021787 0.060802
#
#
# Mechanical properties :
#
#
# Convention : Reuss Voigt Hill
#
# Bulk Modulus (GPa) = 26.13485 39.68697 32.91091
# Shear Modulus (GPa) = 18.35818 23.63094 20.99456
#
# Velocity S-wave (km/s) = 3.04126 3.45048 3.25232
# Velocity P-wave (km/s) = 5.04973 5.98913 5.53938
#
# Compressibility (1/GPa) = 0.03826308
#
# Stress axis : x y z
#
# Youngs Moduli (GPa) = 56.37981 81.65964 51.97353
#
# Poissons Ratio (x) = 0.17489 0.13220
# Poissons Ratio (y) = 0.12075 0.04131
# Poissons Ratio (z) = 0.14341 0.06491
#
# Static dielectric constant tensor:
#      x y z
#    x 3.582330 0.134330 -0.060060 
#    y 0.134330 3.881330 -0.208150 
#    z -0.060060 -0.208150 3.148910 
# 
# 
# High freq. dielectric constant tensor:
#      x y z
#    x 1.771410 0.002930 -0.001060 
#    y 0.002930 1.792210 -0.019090 
#    z -0.001060 -0.019090 1.725810 
# 
# From -- ./inp_files/176301.got.cif
#   From: 2010.06.25/outbox.cif.g09.slc.cpg/sg2_89_cif.got.tgz:176301.got - 2010.06.27 13:26:56.
