data_PCOD8011282
_publ_section_title
;
Structure prediction by ZEFSAII (Michael W. Deem and Ramdas Pophale) SiO2 
 PCOD8011282
Probable space group: P -1
;
_chemical_formula_sum "Si O2"
_cell_formula_units_Z 16
_cell_length_a 6.918717
_cell_length_b 27.010598
_cell_length_c 21.366448
_cell_angle_alpha 10.857988
_cell_angle_beta 82.606391
_cell_angle_gamma 84.431157
_cell_volume 736.659443
_symmetry_space_group_name_H-M "P -1"
_symmetry_group_IT_number 2
_symmetry_cell_setting 'triclinic'
loop_
_space_group_symop_operation_xyz
x,y,z
-x,-y,-z
loop_
_atom_site_type_symbol
_atom_site_label
_atom_site_fract_x
_atom_site_fract_y
_atom_site_fract_z
Si Si1 0.867075 0.166084 0.467893
Si Si2 0.571416 0.285006 0.614349
Si Si3 0.590293 0.283601 0.227826
Si Si4 0.803723 0.056561 0.331554
Si Si5 0.188322 0.489606 0.329917
Si Si6 0.098879 0.848015 0.320015
Si Si7 0.950445 0.450075 0.927181
Si Si8 0.141279 0.277420 0.880391
O O1 0.715630 0.134638 0.456413
O O2 0.896387 0.465974 0.125749
O O3 0.089200 0.146651 0.459937
O O4 0.799843 0.931645 0.811138
O O5 0.387507 0.425767 0.429855
O O6 0.701317 0.254092 0.584878
O O7 0.693000 0.463381 0.441564
O O8 0.500000 0.000000 0.000000
O O9 0.406107 0.076247 0.466746
O O10 0.500000 0.500000 0.000000
O O11 0.722676 0.421509 0.994749
O O12 0.763867 0.310152 0.978408
O O13 0.959519 0.169083 0.241226
O O14 0.057219 0.210963 0.657436
O O15 0.070743 0.634288 0.207181
O O16 0.998932 0.692759 0.576552
O O17 0.141204 0.154832 0.961847
#
# Coordination Sequence:
#
# PCOD8011282 Si02
#       8
#     2   2   2   2   2   2   2   2
#     4  10  21  41  58  81 120 160 193 245 292 340
#     4  11  23  40  63  94 122 148 191 247 299 357
#     4  12  23  37  56  87 122 153 201 250 289 332
#     4  10  21  39  59  82 115 155 204 240 288 344
#     4   9  20  40  63  86 119 159 196 239 295 356
#     4   9  21  41  60  88 121 156 200 239 293 357
#     4  10  21  40  58  82 118 157 197 244 289 339
#     4   9  20  40  63  87 119 161 197 237 297 353
#
# _framework density 21.719671000000002
#
# number of rings (size 3 to 8) (size 9 to 14) (size 15 to 20)
#    0.000    2.000    1.250    2.250    0.000    4.000 
#   11.250    1.250    0.000    0.000    0.000    0.000 
#    0.000    0.000    0.000    0.000    0.000    0.000 
#
# Total GULP energy -198243.702568 kJ/mol
# GULP energy per Si atom -12390.231410 kJ/mol
# Density = 2.167024 g / cm^3
# Si number density = 21.719671 Si / 1000 Ang^3
#
#
#
# Elastic Constant Matrix: (Units=GPa)
#
#
# Indices 1 2 3 4 5 6 
#
# 1 100.3918 23.4981 42.4248 -9.3587 -6.8322 -7.1596
# 2 23.4981 65.4635 31.0883 -30.2078 -3.1461 2.4860
# 3 42.4248 31.0883 75.9315 -16.7910 -17.0359 2.1932
# 4 -9.3587 -30.2078 -16.7910 40.6842 7.3665 -8.0708
# 5 -6.8322 -3.1461 -17.0359 7.3665 36.6919 -8.4123
# 6 -7.1596 2.4860 2.1932 -8.0708 -8.4123 17.5323
#
#
#
# Elastic Compliance Matrix: (Units=1/GPa)
#
#
# Indices 1 2 3 4 5 6 
#
# 1 0.013957 -0.001765 -0.007039 0.000309 0.000804 0.007359
# 2 -0.001765 0.027527 -0.007300 0.018340 -0.004444 0.002599
# 3 -0.007039 -0.007300 0.022027 0.000491 0.008079 -0.000493
# 4 0.000309 0.018340 0.000491 0.042073 -0.003067 0.015360
# 5 0.000804 -0.004444 0.008079 -0.003067 0.034892 0.015278
# 6 0.007359 0.002599 -0.000493 0.015360 0.015278 0.074137
#
#
# Mechanical properties :
#
#
# Convention : Reuss Voigt Hill
#
# Bulk Modulus (GPa) = 31.94792 48.42325 40.18558
# Shear Modulus (GPa) = 19.43582 28.63337 24.03459
#
# Velocity S-wave (km/s) = 2.99465 3.63480 3.33014
# Velocity P-wave (km/s) = 5.16705 6.32129 5.77309
#
# Compressibility (1/GPa) = 0.03130094
#
# Stress axis : x y z
#
# Youngs Moduli (GPa) = 71.64742 36.32820 45.39868
#
# Poissons Ratio (x) = 0.06413 0.31957
# Poissons Ratio (y) = 0.12648 0.33143
# Poissons Ratio (z) = 0.50435 0.26521
#
# Static dielectric constant tensor:
#      x y z
#    x 4.274880 0.265260 -0.263290 
#    y 0.265260 4.386100 -0.164880 
#    z -0.263290 -0.164880 4.130430 
# 
# 
# High freq. dielectric constant tensor:
#      x y z
#    x 1.843690 -0.004160 -0.024930 
#    y -0.004160 1.852550 -0.022720 
#    z -0.024930 -0.022720 1.849380 
# 
# From -- ./inp_files/56466.got.cif
#   From: 2010.06.25/outbox.cif.g09.slc.cpg/sg2_29_cif.got.tgz:56466.got - 2010.06.27 13:26:56.
