data_PCOD8011479
_publ_section_title
;
Structure prediction by ZEFSAII (Michael W. Deem and Ramdas Pophale) SiO2 
 PCOD8011479
Probable space group: P -1
;
_chemical_formula_sum "Si O2"
_cell_formula_units_Z 16
_cell_length_a 13.414688
_cell_length_b 10.630252
_cell_length_c 18.386397
_cell_angle_alpha 146.562372
_cell_angle_beta 31.186946
_cell_angle_gamma 149.317576
_cell_volume 642.601924
_symmetry_space_group_name_H-M "P -1"
_symmetry_group_IT_number 2
_symmetry_cell_setting 'triclinic'
loop_
_space_group_symop_operation_xyz
x,y,z
-x,-y,-z
loop_
_atom_site_type_symbol
_atom_site_label
_atom_site_fract_x
_atom_site_fract_y
_atom_site_fract_z
Si Si1 0.937950 0.743625 0.961733
Si Si2 0.819809 0.863545 0.237672
Si Si3 0.790304 0.113276 0.919593
Si Si4 0.570805 0.638118 0.733250
Si Si5 0.799071 0.427467 0.196896
Si Si6 0.065057 0.668935 0.325387
Si Si7 0.158504 0.612713 0.523010
Si Si8 0.683473 0.732653 0.551677
O O1 0.817008 0.471555 0.857938
O O2 0.161402 0.763729 0.866967
O O3 0.778196 0.733535 0.120710
O O4 0.000000 0.000000 0.000000
O O5 0.677278 0.603578 0.252862
O O6 0.075450 0.994974 0.169082
O O7 0.734124 0.069812 0.391657
O O8 0.962473 0.313726 0.847129
O O9 0.581804 0.861911 0.888702
O O10 0.694705 0.251980 0.101013
O O11 0.654355 0.465058 0.641312
O O12 0.723557 0.778793 0.636020
O O13 0.595200 0.470165 0.380923
O O14 0.971622 0.502546 0.376330
O O15 0.867086 0.641203 0.378544
O O16 0.239744 0.975375 0.386673
O O17 0.000000 0.500000 0.500000
#
# Coordination Sequence:
#
# PCOD8011479 Si02
#       8
#     2   2   2   2   2   2   2   2
#     4  11  23  43  64  91 139 180 216 275 330 408
#     4  11  22  41  65  99 133 174 227 267 336 402
#     4  10  21  39  62 100 134 168 222 276 333 385
#     4  11  22  38  69  96 130 179 221 279 333 392
#     4  10  22  40  63  96 136 173 221 278 328 400
#     4  10  23  43  66  98 133 177 228 270 336 399
#     4  11  22  42  66  92 136 176 220 282 329 399
#     4  10  22  42  66  99 131 174 228 277 330 391
#
# _framework density 24.898775000000001
#
# number of rings (size 3 to 8) (size 9 to 14) (size 15 to 20)
#    0.000    1.500    3.750    1.125    1.750    1.000 
#    2.250    0.625    0.000    0.000    0.000    0.000 
#    0.000    0.000    0.000    0.000    0.000    0.000 
#
# Total GULP energy -198272.801154 kJ/mol
# GULP energy per Si atom -12392.050072 kJ/mol
# Density = 2.484210 g / cm^3
# Si number density = 24.898775 Si / 1000 Ang^3
#
#
#
# Elastic Constant Matrix: (Units=GPa)
#
#
# Indices 1 2 3 4 5 6 
#
# 1 48.1833 3.1549 -17.6500 6.5262 -13.2455 -13.3087
# 2 3.1549 105.6862 16.0024 19.4825 -2.4287 -8.7811
# 3 -17.6500 16.0024 126.9289 12.2360 -12.9498 -21.3690
# 4 6.5262 19.4825 12.2360 40.1494 -5.3375 -5.5161
# 5 -13.2455 -2.4287 -12.9498 -5.3375 26.8471 1.9980
# 6 -13.3087 -8.7811 -21.3690 -5.5161 1.9980 38.6980
#
#
#
# Elastic Compliance Matrix: (Units=1/GPa)
#
#
# Indices 1 2 3 4 5 6 
#
# 1 0.034787 -0.000061 0.009922 -0.003811 0.020006 0.015853
# 2 -0.000061 0.010550 -0.000702 -0.004774 -0.000463 0.001329
# 3 0.009922 -0.000702 0.012081 -0.002443 0.009497 0.009086
# 4 -0.003811 -0.004774 -0.002443 0.028922 0.002240 0.000264
# 5 0.020006 -0.000463 0.009497 0.002240 0.051382 0.009686
# 6 0.015853 0.001329 0.009086 0.000264 0.009686 0.036149
#
#
# Mechanical properties :
#
#
# Convention : Reuss Voigt Hill
#
# Bulk Modulus (GPa) = 13.20372 31.53478 22.36925
# Shear Modulus (GPa) = 27.65521 39.75831 33.70676
#
# Velocity S-wave (km/s) = 3.33634 4.00033 3.68333
# Velocity P-wave (km/s) = 4.48955 5.83348 5.20507
#
# Compressibility (1/GPa) = 0.07573624
#
# Stress axis : x y z
#
# Youngs Moduli (GPa) = 28.74617 94.78700 82.77658
#
# Poissons Ratio (x) = 0.00582 -0.82134
# Poissons Ratio (y) = 0.00176 0.05810
# Poissons Ratio (z) = -0.28523 0.06653
#
# Static dielectric constant tensor:
#      x y z
#    x 4.178250 0.465620 -0.422190 
#    y 0.465620 3.657190 0.584360 
#    z -0.422190 0.584360 4.710260 
# 
# 
# High freq. dielectric constant tensor:
#      x y z
#    x 2.013440 -0.007830 0.002520 
#    y -0.007830 1.967380 0.015350 
#    z 0.002520 0.015350 2.021460 
# 
# From -- ./inp_files/598034.got.cif
#   From: 2010.06.25/outbox.cif.g09.slc.cpg/sg2_300_cif.got.tgz:598034.got - 2010.06.27 13:26:56.
