data_PCOD8011681
_publ_section_title
;
Structure prediction by ZEFSAII (Michael W. Deem and Ramdas Pophale) SiO2 
 PCOD8011681
Probable space group: P -1
;
_chemical_formula_sum "Si O2"
_cell_formula_units_Z 16
_cell_length_a 8.127595
_cell_length_b 7.850975
_cell_length_c 16.270378
_cell_angle_alpha 59.142889
_cell_angle_beta 92.264132
_cell_angle_gamma 58.599521
_cell_volume 690.856218
_symmetry_space_group_name_H-M "P -1"
_symmetry_group_IT_number 2
_symmetry_cell_setting 'triclinic'
loop_
_space_group_symop_operation_xyz
x,y,z
-x,-y,-z
loop_
_atom_site_type_symbol
_atom_site_label
_atom_site_fract_x
_atom_site_fract_y
_atom_site_fract_z
Si Si1 0.977604 0.310853 0.886046
Si Si2 0.057114 0.273177 0.500211
Si Si3 0.347561 0.732647 0.708793
Si Si4 0.564438 0.614498 0.907396
Si Si5 0.219809 0.770802 0.230287
Si Si6 0.964134 0.718817 0.687761
Si Si7 0.735187 0.259896 0.578423
Si Si8 0.789414 0.792259 0.936124
O O1 0.787591 0.393154 0.923172
O O2 0.976314 0.157623 0.847822
O O3 0.950328 0.552934 0.792776
O O4 0.197743 0.137387 0.985992
O O5 0.058198 0.348023 0.388300
O O6 0.000000 0.500000 0.500000
O O7 0.870595 0.254531 0.509918
O O8 0.273575 0.992549 0.598271
O O9 0.383365 0.762084 0.797683
O O10 0.562125 0.493049 0.730600
O O11 0.175692 0.687766 0.712727
O O12 0.585561 0.809727 0.907976
O O13 0.500000 0.500000 0.000000
O O14 0.180880 0.732927 0.332498
O O15 0.225669 0.004833 0.172650
O O16 0.756623 0.007804 0.631439
O O17 0.500000 0.500000 0.500000
O O18 0.000000 0.500000 0.000000
#
# Coordination Sequence:
#
# PCOD8011681 Si02
#       8
#     2   2   2   2   2   2   2   2
#     4  10  22  39  62  90 122 164 211 259 312 374
#     4  11  24  41  63  93 128 170 209 258 317 372
#     4  10  23  42  62  94 131 167 213 261 312 378
#     4  10  21  39  63  92 123 163 210 261 314 372
#     4  11  22  40  64  95 127 168 213 260 314 375
#     4  11  22  43  65  91 129 169 209 261 315 375
#     4  11  22  38  64  94 125 167 212 260 313 372
#     4  10  21  40  63  91 124 164 207 258 314 370
#
# _framework density 23.159666000000001
#
# number of rings (size 3 to 8) (size 9 to 14) (size 15 to 20)
#    0.000    1.500    0.000    6.375    0.000    7.000 
#    0.000   15.000    0.000    0.000    0.000    0.000 
#    0.000    0.000    0.000    0.000    0.000    0.000 
#
# Total GULP energy -198347.553929 kJ/mol
# GULP energy per Si atom -12396.722121 kJ/mol
# Density = 2.310695 g / cm^3
# Si number density = 23.159666 Si / 1000 Ang^3
#
#
#
# Elastic Constant Matrix: (Units=GPa)
#
#
# Indices 1 2 3 4 5 6 
#
# 1 71.6674 22.1946 28.7149 11.5936 1.2498 24.7992
# 2 22.1946 90.9618 27.2360 8.5376 9.4201 13.5336
# 3 28.7149 27.2360 102.0360 17.8176 4.8978 2.0661
# 4 11.5936 8.5376 17.8176 50.4642 8.9705 2.8206
# 5 1.2498 9.4201 4.8978 8.9705 42.1459 6.5398
# 6 24.7992 13.5336 2.0661 2.8206 6.5398 38.9554
#
#
#
# Elastic Compliance Matrix: (Units=1/GPa)
#
#
# Indices 1 2 3 4 5 6 
#
# 1 0.021386 -0.001860 -0.004937 -0.002651 0.002938 -0.013008
# 2 -0.001860 0.012914 -0.002721 -0.000281 -0.002021 -0.002798
# 3 -0.004937 -0.002721 0.012372 -0.002867 -0.000655 0.003749
# 4 -0.002651 -0.000281 -0.002867 0.022210 -0.004419 0.001071
# 5 0.002938 -0.002021 -0.000655 -0.004419 0.025909 -0.005163
# 6 -0.013008 -0.002798 0.003749 0.001071 -0.005163 0.035514
#
#
# Mechanical properties :
#
#
# Convention : Reuss Voigt Hill
#
# Bulk Modulus (GPa) = 36.18336 46.77289 41.47813
# Shear Modulus (GPa) = 31.53503 38.74775 35.14139
#
# Velocity S-wave (km/s) = 3.69404 4.09476 3.89955
# Velocity P-wave (km/s) = 5.81824 6.52654 6.18254
#
# Compressibility (1/GPa) = 0.02763701
#
# Stress axis : x y z
#
# Youngs Moduli (GPa) = 46.75955 77.43388 80.82670
#
# Poissons Ratio (x) = 0.14404 0.39901
# Poissons Ratio (y) = 0.08698 0.21992
# Poissons Ratio (z) = 0.23084 0.21069
#
# Static dielectric constant tensor:
#      x y z
#    x 4.305630 0.445040 0.229290 
#    y 0.445040 4.031250 0.426360 
#    z 0.229290 0.426360 4.542280 
# 
# 
# High freq. dielectric constant tensor:
#      x y z
#    x 1.905010 0.021720 0.000950 
#    y 0.021720 1.915350 0.013470 
#    z 0.000950 0.013470 1.932750 
# 
# From -- ./inp_files/555938.got.cif
#   From: 2010.06.25/outbox.cif.g09.slc.cpg/sg2_278_cif.got.tgz:555938.got - 2010.06.27 13:26:56.
