data_PCOD8011236
_publ_section_title
;
Structure prediction by ZEFSAII (Michael W. Deem and Ramdas Pophale) SiO2 
 PCOD8011236
Probable space group: P -1
;
_chemical_formula_sum "Si O2"
_cell_formula_units_Z 16
_cell_length_a 10.161692
_cell_length_b 19.033188
_cell_length_c 6.956411
_cell_angle_alpha 114.275331
_cell_angle_beta 44.664523
_cell_angle_gamma 121.979645
_cell_volume 800.905429
_symmetry_space_group_name_H-M "P -1"
_symmetry_group_IT_number 2
_symmetry_cell_setting 'triclinic'
loop_
_space_group_symop_operation_xyz
x,y,z
-x,-y,-z
loop_
_atom_site_type_symbol
_atom_site_label
_atom_site_fract_x
_atom_site_fract_y
_atom_site_fract_z
Si Si1 0.646222 0.471253 0.938624
Si Si2 0.491937 0.835150 0.583781
Si Si3 0.605902 0.637459 0.584574
Si Si4 0.040335 0.812750 0.006884
Si Si5 0.857587 0.905720 0.024561
Si Si6 0.249688 0.174199 0.358649
Si Si7 0.357828 0.647107 0.508927
Si Si8 0.937796 0.629429 0.999517
O O1 0.707115 0.406270 0.677448
O O2 0.500000 0.500000 0.000000
O O3 0.535425 0.428363 0.198065
O O4 0.843157 0.550093 0.872147
O O5 0.648450 0.894758 0.336156
O O6 0.587881 0.850524 0.715563
O O7 0.464171 0.742383 0.443106
O O8 0.283298 0.850738 0.815317
O O9 0.645775 0.730780 0.715839
O O10 0.506735 0.619520 0.454464
O O11 0.815250 0.622772 0.318749
O O12 0.969135 0.848341 0.933603
O O13 0.947452 0.837917 0.321889
O O14 0.954045 0.713012 0.961588
O O15 0.816432 0.885661 0.820882
O O16 0.000000 0.000000 0.000000
O O17 0.161150 0.635536 0.829732
#
# Coordination Sequence:
#
# PCOD8011236 Si02
#       8
#     2   2   2   2   2   2   2   2
#     4  12  23  34  56  83 118 153 191 235 288 327
#     4   9  20  40  61  83 117 153 193 238 282 339
#     4  10  21  39  56  80 109 151 192 238 280 333
#     4   9  21  40  60  84 116 153 194 238 283 339
#     4  11  23  38  61  92 119 147 185 233 290 352
#     4   9  20  38  62  81 113 152 193 232 288 342
#     4  10  21  40  57  80 113 152 195 237 281 328
#     4  10  21  39  57  81 113 151 195 240 280 330
#
# _framework density 19.977388999999999
#
# number of rings (size 3 to 8) (size 9 to 14) (size 15 to 20)
#    0.000    2.000    1.250    2.250    1.750    4.000 
#    2.250    3.750    0.000    0.000    0.000    0.000 
#    0.000    0.000    0.000    0.000    0.000    0.000 
#
# Total GULP energy -198413.939483 kJ/mol
# GULP energy per Si atom -12400.871218 kJ/mol
# Density = 1.993192 g / cm^3
# Si number density = 19.977389 Si / 1000 Ang^3
#
#
#
# Elastic Constant Matrix: (Units=GPa)
#
#
# Indices 1 2 3 4 5 6 
#
# 1 77.8092 30.2965 46.7929 -2.0417 -4.5366 14.1828
# 2 30.2965 105.7041 45.6795 -7.1308 11.4262 23.5801
# 3 46.7929 45.6795 95.8799 -15.6196 -4.1721 12.3493
# 4 -2.0417 -7.1308 -15.6196 28.8100 12.5674 3.0977
# 5 -4.5366 11.4262 -4.1721 12.5674 35.6680 4.1217
# 6 14.1828 23.5801 12.3493 3.0977 4.1217 28.4305
#
#
#
# Elastic Compliance Matrix: (Units=1/GPa)
#
#
# Indices 1 2 3 4 5 6 
#
# 1 0.019858 -0.001571 -0.008996 -0.005257 0.004379 -0.004758
# 2 -0.001571 0.014973 -0.004675 0.004733 -0.006144 -0.009229
# 3 -0.008996 -0.004675 0.018474 0.008454 -0.000404 -0.000522
# 4 -0.005257 0.004733 0.008454 0.048512 -0.017395 -0.007739
# 5 0.004379 -0.006144 -0.000404 -0.017395 0.036682 -0.000336
# 6 -0.004758 -0.009229 -0.000522 -0.007739 -0.000336 0.046321
#
#
# Mechanical properties :
#
#
# Convention : Reuss Voigt Hill
#
# Bulk Modulus (GPa) = 43.81649 58.32566 51.07107
# Shear Modulus (GPa) = 22.43047 29.02332 25.72690
#
# Velocity S-wave (km/s) = 3.35445 3.81571 3.59249
# Velocity P-wave (km/s) = 6.08142 6.97654 6.54430
#
# Compressibility (1/GPa) = 0.02282246
#
# Stress axis : x y z
#
# Youngs Moduli (GPa) = 50.35650 66.78720 54.12938
#
# Poissons Ratio (x) = 0.10489 0.48697
# Poissons Ratio (y) = 0.07909 0.25303
# Poissons Ratio (z) = 0.45303 0.31220
#
# Static dielectric constant tensor:
#      x y z
#    x 3.651790 0.100820 -0.146930 
#    y 0.100820 3.580190 -0.048670 
#    z -0.146930 -0.048670 3.629190 
# 
# 
# High freq. dielectric constant tensor:
#      x y z
#    x 1.769890 0.007140 -0.012330 
#    y 0.007140 1.779120 -0.008490 
#    z -0.012330 -0.008490 1.778350 
# 
# From -- ./inp_files/52375.got.cif
#   From: 2010.06.25/outbox.cif.g09.slc.cpg/sg2_27_cif.got.tgz:52375.got - 2010.06.27 13:26:56.
