data_PCOD8011189
_publ_section_title
;
Structure prediction by ZEFSAII (Michael W. Deem and Ramdas Pophale) SiO2 
 PCOD8011189
Probable space group: P -1
;
_chemical_formula_sum "Si O2"
_cell_formula_units_Z 14
_cell_length_a 13.086777
_cell_length_b 8.845750
_cell_length_c 12.173526
_cell_angle_alpha 119.970229
_cell_angle_beta 37.307353
_cell_angle_gamma 131.073660
_cell_volume 643.075350
_symmetry_space_group_name_H-M "P -1"
_symmetry_group_IT_number 2
_symmetry_cell_setting 'triclinic'
loop_
_space_group_symop_operation_xyz
x,y,z
-x,-y,-z
loop_
_atom_site_type_symbol
_atom_site_label
_atom_site_fract_x
_atom_site_fract_y
_atom_site_fract_z
Si Si1 0.155161 0.956380 0.267218
Si Si2 0.666507 0.110187 0.117778
Si Si3 0.972632 0.404411 0.341917
Si Si4 0.771279 0.657835 0.569131
Si Si5 0.246240 0.803657 0.348113
Si Si6 0.598633 0.480907 0.299762
Si Si7 0.008229 0.197177 0.019647
O O1 0.223170 0.944909 0.329620
O O2 0.927192 0.791427 0.389029
O O3 0.194794 0.184421 0.303145
O O4 0.274442 0.904057 0.061453
O O5 0.643011 0.303082 0.217317
O O6 0.822765 0.125710 0.076139
O O7 0.466452 0.907443 0.239844
O O8 0.817305 0.484544 0.503125
O O9 0.889127 0.227747 0.440362
O O10 0.180867 0.587187 0.268778
O O11 0.998783 0.330579 0.174989
O O12 0.549838 0.559445 0.686399
O O13 0.500000 0.500000 0.500000
O O14 0.798383 0.680231 0.172821
O O15 0.000000 0.000000 0.000000
#
# Coordination Sequence:
#
# PCOD8011189 Si02
#       7
#     2   2   2   2   2   2   2
#     4  10  21  41  69 106 135 171 228 283 345 403
#     4  12  25  44  73 101 140 180 231 290 342 407
#     4  10  24  46  67  99 145 177 227 278 356 403
#     4  10  21  38  69  98 133 174 218 283 336 410
#     4  10  22  41  74  99 133 184 220 289 338 410
#     4  12  25  43  70 101 136 186 235 276 342 409
#     4  12  30  47  68  99 145 186 231 286 342 415
#
# _framework density 21.770389999999999
#
# number of rings (size 3 to 8) (size 9 to 14) (size 15 to 20)
#    0.000    1.143    1.429    4.286    6.000    5.143 
#    0.000    1.429    0.000    0.000    0.000    0.000 
#    0.000    0.000    0.000    0.000    0.000    0.000 
#
# Total GULP energy -173562.923148 kJ/mol
# GULP energy per Si atom -12397.351653 kJ/mol
# Density = 2.172084 g / cm^3
# Si number density = 21.770390 Si / 1000 Ang^3
#
#
#
# Elastic Constant Matrix: (Units=GPa)
#
#
# Indices 1 2 3 4 5 6 
#
# 1 112.4853 64.1878 50.0102 -12.7738 -14.2098 5.2330
# 2 64.1878 124.5712 69.0161 -10.7816 -14.4833 2.5017
# 3 50.0102 69.0161 136.7853 0.5820 3.7161 -3.5986
# 4 -12.7738 -10.7816 0.5820 44.6617 6.8014 -19.0658
# 5 -14.2098 -14.4833 3.7161 6.8014 43.0059 -7.1866
# 6 5.2330 2.5017 -3.5986 -19.0658 -7.1866 32.4407
#
#
#
# Elastic Compliance Matrix: (Units=1/GPa)
#
#
# Indices 1 2 3 4 5 6 
#
# 1 0.013461 -0.005097 -0.002434 0.002174 0.002564 -0.000202
# 2 -0.005097 0.014169 -0.005359 0.001957 0.003415 0.001042
# 3 -0.002434 -0.005359 0.011011 -0.001442 -0.003256 0.000459
# 4 0.002174 0.001957 -0.001442 0.031036 -0.000487 0.017471
# 5 0.002564 0.003415 -0.003256 -0.000487 0.026363 0.004516
# 6 -0.000202 0.001042 0.000459 0.017471 0.004516 0.042097
#
#
# Mechanical properties :
#
#
# Convention : Reuss Voigt Hill
#
# Bulk Modulus (GPa) = 77.75727 82.25222 80.00475
# Shear Modulus (GPa) = 29.72595 36.73017 33.22806
#
# Velocity S-wave (km/s) = 3.69918 4.11196 3.91102
# Velocity P-wave (km/s) = 7.35118 7.77226 7.56465
#
# Compressibility (1/GPa) = 0.01286053
#
# Stress axis : x y z
#
# Youngs Moduli (GPa) = 74.28862 70.57894 90.81755
#
# Poissons Ratio (x) = 0.35976 0.22103
# Poissons Ratio (y) = 0.37867 0.48668
# Poissons Ratio (z) = 0.18081 0.37823
#
# Static dielectric constant tensor:
#      x y z
#    x 3.989690 0.144640 -0.079170 
#    y 0.144640 4.066030 -0.101220 
#    z -0.079170 -0.101220 4.063670 
# 
# 
# High freq. dielectric constant tensor:
#      x y z
#    x 1.853240 0.006410 -0.007810 
#    y 0.006410 1.864430 -0.001920 
#    z -0.007810 -0.001920 1.857050 
# 
# From -- ./inp_files/419638.got.cif
#   From: 2010.06.25/outbox.cif.g09.slc.cpg/sg2_210_cif.got.tgz:419638.got - 2010.06.27 13:26:56.
