data_PCOD8011005
_publ_section_title
;
Structure prediction by ZEFSAII (Michael W. Deem and Ramdas Pophale) SiO2 
 PCOD8011005
Probable space group: P -1
;
_chemical_formula_sum "Si O2"
_cell_formula_units_Z 14
_cell_length_a 11.313606
_cell_length_b 13.834592
_cell_length_c 12.464474
_cell_angle_alpha 48.565842
_cell_angle_beta 36.728245
_cell_angle_gamma 31.925310
_cell_volume 615.908518
_symmetry_space_group_name_H-M "P -1"
_symmetry_group_IT_number 2
_symmetry_cell_setting 'triclinic'
loop_
_space_group_symop_operation_xyz
x,y,z
-x,-y,-z
loop_
_atom_site_type_symbol
_atom_site_label
_atom_site_fract_x
_atom_site_fract_y
_atom_site_fract_z
Si Si1 0.245601 0.356249 0.040451
Si Si2 0.319843 0.972253 0.878244
Si Si3 0.857629 0.998529 0.230230
Si Si4 0.551222 0.305975 0.378753
Si Si5 0.134853 0.328852 0.761451
Si Si6 0.276388 0.551475 0.712298
Si Si7 0.748692 0.414854 0.799763
O O1 0.486815 0.199671 0.059113
O O2 0.082897 0.547991 0.075665
O O3 0.038887 0.330210 0.188723
O O4 0.369973 0.370227 0.833085
O O5 0.386012 0.926444 0.735543
O O6 0.322762 0.117490 0.808432
O O7 0.997580 0.071535 0.043212
O O8 0.104132 0.777909 0.221299
O O9 0.713435 0.099562 0.374814
O O10 0.335080 0.360949 0.587753
O O11 0.751632 0.322031 0.271649
O O12 0.373582 0.442155 0.309639
O O13 0.986983 0.381285 0.715388
O O14 0.500000 0.500000 0.500000
O O15 0.500000 0.500000 0.000000
#
# Coordination Sequence:
#
# PCOD8011005 Si02
#       7
#     2   2   2   2   2   2   2
#     4  11  23  45  74  90 131 175 220 278 328 382
#     4  10  21  40  64  98 127 171 211 261 336 398
#     4  10  21  38  65  96 136 164 215 268 321 403
#     4  12  23  40  63  95 135 172 219 274 329 388
#     4  11  23  39  65  98 135 166 214 272 332 401
#     4  11  24  46  69  96 126 176 231 276 323 385
#     4  11  22  39  67  98 129 177 216 263 337 399
#
# _framework density 22.730649
#
# number of rings (size 3 to 8) (size 9 to 14) (size 15 to 20)
#    0.000    1.143    1.429    7.286    0.000    3.429 
#    2.571    8.571    0.000    0.000    0.000    0.000 
#    0.000    0.000    0.000    0.000    0.000    0.000 
#
# Total GULP energy -173494.156274 kJ/mol
# GULP energy per Si atom -12392.439734 kJ/mol
# Density = 2.267891 g / cm^3
# Si number density = 22.730649 Si / 1000 Ang^3
#
#
#
# Elastic Constant Matrix: (Units=GPa)
#
#
# Indices 1 2 3 4 5 6 
#
# 1 106.6962 44.7737 19.0844 -4.7817 -14.0452 1.5667
# 2 44.7737 116.5691 40.9762 -0.3771 6.7583 3.6207
# 3 19.0844 40.9762 114.9624 -8.9334 -5.8234 -0.7709
# 4 -4.7817 -0.3771 -8.9334 16.0502 6.4225 -3.6479
# 5 -14.0452 6.7583 -5.8234 6.4225 32.8207 -1.9972
# 6 1.5667 3.6207 -0.7709 -3.6479 -1.9972 27.0201
#
#
#
# Elastic Compliance Matrix: (Units=1/GPa)
#
#
# Indices 1 2 3 4 5 6 
#
# 1 0.012384 -0.005209 0.000224 0.001360 0.006184 0.000627
# 2 -0.005209 0.012332 -0.003953 -0.001844 -0.005237 -0.002099
# 3 0.000224 -0.003953 0.010604 0.005538 0.001811 0.001701
# 4 0.001360 -0.001844 0.005538 0.072528 -0.011685 0.009254
# 5 0.006184 -0.005237 0.001811 -0.011685 0.036895 0.001544
# 6 0.000627 -0.002099 0.001701 0.009254 0.001544 0.038666
#
#
# Mechanical properties :
#
#
# Convention : Reuss Voigt Hill
#
# Bulk Modulus (GPa) = 57.32983 60.87737 59.10360
# Shear Modulus (GPa) = 24.14289 30.73776 27.44033
#
# Velocity S-wave (km/s) = 3.26257 3.68130 3.47824
# Velocity P-wave (km/s) = 6.28240 6.70145 6.49531
#
# Compressibility (1/GPa) = 0.01744293
#
# Stress axis : x y z
#
# Youngs Moduli (GPa) = 80.74936 81.09055 94.30484
#
# Poissons Ratio (x) = 0.42240 -0.02112
# Poissons Ratio (y) = 0.42062 0.37283
# Poissons Ratio (z) = -0.01808 0.32058
#
# Static dielectric constant tensor:
#      x y z
#    x 4.359550 0.177630 0.034400 
#    y 0.177630 3.833890 0.006180 
#    z 0.034400 0.006180 4.134220 
# 
# 
# High freq. dielectric constant tensor:
#      x y z
#    x 1.907860 0.014120 -0.005660 
#    y 0.014120 1.876010 -0.006340 
#    z -0.005660 -0.006340 1.895010 
# 
# From -- ./inp_files/427431.got.cif
#   From: 2010.06.25/outbox.cif.g09.slc.cpg/sg2_214_cif.got.tgz:427431.got - 2010.06.27 13:26:56.
