data_PCOD8011692
_publ_section_title
;
Structure prediction by ZEFSAII (Michael W. Deem and Ramdas Pophale) SiO2 
 PCOD8011692
Probable space group: P -1
;
_chemical_formula_sum "Si O2"
_cell_formula_units_Z 14
_cell_length_a 12.381005
_cell_length_b 9.168117
_cell_length_c 8.555629
_cell_angle_alpha 129.096550
_cell_angle_beta 76.746441
_cell_angle_gamma 118.106491
_cell_volume 661.544217
_symmetry_space_group_name_H-M "P -1"
_symmetry_group_IT_number 2
_symmetry_cell_setting 'triclinic'
loop_
_space_group_symop_operation_xyz
x,y,z
-x,-y,-z
loop_
_atom_site_type_symbol
_atom_site_label
_atom_site_fract_x
_atom_site_fract_y
_atom_site_fract_z
Si Si1 0.149699 0.769271 0.080463
Si Si2 0.579425 0.829820 0.224184
Si Si3 0.638821 0.536076 0.493453
Si Si4 0.883126 0.659198 0.078446
Si Si5 0.338732 0.487773 0.172029
Si Si6 0.771404 0.902874 0.473843
Si Si7 0.372518 0.880827 0.876000
O O1 0.024211 0.759756 0.039985
O O2 0.162837 0.866661 0.317239
O O3 0.140553 0.537223 0.935887
O O4 0.263486 0.908152 0.023699
O O5 0.434866 0.722627 0.247571
O O6 0.658433 0.888461 0.395346
O O7 0.613857 0.037175 0.250990
O O8 0.603755 0.668312 0.999750
O O9 0.500000 0.500000 0.500000
O O10 0.681828 0.529668 0.649647
O O11 0.724780 0.754751 0.538236
O O12 0.658393 0.360617 0.272165
O O13 0.862769 0.839640 0.299876
O O14 0.793140 0.576484 0.905086
O O15 0.500000 0.000000 0.000000
#
# Coordination Sequence:
#
# PCOD8011692 Si02
#       7
#     2   2   2   2   2   2   2
#     4  11  23  43  67  92 133 169 220 257 325 373
#     4  10  22  38  65  95 127 162 212 263 325 381
#     4  12  23  40  63  96 132 166 210 265 329 378
#     4  10  23  43  65  96 127 176 213 267 307 391
#     4  10  21  39  63  92 131 165 211 263 322 376
#     4  11  22  42  67  97 129 169 213 265 322 376
#     4  12  25  40  63  98 130 167 215 269 321 384
#
# _framework density 21.162604999999999
#
# number of rings (size 3 to 8) (size 9 to 14) (size 15 to 20)
#    0.000    1.143    2.857    3.857    4.000    0.571 
#    0.000    8.571    0.000    0.000    0.000    0.000 
#    0.000    0.000    0.000    0.000    0.000    0.000 
#
# Total GULP energy -173635.660802 kJ/mol
# GULP energy per Si atom -12402.547200 kJ/mol
# Density = 2.111444 g / cm^3
# Si number density = 21.162605 Si / 1000 Ang^3
#
#
#
# Elastic Constant Matrix: (Units=GPa)
#
#
# Indices 1 2 3 4 5 6 
#
# 1 151.4744 41.1770 56.0633 -17.8608 6.8327 23.8608
# 2 41.1770 82.5988 18.9122 -14.1085 0.2091 6.2930
# 3 56.0633 18.9122 93.1348 -5.0703 9.2517 2.5485
# 4 -17.8608 -14.1085 -5.0703 33.9035 -3.7542 -2.5396
# 5 6.8327 0.2091 9.2517 -3.7542 26.2867 1.9001
# 6 23.8608 6.2930 2.5485 -2.5396 1.9001 31.2060
#
#
#
# Elastic Compliance Matrix: (Units=1/GPa)
#
#
# Indices 1 2 3 4 5 6 
#
# 1 0.011024 -0.003126 -0.005647 0.003143 0.000108 -0.007088
# 2 -0.003126 0.014676 -0.001018 0.004481 0.001710 -0.000226
# 3 -0.005647 -0.001018 0.014579 -0.001413 -0.004108 0.003467
# 4 0.003143 0.004481 -0.001413 0.033240 0.004447 -0.000757
# 5 0.000108 0.001710 -0.004108 0.004447 0.040239 -0.002180
# 6 -0.007088 -0.000226 0.003467 -0.000757 -0.002180 0.037298
#
#
# Mechanical properties :
#
#
# Convention : Reuss Voigt Hill
#
# Bulk Modulus (GPa) = 48.31537 62.16814 55.24175
# Shear Modulus (GPa) = 28.16289 32.34961 30.25625
#
# Velocity S-wave (km/s) = 3.65195 3.91400 3.78524
# Velocity P-wave (km/s) = 6.37671 7.06159 6.72787
#
# Compressibility (1/GPa) = 0.02069735
#
# Stress axis : x y z
#
# Youngs Moduli (GPa) = 90.71217 68.13627 68.59048
#
# Poissons Ratio (x) = 0.21300 0.38732
# Poissons Ratio (y) = 0.28357 0.06985
# Poissons Ratio (z) = 0.51223 0.06938
#
# Static dielectric constant tensor:
#      x y z
#    x 3.856240 0.005950 -0.014650 
#    y 0.005950 3.815170 -0.041690 
#    z -0.014650 -0.041690 3.855730 
# 
# 
# High freq. dielectric constant tensor:
#      x y z
#    x 1.830050 -0.001410 -0.002070 
#    y -0.001410 1.818220 0.006660 
#    z -0.002070 0.006660 1.839710 
# 
# From -- ./inp_files/160099.got.cif
#   From: 2010.06.25/outbox.cif.g09.slc.cpg/sg2_81_cif.got.tgz:160099.got - 2010.06.27 13:26:56.
