data_PCOD8011874
_publ_section_title
;
Structure prediction by ZEFSAII (Michael W. Deem and Ramdas Pophale) SiO2 
 PCOD8011874
Probable space group: P -1
;
_chemical_formula_sum "Si O2"
_cell_formula_units_Z 14
_cell_length_a 17.643253
_cell_length_b 5.335878
_cell_length_c 8.160552
_cell_angle_alpha 64.164576
_cell_angle_beta 49.884240
_cell_angle_gamma 69.015590
_cell_volume 525.447130
_symmetry_space_group_name_H-M "P -1"
_symmetry_group_IT_number 2
_symmetry_cell_setting 'triclinic'
loop_
_space_group_symop_operation_xyz
x,y,z
-x,-y,-z
loop_
_atom_site_type_symbol
_atom_site_label
_atom_site_fract_x
_atom_site_fract_y
_atom_site_fract_z
Si Si1 0.940735 0.331445 0.365536
Si Si2 0.260633 0.047119 0.909020
Si Si3 0.125904 0.237805 0.318275
Si Si4 0.299337 0.461255 0.160370
Si Si5 0.588928 0.727734 0.604638
Si Si6 0.082839 0.146551 0.933554
Si Si7 0.521972 0.802595 0.176675
O O1 0.880013 0.620433 0.307520
O O2 0.007833 0.350996 0.432664
O O3 0.866373 0.092075 0.546929
O O4 0.031585 0.269876 0.132261
O O5 0.342729 0.208140 0.660372
O O6 0.183344 0.949742 0.904566
O O7 0.310549 0.785162 0.019176
O O8 0.193991 0.265862 0.055739
O O9 0.180573 0.410248 0.334374
O O10 0.348054 0.373978 0.292138
O O11 0.358191 0.286021 0.977618
O O12 0.530150 0.479997 0.690104
O O13 0.514883 0.015044 0.663613
O O14 0.000000 0.000000 0.000000
O O15 0.500000 0.000000 0.000000
#
# Coordination Sequence:
#
# PCOD8011874 Si02
#       7
#     2   2   2   2   2   2   2
#     4   9  21  41  64  93 138 184 223 288 348 412
#     4  11  27  40  65 108 131 181 238 289 346 422
#     4  10  23  42  65  99 138 180 236 286 351 418
#     4  11  25  43  71  98 138 180 234 292 348 426
#     4  11  27  47  74 104 143 188 232 294 355 421
#     4  10  21  39  64  95 135 176 233 281 346 418
#     4  10  24  48  75 103 141 188 235 287 362 420
#
# _framework density 26.643974
#
# number of rings (size 3 to 8) (size 9 to 14) (size 15 to 20)
#    0.000    1.714    0.000    2.571   12.000    1.143 
#    0.000    4.286    0.000    0.000    0.000    0.000 
#    0.000    0.000    0.000    0.000    0.000    0.000 
#
# Total GULP energy -173465.624740 kJ/mol
# GULP energy per Si atom -12390.401767 kJ/mol
# Density = 2.658333 g / cm^3
# Si number density = 26.643974 Si / 1000 Ang^3
#
#
#
# Elastic Constant Matrix: (Units=GPa)
#
#
# Indices 1 2 3 4 5 6 
#
# 1 99.8290 6.3309 8.3212 -21.9658 -22.8698 -1.8111
# 2 6.3309 64.6673 13.8850 -15.3231 9.8814 11.9736
# 3 8.3212 13.8850 134.7570 -21.5167 0.3885 3.5641
# 4 -21.9658 -15.3231 -21.5167 35.0050 5.2844 -3.5301
# 5 -22.8698 9.8814 0.3885 5.2844 37.7822 -5.9192
# 6 -1.8111 11.9736 3.5641 -3.5301 -5.9192 47.1860
#
#
#
# Elastic Compliance Matrix: (Units=1/GPa)
#
#
# Indices 1 2 3 4 5 6 
#
# 1 0.013495 -0.001346 0.000362 0.007148 0.007886 0.002356
# 2 -0.001346 0.019881 -0.000486 0.008219 -0.008013 -0.005450
# 3 0.000362 -0.000486 0.008278 0.005160 -0.000486 -0.000163
# 4 0.007148 0.008219 0.005160 0.040384 -0.003464 0.000386
# 5 0.007886 -0.008013 -0.000486 -0.003464 0.034842 0.006484
# 6 0.002356 -0.005450 -0.000163 0.000386 0.006484 0.023521
#
#
# Mechanical properties :
#
#
# Convention : Reuss Voigt Hill
#
# Bulk Modulus (GPa) = 25.83119 39.59192 32.71156
# Shear Modulus (GPa) = 32.00093 42.04238 37.02165
#
# Velocity S-wave (km/s) = 3.46939 3.97663 3.73164
# Velocity P-wave (km/s) = 5.07591 5.99805 5.55614
#
# Compressibility (1/GPa) = 0.03871289
#
# Stress axis : x y z
#
# Youngs Moduli (GPa) = 74.10409 50.29918 120.80165
#
# Poissons Ratio (x) = 0.06772 -0.04369
# Poissons Ratio (y) = 0.09977 0.05867
# Poissons Ratio (z) = -0.02680 0.02443
#
# Static dielectric constant tensor:
#      x y z
#    x 3.602180 -0.463180 -0.055120 
#    y -0.463180 5.156920 0.326770 
#    z -0.055120 0.326770 5.105270 
# 
# 
# High freq. dielectric constant tensor:
#      x y z
#    x 2.084640 -0.006200 0.000670 
#    y -0.006200 2.058740 0.008370 
#    z 0.000670 0.008370 2.091060 
# 
# From -- ./inp_files/52539.got.cif
#   From: 2010.06.25/outbox.cif.g09.slc.cpg/sg2_27_cif.got.tgz:52539.got - 2010.06.27 13:26:56.
