data_PCOD8011747
_publ_section_title
;
Structure prediction by ZEFSAII (Michael W. Deem and Ramdas Pophale) SiO2 
 PCOD8011747
Probable space group: P -1
;
_chemical_formula_sum "Si O2"
_cell_formula_units_Z 16
_cell_length_a 11.931826
_cell_length_b 9.866479
_cell_length_c 14.347105
_cell_angle_alpha 59.150268
_cell_angle_beta 116.856637
_cell_angle_gamma 65.056491
_cell_volume 675.012346
_symmetry_space_group_name_H-M "P -1"
_symmetry_group_IT_number 2
_symmetry_cell_setting 'triclinic'
loop_
_space_group_symop_operation_xyz
x,y,z
-x,-y,-z
loop_
_atom_site_type_symbol
_atom_site_label
_atom_site_fract_x
_atom_site_fract_y
_atom_site_fract_z
Si Si1 0.077046 0.097386 0.496648
Si Si2 0.250869 0.164431 0.093047
Si Si3 0.605007 0.780527 0.037533
Si Si4 0.674193 0.272249 0.729455
Si Si5 0.306394 0.813251 0.866815
Si Si6 0.629162 0.170518 0.476475
Si Si7 0.287866 0.283721 0.252216
Si Si8 0.947850 0.167599 0.111666
O O1 0.876037 0.437944 0.275951
O O2 0.145486 0.067963 0.637853
O O3 0.295493 0.880473 0.583189
O O4 0.000000 0.000000 0.500000
O O5 0.388618 0.140349 0.087620
O O6 0.956670 0.490635 0.860435
O O7 0.334958 0.102966 0.253130
O O8 0.343778 0.892711 0.191568
O O9 0.434326 0.813339 0.970282
O O10 0.500000 0.000000 0.000000
O O11 0.500000 0.500000 0.500000
O O12 0.596131 0.468712 0.716746
O O13 0.941861 0.017672 0.878917
O O14 0.149026 0.877816 0.853956
O O15 0.500000 0.500000 0.000000
O O16 0.530228 0.089624 0.474134
O O17 0.848197 0.962149 0.703457
O O18 0.249653 0.488677 0.106952
#
# Coordination Sequence:
#
# PCOD8011747 Si02
#       8
#     2   2   2   2   2   2   2   2
#     4  12  24  42  70 101 131 179 237 271 327 419
#     4  10  22  44  62  94 142 168 223 277 339 401
#     4  12  29  45  67 102 143 184 222 283 350 396
#     4   9  22  40  66  95 127 174 217 284 334 393
#     4  12  23  42  72 101 138 185 230 283 335 404
#     4  11  21  40  68  96 126 164 232 267 333 396
#     4  10  22  40  69  93 127 177 211 276 340 388
#     4  10  21  39  63  99 131 162 231 275 326 401
#
# _framework density 23.703268999999999
#
# number of rings (size 3 to 8) (size 9 to 14) (size 15 to 20)
#    0.000    1.250    2.500    3.000    1.750    4.500 
#    0.000   21.875    0.000    0.000    0.000    0.000 
#    0.000    0.000    0.000    0.000    0.000    0.000 
#
# Total GULP energy -198393.691545 kJ/mol
# GULP energy per Si atom -12399.605722 kJ/mol
# Density = 2.364932 g / cm^3
# Si number density = 23.703269 Si / 1000 Ang^3
#
#
#
# Elastic Constant Matrix: (Units=GPa)
#
#
# Indices 1 2 3 4 5 6 
#
# 1 189.1314 77.2249 37.8413 -2.4936 4.3334 3.3089
# 2 77.2249 142.2253 25.7964 -15.6464 9.6705 8.1501
# 3 37.8413 25.7964 74.7498 2.7033 11.1039 1.5324
# 4 -2.4936 -15.6464 2.7033 34.3443 4.7637 -2.3073
# 5 4.3334 9.6705 11.1039 4.7637 34.4254 4.4807
# 6 3.3089 8.1501 1.5324 -2.3073 4.4807 41.3682
#
#
#
# Elastic Compliance Matrix: (Units=1/GPa)
#
#
# Indices 1 2 3 4 5 6 
#
# 1 0.007254 -0.003678 -0.002525 -0.001096 0.001078 0.000060
# 2 -0.003678 0.010020 -0.001384 0.004666 -0.002407 -0.001108
# 3 -0.002525 -0.001384 0.015809 -0.001454 -0.004226 0.000266
# 4 -0.001096 0.004666 -0.001454 0.032128 -0.005357 0.001594
# 5 0.001078 -0.002407 -0.004226 -0.005357 0.032114 -0.003233
# 6 0.000060 -0.001108 0.000266 0.001594 -0.003233 0.024816
#
#
# Mechanical properties :
#
#
# Convention : Reuss Voigt Hill
#
# Bulk Modulus (GPa) = 55.84083 76.42574 66.13328
# Shear Modulus (GPa) = 34.89580 39.71052 37.30316
#
# Velocity S-wave (km/s) = 3.84108 4.09751 3.97136
# Velocity P-wave (km/s) = 6.57885 7.39586 6.99929
#
# Compressibility (1/GPa) = 0.01790804
#
# Stress axis : x y z
#
# Youngs Moduli (GPa) = 137.85247 99.80254 63.25628
#
# Poissons Ratio (x) = 0.36709 0.15971
# Poissons Ratio (y) = 0.50705 0.08757
# Poissons Ratio (z) = 0.34804 0.13816
#
# Static dielectric constant tensor:
#      x y z
#    x 6.748320 0.843980 -3.769740 
#    y 0.843980 5.061690 -1.558970 
#    z -3.769740 -1.558970 11.493970 
# 
# 
# High freq. dielectric constant tensor:
#      x y z
#    x 1.959570 0.009030 -0.009970 
#    y 0.009030 1.940090 0.000880 
#    z -0.009970 0.000880 1.958230 
# 
# From -- ./inp_files/515228.got.cif
#   From: 2010.06.25/outbox.cif.g09.slc.cpg/sg2_258_cif.got.tgz:515228.got - 2010.06.27 13:26:56.
