data_PCOD8011932
_publ_section_title
;
Structure prediction by ZEFSAII (Michael W. Deem and Ramdas Pophale) SiO2 
 PCOD8011932
Probable space group: P -1
;
_chemical_formula_sum "Si O2"
_cell_formula_units_Z 16
_cell_length_a 14.592981
_cell_length_b 11.679536
_cell_length_c 20.873565
_cell_angle_alpha 31.244073
_cell_angle_beta 152.821781
_cell_angle_gamma 130.184813
_cell_volume 736.285518
_symmetry_space_group_name_H-M "P -1"
_symmetry_group_IT_number 2
_symmetry_cell_setting 'triclinic'
loop_
_space_group_symop_operation_xyz
x,y,z
-x,-y,-z
loop_
_atom_site_type_symbol
_atom_site_label
_atom_site_fract_x
_atom_site_fract_y
_atom_site_fract_z
Si Si1 0.326297 0.272421 0.025202
Si Si2 0.137038 0.617154 0.448028
Si Si3 0.408875 0.585869 0.109369
Si Si4 0.139128 0.918817 0.191894
Si Si5 0.879454 0.856655 0.295586
Si Si6 0.330307 0.587485 0.769821
Si Si7 0.937831 0.566515 0.084936
Si Si8 0.465472 0.282483 0.550772
O O1 0.558769 0.282788 0.180138
O O2 0.398456 0.979315 0.199258
O O3 0.234540 0.429112 0.827154
O O4 0.142920 0.402010 0.906227
O O5 0.372528 0.616013 0.616924
O O6 0.072061 0.738451 0.278104
O O7 0.195900 0.326303 0.627178
O O8 0.923644 0.784655 0.282298
O O9 0.491610 0.601648 0.081485
O O10 0.214972 0.500376 0.025428
O O11 0.313348 0.856761 0.953445
O O12 0.412214 0.769805 0.417677
O O13 0.082730 0.168720 0.078036
O O14 0.000000 0.000000 0.000000
O O15 0.114443 0.818857 0.491243
O O16 0.201956 0.352282 0.346493
O O17 0.500000 0.500000 0.500000
#
# Coordination Sequence:
#
# PCOD8011932 Si02
#       8
#     2   2   2   2   2   2   2   2
#     4   9  20  35  55  86 126 160 196 247 301 357
#     4  10  24  41  63  91 121 163 203 249 311 364
#     4  10  21  41  61  91 123 158 210 253 301 366
#     4  11  24  43  63  88 126 160 202 256 305 363
#     4  10  21  39  65  90 123 159 202 254 307 359
#     4   9  19  35  58  88 120 160 200 244 303 360
#     4  10  22  39  61  87 126 163 204 252 305 363
#     4  11  22  36  57  86 118 159 202 243 301 359
#
# _framework density 21.730699999999999
#
# number of rings (size 3 to 8) (size 9 to 14) (size 15 to 20)
#    0.000    2.000    1.250    1.125    3.500    4.500 
#    0.000    5.000    0.000    0.000    0.000    0.000 
#    0.000    0.000    0.000    0.000    0.000    0.000 
#
# Total GULP energy -198357.886187 kJ/mol
# GULP energy per Si atom -12397.367887 kJ/mol
# Density = 2.168124 g / cm^3
# Si number density = 21.730700 Si / 1000 Ang^3
#
#
#
# Elastic Constant Matrix: (Units=GPa)
#
#
# Indices 1 2 3 4 5 6 
#
# 1 89.9397 24.2283 46.1000 -11.3837 -10.1952 15.7605
# 2 24.2283 82.7457 24.0507 -15.1252 -2.1956 6.9820
# 3 46.1000 24.0507 83.8055 -10.0207 6.0667 0.8440
# 4 -11.3837 -15.1252 -10.0207 38.3486 4.7965 5.2710
# 5 -10.1952 -2.1956 6.0667 4.7965 38.7198 -1.6586
# 6 15.7605 6.9820 0.8440 5.2710 -1.6586 33.4019
#
#
#
# Elastic Compliance Matrix: (Units=1/GPa)
#
#
# Indices 1 2 3 4 5 6 
#
# 1 0.019273 -0.001220 -0.010223 0.003041 0.005855 -0.008769
# 2 -0.001220 0.014460 -0.002863 0.005003 0.000192 -0.003154
# 3 -0.010223 -0.002863 0.018848 0.000854 -0.005719 0.004527
# 4 0.003041 0.005003 0.000854 0.030600 -0.003161 -0.007488
# 5 0.005855 0.000192 -0.005719 -0.003161 0.028635 -0.000737
# 6 -0.008769 -0.003154 0.004527 -0.007488 -0.000737 0.035766
#
#
# Mechanical properties :
#
#
# Convention : Reuss Voigt Hill
#
# Bulk Modulus (GPa) = 41.72086 49.47209 45.59648
# Shear Modulus (GPa) = 27.14667 32.90152 30.02409
#
# Velocity S-wave (km/s) = 3.53828 3.89531 3.72108
# Velocity P-wave (km/s) = 5.99444 6.56100 6.28411
#
# Compressibility (1/GPa) = 0.02396882
#
# Stress axis : x y z
#
# Youngs Moduli (GPa) = 51.88687 69.15499 53.05580
#
# Poissons Ratio (x) = 0.08440 0.54240
# Poissons Ratio (y) = 0.06332 0.15187
# Poissons Ratio (z) = 0.53045 0.19796
#
# Static dielectric constant tensor:
#      x y z
#    x 3.966950 0.261930 0.160920 
#    y 0.261930 4.083420 0.079990 
#    z 0.160920 0.079990 3.906180 
# 
# 
# High freq. dielectric constant tensor:
#      x y z
#    x 1.841090 0.017300 0.015070 
#    y 0.017300 1.866300 0.008770 
#    z 0.015070 0.008770 1.844000 
# 
# From -- ./inp_files/597799.got.cif
#   From: 2010.06.25/outbox.cif.g09.slc.cpg/sg2_299_cif.got.tgz:597799.got - 2010.06.27 13:26:56.
