data_PCOD8011881
_publ_section_title
;
Structure prediction by ZEFSAII (Michael W. Deem and Ramdas Pophale) SiO2 
 PCOD8011881
Probable space group: P -1
;
_chemical_formula_sum "Si O2"
_cell_formula_units_Z 16
_cell_length_a 11.236072
_cell_length_b 6.423612
_cell_length_c 10.787408
_cell_angle_alpha 73.121283
_cell_angle_beta 106.924803
_cell_angle_gamma 90.484795
_cell_volume 710.318554
_symmetry_space_group_name_H-M "P -1"
_symmetry_group_IT_number 2
_symmetry_cell_setting 'triclinic'
loop_
_space_group_symop_operation_xyz
x,y,z
-x,-y,-z
loop_
_atom_site_type_symbol
_atom_site_label
_atom_site_fract_x
_atom_site_fract_y
_atom_site_fract_z
Si Si1 0.662573 0.758920 0.933767
Si Si2 0.842024 0.196392 0.413592
Si Si3 0.333426 0.523799 0.248918
Si Si4 0.734701 0.661971 0.241834
Si Si5 0.031761 0.099454 0.687422
Si Si6 0.338771 0.071185 0.449707
Si Si7 0.517514 0.872859 0.288941
Si Si8 0.193413 0.933304 0.205232
O O1 0.652652 0.555291 0.874595
O O2 0.544982 0.936808 0.849820
O O3 0.790037 0.878696 0.923885
O O4 0.662541 0.670276 0.087857
O O5 0.748729 0.411629 0.333858
O O6 0.953737 0.239884 0.534608
O O7 0.770199 0.000276 0.482174
O O8 0.899507 0.120924 0.311458
O O9 0.316497 0.329234 0.373241
O O10 0.454257 0.645908 0.300127
O O11 0.209335 0.692311 0.192769
O O12 0.657907 0.812602 0.292398
O O13 0.870724 0.747828 0.250169
O O14 0.939754 0.021771 0.779377
O O15 0.467902 0.035154 0.578787
O O16 0.317717 0.946366 0.333114
#
# Coordination Sequence:
#
# PCOD8011881 Si02
#       8
#     2   2   2   2   2   2   2   2
#     4  10  25  45  60  92 131 169 216 255 299 375
#     4  10  23  40  64 100 127 160 204 262 322 376
#     4  10  23  41  65  90 130 170 209 258 312 368
#     4  12  25  41  67  93 128 172 209 251 317 379
#     4  10  22  42  66  93 128 158 209 269 315 366
#     4  10  21  39  64  96 128 152 211 264 313 369
#     4  11  24  40  65  98 125 167 209 260 315 371
#     4   9  22  42  68  93 126 165 207 264 316 370
#
# _framework density 22.525106999999998
#
# number of rings (size 3 to 8) (size 9 to 14) (size 15 to 20)
#    0.000    1.750    1.250    1.125    5.250   11.500 
#    0.000    1.250    0.000    0.000    0.000    0.000 
#    0.000    0.000    0.000    0.000    0.000    0.000 
#
# Total GULP energy -198391.369693 kJ/mol
# GULP energy per Si atom -12399.460606 kJ/mol
# Density = 2.247384 g / cm^3
# Si number density = 22.525107 Si / 1000 Ang^3
#
#
#
# Elastic Constant Matrix: (Units=GPa)
#
#
# Indices 1 2 3 4 5 6 
#
# 1 39.4957 30.1379 24.0978 -1.5379 4.5016 10.1260
# 2 30.1379 119.9045 46.6436 2.9141 4.3589 -4.1354
# 3 24.0978 46.6436 101.5858 5.8757 2.4359 -6.8664
# 4 -1.5379 2.9141 5.8757 25.7678 0.0319 3.2606
# 5 4.5016 4.3589 2.4359 0.0319 23.9947 2.6192
# 6 10.1260 -4.1354 -6.8664 3.2606 2.6192 32.0007
#
#
#
# Elastic Compliance Matrix: (Units=1/GPa)
#
#
# Indices 1 2 3 4 5 6 
#
# 1 0.040646 -0.007923 -0.007395 0.007022 -0.003711 -0.015884
# 2 -0.007923 0.011750 -0.003170 -0.001529 -0.000713 0.003560
# 3 -0.007395 -0.003170 0.013631 -0.003855 0.000012 0.005247
# 4 0.007022 -0.001529 -0.003855 0.041222 0.000111 -0.007456
# 5 -0.003711 -0.000713 0.000012 0.000111 0.042765 -0.002427
# 6 -0.015884 0.003560 0.005247 -0.007456 -0.002427 0.038820
#
#
# Mechanical properties :
#
#
# Convention : Reuss Voigt Hill
#
# Bulk Modulus (GPa) = 34.42136 51.41606 42.91871
# Shear Modulus (GPa) = 21.23206 27.02643 24.12925
#
# Velocity S-wave (km/s) = 3.07350 3.46762 3.27649
# Velocity P-wave (km/s) = 5.28297 6.23764 5.78005
#
# Compressibility (1/GPa) = 0.02905173
#
# Stress axis : x y z
#
# Youngs Moduli (GPa) = 24.60280 85.10418 73.36402
#
# Poissons Ratio (x) = 0.67431 0.54250
# Poissons Ratio (y) = 0.19494 0.23253
# Poissons Ratio (z) = 0.18193 0.26974
#
# Static dielectric constant tensor:
#      x y z
#    x 4.082080 0.024250 -0.023910 
#    y 0.024250 3.986890 0.187490 
#    z -0.023910 0.187490 3.884650 
# 
# 
# High freq. dielectric constant tensor:
#      x y z
#    x 1.900450 -0.001230 -0.006400 
#    y -0.001230 1.890680 0.014460 
#    z -0.006400 0.014460 1.872720 
# 
# From -- ./inp_files/410109.got.cif
#   From: 2010.06.25/outbox.cif.g09.slc.cpg/sg2_206_cif.got.tgz:410109.got - 2010.06.27 13:26:56.
