data_PCOD8011579
_publ_section_title
;
Structure prediction by ZEFSAII (Michael W. Deem and Ramdas Pophale) SiO2 
 PCOD8011579
Probable space group: P -1
;
_chemical_formula_sum "Si O2"
_cell_formula_units_Z 14
_cell_length_a 14.594322
_cell_length_b 10.712717
_cell_length_c 14.516306
_cell_angle_alpha 40.380439
_cell_angle_beta 31.481822
_cell_angle_gamma 62.244889
_cell_volume 644.463451
_symmetry_space_group_name_H-M "P -1"
_symmetry_group_IT_number 2
_symmetry_cell_setting 'triclinic'
loop_
_space_group_symop_operation_xyz
x,y,z
-x,-y,-z
loop_
_atom_site_type_symbol
_atom_site_label
_atom_site_fract_x
_atom_site_fract_y
_atom_site_fract_z
Si Si1 0.283011 0.730902 0.547372
Si Si2 0.363614 0.112945 0.994261
Si Si3 0.672289 0.263669 0.189677
Si Si4 0.669789 0.324566 0.765140
Si Si5 0.022642 0.795170 0.128650
Si Si6 0.373673 0.815565 0.919599
Si Si7 0.841291 0.619292 0.995366
O O1 0.427967 0.759737 0.320594
O O2 0.077158 0.728282 0.695738
O O3 0.412081 0.938608 0.391682
O O4 0.201565 0.493516 0.803821
O O5 0.439872 0.189255 0.991459
O O6 0.200015 0.179436 0.071507
O O7 0.240076 0.836693 0.244279
O O8 0.620377 0.319517 0.100222
O O9 0.500000 0.000000 0.500000
O O10 0.677360 0.431730 0.167360
O O11 0.895697 0.283691 0.983891
O O12 0.799335 0.579355 0.471275
O O13 0.663153 0.340231 0.872432
O O14 0.187188 0.863037 0.034399
O O15 0.000000 0.000000 0.000000
#
# Coordination Sequence:
#
# PCOD8011579 Si02
#       7
#     2   2   2   2   2   2   2
#     4  10  21  40  64 101 129 170 229 278 317 395
#     4  10  23  40  68  90 135 181 216 271 332 393
#     4  10  21  39  62  94 134 162 214 274 323 386
#     4  10  21  43  64 100 132 168 227 271 325 399
#     4  10  22  39  71  94 124 174 220 269 336 392
#     4   9  21  41  65  91 138 167 207 287 322 381
#     4  11  21  40  67  95 136 175 220 274 331 388
#
# _framework density 21.723497999999999
#
# number of rings (size 3 to 8) (size 9 to 14) (size 15 to 20)
#    0.857    1.143    1.429    1.714    4.000    0.000 
#   10.286   12.143    3.143    0.000    0.000    0.000 
#    0.000    0.000    0.000    0.000    0.000    0.000 
#
# Total GULP energy -173444.270375 kJ/mol
# GULP energy per Si atom -12388.876455 kJ/mol
# Density = 2.167405 g / cm^3
# Si number density = 21.723498 Si / 1000 Ang^3
#
#
#
# Elastic Constant Matrix: (Units=GPa)
#
#
# Indices 1 2 3 4 5 6 
#
# 1 103.3693 31.2712 27.2496 2.1073 9.4437 1.3797
# 2 31.2712 84.2054 28.5518 -6.0751 7.2465 -19.4041
# 3 27.2496 28.5518 81.4251 -13.4445 7.8164 -8.8525
# 4 2.1073 -6.0751 -13.4445 34.1041 -0.5758 1.4679
# 5 9.4437 7.2465 7.8164 -0.5758 34.6171 -3.4888
# 6 1.3797 -19.4041 -8.8525 1.4679 -3.4888 34.9190
#
#
#
# Elastic Compliance Matrix: (Units=1/GPa)
#
#
# Indices 1 2 3 4 5 6 
#
# 1 0.012112 -0.004295 -0.003192 -0.002645 -0.002109 -0.003774
# 2 -0.004295 0.016676 -0.003150 0.001616 -0.000725 0.008497
# 3 -0.003192 -0.003150 0.015783 0.005744 -0.001740 0.001962
# 4 -0.002645 0.001616 0.005744 0.031986 -0.000272 0.001087
# 5 -0.002109 -0.000725 -0.001740 -0.000272 0.030232 0.002271
# 6 -0.003774 0.008497 0.001962 0.001087 0.002271 0.034187
#
#
# Mechanical properties :
#
#
# Convention : Reuss Voigt Hill
#
# Bulk Modulus (GPa) = 42.92344 49.23834 46.08089
# Shear Modulus (GPa) = 29.40937 32.85651 31.13294
#
# Velocity S-wave (km/s) = 3.68340 3.89329 3.78980
# Velocity P-wave (km/s) = 6.15563 6.55175 6.35678
#
# Compressibility (1/GPa) = 0.02329729
#
# Stress axis : x y z
#
# Youngs Moduli (GPa) = 82.56549 59.96757 63.36039
#
# Poissons Ratio (x) = 0.25753 0.20224
# Poissons Ratio (y) = 0.35458 0.19958
# Poissons Ratio (z) = 0.26354 0.18889
#
# Static dielectric constant tensor:
#      x y z
#    x 4.095240 0.138250 0.096920 
#    y 0.138250 3.641760 0.055760 
#    z 0.096920 0.055760 3.851820 
# 
# 
# High freq. dielectric constant tensor:
#      x y z
#    x 1.864310 0.007440 0.005660 
#    y 0.007440 1.819050 -0.007700 
#    z 0.005660 -0.007700 1.849820 
# 
# From -- ./inp_files/532320.got.cif
#   From: 2010.06.25/outbox.cif.g09.slc.cpg/sg2_267_cif.got.tgz:532320.got - 2010.06.27 13:26:56.
