data_PCOD8011091
_publ_section_title
;
Structure prediction by ZEFSAII (Michael W. Deem and Ramdas Pophale) SiO2 
 PCOD8011091
Probable space group: P -1
;
_chemical_formula_sum "Si O2"
_cell_formula_units_Z 16
_cell_length_a 12.614115
_cell_length_b 19.194383
_cell_length_c 6.612280
_cell_angle_alpha 59.493784
_cell_angle_beta 43.088911
_cell_angle_gamma 40.511029
_cell_volume 706.344745
_symmetry_space_group_name_H-M "P -1"
_symmetry_group_IT_number 2
_symmetry_cell_setting 'triclinic'
loop_
_space_group_symop_operation_xyz
x,y,z
-x,-y,-z
loop_
_atom_site_type_symbol
_atom_site_label
_atom_site_fract_x
_atom_site_fract_y
_atom_site_fract_z
Si Si1 0.556014 0.479673 0.221070
Si Si2 0.822284 0.233170 0.187842
Si Si3 0.122786 0.042096 0.765091
Si Si4 0.771520 0.493796 0.601275
Si Si5 0.180509 0.266773 0.298871
Si Si6 0.413456 0.136806 0.556382
Si Si7 0.590026 0.716003 0.364987
Si Si8 0.871981 0.852751 0.762780
O O1 0.500000 0.500000 0.500000
O O2 0.726564 0.353965 0.106940
O O3 0.341144 0.537693 0.322840
O O4 0.659721 0.528628 0.928460
O O5 0.646118 0.226698 0.426021
O O6 0.922284 0.198514 0.321693
O O7 0.991241 0.156390 0.893491
O O8 0.169970 0.052900 0.452373
O O9 0.345399 0.961280 0.684650
O O10 0.000000 0.000000 0.000000
O O11 0.742474 0.589449 0.392572
O O12 0.010318 0.387791 0.442803
O O13 0.286444 0.180503 0.459963
O O14 0.085877 0.237822 0.309098
O O15 0.348847 0.264713 0.959042
O O16 0.389836 0.231862 0.551058
O O17 0.320734 0.099387 0.889002
#
# Coordination Sequence:
#
# PCOD8011091 Si02
#       8
#     2   2   2   2   2   2   2   2
#     4  10  21  38  66  99 136 171 219 273 333 396
#     4  11  24  43  69 103 131 177 227 275 330 400
#     4  12  26  45  71  99 134 177 224 281 338 392
#     4  10  21  39  63  98 133 173 223 272 332 398
#     4  11  24  44  68  97 137 178 221 277 336 402
#     4  11  25  46  65  99 134 178 225 276 335 403
#     4  10  24  41  65  98 137 175 225 278 333 391
#     4  11  25  43  71  96 136 173 226 275 337 399
#
# _framework density 22.651828999999999
#
# number of rings (size 3 to 8) (size 9 to 14) (size 15 to 20)
#    0.000    1.250    1.250    3.750    1.750   10.000 
#    0.000    0.000    0.000    0.000    0.000    0.000 
#    0.000    0.000    0.000    0.000    0.000    0.000 
#
# Total GULP energy -198396.416803 kJ/mol
# GULP energy per Si atom -12399.776050 kJ/mol
# Density = 2.260027 g / cm^3
# Si number density = 22.651829 Si / 1000 Ang^3
#
#
#
# Elastic Constant Matrix: (Units=GPa)
#
#
# Indices 1 2 3 4 5 6 
#
# 1 90.2897 26.5991 44.3036 0.1643 9.0407 -17.4881
# 2 26.5991 108.3897 53.9675 9.6745 1.2545 -17.1745
# 3 44.3036 53.9675 156.1659 -10.3358 9.3583 -1.4954
# 4 0.1643 9.6745 -10.3358 40.2416 -0.2723 -1.8035
# 5 9.0407 1.2545 9.3583 -0.2723 34.1888 -2.5061
# 6 -17.4881 -17.1745 -1.4954 -1.8035 -2.5061 37.0876
#
#
#
# Elastic Compliance Matrix: (Units=1/GPa)
#
#
# Indices 1 2 3 4 5 6 
#
# 1 0.014542 -0.000637 -0.003746 -0.000605 -0.002346 0.006223
# 2 -0.000637 0.012837 -0.004547 -0.004003 0.001303 0.005354
# 3 -0.003746 -0.004547 0.009322 0.003338 -0.001620 -0.003443
# 4 -0.000605 -0.004003 0.003338 0.026636 -0.000449 -0.000739
# 5 -0.002346 0.001303 -0.001620 -0.000449 0.030369 0.001462
# 6 0.006223 0.005354 -0.003443 -0.000739 0.001462 0.032301
#
#
# Mechanical properties :
#
#
# Convention : Reuss Voigt Hill
#
# Bulk Modulus (GPa) = 53.07010 67.17618 60.12314
# Shear Modulus (GPa) = 33.30071 37.63528 35.46800
#
# Velocity S-wave (km/s) = 3.83836 4.08053 3.96130
# Velocity P-wave (km/s) = 6.56685 7.20565 6.89365
#
# Compressibility (1/GPa) = 0.01884300
#
# Stress axis : x y z
#
# Youngs Moduli (GPa) = 68.76537 77.90077 107.26752
#
# Poissons Ratio (x) = 0.04958 0.40177
# Poissons Ratio (y) = 0.04377 0.48777
# Poissons Ratio (z) = 0.25756 0.35423
#
# Static dielectric constant tensor:
#      x y z
#    x 4.057940 -0.079460 -0.062250 
#    y -0.079460 4.051300 -0.064750 
#    z -0.062250 -0.064750 4.330320 
# 
# 
# High freq. dielectric constant tensor:
#      x y z
#    x 1.890910 -0.008310 -0.005200 
#    y -0.008310 1.890630 -0.001690 
#    z -0.005200 -0.001690 1.911130 
# 
# From -- ./inp_files/83013.got.cif
#   From: 2010.06.25/outbox.cif.g09.slc.cpg/sg2_42_cif.got.tgz:83013.got - 2010.06.27 13:26:56.
