data_PCOD8011306
_publ_section_title
;
Structure prediction by ZEFSAII (Michael W. Deem and Ramdas Pophale) SiO2 
 PCOD8011306
Probable space group: P -1
;
_chemical_formula_sum "Si O2"
_cell_formula_units_Z 16
_cell_length_a 14.925667
_cell_length_b 15.768963
_cell_length_c 12.027175
_cell_angle_alpha 66.298534
_cell_angle_beta 45.563306
_cell_angle_gamma 29.020295
_cell_volume 779.250912
_symmetry_space_group_name_H-M "P -1"
_symmetry_group_IT_number 2
_symmetry_cell_setting 'triclinic'
loop_
_space_group_symop_operation_xyz
x,y,z
-x,-y,-z
loop_
_atom_site_type_symbol
_atom_site_label
_atom_site_fract_x
_atom_site_fract_y
_atom_site_fract_z
Si Si1 0.658698 0.041157 0.821429
Si Si2 0.338787 0.601266 0.469908
Si Si3 0.697602 0.843285 0.759651
Si Si4 0.626196 0.596956 0.607941
Si Si5 0.310659 0.534722 0.144584
Si Si6 0.622968 0.575698 0.105733
Si Si7 0.329662 0.979653 0.604177
Si Si8 0.283188 0.130442 0.773246
O O1 0.518229 0.235112 0.828242
O O2 0.666174 0.975955 0.735360
O O3 0.460599 0.112246 0.035522
O O4 0.994142 0.830577 0.682437
O O5 0.500000 0.500000 0.500000
O O6 0.432146 0.448587 0.400324
O O7 0.418568 0.632962 0.304013
O O8 0.042238 0.583533 0.595316
O O9 0.534281 0.926581 0.745146
O O10 0.578194 0.602470 0.776414
O O11 0.388720 0.831346 0.647110
O O12 0.500000 0.500000 0.000000
O O13 0.356100 0.447859 0.034893
O O14 0.967696 0.796476 0.326365
O O15 0.950801 0.358703 0.991612
O O16 0.621449 0.833504 0.376877
O O17 0.266748 0.060189 0.737074
#
# Coordination Sequence:
#
# PCOD8011306 Si02
#       8
#     2   2   2   2   2   2   2   2
#     4  10  23  39  62  90 119 168 209 252 314 359
#     4  11  24  43  61  90 126 160 215 260 301 377
#     4  10  21  40  63  90 126 159 211 259 298 376
#     4  11  23  42  67  94 125 167 205 255 319 366
#     4  11  23  43  63  94 133 158 209 258 303 387
#     4  11  23  40  62  92 126 165 206 256 316 364
#     4  10  23  39  62  96 126 162 203 251 316 367
#     4  10  21  39  59  92 129 156 205 256 301 375
#
# _framework density 20.532539
#
# number of rings (size 3 to 8) (size 9 to 14) (size 15 to 20)
#    0.000    1.500    2.500    1.875    1.750    3.500 
#    0.000    0.000    0.000    0.000    0.000    0.000 
#    0.000    0.000    0.000    0.000    0.000    0.000 
#
# Total GULP energy -198339.889565 kJ/mol
# GULP energy per Si atom -12396.243098 kJ/mol
# Density = 2.048581 g / cm^3
# Si number density = 20.532539 Si / 1000 Ang^3
#
#
#
# Elastic Constant Matrix: (Units=GPa)
#
#
# Indices 1 2 3 4 5 6 
#
# 1 -60.2583 -227.1825 -207.6774 -60.0823 -0.7281 -60.1919
# 2 -227.1825 -398.4027 -421.7121 -117.3074 16.9616 -85.3943
# 3 -207.6774 -421.7121 -299.3637 -99.0334 8.0380 -80.7284
# 4 -60.0823 -117.3074 -99.0334 -5.1686 -1.8717 -30.5951
# 5 -0.7281 16.9616 8.0380 -1.8717 30.8964 -4.4369
# 6 -60.1919 -85.3943 -80.7284 -30.5951 -4.4369 7.5107
#
#
#
# Elastic Compliance Matrix: (Units=1/GPa)
#
#
# Indices 1 2 3 4 5 6 
#
# 1 0.020904 -0.010232 -0.005982 0.005643 0.010301 0.015962
# 2 -0.010232 0.012529 -0.002573 -0.010879 -0.009577 -0.017190
# 3 -0.005982 -0.002573 0.010247 -0.009968 -0.003386 -0.009664
# 4 0.005643 -0.010879 -0.009968 0.048614 0.014674 0.021099
# 5 0.010301 -0.009577 -0.003386 0.014674 0.042846 0.022352
# 6 0.015962 -0.017190 -0.009664 0.021099 0.022352 0.060910
#
#
# Mechanical properties :
#
#
# Convention : Reuss Voigt Hill
#
# Bulk Modulus (GPa) = 163.82893 -274.57432 -55.37270
# Shear Modulus (GPa) = 21.21686 13.21750 17.21718
#
# Velocity S-wave (km/s) = 3.21803 2.53994 2.89888
# Velocity P-wave (km/s) = 9.68353 11.19888 3.97770
#
# Compressibility (1/GPa) = 0.00610393
#
# Stress axis : x y z
#
# Youngs Moduli (GPa) = 47.83745 79.81728 97.58741
#
# Poissons Ratio (x) = 0.81672 0.58380
# Poissons Ratio (y) = 0.48949 0.25112
# Poissons Ratio (z) = 0.28618 0.20539
#
# Static dielectric constant tensor:
#      x y z
#    x 3.987450 -0.034680 -0.130770 
#    y -0.034680 3.695500 0.166720 
#    z -0.130770 0.166720 4.101960 
# 
# 
# High freq. dielectric constant tensor:
#      x y z
#    x 1.810260 -0.000610 -0.010410 
#    y -0.000610 1.791660 0.002370 
#    z -0.010410 0.002370 1.817470 
# 
# From -- ./inp_files/455628.got.cif
#   From: 2010.06.25/outbox.cif.g09.slc.cpg/sg2_228_cif.got.tgz:455628.got - 2010.06.27 13:26:56.
