data_PCOD8011634
_publ_section_title
;
Structure prediction by ZEFSAII (Michael W. Deem and Ramdas Pophale) SiO2 
 PCOD8011634
Probable space group: P -1
;
_chemical_formula_sum "Si O2"
_cell_formula_units_Z 14
_cell_length_a 9.564064
_cell_length_b 12.384209
_cell_length_c 15.366046
_cell_angle_alpha 26.466231
_cell_angle_beta 60.053616
_cell_angle_gamma 52.437896
_cell_volume 637.367219
_symmetry_space_group_name_H-M "P -1"
_symmetry_group_IT_number 2
_symmetry_cell_setting 'triclinic'
loop_
_space_group_symop_operation_xyz
x,y,z
-x,-y,-z
loop_
_atom_site_type_symbol
_atom_site_label
_atom_site_fract_x
_atom_site_fract_y
_atom_site_fract_z
Si Si1 0.776191 0.302133 0.848743
Si Si2 0.377483 0.212905 0.569071
Si Si3 0.983885 0.745235 0.886316
Si Si4 0.696628 0.276826 0.088842
Si Si5 0.848889 0.730373 0.242021
Si Si6 0.779304 0.027073 0.590879
Si Si7 0.086121 0.567110 0.736348
O O1 0.629849 0.563185 0.659486
O O2 0.964725 0.284574 0.767825
O O3 0.770240 0.327544 0.937080
O O4 0.743978 0.041313 0.019210
O O5 0.262387 0.341753 0.597916
O O6 0.583470 0.046453 0.649784
O O7 0.303621 0.012811 0.695660
O O8 0.175793 0.724102 0.871184
O O9 0.873985 0.999159 0.677099
O O10 0.875612 0.717032 0.024610
O O11 0.000000 0.500000 0.000000
O O12 0.500000 0.500000 0.000000
O O13 0.883577 0.504069 0.322833
O O14 0.782471 0.306724 0.357369
O O15 0.884039 0.786326 0.664204
#
# Coordination Sequence:
#
# PCOD8011634 Si02
#       7
#     2   2   2   2   2   2   2
#     4  10  23  42  65  94 134 169 219 267 330 382
#     4  11  25  42  66  99 134 165 222 274 319 391
#     4  10  21  39  63  89 130 170 206 259 324 390
#     4  11  23  39  68 103 129 168 218 274 329 380
#     4  10  22  42  67  93 127 178 218 266 322 392
#     4  10  24  41  64 100 131 168 217 266 326 393
#     4  10  21  41  68  89 129 172 216 258 331 383
#
# _framework density 21.965361000000001
#
# number of rings (size 3 to 8) (size 9 to 14) (size 15 to 20)
#    0.000    1.714    1.429    2.143    2.000    8.000 
#    0.000    1.429    0.000    0.000    0.000    0.000 
#    0.000    0.000    0.000    0.000    0.000    0.000 
#
# Total GULP energy -173506.487597 kJ/mol
# GULP energy per Si atom -12393.320543 kJ/mol
# Density = 2.191537 g / cm^3
# Si number density = 21.965361 Si / 1000 Ang^3
#
#
#
# Elastic Constant Matrix: (Units=GPa)
#
#
# Indices 1 2 3 4 5 6 
#
# 1 136.3474 53.7983 39.8707 3.3218 2.8395 -0.8575
# 2 53.7983 117.3669 25.5027 -1.5218 0.9999 4.5142
# 3 39.8707 25.5027 96.6021 -3.5735 5.6131 3.5577
# 4 3.3218 -1.5218 -3.5735 22.4396 -0.8981 -10.1792
# 5 2.8395 0.9999 5.6131 -0.8981 29.1012 1.0136
# 6 -0.8575 4.5142 3.5577 -10.1792 1.0136 33.1460
#
#
#
# Elastic Compliance Matrix: (Units=1/GPa)
#
#
# Indices 1 2 3 4 5 6 
#
# 1 0.009830 -0.003873 -0.003109 -0.001993 -0.000306 0.000513
# 2 -0.003873 0.010599 -0.001150 0.000549 0.000296 -0.001261
# 3 -0.003109 -0.001150 0.012144 0.001986 -0.001919 -0.000559
# 4 -0.001993 0.000549 0.001986 0.052378 0.000861 0.015720
# 5 -0.000306 0.000296 -0.001919 0.000861 0.034801 -0.000642
# 6 0.000513 -0.001261 -0.000559 0.015720 -0.000642 0.035262
#
#
# Mechanical properties :
#
#
# Convention : Reuss Voigt Hill
#
# Bulk Modulus (GPa) = 61.32071 65.40666 63.36369
# Shear Modulus (GPa) = 28.29425 32.34700 30.32062
#
# Velocity S-wave (km/s) = 3.59295 3.84166 3.71938
# Velocity P-wave (km/s) = 6.72235 7.03702 6.88148
#
# Compressibility (1/GPa) = 0.01630770
#
# Stress axis : x y z
#
# Youngs Moduli (GPa) = 101.73156 94.35231 82.34373
#
# Poissons Ratio (x) = 0.36543 0.25604
# Poissons Ratio (y) = 0.39401 0.09469
# Poissons Ratio (z) = 0.31633 0.10850
#
# Static dielectric constant tensor:
#      x y z
#    x 3.770710 0.136750 0.187730 
#    y 0.136750 4.086090 0.405290 
#    z 0.187730 0.405290 4.843160 
# 
# 
# High freq. dielectric constant tensor:
#      x y z
#    x 1.843820 0.004420 -0.018900 
#    y 0.004420 1.859160 0.008100 
#    z -0.018900 0.008100 1.874740 
# 
# From -- ./inp_files/257251.got.cif
#   From: 2010.06.25/outbox.cif.g09.slc.cpg/sg2_129_cif.got.tgz:257251.got - 2010.06.27 13:26:56.
