data_PCOD8011903
_publ_section_title
;
Structure prediction by ZEFSAII (Michael W. Deem and Ramdas Pophale) SiO2 
 PCOD8011903
Probable space group: P -1
;
_chemical_formula_sum "Si O2"
_cell_formula_units_Z 16
_cell_length_a 6.340192
_cell_length_b 13.395126
_cell_length_c 15.756578
_cell_angle_alpha 135.374516
_cell_angle_beta 95.046967
_cell_angle_gamma 110.180898
_cell_volume 761.123039
_symmetry_space_group_name_H-M "P -1"
_symmetry_group_IT_number 2
_symmetry_cell_setting 'triclinic'
loop_
_space_group_symop_operation_xyz
x,y,z
-x,-y,-z
loop_
_atom_site_type_symbol
_atom_site_label
_atom_site_fract_x
_atom_site_fract_y
_atom_site_fract_z
Si Si1 0.980259 0.015933 0.607101
Si Si2 0.929644 0.706210 0.677694
Si Si3 0.699332 0.033863 0.280115
Si Si4 0.174807 0.672512 0.001248
Si Si5 0.915304 0.432064 0.252597
Si Si6 0.597477 0.488568 0.390226
Si Si7 0.195141 0.383255 0.908034
Si Si8 0.546442 0.249797 0.494502
O O1 0.111293 0.216428 0.750638
O O2 0.673422 0.903790 0.547120
O O3 0.000000 0.000000 0.500000
O O4 0.126386 0.949567 0.624603
O O5 0.818077 0.552181 0.508916
O O6 0.681251 0.689810 0.702175
O O7 0.124086 0.896315 0.756686
O O8 0.084903 0.681072 0.739587
O O9 0.604889 0.158481 0.367306
O O10 0.459836 0.833560 0.138099
O O11 0.952269 0.679269 0.043789
O O12 0.156430 0.678215 0.902633
O O13 0.116582 0.488806 0.914427
O O14 0.695632 0.463285 0.288859
O O15 0.192389 0.617972 0.362271
O O16 0.557152 0.642880 0.481218
O O17 0.500000 0.500000 0.000000
#
# Coordination Sequence:
#
# PCOD8011903 Si02
#       8
#     2   2   2   2   2   2   2   2
#     4  12  27  42  70 103 127 166 224 277 323 383
#     4  10  22  37  69  95 136 170 213 271 327 382
#     4  12  24  46  65  98 133 175 213 271 329 386
#     4  11  27  45  67  94 135 178 217 259 329 399
#     4  11  24  41  67 101 132 172 220 267 319 396
#     4  10  21  39  65 101 130 172 214 269 333 376
#     4  11  25  47  68  91 133 180 213 264 333 390
#     4  11  23  41  68  96 131 169 218 272 323 379
#
# _framework density 21.021570000000001
#
# number of rings (size 3 to 8) (size 9 to 14) (size 15 to 20)
#    0.000    1.000    5.000    0.375    8.750    2.000 
#    0.000    0.625    0.000    0.000    0.000    0.000 
#    0.000    0.000    0.000    0.000    0.000    0.000 
#
# Total GULP energy -198394.033232 kJ/mol
# GULP energy per Si atom -12399.627077 kJ/mol
# Density = 2.097372 g / cm^3
# Si number density = 21.021570 Si / 1000 Ang^3
#
#
#
# Elastic Constant Matrix: (Units=GPa)
#
#
# Indices 1 2 3 4 5 6 
#
# 1 111.7795 56.3809 55.2354 -1.1167 -1.1218 21.8690
# 2 56.3809 122.8123 59.1780 -0.6925 3.0148 20.4019
# 3 55.2354 59.1780 114.8328 -14.6598 -8.8704 13.1078
# 4 -1.1167 -0.6925 -14.6598 34.7529 5.4533 6.2136
# 5 -1.1218 3.0148 -8.8704 5.4533 26.7178 7.9612
# 6 21.8690 20.4019 13.1078 6.2136 7.9612 47.2296
#
#
#
# Elastic Compliance Matrix: (Units=1/GPa)
#
#
# Indices 1 2 3 4 5 6 
#
# 1 0.013594 -0.003580 -0.004351 -0.000959 0.000782 -0.003546
# 2 -0.003580 0.012470 -0.004833 -0.001206 -0.002370 -0.001830
# 3 -0.004351 -0.004833 0.014488 0.005420 0.004480 -0.001387
# 4 -0.000959 -0.001206 0.005420 0.032299 -0.003443 -0.004208
# 5 0.000782 -0.002370 0.004480 -0.003443 0.042070 -0.007220
# 6 -0.003546 -0.001830 -0.001387 -0.004208 -0.007220 0.025761
#
#
# Mechanical properties :
#
#
# Convention : Reuss Voigt Hill
#
# Bulk Modulus (GPa) = 66.55586 76.77925 71.66756
# Shear Modulus (GPa) = 29.20272 33.64875 31.42573
#
# Velocity S-wave (km/s) = 3.73121 4.00519 3.87062
# Velocity P-wave (km/s) = 7.09169 7.61525 7.35813
#
# Compressibility (1/GPa) = 0.01502497
#
# Stress axis : x y z
#
# Youngs Moduli (GPa) = 73.56225 80.19382 69.02236
#
# Poissons Ratio (x) = 0.28706 0.30033
# Poissons Ratio (y) = 0.26332 0.33356
# Poissons Ratio (z) = 0.32009 0.38755
#
# Static dielectric constant tensor:
#      x y z
#    x 3.454940 0.101590 1.726180 
#    y 0.101590 3.870710 0.682620 
#    z 1.726180 0.682620 -0.800250 
# 
# 
# High freq. dielectric constant tensor:
#      x y z
#    x 1.836220 0.018500 0.003370 
#    y 0.018500 1.829230 0.005240 
#    z 0.003370 0.005240 1.800450 
# 
# From -- ./inp_files/333999.got.cif
#   From: 2010.06.25/outbox.cif.g09.slc.cpg/sg2_167_cif.got.tgz:333999.got - 2010.06.27 13:26:56.
