data_PCOD8011780
_publ_section_title
;
Structure prediction by ZEFSAII (Michael W. Deem and Ramdas Pophale) SiO2 
 PCOD8011780
Probable space group: P -1
;
_chemical_formula_sum "Si O2"
_cell_formula_units_Z 16
_cell_length_a 15.583224
_cell_length_b 9.274122
_cell_length_c 14.901382
_cell_angle_alpha 123.826331
_cell_angle_beta 38.489702
_cell_angle_gamma 142.998397
_cell_volume 793.083334
_symmetry_space_group_name_H-M "P -1"
_symmetry_group_IT_number 2
_symmetry_cell_setting 'triclinic'
loop_
_space_group_symop_operation_xyz
x,y,z
-x,-y,-z
loop_
_atom_site_type_symbol
_atom_site_label
_atom_site_fract_x
_atom_site_fract_y
_atom_site_fract_z
Si Si1 0.676161 0.372008 0.931263
Si Si2 0.185815 0.778375 0.923730
Si Si3 0.827127 0.278949 0.623319
Si Si4 0.741032 0.111990 0.901502
Si Si5 0.534952 0.957917 0.599189
Si Si6 0.195142 0.145226 0.943939
Si Si7 0.464217 0.701971 0.395708
Si Si8 0.969009 0.782740 0.419711
O O1 0.718642 0.341409 0.784793
O O2 0.781387 0.338519 0.904791
O O3 0.754373 0.637787 0.964957
O O4 0.450510 0.156836 0.069662
O O5 0.314386 0.779115 0.750969
O O6 0.149839 0.939446 0.971471
O O7 0.297552 0.904012 0.967869
O O8 0.000000 0.500000 0.000000
O O9 0.919165 0.234176 0.605155
O O10 0.000000 0.500000 0.500000
O O11 0.677307 0.050615 0.599084
O O12 0.929140 0.163232 0.741080
O O13 0.547996 0.816562 0.466195
O O14 0.590156 0.181273 0.579566
O O15 0.376265 0.276129 0.774968
O O16 0.000000 0.000000 0.000000
O O17 0.259582 0.430034 0.478684
O O18 0.000000 0.000000 0.500000
#
# Coordination Sequence:
#
# PCOD8011780 Si02
#       8
#     2   2   2   2   2   2   2   2
#     4  10  22  40  63  93 126 160 211 252 312 374
#     4  11  22  40  64  91 124 163 209 253 314 378
#     4  11  22  39  68  94 121 165 211 260 305 375
#     4  10  21  39  64  89 124 168 199 254 313 371
#     4  10  21  41  66  92 120 163 214 252 310 373
#     4  11  25  41  62  93 126 165 206 265 311 367
#     4  10  22  41  63  89 126 164 206 257 311 373
#     4  11  23  40  62  94 129 164 205 257 318 369
#
# _framework density 20.174426
#
# number of rings (size 3 to 8) (size 9 to 14) (size 15 to 20)
#    0.000    1.500    2.500    2.250    1.750    3.500 
#    2.250    0.625    0.000    0.000    0.000    0.000 
#    0.000    0.000    0.000    0.000    0.000    0.000 
#
# Total GULP energy -198320.976134 kJ/mol
# GULP energy per Si atom -12395.061008 kJ/mol
# Density = 2.012851 g / cm^3
# Si number density = 20.174426 Si / 1000 Ang^3
#
#
#
# Elastic Constant Matrix: (Units=GPa)
#
#
# Indices 1 2 3 4 5 6 
#
# 1 75.9856 26.4990 32.1954 7.6271 6.4108 13.2793
# 2 26.4990 127.5882 63.5155 -1.4848 -6.2823 4.3242
# 3 32.1954 63.5155 130.1729 -1.4995 3.3852 1.5751
# 4 7.6271 -1.4848 -1.4995 36.0581 5.4609 3.4322
# 5 6.4108 -6.2823 3.3852 5.4609 32.1905 -2.7090
# 6 13.2793 4.3242 1.5751 3.4322 -2.7090 31.8892
#
#
#
# Elastic Compliance Matrix: (Units=1/GPa)
#
#
# Indices 1 2 3 4 5 6 
#
# 1 0.016861 -0.001950 -0.003077 -0.002610 -0.003530 -0.006624
# 2 -0.001950 0.010822 -0.004870 0.000225 0.002958 -0.000188
# 3 -0.003077 -0.004870 0.010858 0.001027 -0.001556 0.001163
# 4 -0.002610 0.000225 0.001027 0.029296 -0.004729 -0.002549
# 5 -0.003530 0.002958 -0.001556 -0.004729 0.033691 0.004517
# 6 -0.006624 -0.000188 0.001163 -0.002549 0.004517 0.034743
#
#
# Mechanical properties :
#
#
# Convention : Reuss Voigt Hill
#
# Bulk Modulus (GPa) = 53.34216 64.24072 58.79144
# Shear Modulus (GPa) = 30.80451 34.13002 32.46726
#
# Velocity S-wave (km/s) = 3.91181 4.11755 4.01599
# Velocity P-wave (km/s) = 6.84842 7.38359 7.12103
#
# Compressibility (1/GPa) = 0.01874690
#
# Stress axis : x y z
#
# Youngs Moduli (GPa) = 59.30671 92.40649 92.10124
#
# Poissons Ratio (x) = 0.18018 0.28340
# Poissons Ratio (y) = 0.11564 0.44854
# Poissons Ratio (z) = 0.18249 0.45003
#
# Static dielectric constant tensor:
#      x y z
#    x 3.571730 0.067810 0.166220 
#    y 0.067810 3.581020 -0.019820 
#    z 0.166220 -0.019820 3.991980 
# 
# 
# High freq. dielectric constant tensor:
#      x y z
#    x 1.779900 0.011950 0.007240 
#    y 0.011950 1.785910 -0.010980 
#    z 0.007240 -0.010980 1.805800 
# 
# From -- ./inp_files/262574.got.cif
#   From: 2010.06.25/outbox.cif.g09.slc.cpg/sg2_132_cif.got.tgz:262574.got - 2010.06.27 13:26:56.
