data_PCOD8011694
_publ_section_title
;
Structure prediction by ZEFSAII (Michael W. Deem and Ramdas Pophale) SiO2 
 PCOD8011694
Probable space group: P -1
;
_chemical_formula_sum "Si O2"
_cell_formula_units_Z 16
_cell_length_a 9.712925
_cell_length_b 10.828684
_cell_length_c 13.544456
_cell_angle_alpha 148.264394
_cell_angle_beta 101.679742
_cell_angle_gamma 87.927086
_cell_volume 707.776137
_symmetry_space_group_name_H-M "P -1"
_symmetry_group_IT_number 2
_symmetry_cell_setting 'triclinic'
loop_
_space_group_symop_operation_xyz
x,y,z
-x,-y,-z
loop_
_atom_site_type_symbol
_atom_site_label
_atom_site_fract_x
_atom_site_fract_y
_atom_site_fract_z
Si Si1 0.393963 0.262083 0.602094
Si Si2 0.801601 0.484618 0.554832
Si Si3 0.942678 0.124662 0.222988
Si Si4 0.703762 0.067414 0.998897
Si Si5 0.780433 0.444049 0.111213
Si Si6 0.538727 0.378630 0.313296
Si Si7 0.673632 0.300180 0.789129
Si Si8 0.099369 0.426916 0.150115
O O1 0.262398 0.362490 0.691239
O O2 0.461150 0.387647 0.594375
O O3 0.517813 0.321442 0.744220
O O4 0.329733 0.978125 0.380465
O O5 0.858482 0.249634 0.374861
O O6 0.629929 0.444062 0.473680
O O7 0.821028 0.526446 0.701709
O O8 0.891510 0.716071 0.660749
O O9 0.866046 0.107760 0.093033
O O10 0.937812 0.856940 0.079580
O O11 0.625297 0.779018 0.791344
O O12 0.718245 0.172237 0.961692
O O13 0.615173 0.207980 0.147587
O O14 0.954633 0.518711 0.187257
O O15 0.713993 0.451902 0.998740
O O16 0.794277 0.410704 0.801922
#
# Coordination Sequence:
#
# PCOD8011694 Si02
#       8
#     2   2   2   2   2   2   2   2
#     4  10  24  46  65  89 130 168 218 272 317 384
#     4  10  22  38  64  97 132 172 202 259 337 385
#     4  10  21  39  63  92 136 166 205 263 326 392
#     4   9  18  37  62  96 127 162 211 256 322 391
#     4  11  24  42  67  91 127 176 213 266 325 376
#     4   9  19  36  65  95 124 164 208 263 321 387
#     4  11  26  44  64  92 125 173 226 267 314 372
#     4  12  25  40  65 100 131 167 220 266 315 387
#
# _framework density 22.606020000000001
#
# number of rings (size 3 to 8) (size 9 to 14) (size 15 to 20)
#    0.000    1.750    1.250    1.875    3.500    4.500 
#    0.000    1.875    0.000    0.000    0.000    0.000 
#    0.000    0.000    0.000    0.000    0.000    0.000 
#
# Total GULP energy -198476.373458 kJ/mol
# GULP energy per Si atom -12404.773341 kJ/mol
# Density = 2.255457 g / cm^3
# Si number density = 22.606020 Si / 1000 Ang^3
#
#
#
# Elastic Constant Matrix: (Units=GPa)
#
#
# Indices 1 2 3 4 5 6 
#
# 1 41.8289 3.5447 21.9315 13.9094 14.5569 -3.9293
# 2 3.5447 85.3312 34.8846 10.5875 -2.4390 8.7820
# 3 21.9315 34.8846 89.0225 3.4610 6.9119 4.1818
# 4 13.9094 10.5875 3.4610 43.7304 1.5458 1.6090
# 5 14.5569 -2.4390 6.9119 1.5458 33.1171 -2.4004
# 6 -3.9293 8.7820 4.1818 1.6090 -2.4004 31.9615
#
#
#
# Elastic Compliance Matrix: (Units=1/GPa)
#
#
# Indices 1 2 3 4 5 6 
#
# 1 0.037328 0.002687 -0.008972 -0.011506 -0.013467 0.004592
# 2 0.002687 0.015005 -0.006360 -0.003930 0.001241 -0.002669
# 3 -0.008972 -0.006360 0.015895 0.003198 -0.000108 -0.001604
# 4 -0.011506 -0.003930 0.003198 0.027201 0.002692 -0.001920
# 5 -0.013467 0.001241 -0.000108 0.002692 0.036147 0.000597
# 6 0.004592 -0.002669 -0.001604 -0.001920 0.000597 0.032937
#
#
# Mechanical properties :
#
#
# Convention : Reuss Voigt Hill
#
# Bulk Modulus (GPa) = 23.28904 37.43378 30.36141
# Shear Modulus (GPa) = 24.49588 32.14992 28.32290
#
# Velocity S-wave (km/s) = 3.29538 3.77528 3.54346
# Velocity P-wave (km/s) = 4.98035 5.96647 5.49557
#
# Compressibility (1/GPa) = 0.04293865
#
# Stress axis : x y z
#
# Youngs Moduli (GPa) = 26.78977 66.64269 62.91231
#
# Poissons Ratio (x) = -0.17909 0.56444
# Poissons Ratio (y) = -0.07199 0.40014
# Poissons Ratio (z) = 0.24035 0.42387
#
# Static dielectric constant tensor:
#      x y z
#    x 4.148140 -0.034480 0.050100 
#    y -0.034480 4.039410 0.054080 
#    z 0.050100 0.054080 4.196670 
# 
# 
# High freq. dielectric constant tensor:
#      x y z
#    x 1.908590 -0.004310 -0.005180 
#    y -0.004310 1.882860 -0.000900 
#    z -0.005180 -0.000900 1.900140 
# 
# From -- ./inp_files/501278.got.cif
#   From: 2010.06.25/outbox.cif.g09.slc.cpg/sg2_251_cif.got.tgz:501278.got - 2010.06.27 13:26:56.
