data_PCOD8011665
_publ_section_title
;
Structure prediction by ZEFSAII (Michael W. Deem and Ramdas Pophale) SiO2 
 PCOD8011665
Probable space group: P -1
;
_chemical_formula_sum "Si O2"
_cell_formula_units_Z 16
_cell_length_a 9.666098
_cell_length_b 16.324555
_cell_length_c 9.019437
_cell_angle_alpha 75.101929
_cell_angle_beta 105.638547
_cell_angle_gamma 44.757988
_cell_volume 723.721342
_symmetry_space_group_name_H-M "P -1"
_symmetry_group_IT_number 2
_symmetry_cell_setting 'triclinic'
loop_
_space_group_symop_operation_xyz
x,y,z
-x,-y,-z
loop_
_atom_site_type_symbol
_atom_site_label
_atom_site_fract_x
_atom_site_fract_y
_atom_site_fract_z
Si Si1 0.480657 0.071800 0.822615
Si Si2 0.739972 0.588331 0.709659
Si Si3 0.307768 0.339104 0.657003
Si Si4 0.307525 0.672888 0.512206
Si Si5 0.085157 0.171152 0.171161
Si Si6 0.746106 0.729077 0.885996
Si Si7 0.584507 0.368177 0.772244
Si Si8 0.796720 0.924936 0.419397
O O1 0.405388 0.200200 0.807114
O O2 0.255912 0.146349 0.612487
O O3 0.749155 0.945655 0.865684
O O4 0.500000 0.000000 0.000000
O O5 0.621723 0.688690 0.482606
O O6 0.560925 0.595077 0.689320
O O7 0.710171 0.670890 0.790024
O O8 0.045571 0.405893 0.865603
O O9 0.455804 0.340887 0.788264
O O10 0.000000 0.500000 0.500000
O O11 0.347769 0.553109 0.610414
O O12 0.269318 0.706870 0.309920
O O13 0.050212 0.834360 0.447934
O O14 0.125538 0.252017 0.164114
O O15 0.168971 0.085546 0.388960
O O16 0.784503 0.294877 0.994218
O O17 0.458916 0.894112 0.790273
#
# Coordination Sequence:
#
# PCOD8011665 Si02
#       8
#     2   2   2   2   2   2   2   2
#     4  11  24  42  68  95 132 177 220 269 333 394
#     4  10  21  41  65  91 133 169 218 265 332 387
#     4  11  24  40  66  96 126 168 222 276 316 394
#     4  10  21  41  65  95 127 180 218 271 325 398
#     4  11  22  41  64  94 134 172 218 271 333 388
#     4  10  21  39  63  91 127 179 209 270 323 392
#     4  10  22  41  65  91 136 171 220 267 334 389
#     4  11  23  39  66  95 131 170 226 270 329 388
#
# _framework density 22.107958
#
# number of rings (size 3 to 8) (size 9 to 14) (size 15 to 20)
#    0.000    1.500    1.250    4.500    3.500    1.500 
#    4.500    1.250    0.000    0.000    0.000    0.000 
#    0.000    0.000    0.000    0.000    0.000    0.000 
#
# Total GULP energy -198377.154847 kJ/mol
# GULP energy per Si atom -12398.572178 kJ/mol
# Density = 2.205764 g / cm^3
# Si number density = 22.107958 Si / 1000 Ang^3
#
#
#
# Elastic Constant Matrix: (Units=GPa)
#
#
# Indices 1 2 3 4 5 6 
#
# 1 98.1817 58.5908 46.8693 -9.1518 10.8249 14.6144
# 2 58.5908 108.4273 38.8447 -12.5416 2.4573 5.0052
# 3 46.8693 38.8447 109.1111 -6.5599 13.7165 3.1482
# 4 -9.1518 -12.5416 -6.5599 28.7809 4.7351 2.4029
# 5 10.8249 2.4573 13.7165 4.7351 36.3009 -2.0086
# 6 14.6144 5.0052 3.1482 2.4029 -2.0086 45.9343
#
#
#
# Elastic Compliance Matrix: (Units=1/GPa)
#
#
# Indices 1 2 3 4 5 6 
#
# 1 0.018245 -0.007706 -0.004310 0.002517 -0.003894 -0.004972
# 2 -0.007706 0.014315 -0.001843 0.003012 0.001684 0.000935
# 3 -0.004310 -0.001843 0.012136 0.001088 -0.003288 0.000540
# 4 0.002517 0.003012 0.001088 0.038481 -0.006579 -0.003504
# 5 -0.003894 0.001684 -0.003288 -0.006579 0.030860 0.002974
# 6 -0.004972 0.000935 0.000540 -0.003504 0.002974 0.023527
#
#
# Mechanical properties :
#
#
# Convention : Reuss Voigt Hill
#
# Bulk Modulus (GPa) = 58.90401 67.14776 63.02588
# Shear Modulus (GPa) = 29.24992 33.63091 31.44042
#
# Velocity S-wave (km/s) = 3.64132 3.90450 3.77521
# Velocity P-wave (km/s) = 6.66188 7.12499 6.89732
#
# Compressibility (1/GPa) = 0.01697677
#
# Stress axis : x y z
#
# Youngs Moduli (GPa) = 54.80852 69.85892 82.40217
#
# Poissons Ratio (x) = 0.53836 0.35511
# Poissons Ratio (y) = 0.42238 0.15190
# Poissons Ratio (z) = 0.23620 0.12878
#
# Static dielectric constant tensor:
#      x y z
#    x 3.993470 0.169890 0.061490 
#    y 0.169890 3.952850 -0.051790 
#    z 0.061490 -0.051790 4.170350 
# 
# 
# High freq. dielectric constant tensor:
#      x y z
#    x 1.861700 0.006800 0.013640 
#    y 0.006800 1.866460 0.000660 
#    z 0.013640 0.000660 1.872450 
# 
# From -- ./inp_files/207014.got.cif
#   From: 2010.06.25/outbox.cif.g09.slc.cpg/sg2_104_cif.got.tgz:207014.got - 2010.06.27 13:26:56.
