data_PCOD8011025
_publ_section_title
;
Structure prediction by ZEFSAII (Michael W. Deem and Ramdas Pophale) SiO2 
 PCOD8011025
Probable space group: P -1
;
_chemical_formula_sum "Si O2"
_cell_formula_units_Z 14
_cell_length_a 9.589721
_cell_length_b 15.600407
_cell_length_c 15.606508
_cell_angle_alpha 37.176505
_cell_angle_beta 28.565198
_cell_angle_gamma 37.508856
_cell_volume 638.335113
_symmetry_space_group_name_H-M "P -1"
_symmetry_group_IT_number 2
_symmetry_cell_setting 'triclinic'
loop_
_space_group_symop_operation_xyz
x,y,z
-x,-y,-z
loop_
_atom_site_type_symbol
_atom_site_label
_atom_site_fract_x
_atom_site_fract_y
_atom_site_fract_z
Si Si1 0.833639 0.356915 0.105891
Si Si2 0.243973 0.582580 0.316928
Si Si3 0.868249 0.102720 0.908331
Si Si4 0.841334 0.118189 0.602741
Si Si5 0.550875 0.603560 0.315058
Si Si6 0.213721 0.940751 0.691780
Si Si7 0.821612 0.828771 0.772496
O O1 0.540184 0.503037 0.161580
O O2 0.727167 0.238861 0.198857
O O3 0.967817 0.277861 0.185567
O O4 0.089141 0.420471 0.875638
O O5 0.029382 0.749723 0.270117
O O6 0.360954 0.581252 0.352691
O O7 0.000000 0.500000 0.500000
O O8 0.505033 0.195313 0.036458
O O9 0.963770 0.003142 0.851400
O O10 0.000000 0.000000 0.000000
O O11 0.582602 0.224727 0.718053
O O12 0.992969 0.213576 0.383323
O O13 0.713866 0.009657 0.700392
O O14 0.097741 0.003012 0.612476
O O15 0.500000 0.500000 0.500000
O O16 0.500000 0.000000 0.500000
#
# Coordination Sequence:
#
# PCOD8011025 Si02
#       7
#     2   2   2   2   2   2   2
#     4  11  24  44  73 100 137 187 230 289 356 421
#     4  12  27  47  69 104 149 186 232 299 366 419
#     4  12  25  43  69  97 139 185 234 282 355 418
#     4  10  21  38  66 101 130 173 227 286 339 415
#     4  12  25  43  71  99 141 186 247 288 350 425
#     4  11  22  42  68  99 137 175 228 285 351 422
#     4  10  21  41  71 100 133 174 235 286 345 422
#
# _framework density 21.932054000000001
#
# number of rings (size 3 to 8) (size 9 to 14) (size 15 to 20)
#    0.000    0.857    2.857    3.857    2.000    6.857 
#    0.000    1.429    0.000    0.000    0.000    0.000 
#    0.000    0.000    0.000    0.000    0.000    0.000 
#
# Total GULP energy -173525.743538 kJ/mol
# GULP energy per Si atom -12394.695967 kJ/mol
# Density = 2.188214 g / cm^3
# Si number density = 21.932054 Si / 1000 Ang^3
#
#
#
# Elastic Constant Matrix: (Units=GPa)
#
#
# Indices 1 2 3 4 5 6 
#
# 1 89.0658 43.2769 50.5116 -8.5346 2.5194 7.5180
# 2 43.2769 121.6443 28.5031 -2.5200 8.5813 9.7901
# 3 50.5116 28.5031 114.6898 -0.6786 11.1889 5.4362
# 4 -8.5346 -2.5200 -0.6786 45.1446 -1.7565 3.6033
# 5 2.5194 8.5813 11.1889 -1.7565 36.8606 -1.7500
# 6 7.5180 9.7901 5.4362 3.6033 -1.7500 31.8347
#
#
#
# Elastic Compliance Matrix: (Units=1/GPa)
#
#
# Indices 1 2 3 4 5 6 
#
# 1 0.017713 -0.004648 -0.006732 0.003213 0.001980 -0.001859
# 2 -0.004648 0.010233 -0.000191 -0.000224 -0.002117 -0.002108
# 3 -0.006732 -0.000191 0.012062 -0.001192 -0.003235 -0.000454
# 4 0.003213 -0.000224 -0.001192 0.023014 0.001147 -0.003028
# 5 0.001980 -0.002117 -0.003235 0.001147 0.028627 0.002180
# 6 -0.001859 -0.002108 -0.000454 -0.003028 0.002180 0.033040
#
#
# Mechanical properties :
#
#
# Convention : Reuss Voigt Hill
#
# Bulk Modulus (GPa) = 59.29050 63.33145 61.31098
# Shear Modulus (GPa) = 32.58346 36.30853 34.44600
#
# Velocity S-wave (km/s) = 3.85860 4.07320 3.96735
# Velocity P-wave (km/s) = 6.85158 7.14564 7.00015
#
# Compressibility (1/GPa) = 0.01686611
#
# Stress axis : x y z
#
# Youngs Moduli (GPa) = 56.45688 97.72013 82.90748
#
# Poissons Ratio (x) = 0.45417 0.55813
# Poissons Ratio (y) = 0.26239 0.01585
# Poissons Ratio (z) = 0.38007 0.01868
#
# Static dielectric constant tensor:
#      x y z
#    x -2.082930 -5.815510 2.779190 
#    y -5.815510 -1.708420 2.691060 
#    z 2.779190 2.691060 2.902300 
# 
# 
# High freq. dielectric constant tensor:
#      x y z
#    x 1.848430 0.014220 0.002100 
#    y 0.014220 1.879480 -0.004860 
#    z 0.002100 -0.004860 1.876410 
# 
# From -- ./inp_files/157105.got.cif
#   From: 2010.06.25/outbox.cif.g09.slc.cpg/sg2_79_cif.got.tgz:157105.got - 2010.06.27 13:26:56.
