data_PCOD8011416
_publ_section_title
;
Structure prediction by ZEFSAII (Michael W. Deem and Ramdas Pophale) SiO2 
 PCOD8011416
Probable space group: P -1
;
_chemical_formula_sum "Si O2"
_cell_formula_units_Z 16
_cell_length_a 17.263715
_cell_length_b 7.497164
_cell_length_c 6.322233
_cell_angle_alpha 113.779618
_cell_angle_beta 73.084746
_cell_angle_gamma 110.380913
_cell_volume 691.041129
_symmetry_space_group_name_H-M "P -1"
_symmetry_group_IT_number 2
_symmetry_cell_setting 'triclinic'
loop_
_space_group_symop_operation_xyz
x,y,z
-x,-y,-z
loop_
_atom_site_type_symbol
_atom_site_label
_atom_site_fract_x
_atom_site_fract_y
_atom_site_fract_z
Si Si1 0.109243 0.684840 0.089374
Si Si2 0.059825 0.289329 0.695113
Si Si3 0.204292 0.211135 0.805897
Si Si4 0.517015 0.653651 0.868404
Si Si5 0.160133 0.452205 0.317729
Si Si6 0.423966 0.052981 0.700588
Si Si7 0.378094 0.394991 0.617022
Si Si8 0.243515 0.813635 0.716881
O O1 0.120625 0.582209 0.251497
O O2 0.040779 0.816412 0.247540
O O3 0.072296 0.522216 0.859629
O O4 0.197807 0.810842 0.980870
O O5 0.115012 0.184914 0.750624
O O6 0.087292 0.293851 0.430592
O O7 0.277950 0.369058 0.690024
O O8 0.219363 0.990611 0.688229
O O9 0.207570 0.311728 0.083624
O O10 0.433118 0.612595 0.768415
O O11 0.595143 0.626125 0.654679
O O12 0.500000 0.500000 0.000000
O O13 0.543783 0.876466 0.054318
O O14 0.221038 0.604860 0.504105
O O15 0.397406 0.224561 0.671109
O O16 0.500000 0.000000 0.500000
O O17 0.343352 0.861478 0.696980
#
# Coordination Sequence:
#
# PCOD8011416 Si02
#       8
#     2   2   2   2   2   2   2   2
#     4   9  19  39  61  89 124 157 201 252 296 359
#     4   9  19  37  62  91 120 160 203 243 301 364
#     4  10  22  38  61  89 123 157 201 248 301 362
#     4   9  19  38  59  81 113 153 192 245 293 352
#     4  10  21  39  61  89 118 167 197 247 302 359
#     4  10  22  38  58  87 119 155 197 247 300 357
#     4   9  20  39  58  86 114 155 197 244 300 356
#     4  10  23  40  59  91 125 156 203 254 301 358
#
# _framework density 23.153471
#
# number of rings (size 3 to 8) (size 9 to 14) (size 15 to 20)
#    0.000    2.500    0.000    0.375    1.750    8.000 
#   18.000    1.250    0.000    0.000    0.000    0.000 
#    0.000    0.000    0.000    0.000    0.000    0.000 
#
# Total GULP energy -198302.353442 kJ/mol
# GULP energy per Si atom -12393.897090 kJ/mol
# Density = 2.310077 g / cm^3
# Si number density = 23.153471 Si / 1000 Ang^3
#
#
#
# Elastic Constant Matrix: (Units=GPa)
#
#
# Indices 1 2 3 4 5 6 
#
# 1 97.9025 18.3544 37.7585 -2.4780 -22.2053 15.7750
# 2 18.3544 35.4392 29.2508 -5.8550 -4.1306 17.2494
# 3 37.7585 29.2508 153.5481 -13.1051 -10.2335 21.8749
# 4 -2.4780 -5.8550 -13.1051 33.6362 7.1748 -4.7122
# 5 -22.2053 -4.1306 -10.2335 7.1748 37.4198 -8.7402
# 6 15.7750 17.2494 21.8749 -4.7122 -8.7402 30.8454
#
#
#
# Elastic Compliance Matrix: (Units=1/GPa)
#
#
# Indices 1 2 3 4 5 6 
#
# 1 0.013585 -0.004156 -0.002054 -0.002251 0.007124 -0.001492
# 2 -0.004156 0.043837 -0.004466 0.003699 -0.004193 -0.019845
# 3 -0.002054 -0.004466 0.008328 0.002088 -0.000333 -0.002134
# 4 -0.002251 0.003699 0.002088 0.032494 -0.006412 0.000749
# 5 0.007124 -0.004193 -0.000333 -0.006412 0.033358 0.007410
# 6 -0.001492 -0.019845 -0.002134 0.000749 0.007410 0.048008
#
#
# Mechanical properties :
#
#
# Convention : Reuss Voigt Hill
#
# Bulk Modulus (GPa) = 22.52238 50.84634 36.68436
# Shear Modulus (GPa) = 23.17382 33.81535 28.49458
#
# Velocity S-wave (km/s) = 3.16710 3.82578 3.51191
# Velocity P-wave (km/s) = 4.80859 6.44389 5.68534
#
# Compressibility (1/GPa) = 0.04440028
#
# Stress axis : x y z
#
# Youngs Moduli (GPa) = 73.61227 22.81164 120.07141
#
# Poissons Ratio (x) = 0.09480 0.24658
# Poissons Ratio (y) = 0.30592 0.53618
# Poissons Ratio (z) = 0.15117 0.10187
#
# Static dielectric constant tensor:
#      x y z
#    x 4.607910 0.375600 -0.192000 
#    y 0.375600 4.147830 -0.022480 
#    z -0.192000 -0.022480 4.465220 
# 
# 
# High freq. dielectric constant tensor:
#      x y z
#    x 1.909980 0.011590 -0.009060 
#    y 0.011590 1.898830 -0.010970 
#    z -0.009060 -0.010970 1.924970 
# 
# From -- ./inp_files/43603.got.cif
#   From: 2010.06.25/outbox.cif.g09.slc.cpg/sg2_22_cif.got.tgz:43603.got - 2010.06.27 13:26:56.
