data_PCOD8011546
_publ_section_title
;
Structure prediction by ZEFSAII (Michael W. Deem and Ramdas Pophale) SiO2 
 PCOD8011546
Probable space group: P -1
;
_chemical_formula_sum "Si O2"
_cell_formula_units_Z 16
_cell_length_a 24.880548
_cell_length_b 10.078028
_cell_length_c 6.881182
_cell_angle_alpha 131.806042
_cell_angle_beta 42.419663
_cell_angle_gamma 133.120875
_cell_volume 802.242995
_symmetry_space_group_name_H-M "P -1"
_symmetry_group_IT_number 2
_symmetry_cell_setting 'triclinic'
loop_
_space_group_symop_operation_xyz
x,y,z
-x,-y,-z
loop_
_atom_site_type_symbol
_atom_site_label
_atom_site_fract_x
_atom_site_fract_y
_atom_site_fract_z
Si Si1 0.355145 0.502646 0.309289
Si Si2 0.474685 0.173835 0.711098
Si Si3 0.054890 0.664362 0.368388
Si Si4 0.575085 0.674889 0.371214
Si Si5 0.168422 0.437768 0.714688
Si Si6 0.859911 0.916424 0.268484
Si Si7 0.940619 0.805192 0.571288
Si Si8 0.331742 0.195090 0.366192
O O1 0.451290 0.660310 0.207500
O O2 0.272341 0.558205 0.548713
O O3 0.343384 0.405186 0.458618
O O4 0.358135 0.373637 0.991643
O O5 0.470178 0.214913 0.534678
O O6 0.500000 0.000000 0.500000
O O7 0.382308 0.114796 0.001449
O O8 0.000000 0.500000 0.500000
O O9 0.995974 0.679130 0.361857
O O10 0.083060 0.873995 0.597079
O O11 0.131188 0.600152 0.028103
O O12 0.500000 0.500000 0.500000
O O13 0.632860 0.808537 0.516327
O O14 0.144039 0.256916 0.748730
O O15 0.134290 0.341340 0.504773
O O16 0.768757 0.934565 0.492913
O O17 0.897525 0.875016 0.929216
O O18 0.000000 0.000000 0.500000
#
# Coordination Sequence:
#
# PCOD8011546 Si02
#       8
#     2   2   2   2   2   2   2   2
#     4  10  21  39  62  91 124 164 209 250 311 367
#     4  11  23  37  60  92 128 163 201 256 310 361
#     4  12  24  44  70  93 129 169 213 262 329 386
#     4  11  18  39  64  85 115 169 216 240 299 377
#     4  11  24  42  66  98 132 167 212 271 312 381
#     4  11  24  43  65 100 131 165 213 268 321 375
#     4  12  23  44  70  93 129 169 214 262 326 387
#     4  10  21  40  65  87 124 167 207 252 305 374
#
# _framework density 19.944082999999999
#
# number of rings (size 3 to 8) (size 9 to 14) (size 15 to 20)
#    0.000    1.000    5.000    3.000    1.750    0.500 
#    0.000    1.250    0.000    0.000    0.000    0.000 
#    0.000    0.000    0.000    0.000    0.000    0.000 
#
# Total GULP energy -198272.779078 kJ/mol
# GULP energy per Si atom -12392.048692 kJ/mol
# Density = 1.989869 g / cm^3
# Si number density = 19.944083 Si / 1000 Ang^3
#
#
#
# Elastic Constant Matrix: (Units=GPa)
#
#
# Indices 1 2 3 4 5 6 
#
# 1 144.1192 34.5693 62.1072 -5.3766 -6.4921 -17.1554
# 2 34.5693 59.1447 33.5290 -2.4711 -6.5273 -17.7335
# 3 62.1072 33.5290 117.7779 -1.0797 -11.6158 -12.3602
# 4 -5.3766 -2.4711 -1.0797 29.7764 0.8010 -3.4246
# 5 -6.4921 -6.5273 -11.6158 0.8010 46.4093 0.5049
# 6 -17.1554 -17.7335 -12.3602 -3.4246 0.5049 32.0578
#
#
#
# Elastic Compliance Matrix: (Units=1/GPa)
#
#
# Indices 1 2 3 4 5 6 
#
# 1 0.009662 -0.002550 -0.004116 0.001657 -0.000091 0.002351
# 2 -0.002550 0.024329 -0.004253 0.002586 0.001839 0.010701
# 3 -0.004116 -0.004253 0.012046 -0.000711 0.001854 -0.000016
# 4 0.001657 0.002586 -0.000711 0.034740 -0.000245 0.005758
# 5 -0.000091 0.001839 0.001854 -0.000245 0.022247 0.001307
# 6 0.002351 0.010701 -0.000016 0.005758 0.001307 0.038960
#
#
# Mechanical properties :
#
#
# Convention : Reuss Voigt Hill
#
# Bulk Modulus (GPa) = 41.32424 64.60586 52.96505
# Shear Modulus (GPa) = 29.08868 34.37112 31.72990
#
# Velocity S-wave (km/s) = 3.82319 4.15586 3.99299
# Velocity P-wave (km/s) = 6.34461 7.44930 6.91904
#
# Compressibility (1/GPa) = 0.02419887
#
# Stress axis : x y z
#
# Youngs Moduli (GPa) = 103.50217 41.10400 83.01166
#
# Poissons Ratio (x) = 0.10480 0.34168
# Poissons Ratio (y) = 0.26388 0.35307
# Poissons Ratio (z) = 0.42602 0.17483
#
# Static dielectric constant tensor:
#      x y z
#    x 3.962910 -0.124200 -0.128280 
#    y -0.124200 3.458200 -0.097450 
#    z -0.128280 -0.097450 3.643460 
# 
# 
# High freq. dielectric constant tensor:
#      x y z
#    x 1.799950 -0.001310 -0.007020 
#    y -0.001310 1.760710 -0.011160 
#    z -0.007020 -0.011160 1.785330 
# 
# From -- ./inp_files/56463.got.cif
#   From: 2010.06.25/outbox.cif.g09.slc.cpg/sg2_29_cif.got.tgz:56463.got - 2010.06.27 13:26:56.
