data_PCOD8011922
_publ_section_title
;
Structure prediction by ZEFSAII (Michael W. Deem and Ramdas Pophale) SiO2 
 PCOD8011922
Probable space group: P -1
;
_chemical_formula_sum "Si O2"
_cell_formula_units_Z 16
_cell_length_a 7.486095
_cell_length_b 23.881129
_cell_length_c 13.917794
_cell_angle_alpha 26.489031
_cell_angle_beta 46.729328
_cell_angle_gamma 57.981185
_cell_volume 781.038553
_symmetry_space_group_name_H-M "P -1"
_symmetry_group_IT_number 2
_symmetry_cell_setting 'triclinic'
loop_
_space_group_symop_operation_xyz
x,y,z
-x,-y,-z
loop_
_atom_site_type_symbol
_atom_site_label
_atom_site_fract_x
_atom_site_fract_y
_atom_site_fract_z
Si Si1 0.238303 0.348619 0.245735
Si Si2 0.762736 0.979516 0.828431
Si Si3 0.298243 0.807833 0.346849
Si Si4 0.763461 0.555633 0.521892
Si Si5 0.434918 0.288304 0.065866
Si Si6 0.066672 0.791016 0.952350
Si Si7 0.477489 0.366790 0.329795
Si Si8 0.028312 0.869276 0.644759
O O1 0.327158 0.278063 0.229875
O O2 0.364707 0.312493 0.351848
O O3 0.936083 0.297344 0.450595
O O4 0.298691 0.503230 0.970696
O O5 0.789250 0.063719 0.786360
O O6 0.513047 0.858782 0.108307
O O7 0.749915 0.083021 0.589216
O O8 0.013985 0.926075 0.801862
O O9 0.409864 0.741775 0.495261
O O10 0.740646 0.600093 0.572726
O O11 0.000000 0.500000 0.500000
O O12 0.809563 0.680507 0.244282
O O13 0.512523 0.439719 0.770412
O O14 0.228263 0.211151 0.187290
O O15 0.679326 0.228599 0.062204
O O16 0.101905 0.784694 0.833536
O O17 0.000000 0.000000 0.500000
#
# Coordination Sequence:
#
# PCOD8011922 Si02
#       8
#     2   2   2   2   2   2   2   2
#     4  10  22  39  64  97 116 156 206 243 310 366
#     4  10  22  39  59  86 121 161 208 243 292 356
#     4  11  21  41  62  84 128 161 196 255 295 360
#     4   9  19  40  63  91 123 149 198 254 303 362
#     4  10  21  39  65  89 121 157 201 255 303 358
#     4  10  21  41  62  88 122 161 197 257 305 346
#     4  10  21  40  65  91 122 158 195 254 307 357
#     4  10  22  40  59  89 120 160 208 245 293 360
#
# _framework density 20.485544999999998
#
# number of rings (size 3 to 8) (size 9 to 14) (size 15 to 20)
#    0.000    2.000    2.500    0.375    1.750    2.500 
#    9.000    3.750    0.000    0.000    0.000    0.000 
#    0.000    0.000    0.000    0.000    0.000    0.000 
#
# Total GULP energy -198229.992107 kJ/mol
# GULP energy per Si atom -12389.374507 kJ/mol
# Density = 2.043892 g / cm^3
# Si number density = 20.485545 Si / 1000 Ang^3
#
#
#
# Elastic Constant Matrix: (Units=GPa)
#
#
# Indices 1 2 3 4 5 6 
#
# 1 89.6632 19.9852 45.6709 -5.0069 -4.4145 8.5238
# 2 19.9852 74.3429 2.8913 -7.8247 -4.2146 -2.4266
# 3 45.6709 2.8913 132.2965 10.7461 -2.6171 4.0508
# 4 -5.0069 -7.8247 10.7461 22.8957 -0.8243 -1.7714
# 5 -4.4145 -4.2146 -2.6171 -0.8243 27.0887 -0.0360
# 6 8.5238 -2.4266 4.0508 -1.7714 -0.0360 27.2344
#
#
#
# Elastic Compliance Matrix: (Units=1/GPa)
#
#
# Indices 1 2 3 4 5 6 
#
# 1 0.015425 -0.003505 -0.005458 0.004481 0.001572 -0.004035
# 2 -0.003505 0.015038 0.000479 0.004423 0.001953 0.002656
# 3 -0.005458 0.000479 0.009896 -0.005683 -0.000032 -0.000091
# 4 0.004481 0.004423 -0.005683 0.049156 0.002369 0.003037
# 5 0.001572 0.001953 -0.000032 0.002369 0.037545 -0.000110
# 6 -0.004035 0.002656 -0.000091 0.003037 -0.000110 0.038429
#
#
# Mechanical properties :
#
#
# Convention : Reuss Voigt Hill
#
# Bulk Modulus (GPa) = 42.74983 48.15526 45.45255
# Shear Modulus (GPa) = 26.28078 30.62742 28.45410
#
# Velocity S-wave (km/s) = 3.58564 3.87081 3.73095
# Velocity P-wave (km/s) = 6.16895 6.59815 6.38716
#
# Compressibility (1/GPa) = 0.02339190
#
# Stress axis : x y z
#
# Youngs Moduli (GPa) = 64.82817 66.49887 101.04922
#
# Poissons Ratio (x) = 0.23310 0.55151
# Poissons Ratio (y) = 0.22725 -0.04845
# Poissons Ratio (z) = 0.35382 -0.03188
#
# Static dielectric constant tensor:
#      x y z
#    x 3.338350 -0.079080 -0.006500 
#    y -0.079080 3.282130 -0.406080 
#    z -0.006500 -0.406080 4.176380 
# 
# 
# High freq. dielectric constant tensor:
#      x y z
#    x 1.755760 -0.001670 -0.002320 
#    y -0.001670 1.807950 0.003070 
#    z -0.002320 0.003070 1.829060 
# 
# From -- ./inp_files/370957.got.cif
#   From: 2010.06.25/outbox.cif.g09.slc.cpg/sg2_186_cif.got.tgz:370957.got - 2010.06.27 13:26:56.
