data_PCOD8011788
_publ_section_title
;
Structure prediction by ZEFSAII (Michael W. Deem and Ramdas Pophale) SiO2 
 PCOD8011788
Probable space group: P -1
;
_chemical_formula_sum "Si O2"
_cell_formula_units_Z 16
_cell_length_a 6.578672
_cell_length_b 14.552981
_cell_length_c 12.184026
_cell_angle_alpha 104.330170
_cell_angle_beta 89.644753
_cell_angle_gamma 134.404771
_cell_volume 783.579426
_symmetry_space_group_name_H-M "P -1"
_symmetry_group_IT_number 2
_symmetry_cell_setting 'triclinic'
loop_
_space_group_symop_operation_xyz
x,y,z
-x,-y,-z
loop_
_atom_site_type_symbol
_atom_site_label
_atom_site_fract_x
_atom_site_fract_y
_atom_site_fract_z
Si Si1 0.348200 0.117978 0.024045
Si Si2 0.208713 0.818124 0.114962
Si Si3 0.971720 0.554903 0.123553
Si Si4 0.529901 0.905947 0.745444
Si Si5 0.330483 0.320117 0.076516
Si Si6 0.873232 0.704331 0.697447
Si Si7 0.897193 0.495636 0.664694
Si Si8 0.465567 0.697124 0.578856
O O1 0.487128 0.144401 0.148737
O O2 0.434964 0.250451 0.018476
O O3 0.493286 0.091713 0.931628
O O4 0.000000 0.000000 0.000000
O O5 0.172671 0.716930 0.165985
O O6 0.242706 0.929195 0.213186
O O7 0.917685 0.719956 0.012205
O O8 0.636422 0.480510 0.118547
O O9 0.087133 0.531735 0.218054
O O10 0.000000 0.500000 0.000000
O O11 0.616743 0.851353 0.643487
O O12 0.205482 0.831913 0.696325
O O13 0.196664 0.263214 0.181211
O O14 0.785235 0.565819 0.677428
O O15 0.694850 0.689300 0.592593
O O16 0.666584 0.351885 0.557565
O O17 0.215404 0.595020 0.639777
#
# Coordination Sequence:
#
# PCOD8011788 Si02
#       8
#     2   2   2   2   2   2   2   2
#     4  12  21  36  58  88 126 159 198 257 306 353
#     4  12  25  37  58  90 127 170 202 239 308 371
#     4  12  24  43  61  88 129 166 203 246 301 378
#     4  11  22  36  58  92 122 160 204 253 301 360
#     4  12  21  38  61  90 125 163 198 251 308 361
#     4  11  19  36  66  90 120 151 205 256 311 352
#     4  10  22  40  62  92 120 157 204 253 307 358
#     4  10  21  39  64  90 121 152 204 266 303 346
#
# _framework density 20.419117
#
# number of rings (size 3 to 8) (size 9 to 14) (size 15 to 20)
#    0.000    0.750    6.250    3.375    0.000    0.000 
#    0.000    0.625    0.000    0.750    0.000    0.000 
#    0.000    0.000    0.000    0.000    0.000    0.000 
#
# Total GULP energy -198388.322595 kJ/mol
# GULP energy per Si atom -12399.270162 kJ/mol
# Density = 2.037264 g / cm^3
# Si number density = 20.419117 Si / 1000 Ang^3
#
#
#
# Elastic Constant Matrix: (Units=GPa)
#
#
# Indices 1 2 3 4 5 6 
#
# 1 114.0105 36.6013 37.3901 7.0074 14.0039 -2.4402
# 2 36.6013 93.3371 38.1147 14.9597 2.6933 -11.8890
# 3 37.3901 38.1147 106.8004 9.1563 9.4576 -9.7101
# 4 7.0074 14.9597 9.1563 27.3599 -4.4293 -3.2573
# 5 14.0039 2.6933 9.4576 -4.4293 24.8822 7.1618
# 6 -2.4402 -11.8890 -9.7101 -3.2573 7.1618 29.1807
#
#
#
# Elastic Compliance Matrix: (Units=1/GPa)
#
#
# Indices 1 2 3 4 5 6 
#
# 1 0.011250 -0.003127 -0.002223 -0.001290 -0.005410 0.000111
# 2 -0.003127 0.014749 -0.003206 -0.005827 -0.000878 0.004246
# 3 -0.002223 -0.003206 0.012156 -0.002048 -0.004365 0.003396
# 4 -0.001290 -0.005827 -0.002048 0.042252 0.009910 -0.000880
# 5 -0.005410 -0.000878 -0.004365 0.009910 0.050664 -0.013591
# 6 0.000111 0.004246 0.003396 -0.000880 -0.013591 0.040376
#
#
# Mechanical properties :
#
#
# Convention : Reuss Voigt Hill
#
# Bulk Modulus (GPa) = 47.51737 59.81779 53.66758
# Shear Modulus (GPa) = 25.56592 29.75404 27.65998
#
# Velocity S-wave (km/s) = 3.54228 3.82143 3.68450
# Velocity P-wave (km/s) = 6.32866 6.98782 6.66639
#
# Compressibility (1/GPa) = 0.02104493
#
# Stress axis : x y z
#
# Youngs Moduli (GPa) = 88.88779 67.80024 82.26151
#
# Poissons Ratio (x) = 0.21200 0.18286
# Poissons Ratio (y) = 0.27794 0.26370
# Poissons Ratio (z) = 0.19759 0.21734
#
# Static dielectric constant tensor:
#      x y z
#    x 3.931050 -0.105790 0.004930 
#    y -0.105790 3.665580 0.238520 
#    z 0.004930 0.238520 3.636470 
# 
# 
# High freq. dielectric constant tensor:
#      x y z
#    x 1.816520 -0.006470 0.006540 
#    y -0.006470 1.773840 0.024790 
#    z 0.006540 0.024790 1.777380 
# 
# From -- ./inp_files/76518.got.cif
#   From: 2010.06.25/outbox.cif.g09.slc.cpg/sg2_39_cif.got.tgz:76518.got - 2010.06.27 13:26:56.
