data_PCOD8011929
_publ_section_title
;
Structure prediction by ZEFSAII (Michael W. Deem and Ramdas Pophale) SiO2 
 PCOD8011929
Probable space group: P -1
;
_chemical_formula_sum "Si O2"
_cell_formula_units_Z 16
_cell_length_a 16.575580
_cell_length_b 16.983192
_cell_length_c 15.543399
_cell_angle_alpha 17.314234
_cell_angle_beta 145.930547
_cell_angle_gamma 145.713464
_cell_volume 712.859826
_symmetry_space_group_name_H-M "P -1"
_symmetry_group_IT_number 2
_symmetry_cell_setting 'triclinic'
loop_
_space_group_symop_operation_xyz
x,y,z
-x,-y,-z
loop_
_atom_site_type_symbol
_atom_site_label
_atom_site_fract_x
_atom_site_fract_y
_atom_site_fract_z
Si Si1 0.513808 0.343705 0.870365
Si Si2 0.447958 0.092493 0.767494
Si Si3 0.988193 0.445475 0.405253
Si Si4 0.693009 0.544782 0.285300
Si Si5 0.471370 0.216575 0.316439
Si Si6 0.849984 0.465801 0.080235
Si Si7 0.885635 0.020880 0.450844
Si Si8 0.833182 0.870252 0.907772
O O1 0.499653 0.588282 0.538077
O O2 0.394114 0.311635 0.873133
O O3 0.673416 0.380390 0.017399
O O4 0.482678 0.066081 0.079356
O O5 0.272263 0.017467 0.693047
O O6 0.500000 0.000000 0.000000
O O7 0.164763 0.529277 0.466711
O O8 0.932576 0.168781 0.698896
O O9 0.918855 0.394196 0.303996
O O10 0.938603 0.680694 0.167832
O O11 0.582902 0.265728 0.445349
O O12 0.748950 0.763671 0.032070
O O13 0.297355 0.131244 0.277563
O O14 0.500000 0.000000 0.500000
O O15 0.500000 0.500000 0.000000
O O16 0.895230 0.786531 0.771861
O O17 0.918197 0.307831 0.229817
O O18 0.000000 0.000000 0.500000
#
# Coordination Sequence:
#
# PCOD8011929 Si02
#       8
#     2   2   2   2   2   2   2   2
#     4  10  23  40  63  91 126 166 204 257 310 373
#     4  10  22  40  63  92 126 160 201 253 314 370
#     4  12  25  41  64  91 128 169 208 269 321 365
#     4  11  25  42  65  96 125 162 222 270 313 372
#     4  10  22  40  62  86 116 160 208 254 307 375
#     4  10  22  41  59  90 126 162 204 249 312 375
#     4  10  21  39  65  90 120 160 203 249 304 378
#     4  11  24  43  62  88 126 171 211 261 323 376
#
# _framework density 22.444804999999999
#
# number of rings (size 3 to 8) (size 9 to 14) (size 15 to 20)
#    0.000    1.500    0.000    4.500    0.000   11.000 
#    0.000    0.000    0.000    0.000    0.000    0.000 
#    0.000    0.000    0.000    0.000    0.000    0.000 
#
# Total GULP energy -198407.815622 kJ/mol
# GULP energy per Si atom -12400.488476 kJ/mol
# Density = 2.239372 g / cm^3
# Si number density = 22.444805 Si / 1000 Ang^3
#
#
#
# Elastic Constant Matrix: (Units=GPa)
#
#
# Indices 1 2 3 4 5 6 
#
# 1 132.3805 48.7263 30.7764 21.9667 34.4836 2.9310
# 2 48.7263 96.0287 45.3133 10.2363 15.1710 6.5252
# 3 30.7764 45.3133 113.0384 5.4216 26.8864 -2.1636
# 4 21.9667 10.2363 5.4216 29.8841 -3.9284 -1.6205
# 5 34.4836 15.1710 26.8864 -3.9284 38.5105 10.1367
# 6 2.9310 6.5252 -2.1636 -1.6205 10.1367 27.1561
#
#
#
# Elastic Compliance Matrix: (Units=1/GPa)
#
#
# Indices 1 2 3 4 5 6 
#
# 1 0.014596 -0.005288 0.002341 -0.011055 -0.015019 0.004828
# 2 -0.005288 0.015591 -0.005860 -0.000141 0.004026 -0.005153
# 3 0.002341 -0.005860 0.013494 -0.003294 -0.011178 0.006206
# 4 -0.011055 -0.000141 -0.003294 0.044383 0.017556 -0.002940
# 5 -0.015019 0.004026 -0.011178 0.017556 0.052355 -0.018732
# 6 0.004828 -0.005153 0.006206 -0.002940 -0.018732 0.044852
#
#
# Mechanical properties :
#
#
# Convention : Reuss Voigt Hill
#
# Bulk Modulus (GPa) = 38.36202 65.67550 52.01876
# Shear Modulus (GPa) = 23.63247 33.55225 28.59236
#
# Velocity S-wave (km/s) = 3.24839 3.87056 3.57304
# Velocity P-wave (km/s) = 5.58553 7.02135 6.34419
#
# Compressibility (1/GPa) = 0.02606745
#
# Stress axis : x y z
#
# Youngs Moduli (GPa) = 68.51208 64.14084 74.10879
#
# Poissons Ratio (x) = 0.33915 -0.17347
# Poissons Ratio (y) = 0.36226 0.43425
# Poissons Ratio (z) = -0.16037 0.37584
#
# Static dielectric constant tensor:
#      x y z
#    x 3.887730 0.167180 0.116190 
#    y 0.167180 4.758280 0.052870 
#    z 0.116190 0.052870 4.339050 
# 
# 
# High freq. dielectric constant tensor:
#      x y z
#    x 1.873870 0.002120 0.013760 
#    y 0.002120 1.889230 0.003090 
#    z 0.013760 0.003090 1.901530 
# 
# From -- ./inp_files/534024.got.cif
#   From: 2010.06.25/outbox.cif.g09.slc.cpg/sg2_268_cif.got.tgz:534024.got - 2010.06.27 13:26:56.
