data_PCOD8011468
_publ_section_title
;
Structure prediction by ZEFSAII (Michael W. Deem and Ramdas Pophale) SiO2 
 PCOD8011468
Probable space group: P -1
;
_chemical_formula_sum "Si O2"
_cell_formula_units_Z 16
_cell_length_a 17.400516
_cell_length_b 26.663325
_cell_length_c 14.641190
_cell_angle_alpha 21.548781
_cell_angle_beta 158.607307
_cell_angle_gamma 161.340499
_cell_volume 722.750474
_symmetry_space_group_name_H-M "P -1"
_symmetry_group_IT_number 2
_symmetry_cell_setting 'triclinic'
loop_
_space_group_symop_operation_xyz
x,y,z
-x,-y,-z
loop_
_atom_site_type_symbol
_atom_site_label
_atom_site_fract_x
_atom_site_fract_y
_atom_site_fract_z
Si Si1 0.772284 0.097130 0.413019
Si Si2 0.758909 0.218864 0.000247
Si Si3 0.205951 0.465538 0.483856
Si Si4 0.823826 0.060659 0.187217
Si Si5 0.357343 0.817224 0.699452
Si Si6 0.285163 0.511878 0.697242
Si Si7 0.370176 0.360763 0.675721
Si Si8 0.732129 0.227949 0.649819
O O1 0.774368 0.128366 0.256646
O O2 0.669790 0.176345 0.231910
O O3 0.076597 0.183950 0.628929
O O4 0.540208 0.888911 0.514693
O O5 0.929447 0.218476 0.107705
O O6 0.863534 0.404984 0.835646
O O7 0.464401 0.111274 0.815394
O O8 0.353201 0.522936 0.646836
O O9 0.378664 0.466001 0.593566
O O10 0.927347 0.280211 0.497681
O O11 0.814785 0.118613 0.976663
O O12 0.000000 0.000000 0.500000
O O13 0.500000 0.000000 0.500000
O O14 0.475278 0.712761 0.995518
O O15 0.322899 0.680218 0.489469
O O16 0.977347 0.354750 0.639948
O O17 0.500000 0.500000 0.000000
O O18 0.500000 0.500000 0.500000
#
# Coordination Sequence:
#
# PCOD8011468 Si02
#       8
#     2   2   2   2   2   2   2   2
#     4  10  23  42  68  96 135 174 221 285 337 400
#     4  10  21  39  61  94 134 168 219 276 328 391
#     4  11  24  43  68  97 137 177 225 288 334 402
#     4  10  22  37  62  90 129 174 216 264 328 396
#     4  11  25  44  67  98 137 177 227 285 347 403
#     4  11  25  42  67  96 135 181 226 271 336 405
#     4  11  25  45  73 103 130 180 236 280 351 413
#     4  10  23  43  63  95 135 173 223 276 331 401
#
# _framework density 22.137654000000001
#
# number of rings (size 3 to 8) (size 9 to 14) (size 15 to 20)
#    0.000    1.500    1.250    2.250    1.750   13.000 
#    0.000    0.000    0.000    0.000    0.000    0.000 
#    0.000    0.000    0.000    0.000    0.000    0.000 
#
# Total GULP energy -198214.527979 kJ/mol
# GULP energy per Si atom -12388.407999 kJ/mol
# Density = 2.208727 g / cm^3
# Si number density = 22.137654 Si / 1000 Ang^3
#
#
#
# Elastic Constant Matrix: (Units=GPa)
#
#
# Indices 1 2 3 4 5 6 
#
# 1 123.3780 28.4372 35.6862 2.9926 16.8353 -17.6486
# 2 28.4372 105.4938 16.7425 -1.5451 8.5499 -6.6979
# 3 35.6862 16.7425 109.9493 -5.6698 11.1558 -1.0779
# 4 2.9926 -1.5451 -5.6698 34.8562 -4.2265 -2.8684
# 5 16.8353 8.5499 11.1558 -4.2265 27.6121 -3.3859
# 6 -17.6486 -6.6979 -1.0779 -2.8684 -3.3859 32.8573
#
#
#
# Elastic Compliance Matrix: (Units=1/GPa)
#
#
# Indices 1 2 3 4 5 6 
#
# 1 0.010634 -0.001793 -0.002760 -0.001603 -0.004488 0.004653
# 2 -0.001793 0.010285 -0.000794 0.000368 -0.001595 0.000975
# 3 -0.002760 -0.000794 0.010401 0.001510 -0.002214 -0.001399
# 4 -0.001603 0.000368 0.001510 0.029908 0.005126 0.002403
# 5 -0.004488 -0.001595 -0.002214 0.005126 0.041358 0.001901
# 6 0.004653 0.000975 -0.001399 0.002403 0.001901 0.033493
#
#
# Mechanical properties :
#
#
# Convention : Reuss Voigt Hill
#
# Bulk Modulus (GPa) = 48.48276 55.61700 52.04988
# Shear Modulus (GPa) = 32.54216 36.26213 34.40215
#
# Velocity S-wave (km/s) = 3.83821 4.05165 3.94637
# Velocity P-wave (km/s) = 6.44907 6.86044 6.65793
#
# Compressibility (1/GPa) = 0.02062589
#
# Stress axis : x y z
#
# Youngs Moduli (GPa) = 94.04184 97.22840 96.14837
#
# Poissons Ratio (x) = 0.17430 0.26537
# Poissons Ratio (y) = 0.16859 0.07634
# Poissons Ratio (z) = 0.25956 0.07719
#
# Static dielectric constant tensor:
#      x y z
#    x 4.164510 0.025670 0.106370 
#    y 0.025670 4.708590 -0.040890 
#    z 0.106370 -0.040890 3.699180 
# 
# 
# High freq. dielectric constant tensor:
#      x y z
#    x 1.881730 -0.006580 0.001230 
#    y -0.006580 1.886370 -0.002170 
#    z 0.001230 -0.002170 1.854750 
# 
# From -- ./inp_files/539392.got.cif
#   From: 2010.06.25/outbox.cif.g09.slc.cpg/sg2_270_cif.got.tgz:539392.got - 2010.06.27 13:26:56.
