data_PCOD8011463
_publ_section_title
;
Structure prediction by ZEFSAII (Michael W. Deem and Ramdas Pophale) SiO2 
 PCOD8011463
Probable space group: P -1
;
_chemical_formula_sum "Si O2"
_cell_formula_units_Z 12
_cell_length_a 14.426934
_cell_length_b 11.601147
_cell_length_c 13.877038
_cell_angle_alpha 148.946779
_cell_angle_beta 151.106190
_cell_angle_gamma 28.524471
_cell_volume 495.931476
_symmetry_space_group_name_H-M "P -1"
_symmetry_group_IT_number 2
_symmetry_cell_setting 'triclinic'
loop_
_space_group_symop_operation_xyz
x,y,z
-x,-y,-z
loop_
_atom_site_type_symbol
_atom_site_label
_atom_site_fract_x
_atom_site_fract_y
_atom_site_fract_z
Si Si1 0.079842 0.489275 0.337995
Si Si2 0.481448 0.263826 0.207030
Si Si3 0.817384 0.489819 0.261449
Si Si4 0.866710 0.314240 0.678345
Si Si5 0.325480 0.898201 0.109798
Si Si6 0.737681 0.182653 0.214636
O O1 0.064426 0.589519 0.286387
O O2 0.162241 0.636066 0.590265
O O3 0.847462 0.547010 0.216945
O O4 0.247334 0.181256 0.281568
O O5 0.682982 0.227274 0.434090
O O6 0.239847 0.453372 0.172136
O O7 0.518789 0.371252 0.216678
O O8 0.500000 0.000000 0.000000
O O9 0.576164 0.707057 0.237697
O O10 0.000000 0.500000 0.500000
O O11 0.835259 0.208703 0.080361
O O12 0.088653 0.066097 0.741674
O O13 0.325881 0.917770 0.008368
#
# Coordination Sequence:
#
# PCOD8011463 Si02
#       6
#     2   2   2   2   2   2
#     4  11  23  44  71 101 138 184 224 286 338 408
#     4  10  21  39  61  93 137 184 224 271 324 401
#     4  11  25  51  72  99 137 177 232 297 341 404
#     4  10  24  41  64 101 144 179 224 274 338 407
#     4  11  26  46  73 104 133 180 234 278 355 406
#     4  11  24  42  66 103 142 181 224 278 338 413
#
# _framework density 24.196891999999998
#
# number of rings (size 3 to 8) (size 9 to 14) (size 15 to 20)
#    0.000    1.333    1.667    3.500    0.000   14.000 
#    3.000    0.000    0.000    0.000    0.000    0.000 
#    0.000    0.000    0.000    0.000    0.000    0.000 
#
# Total GULP energy -148696.036328 kJ/mol
# GULP energy per Si atom -12391.336361 kJ/mol
# Density = 2.414182 g / cm^3
# Si number density = 24.196892 Si / 1000 Ang^3
#
#
#
# Elastic Constant Matrix: (Units=GPa)
#
#
# Indices 1 2 3 4 5 6 
#
# 1 132.0845 30.7289 27.4690 2.9346 19.3138 -14.0349
# 2 30.7289 94.0481 55.3078 19.3234 8.7562 4.3303
# 3 27.4690 55.3078 109.0453 21.0561 4.4757 1.7843
# 4 2.9346 19.3234 21.0561 43.7509 -0.3515 -6.4037
# 5 19.3138 8.7562 4.4757 -0.3515 31.3241 8.8518
# 6 -14.0349 4.3303 1.7843 -6.4037 8.8518 33.1881
#
#
#
# Elastic Compliance Matrix: (Units=1/GPa)
#
#
# Indices 1 2 3 4 5 6 
#
# 1 0.010274 -0.002541 -0.001529 0.002156 -0.007402 0.007149
# 2 -0.002541 0.016670 -0.006861 -0.004399 -0.001199 -0.003410
# 3 -0.001529 -0.006861 0.013719 -0.003686 0.001296 -0.001546
# 4 0.002156 -0.004399 -0.003686 0.027493 -0.001340 0.007346
# 5 -0.007402 -0.001199 0.001296 -0.001340 0.040618 -0.014135
# 6 0.007149 -0.003410 -0.001546 0.007346 -0.014135 0.038870
#
#
# Mechanical properties :
#
#
# Convention : Reuss Voigt Hill
#
# Bulk Modulus (GPa) = 53.18327 62.46550 57.82438
# Shear Modulus (GPa) = 28.44593 36.43077 32.43835
#
# Velocity S-wave (km/s) = 3.43243 3.88441 3.66539
# Velocity P-wave (km/s) = 6.14295 6.78157 6.47015
#
# Compressibility (1/GPa) = 0.01880290
#
# Stress axis : x y z
#
# Youngs Moduli (GPa) = 97.33332 59.98783 72.89089
#
# Poissons Ratio (x) = 0.15241 0.11144
# Poissons Ratio (y) = 0.24730 0.50007
# Poissons Ratio (z) = 0.14880 0.41155
#
# Static dielectric constant tensor:
#      x y z
#    x 5.258150 -0.288740 0.376860 
#    y -0.288740 4.070290 0.163330 
#    z 0.376860 0.163330 4.699350 
# 
# 
# High freq. dielectric constant tensor:
#      x y z
#    x 1.981860 -0.008480 0.008940 
#    y -0.008480 1.934240 0.013020 
#    z 0.008940 0.013020 1.976880 
# 
# From -- ./inp_files/530818.got.cif
#   From: 2010.06.25/outbox.cif.g09.slc.cpg/sg2_266_cif.got.tgz:530818.got - 2010.06.27 13:26:56.
