data_PCOD8011745
_publ_section_title
;
Structure prediction by ZEFSAII (Michael W. Deem and Ramdas Pophale) SiO2 
 PCOD8011745
Probable space group: P -1
;
_chemical_formula_sum "Si O2"
_cell_formula_units_Z 14
_cell_length_a 11.247884
_cell_length_b 11.490549
_cell_length_c 13.807889
_cell_angle_alpha 53.951429
_cell_angle_beta 33.046274
_cell_angle_gamma 42.499031
_cell_volume 655.331903
_symmetry_space_group_name_H-M "P -1"
_symmetry_group_IT_number 2
_symmetry_cell_setting 'triclinic'
loop_
_space_group_symop_operation_xyz
x,y,z
-x,-y,-z
loop_
_atom_site_type_symbol
_atom_site_label
_atom_site_fract_x
_atom_site_fract_y
_atom_site_fract_z
Si Si1 0.891243 0.352399 0.330384
Si Si2 0.758022 0.169537 0.656793
Si Si3 0.687535 0.021701 0.604412
Si Si4 0.187043 0.756914 0.905888
Si Si5 0.344357 0.886476 0.917299
Si Si6 0.537549 0.331462 0.435606
Si Si7 0.630189 0.626627 0.018897
O O1 0.906472 0.197710 0.452750
O O2 0.730946 0.380867 0.327319
O O3 0.754732 0.505525 0.427616
O O4 0.171209 0.314145 0.130123
O O5 0.638003 0.077567 0.725826
O O6 0.532164 0.332957 0.790045
O O7 0.016773 0.053510 0.602447
O O8 0.516457 0.184887 0.572769
O O9 0.598668 0.889283 0.716386
O O10 0.274231 0.814956 0.909816
O O11 0.393347 0.713451 0.701487
O O12 0.209423 0.579610 0.007320
O O13 0.897211 0.914966 0.991790
O O14 0.421092 0.749191 0.019126
#
# Coordination Sequence:
#
# PCOD8011745 Si02
#       7
#     2   2   2   2   2   2   2
#     4  10  21  39  63  99 128 160 214 273 326 383
#     4  10  21  39  63  99 128 160 214 273 326 383
#     4  10  21  40  62  93 134 164 212 273 321 386
#     4  11  25  43  64  95 134 175 221 264 314 390
#     4  11  25  43  64  95 134 175 221 264 314 390
#     4  10  21  40  62  93 134 164 212 273 321 386
#     4  12  23  42  72  94 129 174 216 270 330 376
#
# _framework density 21.363219000000001
#
# number of rings (size 3 to 8) (size 9 to 14) (size 15 to 20)
#    0.000    1.429    2.857    2.143    2.000    1.714 
#    0.000    4.286    0.000    0.000    0.000    0.000 
#    0.000    0.000    0.000    0.000    0.000    0.000 
#
# Total GULP energy -173455.580603 kJ/mol
# GULP energy per Si atom -12389.684329 kJ/mol
# Density = 2.131460 g / cm^3
# Si number density = 21.363219 Si / 1000 Ang^3
#
#
#
# Elastic Constant Matrix: (Units=GPa)
#
#
# Indices 1 2 3 4 5 6 
#
# 1 61.0926 22.4796 28.7343 0.1144 -1.0108 -3.5002
# 2 22.4796 111.7489 21.9636 4.4121 2.8090 -7.6570
# 3 28.7343 21.9636 85.4729 3.0469 2.2458 8.4855
# 4 0.1144 4.4121 3.0469 33.4937 5.7236 1.6682
# 5 -1.0108 2.8090 2.2458 5.7236 26.5110 -2.6326
# 6 -3.5002 -7.6570 8.4855 1.6682 -2.6326 30.4709
#
#
#
# Elastic Compliance Matrix: (Units=1/GPa)
#
#
# Indices 1 2 3 4 5 6 
#
# 1 0.020758 -0.002660 -0.006730 0.000375 0.001934 0.003737
# 2 -0.002660 0.010114 -0.001927 -0.001207 -0.000471 0.002798
# 3 -0.006730 -0.001927 0.015076 -0.000514 -0.001773 -0.005581
# 4 0.000375 -0.001207 -0.000514 0.031347 -0.006823 -0.002423
# 5 0.001934 -0.000471 -0.001773 -0.006823 0.039906 0.004419
# 6 0.003737 0.002798 -0.005581 -0.002423 0.004419 0.036019
#
#
# Mechanical properties :
#
#
# Convention : Reuss Voigt Hill
#
# Bulk Modulus (GPa) = 42.89341 44.96325 43.92833
# Shear Modulus (GPa) = 27.22926 30.43759 28.83343
#
# Velocity S-wave (km/s) = 3.57401 3.77870 3.67778
# Velocity P-wave (km/s) = 6.09534 6.33489 6.21627
#
# Compressibility (1/GPa) = 0.02331360
#
# Stress axis : x y z
#
# Youngs Moduli (GPa) = 48.17354 98.87563 66.32984
#
# Poissons Ratio (x) = 0.26305 0.44640
# Poissons Ratio (y) = 0.12816 0.12781
# Poissons Ratio (z) = 0.32421 0.19052
#
# Static dielectric constant tensor:
#      x y z
#    x 3.702130 -0.194270 -0.065790 
#    y -0.194270 4.099030 0.053770 
#    z -0.065790 0.053770 3.624850 
# 
# 
# High freq. dielectric constant tensor:
#      x y z
#    x 1.818040 -0.010510 -0.000570 
#    y -0.010510 1.861310 0.002560 
#    z -0.000570 0.002560 1.825050 
# 
# From -- ./inp_files/285649.got.cif
#   From: 2010.06.25/outbox.cif.g09.slc.cpg/sg2_143_cif.got.tgz:285649.got - 2010.06.27 13:26:56.
