data_PCOD8011269
_publ_section_title
;
Structure prediction by ZEFSAII (Michael W. Deem and Ramdas Pophale) SiO2 
 PCOD8011269
Probable space group: P -1
;
_chemical_formula_sum "Si O2"
_cell_formula_units_Z 14
_cell_length_a 7.244227
_cell_length_b 18.716927
_cell_length_c 9.257124
_cell_angle_alpha 135.922428
_cell_angle_beta 51.129765
_cell_angle_gamma 127.140928
_cell_volume 652.129605
_symmetry_space_group_name_H-M "P -1"
_symmetry_group_IT_number 2
_symmetry_cell_setting 'triclinic'
loop_
_space_group_symop_operation_xyz
x,y,z
-x,-y,-z
loop_
_atom_site_type_symbol
_atom_site_label
_atom_site_fract_x
_atom_site_fract_y
_atom_site_fract_z
Si Si1 0.037548 0.239387 0.286180
Si Si2 0.438826 0.573998 0.255873
Si Si3 0.007222 0.615853 0.735375
Si Si4 0.204173 0.236659 0.743749
Si Si5 0.522673 0.606108 0.559584
Si Si6 0.749768 0.900884 0.225743
Si Si7 0.184907 0.854125 0.447155
O O1 0.302957 0.292826 0.301725
O O2 0.954331 0.328304 0.362043
O O3 0.851660 0.197855 0.450419
O O4 0.074327 0.142776 0.030056
O O5 0.511902 0.698694 0.349613
O O6 0.617875 0.582547 0.319608
O O7 0.158130 0.514153 0.368093
O O8 0.500000 0.500000 0.000000
O O9 0.265765 0.634646 0.714579
O O10 0.858336 0.678473 0.994203
O O11 0.209901 0.131035 0.674647
O O12 0.016183 0.209471 0.662124
O O13 0.500000 0.500000 0.500000
O O14 0.459490 0.856851 0.262558
O O15 0.844957 0.027741 0.353118
#
# Coordination Sequence:
#
# PCOD8011269 Si02
#       7
#     2   2   2   2   2   2   2
#     4  11  23  40  63  89 122 159 199 247 299 355
#     4  10  21  39  58  85 120 155 195 241 294 353
#     4  10  23  40  58  88 126 157 193 248 295 350
#     4  10  21  41  61  86 122 159 197 246 298 353
#     4  12  23  38  60  87 120 158 200 240 293 359
#     4  10  24  41  61  90 123 153 201 256 298 350
#     4  11  22  40  65  90 116 160 204 245 303 355
#
# _framework density 21.468126000000002
#
# number of rings (size 3 to 8) (size 9 to 14) (size 15 to 20)
#    0.000    1.429    2.857    2.143    2.000    0.000 
#    0.000    1.429    0.000    9.429    0.000    0.000 
#    0.000    0.000    0.000    0.000    0.000    0.000 
#
# Total GULP energy -173458.985575 kJ/mol
# GULP energy per Si atom -12389.927541 kJ/mol
# Density = 2.141926 g / cm^3
# Si number density = 21.468126 Si / 1000 Ang^3
#
#
#
# Elastic Constant Matrix: (Units=GPa)
#
#
# Indices 1 2 3 4 5 6 
#
# 1 90.0651 40.4224 2.4945 0.5900 4.6743 -12.9231
# 2 40.4224 141.1313 24.9408 -1.8020 7.8683 -12.7507
# 3 2.4945 24.9408 41.1900 -3.6364 9.9960 -12.4339
# 4 0.5900 -1.8020 -3.6364 31.2204 -4.2549 -0.0774
# 5 4.6743 7.8683 9.9960 -4.2549 32.4391 -2.1617
# 6 -12.9231 -12.7507 -12.4339 -0.0774 -2.1617 43.4293
#
#
#
# Elastic Compliance Matrix: (Units=1/GPa)
#
#
# Indices 1 2 3 4 5 6 
#
# 1 0.013408 -0.003964 0.003067 -0.000350 -0.001720 0.003618
# 2 -0.003964 0.009158 -0.005306 -0.000017 -0.000018 -0.000011
# 3 0.003067 -0.005306 0.031927 0.002263 -0.008157 0.008094
# 4 -0.000350 -0.000017 0.002263 0.032807 0.003713 0.000782
# 5 -0.001720 -0.000018 -0.008157 0.003713 0.034003 -0.001154
# 6 0.003618 -0.000011 0.008094 0.000782 -0.001154 0.026361
#
#
# Mechanical properties :
#
#
# Convention : Reuss Voigt Hill
#
# Bulk Modulus (GPa) = 23.75977 45.34465 34.55221
# Shear Modulus (GPa) = 28.71922 35.05299 31.88610
#
# Velocity S-wave (km/s) = 3.66151 4.04517 3.85811
# Velocity P-wave (km/s) = 5.38210 6.55634 5.99802
#
# Compressibility (1/GPa) = 0.04208795
#
# Stress axis : x y z
#
# Youngs Moduli (GPa) = 74.58300 109.18931 31.32125
#
# Poissons Ratio (x) = 0.43282 -0.09606
# Poissons Ratio (y) = 0.29564 0.16618
# Poissons Ratio (z) = -0.22874 0.57933
#
# Static dielectric constant tensor:
#      x y z
#    x 3.837000 -0.107620 0.195450 
#    y -0.107620 4.380840 -0.198740 
#    z 0.195450 -0.198740 3.912600 
# 
# 
# High freq. dielectric constant tensor:
#      x y z
#    x 1.839020 -0.006000 0.009090 
#    y -0.006000 1.865430 -0.005970 
#    z 0.009090 -0.005970 1.852120 
# 
# From -- ./inp_files/27241.got.cif
#   From: 2010.06.25/outbox.cif.g09.slc.cpg/sg2_14_cif.got.tgz:27241.got - 2010.06.27 13:26:56.
