data_PCOD8011052
_publ_section_title
;
Structure prediction by ZEFSAII (Michael W. Deem and Ramdas Pophale) SiO2 
 PCOD8011052
Probable space group: P -1
;
_chemical_formula_sum "Si O2"
_cell_formula_units_Z 16
_cell_length_a 9.434172
_cell_length_b 17.841111
_cell_length_c 8.732248
_cell_angle_alpha 88.263484
_cell_angle_beta 119.880996
_cell_angle_gamma 133.170936
_cell_volume 809.630236
_symmetry_space_group_name_H-M "P -1"
_symmetry_group_IT_number 2
_symmetry_cell_setting 'triclinic'
loop_
_space_group_symop_operation_xyz
x,y,z
-x,-y,-z
loop_
_atom_site_type_symbol
_atom_site_label
_atom_site_fract_x
_atom_site_fract_y
_atom_site_fract_z
Si Si1 0.870407 0.884302 0.014659
Si Si2 0.645338 0.332828 0.393840
Si Si3 0.454110 0.771315 0.348085
Si Si4 0.090959 0.422860 0.462843
Si Si5 0.790481 0.808943 0.291895
Si Si6 0.296174 0.989296 0.423108
Si Si7 0.966169 0.574738 0.928021
Si Si8 0.451853 0.437494 0.822745
O O1 0.742697 0.849187 0.118894
O O2 0.658290 0.775132 0.796365
O O3 0.119435 0.920450 0.178733
O O4 0.000000 0.000000 0.000000
O O5 0.673140 0.329721 0.590261
O O6 0.748264 0.450146 0.392674
O O7 0.805777 0.325238 0.390531
O O8 0.687937 0.810827 0.389798
O O9 0.561889 0.881487 0.486670
O O10 0.226058 0.710349 0.110789
O O11 0.065206 0.421009 0.268074
O O12 0.242266 0.402415 0.600360
O O13 0.648717 0.680950 0.185968
O O14 0.101903 0.905919 0.468224
O O15 0.500000 0.000000 0.500000
O O16 0.723583 0.527165 0.879713
O O17 0.000000 0.500000 0.000000
O O18 0.500000 0.500000 0.000000
#
# Coordination Sequence:
#
# PCOD8011052 Si02
#       8
#     2   2   2   2   2   2   2   2
#     4  10  21  38  66  92 125 165 223 265 322 393
#     4  11  21  38  67  97 127 173 221 266 331 395
#     4  12  22  42  69  93 130 177 219 267 328 394
#     4  11  25  39  64  98 139 169 219 273 328 394
#     4  10  23  41  65  93 132 168 218 266 328 392
#     4  10  25  41  65  96 126 166 218 278 327 381
#     4  12  24  42  65  97 137 177 218 268 331 399
#     4  12  25  41  67 100 136 177 219 274 333 388
#
# _framework density 19.762105999999999
#
# number of rings (size 3 to 8) (size 9 to 14) (size 15 to 20)
#    0.750    0.250    3.750    3.000    5.250    0.000 
#    0.000    0.000    0.000    2.250    0.000    0.000 
#    0.000    0.000    0.000    0.000    0.000    0.000 
#
# Total GULP energy -198230.889944 kJ/mol
# GULP energy per Si atom -12389.430621 kJ/mol
# Density = 1.971713 g / cm^3
# Si number density = 19.762106 Si / 1000 Ang^3
#
#
#
# Elastic Constant Matrix: (Units=GPa)
#
#
# Indices 1 2 3 4 5 6 
#
# 1 125.0109 46.2778 50.1448 -8.3251 14.1542 18.5676
# 2 46.2778 102.5251 36.2776 -0.9519 2.7351 12.9992
# 3 50.1448 36.2776 132.9853 3.7470 12.4775 7.4704
# 4 -8.3251 -0.9519 3.7470 42.2690 8.1887 -6.1949
# 5 14.1542 2.7351 12.4775 8.1887 32.4388 3.4198
# 6 18.5676 12.9992 7.4704 -6.1949 3.4198 34.0456
#
#
#
# Elastic Compliance Matrix: (Units=1/GPa)
#
#
# Indices 1 2 3 4 5 6 
#
# 1 0.011669 -0.003672 -0.002909 0.002746 -0.003995 -0.003423
# 2 -0.003672 0.012395 -0.001993 -0.001019 0.001862 -0.002665
# 3 -0.002909 -0.001993 0.009353 -0.001028 -0.001933 0.000302
# 4 0.002746 -0.001019 -0.001028 0.026491 -0.007903 0.004731
# 5 -0.003995 0.001862 -0.001933 -0.007903 0.035480 -0.003110
# 6 -0.003423 -0.002665 0.000302 0.004731 -0.003110 0.033364
#
#
# Mechanical properties :
#
#
# Convention : Reuss Voigt Hill
#
# Bulk Modulus (GPa) = 61.46085 69.54686 65.50385
# Shear Modulus (GPa) = 33.04192 36.93876 34.99034
#
# Velocity S-wave (km/s) = 4.09343 4.32808 4.21239
# Velocity P-wave (km/s) = 7.31501 7.76175 7.54169
#
# Compressibility (1/GPa) = 0.01627052
#
# Stress axis : x y z
#
# Youngs Moduli (GPa) = 85.69790 80.67672 106.91303
#
# Poissons Ratio (x) = 0.29624 0.31096
# Poissons Ratio (y) = 0.31467 0.21308
# Poissons Ratio (z) = 0.24925 0.16079
#
# Static dielectric constant tensor:
#      x y z
#    x 3.456030 0.157420 0.216460 
#    y 0.157420 3.798670 0.031780 
#    z 0.216460 0.031780 3.714170 
# 
# 
# High freq. dielectric constant tensor:
#      x y z
#    x 1.753900 0.018630 0.003970 
#    y 0.018630 1.780320 0.008930 
#    z 0.003970 0.008930 1.776930 
# 
# From -- ./inp_files/217525.got.cif
#   From: 2010.06.25/outbox.cif.g09.slc.cpg/sg2_109_cif.got.tgz:217525.got - 2010.06.27 13:26:56.
