data_PCOD8011936
_publ_section_title
;
Structure prediction by ZEFSAII (Michael W. Deem and Ramdas Pophale) SiO2 
 PCOD8011936
Probable space group: P -1
;
_chemical_formula_sum "Si O2"
_cell_formula_units_Z 14
_cell_length_a 8.988655
_cell_length_b 7.671260
_cell_length_c 12.299563
_cell_angle_alpha 72.560838
_cell_angle_beta 47.424898
_cell_angle_gamma 75.610004
_cell_volume 594.567281
_symmetry_space_group_name_H-M "P -1"
_symmetry_group_IT_number 2
_symmetry_cell_setting 'triclinic'
loop_
_space_group_symop_operation_xyz
x,y,z
-x,-y,-z
loop_
_atom_site_type_symbol
_atom_site_label
_atom_site_fract_x
_atom_site_fract_y
_atom_site_fract_z
Si Si1 0.463669 0.302466 0.099527
Si Si2 0.824445 0.818766 0.135125
Si Si3 0.295986 0.549928 0.654134
Si Si4 0.571813 0.158119 0.304461
Si Si5 0.017612 0.260869 0.369620
Si Si6 0.840170 0.084375 0.906340
Si Si7 0.874666 0.889651 0.441905
O O1 0.519435 0.285377 0.202293
O O2 0.234403 0.246460 0.203292
O O3 0.500000 0.500000 0.000000
O O4 0.612757 0.165058 0.981685
O O5 0.740507 0.620064 0.218099
O O6 0.056363 0.809799 0.064407
O O7 0.690610 0.968096 0.246263
O O8 0.827204 0.875412 0.995089
O O9 0.500000 0.500000 0.500000
O O10 0.298810 0.732276 0.692823
O O11 0.118763 0.570859 0.646322
O O12 0.359149 0.119040 0.476291
O O13 0.058135 0.276697 0.476492
O O14 0.889989 0.083684 0.455502
O O15 0.975714 0.118215 0.730563
#
# Coordination Sequence:
#
# PCOD8011936 Si02
#       7
#     2   2   2   2   2   2   2
#     4  10  22  41  61  89 130 170 210 260 318 376
#     4  10  22  41  63  98 132 161 211 264 317 376
#     4  12  24  39  68 101 126 164 216 262 313 379
#     4  10  23  43  67  93 129 170 207 264 322 369
#     4  10  23  40  63  94 128 168 211 261 317 375
#     4  10  21  39  65  90 127 171 208 262 317 373
#     4  10  21  42  66  91 126 168 214 260 316 377
#
# _framework density 23.546537000000001
#
# number of rings (size 3 to 8) (size 9 to 14) (size 15 to 20)
#    0.000    1.714    0.000    3.429    0.000    5.714 
#    0.000   11.429    0.000    8.571    0.000    0.000 
#    0.000    0.000    0.000    0.000    0.000    0.000 
#
# Total GULP energy -173537.414151 kJ/mol
# GULP energy per Si atom -12395.529582 kJ/mol
# Density = 2.349294 g / cm^3
# Si number density = 23.546537 Si / 1000 Ang^3
#
#
#
# Elastic Constant Matrix: (Units=GPa)
#
#
# Indices 1 2 3 4 5 6 
#
# 1 100.0372 33.7751 49.8351 5.1392 -13.3950 -25.4891
# 2 33.7751 78.6308 42.3238 -12.7663 -4.1362 -14.4609
# 3 49.8351 42.3238 174.1756 -3.5074 -5.3897 -26.6536
# 4 5.1392 -12.7663 -3.5074 45.6353 -2.1239 -4.1963
# 5 -13.3950 -4.1362 -5.3897 -2.1239 36.7050 3.3644
# 6 -25.4891 -14.4609 -26.6536 -4.1963 3.3644 32.2512
#
#
#
# Elastic Compliance Matrix: (Units=1/GPa)
#
#
# Indices 1 2 3 4 5 6 
#
# 1 0.014958 -0.004054 -0.002048 -0.002094 0.003880 0.007634
# 2 -0.004054 0.017237 -0.002425 0.005393 0.000125 0.003209
# 3 -0.002048 -0.002425 0.007460 0.000441 -0.000224 0.003540
# 4 -0.002094 0.005393 0.000441 0.024117 0.000922 0.004170
# 5 0.003880 0.000125 -0.000224 0.000922 0.028689 0.000064
# 6 0.007634 0.003209 0.003540 0.004170 0.000064 0.041940
#
#
# Mechanical properties :
#
#
# Convention : Reuss Voigt Hill
#
# Bulk Modulus (GPa) = 44.24881 67.19018 55.71949
# Shear Modulus (GPa) = 31.44867 38.04561 34.74714
#
# Velocity S-wave (km/s) = 3.65855 4.02402 3.84562
# Velocity P-wave (km/s) = 6.05636 7.08430 6.59040
#
# Compressibility (1/GPa) = 0.02259948
#
# Stress axis : x y z
#
# Youngs Moduli (GPa) = 66.85535 58.01587 134.04231
#
# Poissons Ratio (x) = 0.23521 0.27458
# Poissons Ratio (y) = 0.27105 0.32504
# Poissons Ratio (z) = 0.13695 0.14068
#
# Static dielectric constant tensor:
#      x y z
#    x 4.626320 -0.297320 -0.075790 
#    y -0.297320 3.900600 -0.228450 
#    z -0.075790 -0.228450 4.627840 
# 
# 
# High freq. dielectric constant tensor:
#      x y z
#    x 1.937470 -0.027060 -0.001190 
#    y -0.027060 1.899350 -0.013340 
#    z -0.001190 -0.013340 1.959980 
# 
# From -- ./inp_files/494570.got.cif
#   From: 2010.06.25/outbox.cif.g09.slc.cpg/sg2_248_cif.got.tgz:494570.got - 2010.06.27 13:26:56.
