data_PCOD8011836
_publ_section_title
;
Structure prediction by ZEFSAII (Michael W. Deem and Ramdas Pophale) SiO2 
 PCOD8011836
Probable space group: P -1
;
_chemical_formula_sum "Si O2"
_cell_formula_units_Z 16
_cell_length_a 11.279191
_cell_length_b 8.914787
_cell_length_c 8.945350
_cell_angle_alpha 105.693812
_cell_angle_beta 70.807624
_cell_angle_gamma 71.437378
_cell_volume 731.177243
_symmetry_space_group_name_H-M "P -1"
_symmetry_group_IT_number 2
_symmetry_cell_setting 'triclinic'
loop_
_space_group_symop_operation_xyz
x,y,z
-x,-y,-z
loop_
_atom_site_type_symbol
_atom_site_label
_atom_site_fract_x
_atom_site_fract_y
_atom_site_fract_z
Si Si1 0.138916 0.104895 0.429393
Si Si2 0.182357 0.784082 0.910273
Si Si3 0.366811 0.159402 0.526949
Si Si4 0.066773 0.184268 0.145004
Si Si5 0.545240 0.211158 0.251176
Si Si6 0.144986 0.747936 0.255153
Si Si7 0.701596 0.798189 0.115861
Si Si8 0.597164 0.582550 0.920863
O O1 0.281125 0.107974 0.425442
O O2 0.085237 0.199401 0.317943
O O3 0.015705 0.205390 0.627697
O O4 0.176072 0.903235 0.344428
O O5 0.338728 0.716847 0.758623
O O6 0.097186 0.725767 0.810415
O O7 0.175430 0.709200 0.055700
O O8 0.124393 0.989700 0.007987
O O9 0.428254 0.279594 0.450780
O O10 0.265888 0.246952 0.733381
O O11 0.500000 0.000000 0.500000
O O12 0.149114 0.276593 0.051404
O O13 0.471780 0.279087 0.143086
O O14 0.611745 0.001510 0.167990
O O15 0.255282 0.571161 0.241214
O O16 0.617191 0.692758 0.075619
O O17 0.500000 0.500000 0.000000
#
# Coordination Sequence:
#
# PCOD8011836 Si02
#       8
#     2   2   2   2   2   2   2   2
#     4  10  21  40  64  94 122 170 212 261 314 372
#     4   9  17  35  58  93 123 162 207 259 312 366
#     4  10  22  38  66  93 126 165 217 260 308 381
#     4   9  18  35  65  89 120 162 216 258 303 375
#     4  10  21  39  64  93 128 168 214 259 311 385
#     4  10  22  38  64  90 131 165 211 260 315 379
#     4  10  22  40  64  92 123 172 213 259 313 377
#     4  12  24  40  64  97 133 166 209 262 323 378
#
# _framework density 21.88252
#
# number of rings (size 3 to 8) (size 9 to 14) (size 15 to 20)
#    0.000    2.000    1.250    1.875    3.500    6.000 
#    0.000    6.875    0.000    0.000    0.000    0.000 
#    0.000    0.000    0.000    0.000    0.000    0.000 
#
# Total GULP energy -198302.241882 kJ/mol
# GULP energy per Si atom -12393.890118 kJ/mol
# Density = 2.183271 g / cm^3
# Si number density = 21.882520 Si / 1000 Ang^3
#
#
#
# Elastic Constant Matrix: (Units=GPa)
#
#
# Indices 1 2 3 4 5 6 
#
# 1 178.4205 48.7403 65.6311 -28.0884 5.3392 -1.6921
# 2 48.7403 56.3782 53.4497 -19.8194 -1.3864 5.1766
# 3 65.6311 53.4497 93.8818 -37.6445 -2.3461 4.2879
# 4 -28.0884 -19.8194 -37.6445 37.1091 0.7520 -10.4710
# 5 5.3392 -1.3864 -2.3461 0.7520 34.2541 -8.5749
# 6 -1.6921 5.1766 4.2879 -10.4710 -8.5749 27.2161
#
#
#
# Elastic Compliance Matrix: (Units=1/GPa)
#
#
# Indices 1 2 3 4 5 6 
#
# 1 0.008027 -0.003835 -0.002865 0.001702 -0.001146 0.001973
# 2 -0.003835 0.041358 -0.023046 -0.006193 -0.000963 -0.007160
# 3 -0.002865 -0.023046 0.034764 0.023193 0.003584 0.008781
# 4 0.001702 -0.006193 0.023193 0.053982 0.004878 0.019935
# 5 -0.001146 -0.000963 0.003584 0.004878 0.032382 0.011627
# 6 0.001973 -0.007160 0.008781 0.019935 0.011627 0.048177
#
#
# Mechanical properties :
#
#
# Convention : Reuss Voigt Hill
#
# Bulk Modulus (GPa) = 40.55503 73.81362 57.18432
# Shear Modulus (GPa) = 17.45809 30.43983 23.94896
#
# Velocity S-wave (km/s) = 2.82762 3.73373 3.31181
# Velocity P-wave (km/s) = 5.40683 7.23828 6.38853
#
# Compressibility (1/GPa) = 0.02465786
#
# Stress axis : x y z
#
# Youngs Moduli (GPa) = 124.57997 24.17914 28.76568
#
# Poissons Ratio (x) = 0.09272 0.08241
# Poissons Ratio (y) = 0.47774 0.66293
# Poissons Ratio (z) = 0.35689 0.55723
#
# Static dielectric constant tensor:
#      x y z
#    x 4.302890 0.054800 -0.381260 
#    y 0.054800 3.936470 -0.470420 
#    z -0.381260 -0.470420 4.168890 
# 
# 
# High freq. dielectric constant tensor:
#      x y z
#    x 1.874370 -0.000600 -0.012070 
#    y -0.000600 1.843510 -0.027760 
#    z -0.012070 -0.027760 1.844050 
# 
# From -- ./inp_files/244979.got.cif
#   From: 2010.06.25/outbox.cif.g09.slc.cpg/sg2_123_cif.got.tgz:244979.got - 2010.06.27 13:26:56.
