data_PCOD8011078
_publ_section_title
;
Structure prediction by ZEFSAII (Michael W. Deem and Ramdas Pophale) SiO2 
 PCOD8011078
Probable space group: P -1
;
_chemical_formula_sum "Si O2"
_cell_formula_units_Z 16
_cell_length_a 14.919278
_cell_length_b 15.040166
_cell_length_c 12.322113
_cell_angle_alpha 41.260626
_cell_angle_beta 60.638576
_cell_angle_gamma 28.732373
_cell_volume 741.898489
_symmetry_space_group_name_H-M "P -1"
_symmetry_group_IT_number 2
_symmetry_cell_setting 'triclinic'
loop_
_space_group_symop_operation_xyz
x,y,z
-x,-y,-z
loop_
_atom_site_type_symbol
_atom_site_label
_atom_site_fract_x
_atom_site_fract_y
_atom_site_fract_z
Si Si1 0.391288 0.511076 0.481403
Si Si2 0.818319 0.388979 0.002057
Si Si3 0.945510 0.006379 0.411260
Si Si4 0.073293 0.239566 0.441998
Si Si5 0.175004 0.348168 0.124729
Si Si6 0.605297 0.239516 0.132443
Si Si7 0.159245 0.906006 0.066426
Si Si8 0.440187 0.155660 0.787950
O O1 0.500000 0.500000 0.500000
O O2 0.352942 0.598781 0.297698
O O3 0.520929 0.219216 0.686739
O O4 0.151989 0.761699 0.436049
O O5 0.882511 0.434867 0.002084
O O6 0.573683 0.675662 0.833116
O O7 0.780277 0.298014 0.181197
O O8 0.008558 0.160275 0.008889
O O9 0.875774 0.930545 0.527624
O O10 0.000000 0.000000 0.500000
O O11 0.167085 0.268553 0.311335
O O12 0.820600 0.552560 0.341754
O O13 0.195381 0.045873 0.652725
O O14 0.422774 0.065441 0.190308
O O15 0.000000 0.500000 0.000000
O O16 0.500000 0.500000 0.000000
O O17 0.709807 0.139809 0.042978
O O18 0.000000 0.000000 0.000000
O O19 0.500000 0.000000 0.000000
#
# Coordination Sequence:
#
# PCOD8011078 Si02
#       8
#     2   2   2   2   2   2   2   2
#     4  10  25  38  66 106 131 179 240 294 357 413
#     4  11  26  44  69 108 136 190 242 284 358 422
#     4  10  21  38  66  97 138 168 236 300 346 410
#     4  11  25  46  68 104 136 190 237 287 360 418
#     4  12  27  46  73 100 150 192 233 293 353 433
#     4  12  24  44  76 103 141 186 235 299 355 417
#     4  11  23  45  71 104 149 180 235 306 357 418
#     4  11  25  44  67  99 148 187 231 290 364 419
#
# _framework density 21.566293999999999
#
# number of rings (size 3 to 8) (size 9 to 14) (size 15 to 20)
#    0.000    1.000    3.750    2.250   10.500    2.500 
#    0.000    1.250    0.000    0.000    0.000    0.000 
#    0.000    0.000    0.000    0.000    0.000    0.000 
#
# Total GULP energy -198288.302841 kJ/mol
# GULP energy per Si atom -12393.018928 kJ/mol
# Density = 2.151721 g / cm^3
# Si number density = 21.566294 Si / 1000 Ang^3
#
#
#
# Elastic Constant Matrix: (Units=GPa)
#
#
# Indices 1 2 3 4 5 6 
#
# 1 110.5705 35.0055 36.6112 -8.6930 -0.8165 11.1819
# 2 35.0055 136.9911 53.8661 2.9887 -4.8917 4.0963
# 3 36.6112 53.8661 139.0501 1.4371 7.9302 -0.7668
# 4 -8.6930 2.9887 1.4371 35.1782 -0.6266 -0.2246
# 5 -0.8165 -4.8917 7.9302 -0.6266 36.6072 0.9572
# 6 11.1819 4.0963 -0.7668 -0.2246 0.9572 31.6406
#
#
#
# Elastic Compliance Matrix: (Units=1/GPa)
#
#
# Indices 1 2 3 4 5 6 
#
# 1 0.010990 -0.001849 -0.002264 0.002953 0.000636 -0.003698
# 2 -0.001849 0.009118 -0.003144 -0.001074 0.001857 -0.000667
# 3 -0.002264 -0.003144 0.009164 -0.000702 -0.002507 0.001500
# 4 0.002953 -0.001074 -0.000702 0.029282 0.000595 -0.000732
# 5 0.000636 0.001857 -0.002507 0.000595 0.028169 -0.001374
# 6 -0.003698 -0.000667 0.001500 -0.000732 -0.001374 0.033071
#
#
# Mechanical properties :
#
#
# Convention : Reuss Voigt Hill
#
# Bulk Modulus (GPa) = 67.76173 70.84192 69.30183
# Shear Modulus (GPa) = 35.91224 38.09379 37.00302
#
# Velocity S-wave (km/s) = 4.08512 4.20737 4.14669
# Velocity P-wave (km/s) = 7.33071 7.51813 7.42501
#
# Compressibility (1/GPa) = 0.01475759
#
# Stress axis : x y z
#
# Youngs Moduli (GPa) = 90.99188 109.67149 109.11908
#
# Poissons Ratio (x) = 0.20278 0.24710
# Poissons Ratio (y) = 0.16825 0.34306
# Poissons Ratio (z) = 0.20605 0.34480
#
# Static dielectric constant tensor:
#      x y z
#    x -0.105260 0.287560 1.728660 
#    y 0.287560 3.256080 0.275430 
#    z 1.728660 0.275430 3.500630 
# 
# 
# High freq. dielectric constant tensor:
#      x y z
#    x 1.836960 -0.007030 0.001990 
#    y -0.007030 1.858120 0.000400 
#    z 0.001990 0.000400 1.854950 
# 
# From -- ./inp_files/455473.got.cif
#   From: 2010.06.25/outbox.cif.g09.slc.cpg/sg2_228_cif.got.tgz:455473.got - 2010.06.27 13:26:56.
