data_PCOD8011968
_publ_section_title
;
Structure prediction by ZEFSAII (Michael W. Deem and Ramdas Pophale) SiO2 
 PCOD8011968
Probable space group: P -1
;
_chemical_formula_sum "Si O2"
_cell_formula_units_Z 16
_cell_length_a 14.734762
_cell_length_b 8.953920
_cell_length_c 14.672289
_cell_angle_alpha 121.846524
_cell_angle_beta 141.126376
_cell_angle_gamma 88.985692
_cell_volume 697.168140
_symmetry_space_group_name_H-M "P -1"
_symmetry_group_IT_number 2
_symmetry_cell_setting 'triclinic'
loop_
_space_group_symop_operation_xyz
x,y,z
-x,-y,-z
loop_
_atom_site_type_symbol
_atom_site_label
_atom_site_fract_x
_atom_site_fract_y
_atom_site_fract_z
Si Si1 0.772234 0.190999 0.310146
Si Si2 0.884179 0.117072 0.022006
Si Si3 0.849406 0.947035 0.603946
Si Si4 0.237393 0.716511 0.865929
Si Si5 0.306905 0.516844 0.568609
Si Si6 0.615442 0.920718 0.577347
Si Si7 0.695706 0.667777 0.843652
Si Si8 0.596458 0.777555 0.176410
O O1 0.679463 0.127236 0.114875
O O2 0.688574 0.276370 0.334313
O O3 0.028387 0.414532 0.582060
O O4 0.690091 0.932450 0.203717
O O5 0.803693 0.111119 0.859917
O O6 0.790662 0.838332 0.880170
O O7 0.807114 0.172514 0.061075
O O8 0.143238 0.342469 0.298711
O O9 0.784311 0.684628 0.484557
O O10 0.722322 0.954270 0.578452
O O11 0.784710 0.947680 0.452700
O O12 0.104889 0.201300 0.892473
O O13 0.410713 0.741998 0.053463
O O14 0.543910 0.672450 0.776536
O O15 0.436651 0.624830 0.378352
O O16 0.500000 0.000000 0.500000
O O17 0.500000 0.500000 0.000000
#
# Coordination Sequence:
#
# PCOD8011968 Si02
#       8
#     2   2   2   2   2   2   2   2
#     4  10  22  41  67  95 123 164 210 257 315 379
#     4  10  21  39  65  93 118 159 213 260 308 363
#     4  10  24  42  61  92 126 163 208 251 311 380
#     4  10  22  42  66  92 124 163 213 263 310 369
#     4   9  20  40  66  91 123 160 209 263 305 363
#     4  11  24  40  60  91 130 164 203 255 308 367
#     4  10  22  40  64  88 121 164 206 256 310 366
#     4  12  25  40  62  94 130 166 204 254 317 379
#
# _framework density 22.949988999999999
#
# number of rings (size 3 to 8) (size 9 to 14) (size 15 to 20)
#    0.000    1.750    0.000    3.000    0.000   13.500 
#    0.000    0.000    0.000    0.000    0.000    0.000 
#    0.000    0.000    0.000    0.000    0.000    0.000 
#
# Total GULP energy -198446.788386 kJ/mol
# GULP energy per Si atom -12402.924274 kJ/mol
# Density = 2.289775 g / cm^3
# Si number density = 22.949989 Si / 1000 Ang^3
#
#
#
# Elastic Constant Matrix: (Units=GPa)
#
#
# Indices 1 2 3 4 5 6 
#
# 1 71.0356 39.3923 34.2672 -3.7444 -4.0253 -3.5818
# 2 39.3923 122.1799 48.9191 -9.4074 -3.2739 -2.9883
# 3 34.2672 48.9191 136.1588 -22.4545 13.4802 0.6960
# 4 -3.7444 -9.4074 -22.4545 51.0112 0.1097 0.8419
# 5 -4.0253 -3.2739 13.4802 0.1097 33.9212 -8.6085
# 6 -3.5818 -2.9883 0.6960 0.8419 -8.6085 24.5251
#
#
#
# Elastic Compliance Matrix: (Units=1/GPa)
#
#
# Indices 1 2 3 4 5 6 
#
# 1 0.018710 -0.004409 -0.003759 -0.001167 0.004267 0.003840
# 2 -0.004409 0.010914 -0.002967 0.000354 0.002087 0.001490
# 3 -0.003759 -0.002967 0.010594 0.003909 -0.005815 -0.003386
# 4 -0.001167 0.000354 0.003909 0.021337 -0.002166 -0.001731
# 5 0.004267 0.002087 -0.005815 -0.002166 0.035995 0.013751
# 6 0.003840 0.001490 -0.003386 -0.001731 0.013751 0.046499
#
#
# Mechanical properties :
#
#
# Convention : Reuss Voigt Hill
#
# Bulk Modulus (GPa) = 55.71996 63.83683 59.77839
# Shear Modulus (GPa) = 29.01882 35.67787 32.34834
#
# Velocity S-wave (km/s) = 3.55975 3.94711 3.75842
# Velocity P-wave (km/s) = 6.42085 6.97488 6.70359
#
# Compressibility (1/GPa) = 0.01794689
#
# Stress axis : x y z
#
# Youngs Moduli (GPa) = 53.44865 91.62729 94.39171
#
# Poissons Ratio (x) = 0.40395 0.35484
# Poissons Ratio (y) = 0.23564 0.28010
# Poissons Ratio (z) = 0.20092 0.27190
#
# Static dielectric constant tensor:
#      x y z
#    x 3.862940 -0.105220 0.188640 
#    y -0.105220 4.106470 -0.080320 
#    z 0.188640 -0.080320 4.516730 
# 
# 
# High freq. dielectric constant tensor:
#      x y z
#    x 1.893230 -0.011010 0.010400 
#    y -0.011010 1.900310 -0.003220 
#    z 0.010400 -0.003220 1.932670 
# 
# From -- ./inp_files/528980.got.cif
#   From: 2010.06.25/outbox.cif.g09.slc.cpg/sg2_265_cif.got.tgz:528980.got - 2010.06.27 13:26:56.
