data_PCOD8011396
_publ_section_title
;
Structure prediction by ZEFSAII (Michael W. Deem and Ramdas Pophale) SiO2 
 PCOD8011396
Probable space group: P -1
;
_chemical_formula_sum "Si O2"
_cell_formula_units_Z 16
_cell_length_a 21.635252
_cell_length_b 18.433692
_cell_length_c 9.018596
_cell_angle_alpha 60.709027
_cell_angle_beta 128.702063
_cell_angle_gamma 162.308669
_cell_volume 762.235433
_symmetry_space_group_name_H-M "P -1"
_symmetry_group_IT_number 2
_symmetry_cell_setting 'triclinic'
loop_
_space_group_symop_operation_xyz
x,y,z
-x,-y,-z
loop_
_atom_site_type_symbol
_atom_site_label
_atom_site_fract_x
_atom_site_fract_y
_atom_site_fract_z
Si Si1 0.264542 0.719305 0.356884
Si Si2 0.231232 0.499937 0.545303
Si Si3 0.721314 0.707095 0.741591
Si Si4 0.278686 0.792905 0.991839
Si Si5 0.250514 0.452656 0.940934
Si Si6 0.264542 0.219305 0.998131
Si Si7 0.768768 0.000063 0.851481
Si Si8 0.250513 0.952655 0.905295
O O1 0.239593 0.603844 0.507402
O O2 0.311140 0.760040 0.208161
O O3 0.500000 0.000000 0.500000
O O4 0.995547 0.497766 0.205907
O O5 0.214566 0.423396 0.739622
O O6 0.500000 0.750000 0.614678
O O7 0.993409 0.246270 0.335730
O O8 0.500000 0.500000 0.500000
O O9 0.721730 0.615118 0.903032
O O10 0.688860 0.739960 0.794822
O O11 0.995547 0.997766 0.785203
O O12 0.500000 0.000000 0.000000
O O13 0.278269 0.884881 0.968079
O O14 0.500000 0.750000 0.073003
O O15 0.006592 0.253731 0.848043
O O16 0.500000 0.500000 0.000000
O O17 0.239593 0.103843 0.003691
O O18 0.785434 0.076604 0.942716
#
# Coordination Sequence:
#
# PCOD8011396 Si02
#       8
#     2   2   2   2   2   2   2   2
#     4  10  21  39  61  87 119 152 194 244 293 351
#     4  10  22  38  59  87 117 153 195 243 293 348
#     4  10  23  40  59  88 120 155 198 243 293 351
#     4  10  23  40  59  88 120 155 198 243 293 351
#     4  10  22  39  59  85 117 153 196 242 292 351
#     4  10  21  39  61  87 119 152 194 244 293 351
#     4  10  22  38  59  87 117 153 195 243 293 348
#     4  10  22  39  59  85 117 153 196 242 292 351
#
# _framework density 20.990888999999999
#
# number of rings (size 3 to 8) (size 9 to 14) (size 15 to 20)
#    0.000    2.000    0.000    3.000    0.000   14.000 
#    0.000    0.000    0.000    0.000    0.000    0.000 
#    0.000    0.000    0.000    0.000    0.000    0.000 
#
# Total GULP energy -198345.180858 kJ/mol
# GULP energy per Si atom -12396.573804 kJ/mol
# Density = 2.094311 g / cm^3
# Si number density = 20.990889 Si / 1000 Ang^3
#
#
#
# Elastic Constant Matrix: (Units=GPa)
#
#
# Indices 1 2 3 4 5 6 
#
# 1 85.5743 23.2983 24.0292 12.9543 2.1265 13.7417
# 2 23.2983 128.8481 44.0213 30.6851 2.6774 22.0921
# 3 24.0292 44.0213 116.6791 24.2945 4.5372 15.0889
# 4 12.9543 30.6851 24.2945 47.1849 -4.5486 7.5673
# 5 2.1265 2.6774 4.5372 -4.5486 18.8270 4.9552
# 6 13.7417 22.0921 15.0889 7.5673 4.9552 40.0946
#
#
#
# Elastic Compliance Matrix: (Units=1/GPa)
#
#
# Indices 1 2 3 4 5 6 
#
# 1 0.013141 -0.000877 -0.001588 -0.001797 -0.000619 -0.003007
# 2 -0.000877 0.010505 -0.002243 -0.004971 -0.001117 -0.003567
# 3 -0.001588 -0.002243 0.010782 -0.003714 -0.002669 -0.001247
# 4 -0.001797 -0.004971 -0.003714 0.027961 0.008991 -0.001635
# 5 -0.000619 -0.001117 -0.002669 0.008991 0.058011 -0.007034
# 6 -0.003007 -0.003567 -0.001247 -0.001635 -0.007034 0.029584
#
#
# Mechanical properties :
#
#
# Convention : Reuss Voigt Hill
#
# Bulk Modulus (GPa) = 39.98157 57.08879 48.53518
# Shear Modulus (GPa) = 29.80853 37.20482 33.50667
#
# Velocity S-wave (km/s) = 3.77247 4.21459 3.99964
# Velocity P-wave (km/s) = 6.16959 7.13720 6.67096
#
# Compressibility (1/GPa) = 0.02501153
#
# Stress axis : x y z
#
# Youngs Moduli (GPa) = 76.09868 95.19577 92.74571
#
# Poissons Ratio (x) = 0.08349 0.14730
# Poissons Ratio (y) = 0.06674 0.20801
# Poissons Ratio (z) = 0.12086 0.21350
#
# Static dielectric constant tensor:
#      x y z
#    x 3.758400 0.089240 0.196210 
#    y 0.089240 4.130530 0.317230 
#    z 0.196210 0.317230 3.902760 
# 
# 
# High freq. dielectric constant tensor:
#      x y z
#    x 1.810270 -0.000490 0.011760 
#    y -0.000490 1.842690 0.019250 
#    z 0.011760 0.019250 1.816260 
# 
# From -- ./inp_files/348440.got.cif
#   From: 2010.06.25/outbox.cif.g09.slc.cpg/sg2_175_cif.got.tgz:348440.got - 2010.06.27 13:26:56.
