data_PCOD8011673
_publ_section_title
;
Structure prediction by ZEFSAII (Michael W. Deem and Ramdas Pophale) SiO2 
 PCOD8011673
Probable space group: P -1
;
_chemical_formula_sum "Si O2"
_cell_formula_units_Z 16
_cell_length_a 7.835317
_cell_length_b 8.623139
_cell_length_c 14.184564
_cell_angle_alpha 92.420807
_cell_angle_beta 104.462078
_cell_angle_gamma 130.793328
_cell_volume 674.429890
_symmetry_space_group_name_H-M "P -1"
_symmetry_group_IT_number 2
_symmetry_cell_setting 'triclinic'
loop_
_space_group_symop_operation_xyz
x,y,z
-x,-y,-z
loop_
_atom_site_type_symbol
_atom_site_label
_atom_site_fract_x
_atom_site_fract_y
_atom_site_fract_z
Si Si1 0.377505 0.481594 0.889486
Si Si2 0.968396 0.615134 0.679230
Si Si3 0.890714 0.011970 0.393401
Si Si4 0.596947 0.130662 0.612140
Si Si5 0.772303 0.677764 0.825960
Si Si6 0.584848 0.149050 0.136614
Si Si7 0.877609 0.259888 0.000385
Si Si8 0.907432 0.064420 0.750047
O O1 0.493455 0.476337 0.810835
O O2 0.449972 0.702785 0.903900
O O3 0.089254 0.279849 0.843540
O O4 0.500000 0.500000 0.000000
O O5 0.253963 0.756804 0.743105
O O6 0.828583 0.376422 0.621706
O O7 0.838195 0.591344 0.755682
O O8 0.955833 0.737884 0.599351
O O9 0.608409 0.888495 0.365397
O O10 0.934640 0.920870 0.310564
O O11 0.000000 0.000000 0.500000
O O12 0.689447 0.041914 0.684833
O O13 0.500000 0.000000 0.500000
O O14 0.912122 0.737411 0.947534
O O15 0.795064 0.867070 0.797076
O O16 0.731167 0.150939 0.075192
O O17 0.318537 0.908161 0.111940
O O18 0.000000 0.500000 0.000000
#
# Coordination Sequence:
#
# PCOD8011673 Si02
#       8
#     2   2   2   2   2   2   2   2
#     4  12  24  41  68 101 141 185 233 295 350 418
#     4  10  24  46  69 100 142 184 235 293 358 428
#     4  11  25  48  72 105 143 185 235 301 362 432
#     4  12  25  46  76 107 138 190 239 295 371 427
#     4  10  24  43  66  99 140 189 233 289 356 421
#     4  10  22  38  60  94 131 172 230 279 337 412
#     4  10  21  39  63  91 131 184 228 279 343 410
#     4  11  25  47  70 104 149 183 239 298 355 430
#
# _framework density 23.723742000000001
#
# number of rings (size 3 to 8) (size 9 to 14) (size 15 to 20)
#    0.000    1.250    2.500    2.250    1.750   10.000 
#    2.250    0.000    0.000    0.000    0.000    0.000 
#    0.000    0.000    0.000    0.000    0.000    0.000 
#
# Total GULP energy -198291.893281 kJ/mol
# GULP energy per Si atom -12393.243330 kJ/mol
# Density = 2.366975 g / cm^3
# Si number density = 23.723742 Si / 1000 Ang^3
#
#
#
# Elastic Constant Matrix: (Units=GPa)
#
#
# Indices 1 2 3 4 5 6 
#
# 1 105.3741 35.8160 35.2351 -5.6375 34.3821 0.8241
# 2 35.8160 155.6633 65.7910 12.1737 27.5762 -7.6599
# 3 35.2351 65.7910 119.2392 3.3152 39.4216 -9.5755
# 4 -5.6375 12.1737 3.3152 42.0078 -4.6935 4.8905
# 5 34.3821 27.5762 39.4216 -4.6935 39.4605 -9.0701
# 6 0.8241 -7.6599 -9.5755 4.8905 -9.0701 45.3809
#
#
#
# Elastic Compliance Matrix: (Units=1/GPa)
#
#
# Indices 1 2 3 4 5 6 
#
# 1 0.013853 -0.001484 0.000411 0.001262 -0.011971 -0.002944
# 2 -0.001484 0.008882 -0.003964 -0.002671 -0.001097 0.000758
# 3 0.000411 -0.003964 0.014550 -0.001324 -0.012261 0.000086
# 4 0.001262 -0.002671 -0.001324 0.025665 0.004542 -0.002611
# 5 -0.011971 -0.001097 -0.012261 0.004542 0.050970 0.007143
# 6 -0.002944 0.000758 0.000086 -0.002611 0.007143 0.023944
#
#
# Mechanical properties :
#
#
# Convention : Reuss Voigt Hill
#
# Bulk Modulus (GPa) = 36.75044 72.66231 54.70638
# Shear Modulus (GPa) = 31.84577 41.59881 36.72229
#
# Velocity S-wave (km/s) = 3.66780 4.19199 3.93862
# Velocity P-wave (km/s) = 5.78460 7.35699 6.61766
#
# Compressibility (1/GPa) = 0.02721056
#
# Stress axis : x y z
#
# Youngs Moduli (GPa) = 72.18458 112.59303 68.73082
#
# Poissons Ratio (x) = 0.16712 -0.02828
# Poissons Ratio (y) = 0.10714 0.27246
# Poissons Ratio (z) = -0.02970 0.44633
#
# Static dielectric constant tensor:
#      x y z
#    x 5.255100 0.741290 0.015400 
#    y 0.741290 4.571030 -0.195940 
#    z 0.015400 -0.195940 4.213310 
# 
# 
# High freq. dielectric constant tensor:
#      x y z
#    x 1.958910 0.010600 0.007310 
#    y 0.010600 1.946600 -0.010530 
#    z 0.007310 -0.010530 1.931760 
# 
# From -- ./inp_files/299807.got.cif
#   From: 2010.06.25/outbox.cif.g09.slc.cpg/sg2_150_cif.got.tgz:299807.got - 2010.06.27 13:26:56.
