data_PCOD8011243
_publ_section_title
;
Structure prediction by ZEFSAII (Michael W. Deem and Ramdas Pophale) SiO2 
 PCOD8011243
Probable space group: P -1
;
_chemical_formula_sum "Si O2"
_cell_formula_units_Z 14
_cell_length_a 9.388599
_cell_length_b 9.029864
_cell_length_c 17.547383
_cell_angle_alpha 67.187093
_cell_angle_beta 121.112385
_cell_angle_gamma 147.893852
_cell_volume 672.832519
_symmetry_space_group_name_H-M "P -1"
_symmetry_group_IT_number 2
_symmetry_cell_setting 'triclinic'
loop_
_space_group_symop_operation_xyz
x,y,z
-x,-y,-z
loop_
_atom_site_type_symbol
_atom_site_label
_atom_site_fract_x
_atom_site_fract_y
_atom_site_fract_z
Si Si1 0.206434 0.529635 0.274390
Si Si2 0.212124 0.645385 0.417344
Si Si3 0.458736 0.316866 0.865583
Si Si4 0.936266 0.072298 0.033452
Si Si5 0.180278 0.085421 0.685793
Si Si6 0.116520 0.838189 0.466368
Si Si7 0.214403 0.706833 0.086163
O O1 0.131839 0.574409 0.319996
O O2 0.107132 0.556150 0.168549
O O3 0.030057 0.225257 0.286657
O O4 0.550886 0.764047 0.320874
O O5 0.085495 0.709799 0.405434
O O6 0.074971 0.385789 0.474294
O O7 0.554396 0.903413 0.468309
O O8 0.772164 0.643892 0.899479
O O9 0.489274 0.151042 0.883458
O O10 0.303106 0.272515 0.758401
O O11 0.266579 0.183971 0.913382
O O12 0.754826 0.076326 0.945455
O O13 0.000000 0.000000 0.000000
O O14 0.991143 0.065908 0.592746
O O15 0.000000 0.500000 0.000000
#
# Coordination Sequence:
#
# PCOD8011243 Si02
#       7
#     2   2   2   2   2   2   2
#     4  11  23  37  59  89 115 146 199 243 279 339
#     4  10  22  40  58  86 117 153 192 233 290 347
#     4  10  21  39  57  82 117 151 190 233 289 347
#     4  11  22  37  59  86 114 149 195 240 283 338
#     4  11  22  38  60  87 113 151 193 238 285 336
#     4  10  22  40  61  81 119 158 186 232 296 348
#     4   9  20  39  60  81 116 156 186 231 292 341
#
# _framework density 20.807555000000001
#
# number of rings (size 3 to 8) (size 9 to 14) (size 15 to 20)
#    0.000    1.714    0.000    5.143    0.000    8.000 
#    0.000    5.714    0.000    0.000    0.000    0.000 
#    0.000    0.000    0.000    0.000    0.000    0.000 
#
# Total GULP energy -173570.461769 kJ/mol
# GULP energy per Si atom -12397.890126 kJ/mol
# Density = 2.076020 g / cm^3
# Si number density = 20.807555 Si / 1000 Ang^3
#
#
#
# Elastic Constant Matrix: (Units=GPa)
#
#
# Indices 1 2 3 4 5 6 
#
# 1 81.5770 2.1868 34.9409 -8.8358 -23.7058 8.8089
# 2 2.1868 84.5992 15.5606 -5.0690 -3.3933 24.7149
# 3 34.9409 15.5606 96.2538 -9.3056 -23.5761 6.2056
# 4 -8.8358 -5.0690 -9.3056 22.1258 7.2942 -5.4013
# 5 -23.7058 -3.3933 -23.5761 7.2942 39.2106 -2.3409
# 6 8.8089 24.7149 6.2056 -5.4013 -2.3409 39.4946
#
#
#
# Elastic Compliance Matrix: (Units=1/GPa)
#
#
# Indices 1 2 3 4 5 6 
#
# 1 0.016666 0.001755 -0.004161 0.002116 0.007126 -0.003450
# 2 0.001755 0.014968 -0.002318 0.000807 0.000259 -0.009268
# 3 -0.004161 -0.002318 0.013690 0.002056 0.005181 0.000816
# 4 0.002116 0.000807 0.002056 0.050508 -0.006499 0.005222
# 5 0.007126 0.000259 0.005181 -0.006499 0.034073 -0.001435
# 6 -0.003450 -0.009268 0.000816 0.005222 -0.001435 0.032390
#
#
# Mechanical properties :
#
#
# Convention : Reuss Voigt Hill
#
# Bulk Modulus (GPa) = 27.87395 40.86742 34.37069
# Shear Modulus (GPa) = 27.21820 34.14898 30.68359
#
# Velocity S-wave (km/s) = 3.62068 4.05555 3.84427
# Velocity P-wave (km/s) = 5.55916 6.45083 6.02152
#
# Compressibility (1/GPa) = 0.03587579
#
# Stress axis : x y z
#
# Youngs Moduli (GPa) = 60.00163 66.81043 73.04790
#
# Poissons Ratio (x) = -0.11726 0.30397
# Poissons Ratio (y) = -0.10531 0.16931
# Poissons Ratio (z) = 0.24968 0.15485
#
# Static dielectric constant tensor:
#      x y z
#    x 4.021390 0.004390 0.084880 
#    y 0.004390 3.800480 -0.015770 
#    z 0.084880 -0.015770 4.014160 
# 
# 
# High freq. dielectric constant tensor:
#      x y z
#    x 1.813230 0.011410 -0.011510 
#    y 0.011410 1.816850 -0.000460 
#    z -0.011510 -0.000460 1.816050 
# 
# From -- ./inp_files/34792.got.cif
#   From: 2010.06.25/outbox.cif.g09.slc.cpg/sg2_18_cif.got.tgz:34792.got - 2010.06.27 13:26:56.
