data_PCOD8011278
_publ_section_title
;
Structure prediction by ZEFSAII (Michael W. Deem and Ramdas Pophale) SiO2 
 PCOD8011278
Probable space group: P -1
;
_chemical_formula_sum "Si O2"
_cell_formula_units_Z 14
_cell_length_a 13.454224
_cell_length_b 5.255004
_cell_length_c 12.941420
_cell_angle_alpha 80.946191
_cell_angle_beta 107.074206
_cell_angle_gamma 132.641710
_cell_volume 642.277780
_symmetry_space_group_name_H-M "P -1"
_symmetry_group_IT_number 2
_symmetry_cell_setting 'triclinic'
loop_
_space_group_symop_operation_xyz
x,y,z
-x,-y,-z
loop_
_atom_site_type_symbol
_atom_site_label
_atom_site_fract_x
_atom_site_fract_y
_atom_site_fract_z
Si Si1 0.426685 0.694046 0.578903
Si Si2 0.074188 0.538268 0.304766
Si Si3 0.771860 0.052614 0.159082
Si Si4 0.606245 0.809420 0.935307
Si Si5 0.180816 0.185793 0.393752
Si Si6 0.328932 0.213455 0.261397
Si Si7 0.629071 0.277758 0.216907
O O1 0.287837 0.336332 0.511308
O O2 0.529727 0.636549 0.647124
O O3 0.380005 0.778287 0.659539
O O4 0.500000 0.000000 0.500000
O O5 0.079235 0.261585 0.372870
O O6 0.935910 0.352134 0.207936
O O7 0.084643 0.768521 0.385543
O O8 0.210514 0.792098 0.256513
O O9 0.687805 0.109640 0.202127
O O10 0.724760 0.682599 0.191849
O O11 0.744548 0.089431 0.028498
O O12 0.641804 0.680846 0.857147
O O13 0.529473 0.939863 0.860976
O O14 0.500000 0.500000 0.000000
O O15 0.267640 0.353072 0.299783
#
# Coordination Sequence:
#
# PCOD8011278 Si02
#       7
#     2   2   2   2   2   2   2
#     4  11  20  40  67  91 120 157 200 259 303 345
#     4  10  22  39  61  86 127 160 199 242 293 364
#     4  11  22  44  61  86 129 160 198 247 300 358
#     4   9  20  41  63  92 120 157 199 255 301 351
#     4  10  21  39  58  92 121 155 201 247 297 348
#     4   9  21  37  62  94 117 154 204 246 300 358
#     4  10  24  40  64  94 116 158 205 249 301 359
#
# _framework density 21.797422999999998
#
# number of rings (size 3 to 8) (size 9 to 14) (size 15 to 20)
#    0.857    1.143    1.429    1.714    0.000    6.286 
#    5.143    5.000    0.000    0.000    0.000    0.000 
#    0.000    0.000    0.000    0.000    0.000    0.000 
#
# Total GULP energy -173466.725360 kJ/mol
# GULP energy per Si atom -12390.480383 kJ/mol
# Density = 2.174781 g / cm^3
# Si number density = 21.797423 Si / 1000 Ang^3
#
#
#
# Elastic Constant Matrix: (Units=GPa)
#
#
# Indices 1 2 3 4 5 6 
#
# 1 76.7962 18.7257 51.9028 14.3961 15.4511 -14.5173
# 2 18.7257 65.0750 42.0627 17.9562 15.3675 -12.4121
# 3 51.9028 42.0627 170.2715 33.3075 5.7213 7.1603
# 4 14.3961 17.9562 33.3075 34.0869 21.1613 4.3735
# 5 15.4511 15.3675 5.7213 21.1613 35.2074 8.7634
# 6 -14.5173 -12.4121 7.1603 4.3735 8.7634 32.9046
#
#
#
# Elastic Compliance Matrix: (Units=1/GPa)
#
#
# Indices 1 2 3 4 5 6 
#
# 1 0.026359 0.007371 -0.011516 0.007708 -0.023029 0.022024
# 2 0.007371 0.027717 -0.009530 0.001121 -0.019652 0.020866
# 3 -0.011516 -0.009530 0.014520 -0.014283 0.019184 -0.015046
# 4 0.007708 0.001121 -0.014283 0.064871 -0.042969 0.009753
# 5 -0.023029 -0.019652 0.019184 -0.042969 0.079027 -0.037083
# 6 0.022024 0.020866 -0.015046 0.009753 -0.037083 0.059833
#
#
# Mechanical properties :
#
#
# Convention : Reuss Voigt Hill
#
# Bulk Modulus (GPa) = 24.24540 59.72503 41.98522
# Shear Modulus (GPa) = 15.95275 33.73653 24.84464
#
# Velocity S-wave (km/s) = 2.70823 3.93839 3.37975
# Velocity P-wave (km/s) = 4.57456 6.93835 5.87653
#
# Compressibility (1/GPa) = 0.04124494
#
# Stress axis : x y z
#
# Youngs Moduli (GPa) = 37.93782 36.07849 68.87257
#
# Poissons Ratio (x) = -0.26592 0.79312
# Poissons Ratio (y) = -0.27963 0.65638
# Poissons Ratio (z) = 0.43688 0.34384
#
# Static dielectric constant tensor:
#      x y z
#    x 3.827730 0.033150 0.035480 
#    y 0.033150 3.672890 0.354890 
#    z 0.035480 0.354890 4.530250 
# 
# 
# High freq. dielectric constant tensor:
#      x y z
#    x 1.851620 -0.004970 0.001460 
#    y -0.004970 1.835900 0.019250 
#    z 0.001460 0.019250 1.861220 
# 
# From -- ./inp_files/441117.got.cif
#   From: 2010.06.25/outbox.cif.g09.slc.cpg/sg2_221_cif.got.tgz:441117.got - 2010.06.27 13:26:56.
