data_PCOD8011959
_publ_section_title
;
Structure prediction by ZEFSAII (Michael W. Deem and Ramdas Pophale) SiO2 
 PCOD8011959
Probable space group: P -1
;
_chemical_formula_sum "Si O2"
_cell_formula_units_Z 14
_cell_length_a 15.873826
_cell_length_b 8.429082
_cell_length_c 11.887297
_cell_angle_alpha 61.515367
_cell_angle_beta 130.223078
_cell_angle_gamma 145.630252
_cell_volume 679.755668
_symmetry_space_group_name_H-M "P -1"
_symmetry_group_IT_number 2
_symmetry_cell_setting 'triclinic'
loop_
_space_group_symop_operation_xyz
x,y,z
-x,-y,-z
loop_
_atom_site_type_symbol
_atom_site_label
_atom_site_fract_x
_atom_site_fract_y
_atom_site_fract_z
Si Si1 0.342147 0.437185 0.919112
Si Si2 0.870834 0.019319 0.280297
Si Si3 0.524229 0.095900 0.266405
Si Si4 0.409236 0.568960 0.373290
Si Si5 0.812776 0.682451 0.939660
Si Si6 0.836438 0.315245 0.003230
Si Si7 0.744556 0.573165 0.474546
O O1 0.380042 0.690342 0.828462
O O2 0.162780 0.151697 0.799572
O O3 0.500000 0.500000 0.000000
O O4 0.308025 0.402890 0.033433
O O5 0.822565 0.156076 0.147822
O O6 0.061369 0.261235 0.416318
O O7 0.744227 0.775542 0.351210
O O8 0.609366 0.274481 0.394348
O O9 0.539193 0.896511 0.339646
O O10 0.322605 0.899237 0.149079
O O11 0.500000 0.500000 0.500000
O O12 0.275528 0.350197 0.235583
O O13 0.304889 0.498771 0.415225
O O14 0.831696 0.492341 0.009716
O O15 0.000000 0.000000 0.000000
O O16 0.000000 0.500000 0.000000
#
# Coordination Sequence:
#
# PCOD8011959 Si02
#       7
#     2   2   2   2   2   2   2
#     4  11  22  41  70  94 125 167 214 268 320 373
#     4  10  21  39  65  92 120 167 211 259 320 375
#     4  10  23  40  63  93 122 168 218 255 317 385
#     4  11  25  38  59  90 130 165 204 260 318 374
#     4  11  26  42  63  95 131 162 215 270 316 379
#     4  11  22  39  65  95 128 167 217 268 322 373
#     4  10  22  40  61  89 129 165 210 253 312 396
#
# _framework density 20.595635000000001
#
# number of rings (size 3 to 8) (size 9 to 14) (size 15 to 20)
#    0.000    1.429    1.429    3.857    4.000    4.571 
#    0.000    0.000    0.000    6.857    0.000    0.000 
#    0.000    0.000    0.000    0.000    0.000    0.000 
#
# Total GULP energy -173485.257286 kJ/mol
# GULP energy per Si atom -12391.804092 kJ/mol
# Density = 2.054876 g / cm^3
# Si number density = 20.595635 Si / 1000 Ang^3
#
#
#
# Elastic Constant Matrix: (Units=GPa)
#
#
# Indices 1 2 3 4 5 6 
#
# 1 98.0814 50.0972 52.8039 3.1861 -7.7069 -3.6683
# 2 50.0972 141.1279 86.8328 6.4585 7.1871 -15.0033
# 3 52.8039 86.8328 162.9540 4.8322 -4.5868 -14.0564
# 4 3.1861 6.4585 4.8322 51.9438 -9.2164 6.5753
# 5 -7.7069 7.1871 -4.5868 -9.2164 40.9761 -7.9119
# 6 -3.6683 -15.0033 -14.0564 6.5753 -7.9119 19.2741
#
#
#
# Elastic Compliance Matrix: (Units=1/GPa)
#
#
# Indices 1 2 3 4 5 6 
#
# 1 0.013518 -0.003512 -0.002533 0.000467 0.002782 -0.001026
# 2 -0.003512 0.012092 -0.004930 -0.001925 -0.002873 0.004626
# 3 -0.002533 -0.004930 0.009998 -0.000272 0.002213 0.003973
# 4 0.000467 -0.001925 -0.000272 0.021069 0.003731 -0.007264
# 5 0.002782 -0.002873 0.002213 0.003731 0.028515 0.010340
# 6 -0.001026 0.004626 0.003973 -0.007264 0.010340 0.064909
#
#
# Mechanical properties :
#
#
# Convention : Reuss Voigt Hill
#
# Bulk Modulus (GPa) = 73.22038 86.84791 80.03415
# Shear Modulus (GPa) = 28.31193 36.60077 32.45635
#
# Velocity S-wave (km/s) = 3.71166 4.22016 3.97405
# Velocity P-wave (km/s) = 7.34827 8.12440 7.74607
#
# Compressibility (1/GPa) = 0.01365740
#
# Stress axis : x y z
#
# Youngs Moduli (GPa) = 73.97368 82.69832 100.02387
#
# Poissons Ratio (x) = 0.29046 0.25335
# Poissons Ratio (y) = 0.25982 0.49313
# Poissons Ratio (z) = 0.18737 0.40771
#
# Static dielectric constant tensor:
#      x y z
#    x 3.397480 0.003350 -0.051630 
#    y 0.003350 4.590760 -0.271530 
#    z -0.051630 -0.271530 4.172830 
# 
# 
# High freq. dielectric constant tensor:
#      x y z
#    x 1.766570 -0.002650 -0.005810 
#    y -0.002650 1.829390 -0.002950 
#    z -0.005810 -0.002950 1.830510 
# 
# From -- ./inp_files/184959.got.cif
#   From: 2010.06.25/outbox.cif.g09.slc.cpg/sg2_93_cif.got.tgz:184959.got - 2010.06.27 13:26:56.
