data_PCOD8011308
_publ_section_title
;
Structure prediction by ZEFSAII (Michael W. Deem and Ramdas Pophale) SiO2 
 PCOD8011308
Probable space group: P -1
;
_chemical_formula_sum "Si O2"
_cell_formula_units_Z 14
_cell_length_a 15.238731
_cell_length_b 10.428809
_cell_length_c 10.469106
_cell_angle_alpha 28.564337
_cell_angle_beta 84.188852
_cell_angle_gamma 69.275942
_cell_volume 657.315275
_symmetry_space_group_name_H-M "P -1"
_symmetry_group_IT_number 2
_symmetry_cell_setting 'triclinic'
loop_
_space_group_symop_operation_xyz
x,y,z
-x,-y,-z
loop_
_atom_site_type_symbol
_atom_site_label
_atom_site_fract_x
_atom_site_fract_y
_atom_site_fract_z
Si Si1 0.548093 0.205032 0.848254
Si Si2 0.278246 0.419433 0.253349
Si Si3 0.123357 0.849586 0.113348
Si Si4 0.578614 0.306062 0.041008
Si Si5 0.203269 0.282815 0.783377
Si Si6 0.080153 0.687341 0.925011
Si Si7 0.965706 0.391668 0.282515
O O1 0.500000 0.500000 0.500000
O O2 0.523294 0.330706 0.890550
O O3 0.500000 0.000000 0.000000
O O4 0.672706 0.986397 0.995973
O O5 0.176735 0.634955 0.168939
O O6 0.351625 0.063162 0.606834
O O7 0.348648 0.560167 0.103036
O O8 0.210690 0.454615 0.106038
O O9 0.181291 0.602689 0.438246
O O10 0.144263 0.132029 0.858645
O O11 0.000000 0.000000 0.000000
O O12 0.500000 0.500000 0.000000
O O13 0.154571 0.388542 0.839755
O O14 0.038751 0.681461 0.798401
O O15 0.035717 0.057374 0.643417
O O16 0.026859 0.569802 0.135367
#
# Coordination Sequence:
#
# PCOD8011308 Si02
#       7
#     2   2   2   2   2   2   2
#     4  12  26  47  71  95 134 179 233 293 351 401
#     4  12  22  44  67  96 134 170 222 279 342 403
#     4  12  23  38  67  99 134 170 210 264 340 405
#     4  12  27  47  71  98 134 176 234 295 345 408
#     4  12  23  41  63  95 130 169 221 273 329 406
#     4  10  22  38  62  92 133 177 211 269 331 408
#     4  10  21  39  59  93 135 173 219 263 328 411
#
# _framework density 21.298759
#
# number of rings (size 3 to 8) (size 9 to 14) (size 15 to 20)
#    0.000    0.571    2.857    6.000    0.000    2.286 
#    0.000    0.000    0.000    0.000    0.000    0.000 
#    0.000    0.000    0.000    0.000    0.000    0.000 
#
# Total GULP energy -173551.086139 kJ/mol
# GULP energy per Si atom -12396.506153 kJ/mol
# Density = 2.125028 g / cm^3
# Si number density = 21.298759 Si / 1000 Ang^3
#
#
#
# Elastic Constant Matrix: (Units=GPa)
#
#
# Indices 1 2 3 4 5 6 
#
# 1 148.7657 50.4870 55.0838 6.2395 -10.6465 -8.1450
# 2 50.4870 109.8773 44.0352 -6.5292 3.5486 -22.8846
# 3 55.0838 44.0352 163.0618 8.6262 -8.6344 -1.4815
# 4 6.2395 -6.5292 8.6262 21.2150 0.0465 6.6410
# 5 -10.6465 3.5486 -8.6344 0.0465 47.4590 -4.7419
# 6 -8.1450 -22.8846 -1.4815 6.6410 -4.7419 32.2781
#
#
#
# Elastic Compliance Matrix: (Units=1/GPa)
#
#
# Indices 1 2 3 4 5 6 
#
# 1 0.008873 -0.003486 -0.001777 -0.003161 0.001994 0.000629
# 2 -0.003486 0.013679 -0.002738 0.003956 -0.001542 0.007652
# 3 -0.001777 -0.002738 0.007680 -0.003054 0.001081 -0.001250
# 4 -0.003161 0.003956 -0.003054 0.053511 -0.002564 -0.009519
# 5 0.001994 -0.001542 0.001081 -0.002564 0.022156 0.003242
# 6 0.000629 0.007652 -0.001250 -0.009519 0.003242 0.038942
#
#
# Mechanical properties :
#
#
# Convention : Reuss Voigt Hill
#
# Bulk Modulus (GPa) = 70.27817 80.10187 75.19002
# Shear Modulus (GPa) = 30.19583 38.33035 34.26309
#
# Velocity S-wave (km/s) = 3.76936 4.24683 4.01520
# Velocity P-wave (km/s) = 7.21194 7.85734 7.54155
#
# Compressibility (1/GPa) = 0.01422917
#
# Stress axis : x y z
#
# Youngs Moduli (GPa) = 112.70410 73.10706 130.21007
#
# Poissons Ratio (x) = 0.25483 0.23145
# Poissons Ratio (y) = 0.39285 0.35650
# Poissons Ratio (z) = 0.20033 0.20016
#
# Static dielectric constant tensor:
#      x y z
#    x 4.292250 -0.007030 -0.099680 
#    y -0.007030 4.080140 0.016180 
#    z -0.099680 0.016180 4.455320 
# 
# 
# High freq. dielectric constant tensor:
#      x y z
#    x 1.843230 -0.000610 -0.010470 
#    y -0.000610 1.837160 0.000720 
#    z -0.010470 0.000720 1.857890 
# 
# From -- ./inp_files/363393.got.cif
#   From: 2010.06.25/outbox.cif.g09.slc.cpg/sg2_182_cif.got.tgz:363393.got - 2010.06.27 13:26:56.
