data_PCOD8011485
_publ_section_title
;
Structure prediction by ZEFSAII (Michael W. Deem and Ramdas Pophale) SiO2 
 PCOD8011485
Probable space group: P -1
;
_chemical_formula_sum "Si O2"
_cell_formula_units_Z 16
_cell_length_a 14.398308
_cell_length_b 6.878149
_cell_length_c 17.988751
_cell_angle_alpha 113.927385
_cell_angle_beta 149.367980
_cell_angle_gamma 73.902620
_cell_volume 819.807280
_symmetry_space_group_name_H-M "P -1"
_symmetry_group_IT_number 2
_symmetry_cell_setting 'triclinic'
loop_
_space_group_symop_operation_xyz
x,y,z
-x,-y,-z
loop_
_atom_site_type_symbol
_atom_site_label
_atom_site_fract_x
_atom_site_fract_y
_atom_site_fract_z
Si Si1 0.833313 0.191774 0.699742
Si Si2 0.472973 0.876871 0.800017
Si Si3 0.266709 0.269892 0.477100
Si Si4 0.797344 0.513721 0.386951
Si Si5 0.232259 0.406346 0.998169
Si Si6 0.503221 0.630633 0.097903
Si Si7 0.586569 0.314090 0.423967
Si Si8 0.330255 0.611028 0.249055
O O1 0.652101 0.218899 0.530494
O O2 0.800845 0.264201 0.772512
O O3 0.852851 0.939322 0.674289
O O4 0.022506 0.318748 0.816513
O O5 0.302225 0.724022 0.696429
O O6 0.659525 0.789636 0.938119
O O7 0.437983 0.867150 0.685463
O O8 0.493459 0.119294 0.880703
O O9 0.197351 0.307981 0.517637
O O10 0.251485 0.486386 0.453613
O O11 0.482057 0.234827 0.622234
O O12 0.695656 0.605589 0.263133
O O13 0.000000 0.500000 0.500000
O O14 0.329989 0.547146 0.019415
O O15 0.223014 0.543300 0.088444
O O16 0.500000 0.500000 0.000000
O O17 0.391248 0.409632 0.307591
#
# Coordination Sequence:
#
# PCOD8011485 Si02
#       8
#     2   2   2   2   2   2   2   2
#     4  12  20  32  63  89 113 150 195 244 276 329
#     4   9  20  42  58  76 120 161 174 233 301 338
#     4   9  20  37  57  83 118 148 189 236 286 341
#     4  10  21  39  62  86 112 148 196 240 284 344
#     4  10  23  39  55  85 120 152 190 235 287 343
#     4  11  23  39  60  82 113 155 193 234 291 347
#     4   8  19  34  57  81 110 146 193 227 279 338
#     4   9  19  41  55  79 123 156 187 229 295 345
#
# _framework density 19.516781999999999
#
# number of rings (size 3 to 8) (size 9 to 14) (size 15 to 20)
#    0.750    1.500    2.500    1.875    0.000    7.500 
#    0.000    0.000    0.000    3.750    0.000    0.000 
#    0.000    0.000    0.000    0.000    0.000    0.000 
#
# Total GULP energy -198273.437012 kJ/mol
# GULP energy per Si atom -12392.089813 kJ/mol
# Density = 1.947236 g / cm^3
# Si number density = 19.516782 Si / 1000 Ang^3
#
#
#
# Elastic Constant Matrix: (Units=GPa)
#
#
# Indices 1 2 3 4 5 6 
#
# 1 116.8705 47.1662 34.2494 11.2011 -5.8123 -22.4127
# 2 47.1662 91.4907 30.9023 24.7598 -15.8101 -15.0754
# 3 34.2494 30.9023 48.8070 16.8352 3.9417 -15.8929
# 4 11.2011 24.7598 16.8352 26.7579 -4.2395 -7.8017
# 5 -5.8123 -15.8101 3.9417 -4.2395 38.1185 1.4523
# 6 -22.4127 -15.0754 -15.8929 -7.8017 1.4523 21.1341
#
#
#
# Elastic Compliance Matrix: (Units=1/GPa)
#
#
# Indices 1 2 3 4 5 6 
#
# 1 0.013217 -0.004843 -0.005191 0.004775 0.000756 0.008369
# 2 -0.004843 0.019575 -0.005583 -0.011542 0.006678 -0.000091
# 3 -0.005191 -0.005583 0.037860 -0.013677 -0.009098 0.014559
# 4 0.004775 -0.011542 -0.013677 0.057391 0.003453 0.007494
# 5 0.000756 0.006678 -0.009098 0.003453 0.030524 -0.002100
# 6 0.008369 -0.000091 0.014559 0.007494 -0.002100 0.069986
#
#
# Mechanical properties :
#
#
# Convention : Reuss Voigt Hill
#
# Bulk Modulus (GPa) = 25.36962 53.53376 39.45169
# Shear Modulus (GPa) = 18.31986 26.85879 22.58932
#
# Velocity S-wave (km/s) = 3.06710 3.71373 3.40579
# Velocity P-wave (km/s) = 5.05667 6.77334 5.97696
#
# Compressibility (1/GPa) = 0.03941722
#
# Stress axis : x y z
#
# Youngs Moduli (GPa) = 75.65845 51.08538 26.41288
#
# Poissons Ratio (x) = 0.24741 0.13712
# Poissons Ratio (y) = 0.36641 0.14747
# Poissons Ratio (z) = 0.39277 0.28523
#
# Static dielectric constant tensor:
#      x y z
#    x 3.401500 -0.037270 -0.102850 
#    y -0.037270 3.347130 0.134060 
#    z -0.102850 0.134060 3.355560 
# 
# 
# High freq. dielectric constant tensor:
#      x y z
#    x 1.755110 -0.005910 -0.009850 
#    y -0.005910 1.748630 0.008770 
#    z -0.009850 0.008770 1.749880 
# 
# From -- ./inp_files/571770.got.cif
#   From: 2010.06.25/outbox.cif.g09.slc.cpg/sg2_286_cif.got.tgz:571770.got - 2010.06.27 13:26:56.
