data_PCOD8011600
_publ_section_title
;
Structure prediction by ZEFSAII (Michael W. Deem and Ramdas Pophale) SiO2 
 PCOD8011600
Probable space group: P -1
;
_chemical_formula_sum "Si O2"
_cell_formula_units_Z 16
_cell_length_a 23.470099
_cell_length_b 8.766883
_cell_length_c 24.458415
_cell_angle_alpha 150.507030
_cell_angle_beta 161.789434
_cell_angle_gamma 28.931800
_cell_volume 735.009089
_symmetry_space_group_name_H-M "P -1"
_symmetry_group_IT_number 2
_symmetry_cell_setting 'triclinic'
loop_
_space_group_symop_operation_xyz
x,y,z
-x,-y,-z
loop_
_atom_site_type_symbol
_atom_site_label
_atom_site_fract_x
_atom_site_fract_y
_atom_site_fract_z
Si Si1 0.473182 0.072371 0.434497
Si Si2 0.643957 0.178604 0.167201
Si Si3 0.115642 0.469126 0.851672
Si Si4 0.961058 0.571341 0.859380
Si Si5 0.771345 0.564138 0.484227
Si Si6 0.945977 0.004652 0.726832
Si Si7 0.240827 0.531747 0.202344
Si Si8 0.317346 0.787352 0.052481
O O1 0.250657 0.177458 0.247672
O O2 0.575779 0.341886 0.597049
O O3 0.500000 0.000000 0.500000
O O4 0.567468 0.745925 0.383139
O O5 0.765649 0.229730 0.347074
O O6 0.783794 0.924478 0.173271
O O7 0.525186 0.534392 0.145346
O O8 0.500000 0.000000 0.000000
O O9 0.252466 0.660125 0.010678
O O10 0.046852 0.627047 0.896812
O O11 0.932185 0.518878 0.661832
O O12 0.933861 0.208885 0.723709
O O13 0.114123 0.602749 0.053764
O O14 0.805217 0.787852 0.534364
O O15 0.901133 0.275262 0.819324
O O16 0.165320 0.773761 0.862840
O O17 0.330111 0.152330 0.182291
#
# Coordination Sequence:
#
# PCOD8011600 Si02
#       8
#     2   2   2   2   2   2   2   2
#     4  11  24  39  61 103 125 159 202 250 319 370
#     4  10  22  37  64  88 114 164 215 254 299 358
#     4  10  21  41  59  92 123 161 211 254 312 347
#     4  11  22  40  64  89 137 157 197 255 316 361
#     4  10  21  39  63  84 126 158 207 256 294 374
#     4   9  21  39  59  92 121 164 199 244 314 374
#     4  10  23  41  62  91 133 164 201 248 302 385
#     4   9  19  38  62  87 116 161 211 242 295 368
#
# _framework density 21.768438
#
# number of rings (size 3 to 8) (size 9 to 14) (size 15 to 20)
#    0.000    2.000    1.250    1.875    5.250    3.500 
#    0.000    3.125    0.000    0.000    0.000    0.000 
#    0.000    0.000    0.000    0.000    0.000    0.000 
#
# Total GULP energy -198286.828296 kJ/mol
# GULP energy per Si atom -12392.926769 kJ/mol
# Density = 2.171889 g / cm^3
# Si number density = 21.768438 Si / 1000 Ang^3
#
#
#
# Elastic Constant Matrix: (Units=GPa)
#
#
# Indices 1 2 3 4 5 6 
#
# 1 45.3502 8.9600 6.5832 -2.3979 11.8815 3.3226
# 2 8.9600 112.0729 25.8200 -12.7569 7.0356 -7.6026
# 3 6.5832 25.8200 68.1517 6.1918 -4.6795 -10.0078
# 4 -2.3979 -12.7569 6.1918 37.7861 -2.5143 4.4403
# 5 11.8815 7.0356 -4.6795 -2.5143 18.7877 -2.0586
# 6 3.3226 -7.6026 -10.0078 4.4403 -2.0586 32.9417
#
#
#
# Elastic Compliance Matrix: (Units=1/GPa)
#
#
# Indices 1 2 3 4 5 6 
#
# 1 0.028503 -0.000029 -0.005152 0.002033 -0.019678 -0.005951
# 2 -0.000029 0.010788 -0.004742 0.004084 -0.004633 0.000212
# 3 -0.005152 -0.004742 0.019069 -0.005167 0.009807 0.006528
# 4 0.002033 0.004084 -0.005167 0.029340 -0.000705 -0.004831
# 5 -0.019678 -0.004633 0.009807 -0.000705 0.070675 0.008407
# 6 -0.005951 0.000212 0.006528 -0.004831 0.008407 0.034165
#
#
# Mechanical properties :
#
#
# Convention : Reuss Voigt Hill
#
# Bulk Modulus (GPa) = 25.96489 34.25568 30.11028
# Shear Modulus (GPa) = 22.20004 30.18388 26.19196
#
# Velocity S-wave (km/s) = 3.19694 3.72773 3.47249
# Velocity P-wave (km/s) = 5.05775 5.85650 5.47172
#
# Compressibility (1/GPa) = 0.03851355
#
# Stress axis : x y z
#
# Youngs Moduli (GPa) = 35.08384 92.69782 52.44125
#
# Poissons Ratio (x) = 0.00266 0.27018
# Poissons Ratio (y) = 0.00101 0.24870
# Poissons Ratio (z) = 0.18076 0.43961
#
# Static dielectric constant tensor:
#      x y z
#    x 3.817990 -0.037360 0.285940 
#    y -0.037360 4.776600 -0.058710 
#    z 0.285940 -0.058710 3.963400 
# 
# 
# High freq. dielectric constant tensor:
#      x y z
#    x 1.818850 0.007270 0.017660 
#    y 0.007270 1.864910 -0.007830 
#    z 0.017660 -0.007830 1.866930 
# 
# From -- ./inp_files/614048.got.cif
#   From: 2010.06.25/outbox.cif.g09.slc.cpg/sg2_308_cif.got.tgz:614048.got - 2010.06.27 13:26:56.
