data_PCOD8011771
_publ_section_title
;
Structure prediction by ZEFSAII (Michael W. Deem and Ramdas Pophale) SiO2 
 PCOD8011771
Probable space group: P -1
;
_chemical_formula_sum "Si O2"
_cell_formula_units_Z 14
_cell_length_a 6.863997
_cell_length_b 14.844536
_cell_length_c 9.048211
_cell_angle_alpha 65.779114
_cell_angle_beta 56.546920
_cell_angle_gamma 84.537733
_cell_volume 691.032988
_symmetry_space_group_name_H-M "P -1"
_symmetry_group_IT_number 2
_symmetry_cell_setting 'triclinic'
loop_
_space_group_symop_operation_xyz
x,y,z
-x,-y,-z
loop_
_atom_site_type_symbol
_atom_site_label
_atom_site_fract_x
_atom_site_fract_y
_atom_site_fract_z
Si Si1 0.960776 0.344140 0.982292
Si Si2 0.512552 0.599299 0.835171
Si Si3 0.617476 0.985915 0.116179
Si Si4 0.842158 0.081292 0.466674
Si Si5 0.691834 0.459449 0.353895
Si Si6 0.976622 0.132559 0.039103
Si Si7 0.008410 0.696995 0.663780
O O1 0.081230 0.453110 0.805591
O O2 0.680086 0.334314 0.075446
O O3 0.037755 0.252970 0.920495
O O4 0.033895 0.337657 0.126451
O O5 0.444738 0.567174 0.721084
O O6 0.769831 0.667568 0.689174
O O7 0.500000 0.500000 0.000000
O O8 0.429207 0.956008 0.346874
O O9 0.782306 0.089277 0.027008
O O10 0.777018 0.901324 0.080611
O O11 0.500000 0.000000 0.000000
O O12 0.869995 0.099134 0.267854
O O13 0.921478 0.183481 0.456784
O O14 0.000000 0.000000 0.500000
O O15 0.500000 0.500000 0.500000
O O16 0.785911 0.361327 0.446575
#
# Coordination Sequence:
#
# PCOD8011771 Si02
#       7
#     2   2   2   2   2   2   2
#     4  10  21  39  64  88 118 161 201 245 307 360
#     4  11  19  40  65  82 116 162 204 242 291 373
#     4  11  23  44  63  91 128 159 211 260 304 370
#     4  11  23  42  66  91 124 165 208 254 309 367
#     4  11  23  39  58  91 128 152 194 256 306 354
#     4  10  24  42  65  91 125 167 203 256 314 363
#     4  10  22  41  62  89 117 162 207 243 299 369
#
# _framework density 20.259525
#
# number of rings (size 3 to 8) (size 9 to 14) (size 15 to 20)
#    0.000    1.429    4.286    1.286    4.000    0.571 
#    5.143    0.000    0.000    0.000    0.000    0.000 
#    0.000    0.000    0.000    0.000    0.000    0.000 
#
# Total GULP energy -173558.895015 kJ/mol
# GULP energy per Si atom -12397.063930 kJ/mol
# Density = 2.021341 g / cm^3
# Si number density = 20.259525 Si / 1000 Ang^3
#
#
#
# Elastic Constant Matrix: (Units=GPa)
#
#
# Indices 1 2 3 4 5 6 
#
# 1 146.0852 68.4085 28.0440 3.9997 -18.6771 1.8870
# 2 68.4085 170.0224 27.8499 1.8218 -16.7992 -16.2322
# 3 28.0440 27.8499 54.1926 11.5188 -18.1384 -13.4708
# 4 3.9997 1.8218 11.5188 33.5610 -8.1316 -6.3407
# 5 -18.6771 -16.7992 -18.1384 -8.1316 30.4353 2.4760
# 6 1.8870 -16.2322 -13.4708 -6.3407 2.4760 30.7265
#
#
#
# Elastic Compliance Matrix: (Units=1/GPa)
#
#
# Indices 1 2 3 4 5 6 
#
# 1 0.009426 -0.003404 -0.003393 -0.000002 0.002212 -0.004043
# 2 -0.003404 0.007976 -0.001045 0.001541 0.001766 0.004140
# 3 -0.003393 -0.001045 0.028288 -0.004369 0.012205 0.010173
# 4 -0.000002 0.001541 -0.004369 0.033884 0.006865 0.005338
# 5 0.002212 0.001766 0.012205 0.006865 0.043969 0.004021
# 6 -0.004043 0.004140 0.010173 0.005338 0.004021 0.040218
#
#
# Mechanical properties :
#
#
# Convention : Reuss Voigt Hill
#
# Bulk Modulus (GPa) = 33.32643 68.76722 51.04682
# Shear Modulus (GPa) = 26.39280 35.34440 30.86860
#
# Velocity S-wave (km/s) = 3.61326 4.18135 3.90764
# Velocity P-wave (km/s) = 5.82177 7.57155 6.75357
#
# Compressibility (1/GPa) = 0.03000622
#
# Stress axis : x y z
#
# Youngs Moduli (GPa) = 106.09206 125.38273 35.35128
#
# Poissons Ratio (x) = 0.42683 0.11993
# Poissons Ratio (y) = 0.36116 0.03693
# Poissons Ratio (z) = 0.35993 0.13097
#
# Static dielectric constant tensor:
#      x y z
#    x 3.802440 -0.073280 -0.164360 
#    y -0.073280 4.030160 0.050640 
#    z -0.164360 0.050640 3.569050 
# 
# 
# High freq. dielectric constant tensor:
#      x y z
#    x 1.801130 -0.004240 -0.013130 
#    y -0.004240 1.813510 0.004430 
#    z -0.013130 0.004430 1.768420 
# 
# From -- ./inp_files/36332.got.cif
#   From: 2010.06.25/outbox.cif.g09.slc.cpg/sg2_19_cif.got.tgz:36332.got - 2010.06.27 13:26:56.
