data_PCOD8011341
_publ_section_title
;
Structure prediction by ZEFSAII (Michael W. Deem and Ramdas Pophale) SiO2 
 PCOD8011341
Probable space group: P -1
;
_chemical_formula_sum "Si O2"
_cell_formula_units_Z 16
_cell_length_a 12.036200
_cell_length_b 6.460973
_cell_length_c 19.195885
_cell_angle_alpha 137.358573
_cell_angle_beta 135.644137
_cell_angle_gamma 60.250112
_cell_volume 705.560475
_symmetry_space_group_name_H-M "P -1"
_symmetry_group_IT_number 2
_symmetry_cell_setting 'triclinic'
loop_
_space_group_symop_operation_xyz
x,y,z
-x,-y,-z
loop_
_atom_site_type_symbol
_atom_site_label
_atom_site_fract_x
_atom_site_fract_y
_atom_site_fract_z
Si Si1 0.586960 0.619133 0.498879
Si Si2 0.835395 0.329904 0.312676
Si Si3 0.885289 0.745222 0.851316
Si Si4 0.656776 0.246204 0.853956
Si Si5 0.677910 0.681497 0.223533
Si Si6 0.841886 0.624516 0.145036
Si Si7 0.356073 0.670559 0.285938
Si Si8 0.841721 0.303843 0.464069
O O1 0.500000 0.500000 0.500000
O O2 0.482119 0.540734 0.363714
O O3 0.743696 0.436279 0.516173
O O4 0.646427 0.970251 0.614340
O O5 0.692876 0.394661 0.211516
O O6 0.778745 0.399819 0.382922
O O7 0.978300 0.570762 0.415410
O O8 0.886602 0.983381 0.242261
O O9 0.813826 0.503569 0.816494
O O10 0.997249 0.544813 0.802263
O O11 0.742375 0.926894 0.796783
O O12 0.000000 0.000000 0.000000
O O13 0.495084 0.182063 0.810560
O O14 0.608425 0.393546 0.795169
O O15 0.774489 0.482172 0.007310
O O16 0.705268 0.570794 0.129271
O O17 0.819447 0.936946 0.368259
#
# Coordination Sequence:
#
# PCOD8011341 Si02
#       8
#     2   2   2   2   2   2   2   2
#     4  11  23  39  62  93 128 166 210 261 315 379
#     4  10  22  39  62  92 122 162 209 256 312 380
#     4  10  23  42  64  91 126 168 214 262 313 372
#     4  11  24  43  65  92 128 168 212 262 316 378
#     4  11  22  39  65  94 126 164 206 260 318 374
#     4  10  24  41  63  93 125 166 213 260 315 373
#     4  11  23  39  64  93 125 169 213 259 319 379
#     4  10  21  39  60  87 124 161 204 255 312 375
#
# _framework density 22.677009000000002
#
# number of rings (size 3 to 8) (size 9 to 14) (size 15 to 20)
#    0.000    1.500    0.000    4.500    0.000    9.500 
#    0.000    0.000    0.000    0.000    0.000    0.000 
#    0.000    0.000    0.000    0.000    0.000    0.000 
#
# Total GULP energy -198296.736012 kJ/mol
# GULP energy per Si atom -12393.546001 kJ/mol
# Density = 2.262540 g / cm^3
# Si number density = 22.677009 Si / 1000 Ang^3
#
#
#
# Elastic Constant Matrix: (Units=GPa)
#
#
# Indices 1 2 3 4 5 6 
#
# 1 154.4787 48.8359 31.7994 -3.0433 -2.5963 -1.0399
# 2 48.8359 101.9651 30.2300 -9.2624 3.5344 -2.7653
# 3 31.7994 30.2300 88.4446 4.4290 4.1552 6.7154
# 4 -3.0433 -9.2624 4.4290 34.3206 14.9057 -3.1979
# 5 -2.5963 3.5344 4.1552 14.9057 30.9631 4.3454
# 6 -1.0399 -2.7653 6.7154 -3.1979 4.3454 36.7680
#
#
#
# Elastic Compliance Matrix: (Units=1/GPa)
#
#
# Indices 1 2 3 4 5 6 
#
# 1 0.007917 -0.003396 -0.001729 -0.000687 0.001610 0.000034
# 2 -0.003396 0.013272 -0.003599 0.005968 -0.004557 0.002617
# 3 -0.001729 -0.003599 0.013543 -0.003393 0.000524 -0.003150
# 4 -0.000687 0.005968 -0.003393 0.040888 -0.020961 0.007083
# 5 0.001610 -0.004557 0.000524 -0.020961 0.044013 -0.007418
# 6 0.000034 0.002617 -0.003150 0.007083 -0.007418 0.029463
#
#
# Mechanical properties :
#
#
# Convention : Reuss Voigt Hill
#
# Bulk Modulus (GPa) = 57.86091 62.95768 60.40930
# Shear Modulus (GPa) = 29.01817 36.01187 32.51502
#
# Velocity S-wave (km/s) = 3.58107 3.98934 3.79071
# Velocity P-wave (km/s) = 6.53218 7.00306 6.77171
#
# Compressibility (1/GPa) = 0.01728282
#
# Stress axis : x y z
#
# Youngs Moduli (GPa) = 126.31346 75.34708 73.84010
#
# Poissons Ratio (x) = 0.25590 0.12770
# Poissons Ratio (y) = 0.42900 0.26572
# Poissons Ratio (z) = 0.21844 0.27115
#
# Static dielectric constant tensor:
#      x y z
#    x 4.156550 -0.153180 0.090680 
#    y -0.153180 4.101350 0.081690 
#    z 0.090680 0.081690 3.923850 
# 
# 
# High freq. dielectric constant tensor:
#      x y z
#    x 1.897460 0.000860 0.002840 
#    y 0.000860 1.893090 0.008700 
#    z 0.002840 0.008700 1.892010 
# 
# From -- ./inp_files/564587.got.cif
#   From: 2010.06.25/outbox.cif.g09.slc.cpg/sg2_283_cif.got.tgz:564587.got - 2010.06.27 13:26:56.
