data_PCOD8011248
_publ_section_title
;
Structure prediction by ZEFSAII (Michael W. Deem and Ramdas Pophale) SiO2 
 PCOD8011248
Probable space group: P -1
;
_chemical_formula_sum "Si O2"
_cell_formula_units_Z 16
_cell_length_a 9.263313
_cell_length_b 12.597170
_cell_length_c 13.045399
_cell_angle_alpha 91.281691
_cell_angle_beta 32.062993
_cell_angle_gamma 86.872248
_cell_volume 800.116955
_symmetry_space_group_name_H-M "P -1"
_symmetry_group_IT_number 2
_symmetry_cell_setting 'triclinic'
loop_
_space_group_symop_operation_xyz
x,y,z
-x,-y,-z
loop_
_atom_site_type_symbol
_atom_site_label
_atom_site_fract_x
_atom_site_fract_y
_atom_site_fract_z
Si Si1 0.271688 0.689940 0.950453
Si Si2 0.052889 0.878873 0.502673
Si Si3 0.852501 0.574292 0.679030
Si Si4 0.548117 0.102652 0.102045
Si Si5 0.330880 0.624927 0.686974
Si Si6 0.928195 0.549152 0.272951
Si Si7 0.539771 0.869036 0.077800
Si Si8 0.072216 0.753914 0.672996
O O1 0.552217 0.626184 0.825116
O O2 0.244523 0.819270 0.980193
O O3 0.224495 0.673206 0.859273
O O4 0.023836 0.650800 0.161689
O O5 0.299149 0.818879 0.283284
O O6 0.138627 0.858875 0.571477
O O7 0.751991 0.840766 0.675161
O O8 0.000000 0.000000 0.500000
O O9 0.000000 0.500000 0.500000
O O10 0.838415 0.501720 0.788290
O O11 0.033098 0.666917 0.606081
O O12 0.610946 0.977524 0.095708
O O13 0.577347 0.100155 0.962399
O O14 0.650372 0.580838 0.505736
O O15 0.135906 0.536023 0.775997
O O16 0.312009 0.711653 0.607079
O O17 0.804148 0.780160 0.907767
#
# Coordination Sequence:
#
# PCOD8011248 Si02
#       8
#     2   2   2   2   2   2   2   2
#     4  12  21  38  60  86 113 151 194 234 291 334
#     4   9  17  33  59  86 113 146 187 232 289 337
#     4  11  21  39  58  88 119 143 191 251 282 326
#     4   9  19  33  55  90 115 139 189 240 282 339
#     4  10  23  41  55  79 120 158 191 232 281 343
#     4  10  23  40  59  80 116 158 193 233 283 341
#     4   9  17  34  58  83 115 147 182 236 289 334
#     4  10  21  39  57  86 117 151 193 233 284 346
#
# _framework density 19.997077000000001
#
# number of rings (size 3 to 8) (size 9 to 14) (size 15 to 20)
#    0.000    2.000    3.750    1.500    0.000    3.000 
#    4.500    0.625    0.000    3.750    0.000    0.000 
#    0.000    0.000    0.000    0.000    0.000    0.000 
#
# Total GULP energy -198216.826112 kJ/mol
# GULP energy per Si atom -12388.551632 kJ/mol
# Density = 1.995156 g / cm^3
# Si number density = 19.997077 Si / 1000 Ang^3
#
#
#
# Elastic Constant Matrix: (Units=GPa)
#
#
# Indices 1 2 3 4 5 6 
#
# 1 70.8436 27.7425 23.1776 -6.9920 7.9219 2.5925
# 2 27.7425 89.1385 34.8061 -5.9705 10.4464 11.5987
# 3 23.1776 34.8061 100.0149 -5.8668 13.4375 11.5997
# 4 -6.9920 -5.9705 -5.8668 35.7596 -4.6218 4.6367
# 5 7.9219 10.4464 13.4375 -4.6218 19.9940 3.1479
# 6 2.5925 11.5987 11.5997 4.6367 3.1479 32.8784
#
#
#
# Elastic Compliance Matrix: (Units=1/GPa)
#
#
# Indices 1 2 3 4 5 6 
#
# 1 0.016868 -0.004089 -0.002098 0.001788 -0.002861 0.000875
# 2 -0.004089 0.014664 -0.003267 0.001188 -0.003008 -0.003578
# 3 -0.002098 -0.003267 0.012712 0.000792 -0.005387 -0.002763
# 4 0.001788 0.001188 0.000792 0.030153 0.006001 -0.005666
# 5 -0.002861 -0.003008 -0.005387 0.006001 0.058237 -0.003235
# 6 0.000875 -0.003578 -0.002763 -0.005666 -0.003235 0.033692
#
#
# Mechanical properties :
#
#
# Convention : Reuss Voigt Hill
#
# Bulk Modulus (GPa) = 39.46924 47.93883 43.70404
# Shear Modulus (GPa) = 25.81574 29.34446 27.58010
#
# Velocity S-wave (km/s) = 3.59691 3.83487 3.71780
# Velocity P-wave (km/s) = 6.08529 6.60555 6.35075
#
# Compressibility (1/GPa) = 0.02533618
#
# Stress axis : x y z
#
# Youngs Moduli (GPa) = 59.28470 68.19197 78.66357
#
# Poissons Ratio (x) = 0.27886 0.16504
# Poissons Ratio (y) = 0.24243 0.25699
# Poissons Ratio (z) = 0.12438 0.22278
#
# Static dielectric constant tensor:
#      x y z
#    x 3.472000 -0.099260 0.128510 
#    y -0.099260 3.805610 -0.054880 
#    z 0.128510 -0.054880 3.839270 
# 
# 
# High freq. dielectric constant tensor:
#      x y z
#    x 1.753630 -0.012160 0.012210 
#    y -0.012160 1.777390 0.000040 
#    z 0.012210 0.000040 1.779140 
# 
# From -- ./inp_files/390144.got.cif
#   From: 2010.06.25/outbox.cif.g09.slc.cpg/sg2_196_cif.got.tgz:390144.got - 2010.06.27 13:26:56.
