data_PCOD8011772
_publ_section_title
;
Structure prediction by ZEFSAII (Michael W. Deem and Ramdas Pophale) SiO2 
 PCOD8011772
Probable space group: P -1
;
_chemical_formula_sum "Si O2"
_cell_formula_units_Z 14
_cell_length_a 9.148523
_cell_length_b 11.638018
_cell_length_c 12.863272
_cell_angle_alpha 63.171430
_cell_angle_beta 94.934563
_cell_angle_gamma 140.920248
_cell_volume 680.090704
_symmetry_space_group_name_H-M "P -1"
_symmetry_group_IT_number 2
_symmetry_cell_setting 'triclinic'
loop_
_space_group_symop_operation_xyz
x,y,z
-x,-y,-z
loop_
_atom_site_type_symbol
_atom_site_label
_atom_site_fract_x
_atom_site_fract_y
_atom_site_fract_z
Si Si1 0.926770 0.047846 0.846474
Si Si2 0.273951 0.830951 0.139624
Si Si3 0.576480 0.628398 0.135457
Si Si4 0.740928 0.956967 0.435306
Si Si5 0.256967 0.645988 0.395644
Si Si6 0.109162 0.446452 0.264661
Si Si7 0.207311 0.124098 0.313992
O O1 0.859210 0.010176 0.736163
O O2 0.860168 0.129086 0.872526
O O3 0.759159 0.805629 0.978778
O O4 0.236960 0.248181 0.801392
O O5 0.374361 0.851664 0.250303
O O6 0.068916 0.571031 0.191057
O O7 0.500000 0.000000 0.000000
O O8 0.354300 0.573648 0.161241
O O9 0.442157 0.394926 0.194919
O O10 0.844362 0.177328 0.332561
O O11 0.942821 0.003719 0.379843
O O12 0.463651 0.740763 0.450843
O O13 0.700437 0.902685 0.577256
O O14 0.180196 0.476205 0.379336
O O15 0.000000 0.500000 0.500000
#
# Coordination Sequence:
#
# PCOD8011772 Si02
#       7
#     2   2   2   2   2   2   2
#     4  11  21  38  63  92 121 161 207 258 306 366
#     4  10  22  42  63  90 126 162 204 251 315 370
#     4  10  21  39  64  88 123 161 205 262 305 364
#     4  10  22  42  60  90 126 163 205 255 316 362
#     4  10  23  39  63  90 125 165 205 256 308 370
#     4   9  21  40  62  85 124 161 200 259 306 369
#     4  10  23  37  64  91 122 161 209 255 304 377
#
# _framework density 20.585488999999999
#
# number of rings (size 3 to 8) (size 9 to 14) (size 15 to 20)
#    0.857    1.143    1.429    1.286    4.000    0.571 
#    2.571    5.000    0.000    0.000    0.000    0.000 
#    0.000    0.000    0.000    0.000    0.000    0.000 
#
# Total GULP energy -173495.088816 kJ/mol
# GULP energy per Si atom -12392.506344 kJ/mol
# Density = 2.053864 g / cm^3
# Si number density = 20.585489 Si / 1000 Ang^3
#
#
#
# Elastic Constant Matrix: (Units=GPa)
#
#
# Indices 1 2 3 4 5 6 
#
# 1 47.9427 15.6589 21.3546 -12.3795 4.2657 -9.6637
# 2 15.6589 70.2034 17.6530 3.0410 -10.2759 4.1386
# 3 21.3546 17.6530 94.4970 6.9058 -1.2081 4.0263
# 4 -12.3795 3.0410 6.9058 28.4209 -1.0303 4.9247
# 5 4.2657 -10.2759 -1.2081 -1.0303 23.2470 2.6210
# 6 -9.6637 4.1386 4.0263 4.9247 2.6210 36.5626
#
#
#
# Elastic Compliance Matrix: (Units=1/GPa)
#
#
# Indices 1 2 3 4 5 6 
#
# 1 0.033947 -0.008419 -0.007775 0.015549 -0.010732 0.009457
# 2 -0.008419 0.018226 -0.000878 -0.004298 0.009852 -0.004319
# 3 -0.007775 -0.000878 0.013076 -0.005934 0.001762 -0.002723
# 4 0.015549 -0.004298 -0.005934 0.043824 -0.003070 -0.000433
# 5 -0.010732 0.009852 0.001762 -0.003070 0.050122 -0.007325
# 6 0.009457 -0.004319 -0.002723 -0.000433 -0.007325 0.031222
#
#
# Mechanical properties :
#
#
# Convention : Reuss Voigt Hill
#
# Bulk Modulus (GPa) = 32.14975 35.77513 33.96244
# Shear Modulus (GPa) = 21.28310 28.17786 24.73048
#
# Velocity S-wave (km/s) = 3.21890 3.70377 3.46982
# Velocity P-wave (km/s) = 5.42832 5.97554 5.70849
#
# Compressibility (1/GPa) = 0.03110444
#
# Stress axis : x y z
#
# Youngs Moduli (GPa) = 29.45758 54.86727 76.47807
#
# Poissons Ratio (x) = 0.46191 0.59463
# Poissons Ratio (y) = 0.24799 0.06717
# Poissons Ratio (z) = 0.22904 0.04819
#
# Static dielectric constant tensor:
#      x y z
#    x 4.512410 0.268230 0.256240 
#    y 0.268230 3.795280 0.035750 
#    z 0.256240 0.035750 3.805630 
# 
# 
# High freq. dielectric constant tensor:
#      x y z
#    x 1.791240 -0.012150 -0.002860 
#    y -0.012150 1.795640 -0.006850 
#    z -0.002860 -0.006850 1.811740 
# 
# From -- ./inp_files/389766.got.cif
#   From: 2010.06.25/outbox.cif.g09.slc.cpg/sg2_195_cif.got.tgz:389766.got - 2010.06.27 13:26:56.
