data_PCOD8011646
_publ_section_title
;
Structure prediction by ZEFSAII (Michael W. Deem and Ramdas Pophale) SiO2 
 PCOD8011646
Probable space group: P -1
;
_chemical_formula_sum "Si O2"
_cell_formula_units_Z 16
_cell_length_a 23.831544
_cell_length_b 4.990103
_cell_length_c 6.718154
_cell_angle_alpha 74.675036
_cell_angle_beta 109.629468
_cell_angle_gamma 106.531245
_cell_volume 708.696592
_symmetry_space_group_name_H-M "P -1"
_symmetry_group_IT_number 2
_symmetry_cell_setting 'triclinic'
loop_
_space_group_symop_operation_xyz
x,y,z
-x,-y,-z
loop_
_atom_site_type_symbol
_atom_site_label
_atom_site_fract_x
_atom_site_fract_y
_atom_site_fract_z
Si Si1 0.136020 0.871737 0.070171
Si Si2 0.780745 0.760593 0.204577
Si Si3 0.701362 0.159026 0.186592
Si Si4 0.494095 0.292230 0.847583
Si Si5 0.375285 0.086415 0.502816
Si Si6 0.122590 0.254978 0.341054
Si Si7 0.006944 0.807136 0.863947
Si Si8 0.611718 0.333406 0.741532
O O1 0.141023 0.547490 0.179277
O O2 0.130690 0.003306 0.254328
O O3 0.077115 0.893191 0.853496
O O4 0.195625 0.042520 0.995599
O O5 0.754666 0.437428 0.171652
O O6 0.835426 0.750504 0.420065
O O7 0.726629 0.882662 0.213516
O O8 0.677968 0.112722 0.394141
O O9 0.644815 0.182259 0.975980
O O10 0.429120 0.259715 0.671649
O O11 0.547259 0.388639 0.730402
O O12 0.500000 0.500000 0.000000
O O13 0.500000 0.000000 0.000000
O O14 0.349434 0.345600 0.320944
O O15 0.398858 0.877699 0.418478
O O16 0.051437 0.196040 0.349760
O O17 0.000000 0.500000 0.000000
O O18 0.000000 0.000000 0.000000
#
# Coordination Sequence:
#
# PCOD8011646 Si02
#       8
#     2   2   2   2   2   2   2   2
#     4  10  21  39  63  90 127 162 211 267 325 384
#     4  12  26  41  64  93 122 176 220 264 318 382
#     4  12  28  45  64  93 134 168 226 268 312 372
#     4  12  24  44  76 103 139 166 204 273 332 382
#     4  12  26  46  72  99 132 175 216 263 327 391
#     4  10  21  39  63  90 127 162 211 267 325 384
#     4   8  16  33  58  89 120 160 200 261 328 385
#     4  12  26  46  72  99 132 175 216 263 327 391
#
# _framework density 22.57666
#
# number of rings (size 3 to 8) (size 9 to 14) (size 15 to 20)
#    0.000    1.000    1.250    5.250    1.750    6.500 
#    0.000    0.000    0.000   10.500    0.000    0.000 
#    0.000    0.000    0.000    0.000    0.000    0.000 
#
# Total GULP energy -198333.599077 kJ/mol
# GULP energy per Si atom -12395.849942 kJ/mol
# Density = 2.252527 g / cm^3
# Si number density = 22.576660 Si / 1000 Ang^3
#
#
#
# Elastic Constant Matrix: (Units=GPa)
#
#
# Indices 1 2 3 4 5 6 
#
# 1 70.1829 12.5864 7.7310 1.9897 -6.7684 -4.5174
# 2 12.5864 115.1957 9.7325 1.2155 -11.7765 -12.3072
# 3 7.7310 9.7325 46.0566 -0.5946 -3.9253 -4.5874
# 4 1.9897 1.2155 -0.5946 38.5962 -3.7703 -2.6422
# 5 -6.7684 -11.7765 -3.9253 -3.7703 36.4461 -1.6496
# 6 -4.5174 -12.3072 -4.5874 -2.6422 -1.6496 42.8047
#
#
#
# Elastic Compliance Matrix: (Units=1/GPa)
#
#
# Indices 1 2 3 4 5 6 
#
# 1 0.014965 -0.001120 -0.001984 -0.000476 0.002204 0.001100
# 2 -0.001120 0.009480 -0.001312 0.000195 0.002851 0.002589
# 3 -0.001984 -0.001312 0.022684 0.000806 0.001823 0.001964
# 4 -0.000476 0.000195 0.000806 0.026346 0.002869 0.001829
# 5 0.002204 0.002851 0.001823 0.002869 0.029377 0.002557
# 6 0.001100 0.002589 0.001964 0.001829 0.002557 0.024644
#
#
# Mechanical properties :
#
#
# Convention : Reuss Voigt Hill
#
# Bulk Modulus (GPa) = 26.11117 32.39276 29.25196
# Shear Modulus (GPa) = 33.53603 36.99508 35.26556
#
# Velocity S-wave (km/s) = 3.85831 4.05241 3.95655
# Velocity P-wave (km/s) = 5.60708 6.02288 5.81870
#
# Compressibility (1/GPa) = 0.03829779
#
# Stress axis : x y z
#
# Youngs Moduli (GPa) = 66.82385 105.48445 44.08365
#
# Poissons Ratio (x) = 0.11809 0.08747
# Poissons Ratio (y) = 0.07481 0.05784
# Poissons Ratio (z) = 0.13258 0.13839
#
# Static dielectric constant tensor:
#      x y z
#    x 6.017730 0.061490 1.431980 
#    y 0.061490 4.213940 -0.057490 
#    z 1.431980 -0.057490 4.821820 
# 
# 
# High freq. dielectric constant tensor:
#      x y z
#    x 1.895660 -0.003620 0.011980 
#    y -0.003620 1.912390 -0.002390 
#    z 0.011980 -0.002390 1.878640 
# 
# From -- ./inp_files/121585.got.cif
#   From: 2010.06.25/outbox.cif.g09.slc.cpg/sg2_61_cif.got.tgz:121585.got - 2010.06.27 13:26:56.
