data_PCOD8011822
_publ_section_title
;
Structure prediction by ZEFSAII (Michael W. Deem and Ramdas Pophale) SiO2 
 PCOD8011822
Probable space group: P -1
;
_chemical_formula_sum "Si O2"
_cell_formula_units_Z 16
_cell_length_a 14.925541
_cell_length_b 12.169586
_cell_length_c 9.200155
_cell_angle_alpha 102.959563
_cell_angle_beta 93.724360
_cell_angle_gamma 29.387696
_cell_volume 768.839924
_symmetry_space_group_name_H-M "P -1"
_symmetry_group_IT_number 2
_symmetry_cell_setting 'triclinic'
loop_
_space_group_symop_operation_xyz
x,y,z
-x,-y,-z
loop_
_atom_site_type_symbol
_atom_site_label
_atom_site_fract_x
_atom_site_fract_y
_atom_site_fract_z
Si Si1 0.019295 0.684326 0.206424
Si Si2 0.356910 0.421602 0.301784
Si Si3 0.889011 0.174559 0.399895
Si Si4 0.036933 0.078224 0.097631
Si Si5 0.512499 0.970692 0.819456
Si Si6 0.079208 0.418607 0.326455
Si Si7 0.139733 0.501433 0.866197
Si Si8 0.704821 0.179994 0.205275
O O1 0.189929 0.586371 0.215004
O O2 0.997134 0.627341 0.322801
O O3 0.072018 0.547770 0.035197
O O4 0.819962 0.963586 0.249007
O O5 0.252603 0.570774 0.485145
O O6 0.480093 0.171004 0.259570
O O7 0.485261 0.385339 0.251429
O O8 0.751361 0.245693 0.311273
O O9 0.044221 0.056240 0.267927
O O10 0.000000 0.000000 0.500000
O O11 0.870192 0.352267 0.119124
O O12 0.232728 0.897777 0.982229
O O13 0.000000 0.000000 0.000000
O O14 0.694765 0.831794 0.733619
O O15 0.345004 0.217285 0.786509
O O16 0.500000 0.000000 0.000000
O O17 0.000000 0.500000 0.500000
O O18 0.009057 0.386932 0.225955
#
# Coordination Sequence:
#
# PCOD8011822 Si02
#       8
#     2   2   2   2   2   2   2   2
#     4  10  21  39  64  92 126 170 210 260 316 377
#     4  11  22  38  67  94 127 160 219 258 314 381
#     4  11  22  42  68  91 131 168 208 269 328 368
#     4   9  23  41  67  93 124 167 213 260 318 376
#     4  11  24  41  65  95 129 171 218 257 316 391
#     4  11  25  39  62  97 134 164 217 263 320 377
#     4  11  22  41  71  88 131 172 212 259 323 377
#     4  10  21  41  69  89 123 171 214 254 318 385
#
# _framework density 20.810575
#
# number of rings (size 3 to 8) (size 9 to 14) (size 15 to 20)
#    0.000    1.500    3.750    1.500    7.000    0.500 
#    2.250    0.625   11.000    0.000    0.000    0.000 
#    0.000    0.000    0.000    0.000    0.000    0.000 
#
# Total GULP energy -198248.341199 kJ/mol
# GULP energy per Si atom -12390.521325 kJ/mol
# Density = 2.076321 g / cm^3
# Si number density = 20.810575 Si / 1000 Ang^3
#
#
#
# Elastic Constant Matrix: (Units=GPa)
#
#
# Indices 1 2 3 4 5 6 
#
# 1 107.5518 35.9856 61.1763 1.0187 3.0916 -3.1733
# 2 35.9856 55.5442 37.1216 6.6860 -2.6784 9.5374
# 3 61.1763 37.1216 168.9972 3.2124 -6.4954 1.5940
# 4 1.0187 6.6860 3.2124 32.4607 8.7704 3.9388
# 5 3.0916 -2.6784 -6.4954 8.7704 36.3993 0.3406
# 6 -3.1733 9.5374 1.5940 3.9388 0.3406 29.2064
#
#
#
# Elastic Compliance Matrix: (Units=1/GPa)
#
#
# Indices 1 2 3 4 5 6 
#
# 1 0.014140 -0.007823 -0.003584 0.001808 -0.002890 0.004076
# 2 -0.007823 0.027276 -0.002849 -0.004929 0.003435 -0.008977
# 3 -0.003584 -0.002849 0.007912 -0.000546 0.001637 0.000164
# 4 0.001808 -0.004929 -0.000546 0.034558 -0.008915 -0.002721
# 5 -0.002890 0.003435 0.001637 -0.008915 0.030418 -0.000677
# 6 0.004076 -0.008977 0.000164 -0.002721 -0.000677 0.037979
#
#
# Mechanical properties :
#
#
# Convention : Reuss Voigt Hill
#
# Bulk Modulus (GPa) = 48.03876 66.74002 57.38939
# Shear Modulus (GPa) = 26.63331 32.80060 29.71695
#
# Velocity S-wave (km/s) = 3.58131 3.97438 3.78295
# Velocity P-wave (km/s) = 6.34310 7.29389 6.83505
#
# Compressibility (1/GPa) = 0.02081653
#
# Stress axis : x y z
#
# Youngs Moduli (GPa) = 70.72055 36.66181 126.38410
#
# Poissons Ratio (x) = 0.28679 0.45300
# Poissons Ratio (y) = 0.55321 0.36012
# Poissons Ratio (z) = 0.25348 0.10446
#
# Static dielectric constant tensor:
#      x y z
#    x 3.884550 0.094820 0.030490 
#    y 0.094820 3.643590 0.156700 
#    z 0.030490 0.156700 4.143810 
# 
# 
# High freq. dielectric constant tensor:
#      x y z
#    x 1.814840 0.010790 0.008230 
#    y 0.010790 1.798010 0.013290 
#    z 0.008230 0.013290 1.823370 
# 
# From -- ./inp_files/307741.got.cif
#   From: 2010.06.25/outbox.cif.g09.slc.cpg/sg2_154_cif.got.tgz:307741.got - 2010.06.27 13:26:56.
