data_PCOD8011852
_publ_section_title
;
Structure prediction by ZEFSAII (Michael W. Deem and Ramdas Pophale) SiO2 
 PCOD8011852
Probable space group: P -1
;
_chemical_formula_sum "Si O2"
_cell_formula_units_Z 16
_cell_length_a 10.558820
_cell_length_b 13.377207
_cell_length_c 12.516076
_cell_angle_alpha 113.190364
_cell_angle_beta 49.601326
_cell_angle_gamma 144.282170
_cell_volume 750.309160
_symmetry_space_group_name_H-M "P -1"
_symmetry_group_IT_number 2
_symmetry_cell_setting 'triclinic'
loop_
_space_group_symop_operation_xyz
x,y,z
-x,-y,-z
loop_
_atom_site_type_symbol
_atom_site_label
_atom_site_fract_x
_atom_site_fract_y
_atom_site_fract_z
Si Si1 0.284657 0.696815 0.302761
Si Si2 0.229801 0.198147 0.221393
Si Si3 0.750379 0.791302 0.020637
Si Si4 0.220450 0.055698 0.480747
Si Si5 0.431591 0.971524 0.205088
Si Si6 0.166451 0.909505 0.118211
Si Si7 0.401845 0.422002 0.788911
Si Si8 0.334628 0.636429 0.472630
O O1 0.469452 0.713999 0.136580
O O2 0.309801 0.831242 0.302739
O O3 0.388192 0.747826 0.391337
O O4 0.968981 0.497417 0.374833
O O5 0.504735 0.403506 0.197644
O O6 0.971415 0.102510 0.393145
O O7 0.265879 0.086026 0.154838
O O8 0.181800 0.219780 0.137981
O O9 0.710672 0.669535 0.070753
O O10 0.000000 0.000000 0.000000
O O11 0.417100 0.082093 0.313390
O O12 0.438893 0.241489 0.505626
O O13 0.000000 0.000000 0.500000
O O14 0.256984 0.879938 0.153250
O O15 0.731037 0.086730 0.050358
O O16 0.840868 0.730724 0.224801
O O17 0.653660 0.476837 0.636368
#
# Coordination Sequence:
#
# PCOD8011852 Si02
#       8
#     2   2   2   2   2   2   2   2
#     4  10  21  39  64  94 132 176 215 265 340 385
#     4  12  22  40  66  96 125 168 224 265 322 402
#     4  11  20  40  68  95 134 172 216 277 326 389
#     4  12  24  42  67  95 131 175 224 270 332 392
#     4  11  23  42  65  90 132 174 212 275 331 388
#     4  11  23  44  64  94 132 169 220 273 326 391
#     4  11  22  40  68  97 127 174 219 269 336 385
#     4  10  22  41  63  96 139 169 217 282 322 396
#
# _framework density 21.324543999999999
#
# number of rings (size 3 to 8) (size 9 to 14) (size 15 to 20)
#    0.000    1.000    5.000    1.875    0.000    2.500 
#    0.000    8.750    0.000    0.000    0.000    0.000 
#    0.000    0.000    0.000    0.000    0.000    0.000 
#
# Total GULP energy -198257.610293 kJ/mol
# GULP energy per Si atom -12391.100643 kJ/mol
# Density = 2.127601 g / cm^3
# Si number density = 21.324544 Si / 1000 Ang^3
#
#
#
# Elastic Constant Matrix: (Units=GPa)
#
#
# Indices 1 2 3 4 5 6 
#
# 1 81.0204 43.5557 24.6886 3.0956 -2.3280 14.4961
# 2 43.5557 123.8725 39.4264 -0.5656 -8.0141 5.1314
# 3 24.6886 39.4264 132.1037 -1.0388 -7.0163 4.1623
# 4 3.0956 -0.5656 -1.0388 27.5020 5.2980 -5.3513
# 5 -2.3280 -8.0141 -7.0163 5.2980 29.2758 9.2677
# 6 14.4961 5.1314 4.1623 -5.3513 9.2677 26.6387
#
#
#
# Elastic Compliance Matrix: (Units=1/GPa)
#
#
# Indices 1 2 3 4 5 6 
#
# 1 0.017757 -0.005150 -0.001262 -0.005058 0.004067 -0.010905
# 2 -0.005150 0.010654 -0.002141 0.000502 0.001717 0.000588
# 3 -0.001262 -0.002141 0.008556 -0.000052 0.001632 -0.000816
# 4 -0.005058 0.000502 -0.000052 0.042485 -0.012935 0.015699
# 5 0.004067 0.001717 0.001632 -0.012935 0.044267 -0.020798
# 6 -0.010905 0.000588 -0.000816 0.015699 -0.020798 0.053877
#
#
# Mechanical properties :
#
#
# Convention : Reuss Voigt Hill
#
# Bulk Modulus (GPa) = 50.34648 61.37088 55.85868
# Shear Modulus (GPa) = 24.83577 31.97171 28.40374
#
# Velocity S-wave (km/s) = 3.41641 3.87627 3.65358
# Velocity P-wave (km/s) = 6.26286 6.99113 6.63699
#
# Compressibility (1/GPa) = 0.01986236
#
# Stress axis : x y z
#
# Youngs Moduli (GPa) = 56.31616 93.86091 116.87083
#
# Poissons Ratio (x) = 0.48341 0.14745
# Poissons Ratio (y) = 0.29005 0.25017
# Poissons Ratio (z) = 0.07105 0.20092
#
# Static dielectric constant tensor:
#      x y z
#    x 3.913210 0.066350 0.069000 
#    y 0.066350 3.591720 -0.106360 
#    z 0.069000 -0.106360 4.259870 
# 
# 
# High freq. dielectric constant tensor:
#      x y z
#    x 1.834550 0.004820 0.004920 
#    y 0.004820 1.810350 -0.010290 
#    z 0.004920 -0.010290 1.854170 
# 
# From -- ./inp_files/433064.got.cif
#   From: 2010.06.25/outbox.cif.g09.slc.cpg/sg2_217_cif.got.tgz:433064.got - 2010.06.27 13:26:56.
