data_PCOD8011685
_publ_section_title
;
Structure prediction by ZEFSAII (Michael W. Deem and Ramdas Pophale) SiO2 
 PCOD8011685
Probable space group: P -1
;
_chemical_formula_sum "Si O2"
_cell_formula_units_Z 16
_cell_length_a 20.660153
_cell_length_b 23.718886
_cell_length_c 6.627432
_cell_angle_alpha 120.726626
_cell_angle_beta 49.910000
_cell_angle_gamma 161.091861
_cell_volume 739.139606
_symmetry_space_group_name_H-M "P -1"
_symmetry_group_IT_number 2
_symmetry_cell_setting 'triclinic'
loop_
_space_group_symop_operation_xyz
x,y,z
-x,-y,-z
loop_
_atom_site_type_symbol
_atom_site_label
_atom_site_fract_x
_atom_site_fract_y
_atom_site_fract_z
Si Si1 0.452309 0.735448 0.588086
Si Si2 0.819190 0.059569 0.753267
Si Si3 0.292443 0.259470 0.495855
Si Si4 0.756095 0.905151 0.927838
Si Si5 0.694655 0.085556 0.293284
Si Si6 0.103755 0.477165 0.154187
Si Si7 0.641202 0.582314 0.672105
Si Si8 0.713616 0.296299 0.456660
O O1 0.268042 0.653615 0.701882
O O2 0.673085 0.931148 0.616511
O O3 0.283932 0.577272 0.805447
O O4 0.570101 0.774314 0.251733
O O5 0.101425 0.260760 0.494515
O O6 0.771180 0.983859 0.917842
O O7 0.752769 0.087634 0.975872
O O8 0.338970 0.218466 0.263913
O O9 0.489601 0.416456 0.558083
O O10 0.329057 0.331099 0.359779
O O11 0.020217 0.074131 0.791097
O O12 0.947792 0.304852 0.259454
O O13 0.500000 0.000000 0.500000
O O14 0.559083 0.934493 0.433063
O O15 0.268165 0.636062 0.276038
O O16 0.921552 0.393984 0.251626
O O17 0.500000 0.500000 0.000000
#
# Coordination Sequence:
#
# PCOD8011685 Si02
#       8
#     2   2   2   2   2   2   2   2
#     4  12  21  38  63  92 124 163 217 261 314 384
#     4  11  23  39  61  88 128 169 205 267 323 374
#     4   9  21  40  61  90 123 164 208 252 323 387
#     4  10  21  39  64  88 123 170 205 260 324 375
#     4  10  21  43  64  88 127 170 207 263 324 371
#     4  10  22  39  65  90 120 166 214 263 318 376
#     4  10  21  39  63  92 127 157 208 267 313 378
#     4  10  21  43  62  86 129 165 203 268 325 372
#
# _framework density 21.646788000000001
#
# number of rings (size 3 to 8) (size 9 to 14) (size 15 to 20)
#    0.000    1.750    2.500    1.125    0.000    4.000 
#    2.250    5.000    0.000    0.000    0.000    0.000 
#    0.000    0.000    0.000    0.000    0.000    0.000 
#
# Total GULP energy -198262.545908 kJ/mol
# GULP energy per Si atom -12391.409119 kJ/mol
# Density = 2.159752 g / cm^3
# Si number density = 21.646788 Si / 1000 Ang^3
#
#
#
# Elastic Constant Matrix: (Units=GPa)
#
#
# Indices 1 2 3 4 5 6 
#
# 1 43.0381 34.4081 29.8909 10.1628 -7.0446 11.1983
# 2 34.4081 134.0021 44.1459 -11.0871 -1.6566 -4.3585
# 3 29.8909 44.1459 141.1541 -11.3282 -11.0358 -2.5362
# 4 10.1628 -11.0871 -11.3282 25.5947 -8.9704 -1.6624
# 5 -7.0446 -1.6566 -11.0358 -8.9704 29.4728 3.2451
# 6 11.1983 -4.3585 -2.5362 -1.6624 3.2451 34.5182
#
#
#
# Elastic Compliance Matrix: (Units=1/GPa)
#
#
# Indices 1 2 3 4 5 6 
#
# 1 0.056371 -0.014605 -0.010498 -0.034585 0.000688 -0.022634
# 2 -0.014605 0.012305 0.000324 0.011771 0.000148 0.006869
# 3 -0.010498 0.000324 0.010472 0.010701 0.004210 0.004336
# 4 -0.034585 0.011771 0.010701 0.069159 0.015762 0.015341
# 5 0.000688 0.000148 0.004210 0.015762 0.040803 -0.002972
# 6 -0.022634 0.006869 0.004336 0.015341 -0.002972 0.038517
#
#
# Mechanical properties :
#
#
# Convention : Reuss Voigt Hill
#
# Bulk Modulus (GPa) = 33.79499 59.45376 46.62438
# Shear Modulus (GPa) = 17.41862 31.90045 24.65953
#
# Velocity S-wave (km/s) = 2.83976 3.84302 3.37883
# Velocity P-wave (km/s) = 5.13792 6.87144 6.06692
#
# Compressibility (1/GPa) = 0.02959018
#
# Stress axis : x y z
#
# Youngs Moduli (GPa) = 17.73949 81.26627 95.49339
#
# Poissons Ratio (x) = 1.18692 1.00248
# Poissons Ratio (y) = 0.25909 -0.03095
# Poissons Ratio (z) = 0.18623 -0.02634
#
# Static dielectric constant tensor:
#      x y z
#    x 3.746980 -0.114270 -0.195370 
#    y -0.114270 4.362020 -0.194990 
#    z -0.195370 -0.194990 3.883400 
# 
# 
# High freq. dielectric constant tensor:
#      x y z
#    x 1.829830 0.001950 -0.020110 
#    y 0.001950 1.859850 -0.012020 
#    z -0.020110 -0.012020 1.856200 
# 
# From -- ./inp_files/120673.got.cif
#   From: 2010.06.25/outbox.cif.g09.slc.cpg/sg2_61_cif.got.tgz:120673.got - 2010.06.27 13:26:56.
