data_PCOD8011162
_publ_section_title
;
Structure prediction by ZEFSAII (Michael W. Deem and Ramdas Pophale) SiO2 
 PCOD8011162
Probable space group: P -1
;
_chemical_formula_sum "Si O2"
_cell_formula_units_Z 16
_cell_length_a 12.071850
_cell_length_b 11.663516
_cell_length_c 11.180089
_cell_angle_alpha 115.539705
_cell_angle_beta 82.387228
_cell_angle_gamma 44.179631
_cell_volume 704.570652
_symmetry_space_group_name_H-M "P -1"
_symmetry_group_IT_number 2
_symmetry_cell_setting 'triclinic'
loop_
_space_group_symop_operation_xyz
x,y,z
-x,-y,-z
loop_
_atom_site_type_symbol
_atom_site_label
_atom_site_fract_x
_atom_site_fract_y
_atom_site_fract_z
Si Si1 0.359798 0.723031 0.311554
Si Si2 0.871391 0.916245 0.690621
Si Si3 0.253273 0.244355 0.698786
Si Si4 0.809790 0.709482 0.526975
Si Si5 0.521703 0.680041 0.912122
Si Si6 0.751576 0.493571 0.042529
Si Si7 0.224653 0.995247 0.688511
Si Si8 0.378821 0.337941 0.362899
O O1 0.403512 0.532215 0.236053
O O2 0.590792 0.567182 0.180256
O O3 0.253393 0.879363 0.517622
O O4 0.181575 0.914171 0.314054
O O5 0.749333 0.917813 0.639268
O O6 0.133772 0.641491 0.554228
O O7 0.741735 0.061837 0.900183
O O8 0.104274 0.406755 0.671880
O O9 0.221661 0.390943 0.858988
O O10 0.500000 0.000000 0.500000
O O11 0.193350 0.173383 0.739915
O O12 0.609095 0.813706 0.644680
O O13 0.000000 0.500000 0.500000
O O14 0.565826 0.729285 0.815622
O O15 0.667313 0.585504 0.959617
O O16 0.993155 0.186380 0.872675
O O17 0.432886 0.764150 0.643592
#
# Coordination Sequence:
#
# PCOD8011162 Si02
#       8
#     2   2   2   2   2   2   2   2
#     4  11  23  46  72  91 129 176 234 275 317 387
#     4  10  21  44  67  92 131 175 223 273 325 387
#     4  12  20  43  68  95 136 175 215 268 332 397
#     4  10  21  38  68  95 131 175 206 269 335 386
#     4  11  26  43  68  99 126 179 231 273 321 386
#     4  11  24  42  69  98 129 174 227 271 324 394
#     4  12  25  41  67 100 134 176 217 269 337 396
#     4  11  25  41  62 101 138 172 216 272 336 395
#
# _framework density 22.708864999999999
#
# number of rings (size 3 to 8) (size 9 to 14) (size 15 to 20)
#    0.000    1.000    3.750    3.375    1.750    7.000 
#    0.000    1.250    0.000    0.000    0.000    0.000 
#    0.000    0.000    0.000    0.000    0.000    0.000 
#
# Total GULP energy -198381.546815 kJ/mol
# GULP energy per Si atom -12398.846676 kJ/mol
# Density = 2.265718 g / cm^3
# Si number density = 22.708865 Si / 1000 Ang^3
#
#
#
# Elastic Constant Matrix: (Units=GPa)
#
#
# Indices 1 2 3 4 5 6 
#
# 1 61.6761 26.5341 38.6132 -1.2146 21.6301 -5.6498
# 2 26.5341 81.4771 39.6791 -3.0843 -1.8712 -15.2821
# 3 38.6132 39.6791 158.9102 4.7047 7.5056 -15.9937
# 4 -1.2146 -3.0843 4.7047 29.7561 -13.4713 -8.5376
# 5 21.6301 -1.8712 7.5056 -13.4713 28.7688 8.1645
# 6 -5.6498 -15.2821 -15.9937 -8.5376 8.1645 32.2836
#
#
#
# Elastic Compliance Matrix: (Units=1/GPa)
#
#
# Indices 1 2 3 4 5 6 
#
# 1 0.034242 -0.009818 -0.003499 -0.012535 -0.032632 0.004549
# 2 -0.009818 0.018211 -0.002479 0.008676 0.011866 0.004968
# 3 -0.003499 -0.002479 0.008055 -0.001502 -0.000914 0.002039
# 4 -0.012535 0.008676 -0.001502 0.050693 0.032300 0.006407
# 5 -0.032632 0.011866 -0.000914 0.032300 0.078817 -0.011938
# 6 0.004549 0.004968 0.002039 0.006407 -0.011938 0.039847
#
#
# Mechanical properties :
#
#
# Convention : Reuss Voigt Hill
#
# Bulk Modulus (GPa) = 34.58251 56.85737 45.71994
# Shear Modulus (GPa) = 18.44383 31.31083 24.87733
#
# Velocity S-wave (km/s) = 2.85298 3.71724 3.31341
# Velocity P-wave (km/s) = 5.11022 6.59664 5.90043
#
# Compressibility (1/GPa) = 0.02891635
#
# Stress axis : x y z
#
# Youngs Moduli (GPa) = 29.20396 54.91305 124.15034
#
# Poissons Ratio (x) = 0.53914 0.43435
# Poissons Ratio (y) = 0.28673 0.30774
# Poissons Ratio (z) = 0.10217 0.13612
#
# Static dielectric constant tensor:
#      x y z
#    x 5.663950 -1.303140 1.837810 
#    y -1.303140 6.548040 -2.909650 
#    z 1.837810 -2.909650 7.918070 
# 
# 
# High freq. dielectric constant tensor:
#      x y z
#    x 1.893960 -0.006050 -0.003140 
#    y -0.006050 1.892920 -0.003810 
#    z -0.003140 -0.003810 1.900490 
# 
# From -- ./inp_files/428723.got.cif
#   From: 2010.06.25/outbox.cif.g09.slc.cpg/sg2_215_cif.got.tgz:428723.got - 2010.06.27 13:26:56.
