data_PCOD8011314
_publ_section_title
;
Structure prediction by ZEFSAII (Michael W. Deem and Ramdas Pophale) SiO2 
 PCOD8011314
Probable space group: P -1
;
_chemical_formula_sum "Si O2"
_cell_formula_units_Z 16
_cell_length_a 5.593297
_cell_length_b 6.184928
_cell_length_c 18.324397
_cell_angle_alpha 93.406308
_cell_angle_beta 91.188021
_cell_angle_gamma 100.816275
_cell_volume 621.225817
_symmetry_space_group_name_H-M "P -1"
_symmetry_group_IT_number 2
_symmetry_cell_setting 'triclinic'
loop_
_space_group_symop_operation_xyz
x,y,z
-x,-y,-z
loop_
_atom_site_type_symbol
_atom_site_label
_atom_site_fract_x
_atom_site_fract_y
_atom_site_fract_z
Si Si1 0.319421 0.468458 0.364886
Si Si2 0.605363 0.348301 0.866333
Si Si3 0.280884 0.355107 0.740261
Si Si4 0.796819 0.646483 0.991485
Si Si5 0.037642 0.311743 0.226737
Si Si6 0.331396 0.167252 0.480766
Si Si7 0.018108 0.960672 0.109126
Si Si8 0.990464 0.799379 0.396348
O O1 0.508713 0.616697 0.316860
O O2 0.452205 0.352652 0.427036
O O3 0.147128 0.292572 0.307670
O O4 0.168393 0.628216 0.409002
O O5 0.361227 0.255149 0.815112
O O6 0.564576 0.483412 0.945643
O O7 0.769763 0.531924 0.820590
O O8 0.748286 0.153658 0.881189
O O9 0.205803 0.586313 0.765788
O O10 0.062525 0.197534 0.691715
O O11 0.780553 0.781468 0.071316
O O12 0.909610 0.840895 0.941982
O O13 0.000000 0.500000 0.000000
O O14 0.957493 0.065544 0.187724
O O15 0.251261 0.277165 0.556514
O O16 0.500000 0.000000 0.500000
O O17 0.099831 0.042550 0.430409
#
# Coordination Sequence:
#
# PCOD8011314 Si02
#       8
#     2   2   2   2   2   2   2   2
#     4  10  22  41  60  82 117 155 190 234 290 345
#     4   9  18  35  56  82 114 148 190 236 285 339
#     4  10  21  39  60  82 117 155 190 238 289 340
#     4   8  15  30  56  84 111 148 191 233 281 335
#     4   9  20  35  53  81 114 150 190 233 283 340
#     4  11  24  40  62  89 114 146 193 240 288 346
#     4   9  16  31  57  82 111 152 190 232 284 333
#     4  10  23  41  60  85 116 151 189 236 291 345
#
# _framework density 25.755531000000001
#
# number of rings (size 3 to 8) (size 9 to 14) (size 15 to 20)
#    0.000    2.500    0.000    1.125    0.000   10.000 
#    0.000   10.625    0.000   25.500    0.000    0.000 
#    0.000    0.000    0.000    0.000    0.000    0.000 
#
# Total GULP energy -198220.559601 kJ/mol
# GULP energy per Si atom -12388.784975 kJ/mol
# Density = 2.569691 g / cm^3
# Si number density = 25.755531 Si / 1000 Ang^3
#
#
#
# Elastic Constant Matrix: (Units=GPa)
#
#
# Indices 1 2 3 4 5 6 
#
# 1 32.9139 11.5909 31.4825 5.9931 6.6914 -23.0700
# 2 11.5909 81.6237 67.5934 14.3667 13.3155 -14.6221
# 3 31.4825 67.5934 184.1961 13.5191 6.5382 -17.9481
# 4 5.9931 14.3667 13.5191 64.8981 -3.3347 4.6384
# 5 6.6914 13.3155 6.5382 -3.3347 53.0242 8.6315
# 6 -23.0700 -14.6221 -17.9481 4.6384 8.6315 38.7144
#
#
#
# Elastic Compliance Matrix: (Units=1/GPa)
#
#
# Indices 1 2 3 4 5 6 
#
# 1 0.083543 0.014491 -0.012320 -0.013539 -0.022666 0.056221
# 2 0.014491 0.022745 -0.008449 -0.006259 -0.009527 0.016183
# 3 -0.012320 -0.008449 0.009689 0.001688 0.003740 -0.007077
# 4 -0.013539 -0.006259 0.001688 0.018979 0.006441 -0.013360
# 5 -0.022666 -0.009527 0.003740 0.006441 0.027689 -0.022316
# 6 0.056221 0.016183 -0.007077 -0.013360 -0.022316 0.068740
#
#
# Mechanical properties :
#
#
# Convention : Reuss Voigt Hill
#
# Bulk Modulus (GPa) = 9.66923 57.78525 33.72724
# Shear Modulus (GPa) = 17.95883 43.86514 30.91199
#
# Velocity S-wave (km/s) = 2.64347 4.13138 3.46816
# Velocity P-wave (km/s) = 3.61658 6.72626 5.40010
#
# Compressibility (1/GPa) = 0.10342089
#
# Stress axis : x y z
#
# Youngs Moduli (GPa) = 11.96986 43.96548 103.20939
#
# Poissons Ratio (x) = -0.63711 1.27158
# Poissons Ratio (y) = -0.17346 0.87202
# Poissons Ratio (z) = 0.14747 0.37146
#
# Static dielectric constant tensor:
#      x y z
#    x 4.487560 0.093350 0.416270 
#    y 0.093350 4.558610 0.468630 
#    z 0.416270 0.468630 5.885220 
# 
# 
# High freq. dielectric constant tensor:
#      x y z
#    x 2.016930 0.010570 0.006600 
#    y 0.010570 2.021200 0.013320 
#    z 0.006600 0.013320 2.082890 
# 
# From -- ./inp_files/11287.got.cif
#   From: 2010.06.25/outbox.cif.g09.slc.cpg/sg2_6_cif.got.tgz:11287.got - 2010.06.27 13:26:56.
