data_PCOD8011842
_publ_section_title
;
Structure prediction by ZEFSAII (Michael W. Deem and Ramdas Pophale) SiO2 
 PCOD8011842
Probable space group: P -1
;
_chemical_formula_sum "Si O2"
_cell_formula_units_Z 12
_cell_length_a 12.150590
_cell_length_b 8.521354
_cell_length_c 15.142776
_cell_angle_alpha 39.705696
_cell_angle_beta 150.040827
_cell_angle_gamma 123.520875
_cell_volume 466.992053
_symmetry_space_group_name_H-M "P -1"
_symmetry_group_IT_number 2
_symmetry_cell_setting 'triclinic'
loop_
_space_group_symop_operation_xyz
x,y,z
-x,-y,-z
loop_
_atom_site_type_symbol
_atom_site_label
_atom_site_fract_x
_atom_site_fract_y
_atom_site_fract_z
Si Si1 0.911661 0.074318 0.542181
Si Si2 0.216107 0.236328 0.260767
Si Si3 0.690134 0.364338 0.092988
Si Si4 0.824650 0.828544 0.050063
Si Si5 0.696762 0.794752 0.166306
Si Si6 0.285938 0.842094 0.330861
O O1 0.784522 0.984104 0.572440
O O2 0.117259 0.808662 0.767059
O O3 0.722937 0.206112 0.277426
O O4 0.044522 0.282419 0.572843
O O5 0.439974 0.328051 0.390881
O O6 0.226231 0.116645 0.222963
O O7 0.000000 0.500000 0.000000
O O8 0.713670 0.640189 0.006213
O O9 0.417859 0.428100 0.840406
O O10 0.725330 0.922951 0.037302
O O11 0.113878 0.692364 0.311115
O O12 0.760909 0.093723 0.833440
O O13 0.500000 0.000000 0.000000
#
# Coordination Sequence:
#
# PCOD8011842 Si02
#       6
#     2   2   2   2   2   2
#     4  10  21  42  62  95 138 167 233 280 329 410
#     4  11  22  44  67  99 133 182 230 277 341 407
#     4  10  22  39  65  99 131 182 218 281 347 398
#     4  11  21  44  65  99 140 173 230 278 348 405
#     4  10  21  39  64  93 132 176 217 280 334 398
#     4  10  24  42  69  98 138 179 222 289 332 409
#
# _framework density 25.696370000000002
#
# number of rings (size 3 to 8) (size 9 to 14) (size 15 to 20)
#    0.000    1.667    1.667    2.500    0.000    0.667 
#   18.000    4.167    0.000    0.000    0.000    0.000 
#    0.000    0.000    0.000    0.000    0.000    0.000 
#
# Total GULP energy -148737.594495 kJ/mol
# GULP energy per Si atom -12394.799541 kJ/mol
# Density = 2.563788 g / cm^3
# Si number density = 25.696370 Si / 1000 Ang^3
#
#
#
# Elastic Constant Matrix: (Units=GPa)
#
#
# Indices 1 2 3 4 5 6 
#
# 1 146.2488 38.9856 22.7038 17.9779 -6.8525 14.6923
# 2 38.9856 97.3086 40.4653 40.1738 19.1875 12.3877
# 3 22.7038 40.4653 99.4542 40.3382 21.6062 12.9922
# 4 17.9779 40.1738 40.3382 45.2299 12.7558 0.9839
# 5 -6.8525 19.1875 21.6062 12.7558 34.6064 11.5625
# 6 14.6923 12.3877 12.9922 0.9839 11.5625 33.4244
#
#
#
# Elastic Compliance Matrix: (Units=1/GPa)
#
#
# Indices 1 2 3 4 5 6 
#
# 1 0.008714 -0.003141 -0.000819 -0.001544 0.006011 -0.004382
# 2 -0.003141 0.018653 0.000427 -0.014281 -0.004753 -0.003634
# 3 -0.000819 0.000427 0.017409 -0.014213 -0.004495 -0.004592
# 4 -0.001544 -0.014281 -0.014213 0.049446 -0.005760 0.012033
# 5 0.006011 -0.004753 -0.004495 -0.005760 0.042180 -0.013555
# 6 -0.004382 -0.003634 -0.004592 0.012033 -0.013555 0.039311
#
#
# Mechanical properties :
#
#
# Convention : Reuss Voigt Hill
#
# Bulk Modulus (GPa) = 26.51737 60.81344 43.66541
# Shear Modulus (GPa) = 25.59541 38.70926 32.15233
#
# Velocity S-wave (km/s) = 3.15948 3.88546 3.54112
# Velocity P-wave (km/s) = 4.86330 6.62168 5.80940
#
# Compressibility (1/GPa) = 0.03771113
#
# Stress axis : x y z
#
# Youngs Moduli (GPa) = 114.76348 53.61087 57.44165
#
# Poissons Ratio (x) = 0.16838 0.04702
# Poissons Ratio (y) = 0.36044 -0.02454
# Poissons Ratio (z) = 0.09395 -0.02290
#
# Static dielectric constant tensor:
#      x y z
#    x 5.228980 0.138860 0.070120 
#    y 0.138860 4.881290 0.744480 
#    z 0.070120 0.744480 4.520930 
# 
# 
# High freq. dielectric constant tensor:
#      x y z
#    x 2.057540 0.001360 0.009290 
#    y 0.001360 2.017270 0.043300 
#    z 0.009290 0.043300 2.015930 
# 
# From -- ./inp_files/512702.got.cif
#   From: 2010.06.25/outbox.cif.g09.slc.cpg/sg2_257_cif.got.tgz:512702.got - 2010.06.27 13:26:56.
