data_PCOD8011167
_publ_section_title
;
Structure prediction by ZEFSAII (Michael W. Deem and Ramdas Pophale) SiO2 
 PCOD8011167
Probable space group: P -1
;
_chemical_formula_sum "Si O2"
_cell_formula_units_Z 14
_cell_length_a 14.470831
_cell_length_b 9.551907
_cell_length_c 12.641087
_cell_angle_alpha 45.794293
_cell_angle_beta 58.989278
_cell_angle_gamma 30.940289
_cell_volume 627.514148
_symmetry_space_group_name_H-M "P -1"
_symmetry_group_IT_number 2
_symmetry_cell_setting 'triclinic'
loop_
_space_group_symop_operation_xyz
x,y,z
-x,-y,-z
loop_
_atom_site_type_symbol
_atom_site_label
_atom_site_fract_x
_atom_site_fract_y
_atom_site_fract_z
Si Si1 0.056884 0.606578 0.846909
Si Si2 0.336489 0.201957 0.220157
Si Si3 0.985032 0.620801 0.332159
Si Si4 0.448044 0.441749 0.690921
Si Si5 0.754795 0.253992 0.554791
Si Si6 0.275555 0.272962 0.697205
Si Si7 0.810013 0.284429 0.126179
O O1 0.241200 0.300793 0.830193
O O2 0.072851 0.755038 0.842763
O O3 0.908621 0.879279 0.700820
O O4 0.000000 0.500000 0.000000
O O5 0.183680 0.312633 0.321023
O O6 0.417443 0.929945 0.230771
O O7 0.501667 0.046460 0.277922
O O8 0.239398 0.524802 0.049747
O O9 0.819180 0.764364 0.288905
O O10 0.000000 0.500000 0.500000
O O11 0.936862 0.918253 0.212648
O O12 0.559528 0.482040 0.603389
O O13 0.270964 0.722617 0.569752
O O14 0.379040 0.506164 0.816134
O O15 0.806110 0.402829 0.472214
#
# Coordination Sequence:
#
# PCOD8011167 Si02
#       7
#     2   2   2   2   2   2   2
#     4  12  24  40  71 108 138 178 234 289 349 414
#     4  11  25  48  72 100 148 178 237 289 349 420
#     4  12  29  47  71 101 146 188 233 286 355 415
#     4  10  22  40  74 104 131 180 235 293 345 403
#     4  10  21  38  68  97 142 171 234 279 347 399
#     4  11  25  46  71 100 139 190 230 286 347 417
#     4  12  25  45  71 105 139 183 228 292 354 407
#
# _framework density 22.310254
#
# number of rings (size 3 to 8) (size 9 to 14) (size 15 to 20)
#    0.000    0.857    2.857    4.714   10.000    1.143 
#    2.571    0.000    0.000    0.000    0.000    0.000 
#    0.000    0.000    0.000    0.000    0.000    0.000 
#
# Total GULP energy -173619.583161 kJ/mol
# GULP energy per Si atom -12401.398797 kJ/mol
# Density = 2.225947 g / cm^3
# Si number density = 22.310254 Si / 1000 Ang^3
#
#
#
# Elastic Constant Matrix: (Units=GPa)
#
#
# Indices 1 2 3 4 5 6 
#
# 1 138.7924 29.2650 22.4794 4.5248 -10.6021 -7.0369
# 2 29.2650 84.5997 29.2717 9.3463 -2.0895 -9.8487
# 3 22.4794 29.2717 140.4670 0.7057 -8.6749 -6.2038
# 4 4.5248 9.3463 0.7057 36.1651 -7.8823 -8.2185
# 5 -10.6021 -2.0895 -8.6749 -7.8823 34.4919 -2.5338
# 6 -7.0369 -9.8487 -6.2038 -8.2185 -2.5338 35.0804
#
#
#
# Elastic Compliance Matrix: (Units=1/GPa)
#
#
# Indices 1 2 3 4 5 6 
#
# 1 0.008035 -0.002435 -0.000588 0.000393 0.002344 0.001086
# 2 -0.002435 0.014095 -0.002498 -0.003006 -0.001045 0.002247
# 3 -0.000588 -0.002498 0.007896 0.001233 0.002010 0.001011
# 4 0.000393 -0.003006 0.001233 0.031815 0.008070 0.007489
# 5 0.002344 -0.001045 0.002010 0.008070 0.032349 0.004759
# 6 0.001086 0.002247 0.001011 0.007489 0.004759 0.031632
#
#
# Mechanical properties :
#
#
# Convention : Reuss Voigt Hill
#
# Bulk Modulus (GPa) = 52.67348 58.43236 55.55292
# Shear Modulus (GPa) = 34.91823 40.00367 37.46095
#
# Velocity S-wave (km/s) = 3.96045 4.23905 4.10212
# Velocity P-wave (km/s) = 6.67640 7.08569 6.88409
#
# Compressibility (1/GPa) = 0.01898489
#
# Stress axis : x y z
#
# Youngs Moduli (GPa) = 124.45614 70.94758 126.64252
#
# Poissons Ratio (x) = 0.17278 0.07442
# Poissons Ratio (y) = 0.30309 0.31631
# Poissons Ratio (z) = 0.07314 0.17720
#
# Static dielectric constant tensor:
#      x y z
#    x 4.120980 -0.273600 -0.210580 
#    y -0.273600 3.903620 0.093480 
#    z -0.210580 0.093480 4.226500 
# 
# 
# High freq. dielectric constant tensor:
#      x y z
#    x 1.881220 -0.023390 -0.018250 
#    y -0.023390 1.862020 0.003780 
#    z -0.018250 0.003780 1.892740 
# 
# From -- ./inp_files/446783.got.cif
#   From: 2010.06.25/outbox.cif.g09.slc.cpg/sg2_224_cif.got.tgz:446783.got - 2010.06.27 13:26:56.
