data_PCOD8011139
_publ_section_title
;
Structure prediction by ZEFSAII (Michael W. Deem and Ramdas Pophale) SiO2 
 PCOD8011139
Probable space group: P -1
;
_chemical_formula_sum "Si O2"
_cell_formula_units_Z 16
_cell_length_a 7.878968
_cell_length_b 15.068759
_cell_length_c 9.121181
_cell_angle_alpha 99.675925
_cell_angle_beta 64.355104
_cell_angle_gamma 137.836369
_cell_volume 634.093389
_symmetry_space_group_name_H-M "P -1"
_symmetry_group_IT_number 2
_symmetry_cell_setting 'triclinic'
loop_
_space_group_symop_operation_xyz
x,y,z
-x,-y,-z
loop_
_atom_site_type_symbol
_atom_site_label
_atom_site_fract_x
_atom_site_fract_y
_atom_site_fract_z
Si Si1 0.877450 0.989756 0.768321
Si Si2 0.682713 0.284543 0.992652
Si Si3 0.849674 0.076049 0.513733
Si Si4 0.275132 0.373948 0.151809
Si Si5 0.702320 0.769616 0.109121
Si Si6 0.325111 0.615948 0.454616
Si Si7 0.702795 0.464999 0.234990
Si Si8 0.723332 0.203832 0.437110
O O1 0.974514 0.923448 0.666251
O O2 0.957646 0.092030 0.641645
O O3 0.533224 0.865358 0.892552
O O4 0.040619 0.078308 0.879006
O O5 0.541086 0.257217 0.882387
O O6 0.007941 0.370621 0.853664
O O7 0.727930 0.381527 0.115257
O O8 0.873955 0.191157 0.497530
O O9 0.512362 0.935618 0.601082
O O10 0.422066 0.413473 0.265994
O O11 0.987910 0.329382 0.268036
O O12 0.500000 0.500000 0.000000
O O13 0.170423 0.245530 0.073176
O O14 0.535186 0.648723 0.262045
O O15 0.365432 0.579932 0.582361
O O16 0.427219 0.757925 0.446965
O O17 0.000000 0.500000 0.500000
#
# Coordination Sequence:
#
# PCOD8011139 Si02
#       8
#     2   2   2   2   2   2   2   2
#     4  11  22  41  73  98 136 182 237 276 345 423
#     4  10  21  38  67  99 131 174 230 279 324 412
#     4  10  23  42  67 103 133 185 223 283 347 416
#     4  11  26  46  69  98 142 183 223 286 353 410
#     4  11  23  42  67 105 135 174 236 286 338 407
#     4  12  23  44  72 100 135 180 240 290 334 409
#     4  10  23  41  69  97 132 188 234 259 349 431
#     4  11  24  43  68  97 143 176 227 283 351 405
#
# _framework density 25.232876999999998
#
# number of rings (size 3 to 8) (size 9 to 14) (size 15 to 20)
#    0.000    1.250    2.500    3.375    8.750    0.000 
#    2.250    1.875    0.000    0.000    0.000    0.000 
#    0.000    0.000    0.000    0.000    0.000    0.000 
#
# Total GULP energy -198251.615919 kJ/mol
# GULP energy per Si atom -12390.725995 kJ/mol
# Density = 2.517545 g / cm^3
# Si number density = 25.232877 Si / 1000 Ang^3
#
#
#
# Elastic Constant Matrix: (Units=GPa)
#
#
# Indices 1 2 3 4 5 6 
#
# 1 64.8440 -5.5123 32.1849 8.5460 9.9397 4.6984
# 2 -5.5123 78.9030 29.4851 -7.9368 2.6442 21.2397
# 3 32.1849 29.4851 98.7384 -11.9071 28.7763 13.3553
# 4 8.5460 -7.9368 -11.9071 42.8107 12.0165 4.6535
# 5 9.9397 2.6442 28.7763 12.0165 34.8932 -7.0138
# 6 4.6984 21.2397 13.3553 4.6535 -7.0138 34.2304
#
#
#
# Elastic Compliance Matrix: (Units=1/GPa)
#
#
# Indices 1 2 3 4 5 6 
#
# 1 0.021440 0.004350 -0.011110 -0.008296 0.005785 0.001006
# 2 0.004350 0.017905 -0.004174 0.003179 -0.002463 -0.011015
# 3 -0.011110 -0.004174 0.027839 0.019018 -0.029102 -0.015295
# 4 -0.008296 0.003179 0.019018 0.042177 -0.032226 -0.020591
# 5 0.005785 -0.002463 -0.029102 -0.032226 0.068425 0.030490
# 6 0.001006 -0.011015 -0.015295 -0.020591 0.030490 0.050925
#
#
# Mechanical properties :
#
#
# Convention : Reuss Voigt Hill
#
# Bulk Modulus (GPa) = 22.06662 39.42229 30.74446
# Shear Modulus (GPa) = 18.81942 34.80872 26.81407
#
# Velocity S-wave (km/s) = 2.73395 3.71819 3.26339
# Velocity P-wave (km/s) = 4.32783 5.83871 5.13910
#
# Compressibility (1/GPa) = 0.04531731
#
# Stress axis : x y z
#
# Youngs Moduli (GPa) = 46.64256 55.85069 35.92049
#
# Poissons Ratio (x) = -0.24297 0.39907
# Poissons Ratio (y) = -0.20291 0.14992
# Poissons Ratio (z) = 0.51820 0.23310
#
# Static dielectric constant tensor:
#      x y z
#    x 5.302180 -0.160940 0.244380 
#    y -0.160940 4.996050 -0.072490 
#    z 0.244380 -0.072490 4.747400 
# 
# 
# High freq. dielectric constant tensor:
#      x y z
#    x 1.985800 0.024230 0.011620 
#    y 0.024230 2.014030 -0.018870 
#    z 0.011620 -0.018870 2.009410 
# 
# From -- ./inp_files/217854.got.cif
#   From: 2010.06.25/outbox.cif.g09.slc.cpg/sg2_109_cif.got.tgz:217854.got - 2010.06.27 13:26:56.
