data_PCOD8011406
_publ_section_title
;
Structure prediction by ZEFSAII (Michael W. Deem and Ramdas Pophale) SiO2 
 PCOD8011406
Probable space group: P -1
;
_chemical_formula_sum "Si O2"
_cell_formula_units_Z 14
_cell_length_a 9.636153
_cell_length_b 9.095509
_cell_length_c 11.902428
_cell_angle_alpha 136.655988
_cell_angle_beta 105.693111
_cell_angle_gamma 70.640991
_cell_volume 674.845229
_symmetry_space_group_name_H-M "P -1"
_symmetry_group_IT_number 2
_symmetry_cell_setting 'triclinic'
loop_
_space_group_symop_operation_xyz
x,y,z
-x,-y,-z
loop_
_atom_site_type_symbol
_atom_site_label
_atom_site_fract_x
_atom_site_fract_y
_atom_site_fract_z
Si Si1 0.420746 0.797101 0.376879
Si Si2 0.041662 0.186159 0.036535
Si Si3 0.887525 0.598591 0.625220
Si Si4 0.644213 0.322688 0.457972
Si Si5 0.775160 0.101305 0.826914
Si Si6 0.527423 0.380128 0.053992
Si Si7 0.642912 0.935222 0.072838
O O1 0.349969 0.781886 0.474651
O O2 0.296882 0.828827 0.270493
O O3 0.536614 0.564589 0.253355
O O4 0.500000 0.000000 0.500000
O O5 0.028617 0.393611 0.232564
O O6 0.207546 0.127517 0.997565
O O7 0.921864 0.208823 0.922220
O O8 0.000000 0.000000 0.000000
O O9 0.780011 0.435295 0.530366
O O10 0.000000 0.500000 0.500000
O O11 0.803364 0.839563 0.701355
O O12 0.500000 0.500000 0.500000
O O13 0.655095 0.128129 0.265492
O O14 0.675888 0.195920 0.967474
O O15 0.500000 0.500000 0.000000
O O16 0.383791 0.277011 0.985060
O O17 0.500000 0.000000 0.000000
#
# Coordination Sequence:
#
# PCOD8011406 Si02
#       7
#     2   2   2   2   2   2   2
#     4  11  23  40  64  97 128 162 211 267 319 371
#     4  10  21  39  61  88 122 164 207 253 312 376
#     4  11  23  41  63  93 126 163 209 263 316 369
#     4  12  23  38  63  94 123 160 212 267 312 367
#     4  10  22  42  64  90 130 172 209 258 317 381
#     4  10  21  40  62  88 122 165 206 249 310 380
#     4  12  23  40  64  90 122 166 213 257 311 382
#
# _framework density 20.745495999999999
#
# number of rings (size 3 to 8) (size 9 to 14) (size 15 to 20)
#    0.000    1.143    0.000    9.429    0.000    2.286 
#    0.000    9.286    0.000    0.000    0.000    0.000 
#    0.000    0.000    0.000    0.000    0.000    0.000 
#
# Total GULP energy -173497.617352 kJ/mol
# GULP energy per Si atom -12392.686954 kJ/mol
# Density = 2.069828 g / cm^3
# Si number density = 20.745496 Si / 1000 Ang^3
#
#
#
# Elastic Constant Matrix: (Units=GPa)
#
#
# Indices 1 2 3 4 5 6 
#
# 1 184.9567 61.6993 88.8314 -2.3092 7.8978 24.0991
# 2 61.6993 101.5941 55.9987 -4.2737 10.3755 14.0851
# 3 88.8314 55.9987 204.4212 2.7621 4.8072 10.3261
# 4 -2.3092 -4.2737 2.7621 44.6417 -3.5357 7.3894
# 5 7.8978 10.3755 4.8072 -3.5357 46.0385 1.7415
# 6 24.0991 14.0851 10.3261 7.3894 1.7415 37.9967
#
#
#
# Elastic Compliance Matrix: (Units=1/GPa)
#
#
# Indices 1 2 3 4 5 6 
#
# 1 0.008090 -0.002972 -0.002530 0.000849 -0.000256 -0.003495
# 2 -0.002972 0.013549 -0.002254 0.001570 -0.002084 -0.002735
# 3 -0.002530 -0.002254 0.006576 -0.000876 0.000157 0.000817
# 4 0.000849 0.001570 -0.000876 0.023699 0.001623 -0.005565
# 5 -0.000256 -0.002084 0.000157 0.001623 0.022360 -0.000448
# 6 -0.003495 -0.002735 0.000817 -0.005565 -0.000448 0.030430
#
#
# Mechanical properties :
#
#
# Convention : Reuss Voigt Hill
#
# Bulk Modulus (GPa) = 78.72984 100.44787 89.58885
# Shear Modulus (GPa) = 40.17685 44.69822 42.43753
#
# Velocity S-wave (km/s) = 4.40552 4.64680 4.52777
# Velocity P-wave (km/s) = 7.99442 8.79287 8.40314
#
# Compressibility (1/GPa) = 0.01270166
#
# Stress axis : x y z
#
# Youngs Moduli (GPa) = 123.60331 73.80866 152.07332
#
# Poissons Ratio (x) = 0.21937 0.38480
# Poissons Ratio (y) = 0.36737 0.34277
# Poissons Ratio (z) = 0.31276 0.16636
#
# Static dielectric constant tensor:
#      x y z
#    x 6.552070 -0.768130 -0.622140 
#    y -0.768130 4.124220 0.010000 
#    z -0.622140 0.010000 5.208460 
# 
# 
# High freq. dielectric constant tensor:
#      x y z
#    x 1.814780 0.014320 0.001900 
#    y 0.014320 1.806080 -0.001230 
#    z 0.001900 -0.001230 1.839900 
# 
# From -- ./inp_files/179150.got.cif
#   From: 2010.06.25/outbox.cif.g09.slc.cpg/sg2_90_cif.got.tgz:179150.got - 2010.06.27 13:26:56.
