data_PCOD8011212
_publ_section_title
;
Structure prediction by ZEFSAII (Michael W. Deem and Ramdas Pophale) SiO2 
 PCOD8011212
Probable space group: P -1
;
_chemical_formula_sum "Si O2"
_cell_formula_units_Z 16
_cell_length_a 15.942229
_cell_length_b 9.037668
_cell_length_c 10.027551
_cell_angle_alpha 132.008545
_cell_angle_beta 47.895268
_cell_angle_gamma 135.350693
_cell_volume 700.227280
_symmetry_space_group_name_H-M "P -1"
_symmetry_group_IT_number 2
_symmetry_cell_setting 'triclinic'
loop_
_space_group_symop_operation_xyz
x,y,z
-x,-y,-z
loop_
_atom_site_type_symbol
_atom_site_label
_atom_site_fract_x
_atom_site_fract_y
_atom_site_fract_z
Si Si1 0.641308 0.076028 0.440875
Si Si2 0.786635 0.300672 0.159822
Si Si3 0.572215 0.592706 0.194710
Si Si4 0.622400 0.233211 0.047174
Si Si5 0.023304 0.248753 0.866837
Si Si6 0.105252 0.528428 0.216370
Si Si7 0.672912 0.505324 0.761666
Si Si8 0.048584 0.249339 0.378470
O O1 0.743711 0.206888 0.295615
O O2 0.671873 0.260822 0.637463
O O3 0.500000 0.000000 0.500000
O O4 0.646337 0.845817 0.333568
O O5 0.662041 0.213962 0.144755
O O6 0.865715 0.574733 0.243170
O O7 0.883039 0.210331 0.946437
O O8 0.578219 0.426619 0.199035
O O9 0.425615 0.518309 0.265413
O O10 0.645000 0.591044 0.981239
O O11 0.743293 0.299463 0.860225
O O12 0.500000 0.000000 0.000000
O O13 0.050732 0.354635 0.048568
O O14 0.032327 0.019126 0.717454
O O15 0.079012 0.377559 0.283276
O O16 0.031824 0.676869 0.393592
O O17 0.812550 0.687337 0.668444
#
# Coordination Sequence:
#
# PCOD8011212 Si02
#       8
#     2   2   2   2   2   2   2   2
#     4  10  22  41  66  92 129 167 222 269 306 390
#     4  10  23  43  65  97 132 174 216 265 333 385
#     4  10  22  42  66  97 128 180 216 257 335 390
#     4  11  25  43  67  97 140 171 212 276 330 390
#     4  10  22  43  66  90 134 174 213 267 325 390
#     4  10  23  43  62 102 127 171 221 267 326 385
#     4  10  21  38  70  99 126 164 230 267 313 382
#     4  11  21  39  70  98 128 168 221 274 323 383
#
# _framework density 22.849723999999998
#
# number of rings (size 3 to 8) (size 9 to 14) (size 15 to 20)
#    0.000    1.750    1.250    1.875    7.000    0.000 
#   13.500    8.750    0.000    0.000    0.000    0.000 
#    0.000    0.000    0.000    0.000    0.000    0.000 
#
# Total GULP energy -198327.072343 kJ/mol
# GULP energy per Si atom -12395.442021 kJ/mol
# Density = 2.279772 g / cm^3
# Si number density = 22.849724 Si / 1000 Ang^3
#
#
#
# Elastic Constant Matrix: (Units=GPa)
#
#
# Indices 1 2 3 4 5 6 
#
# 1 83.6573 23.2003 23.2748 5.7738 -20.5831 13.5622
# 2 23.2003 132.5806 57.5090 18.8412 -20.7913 17.8141
# 3 23.2748 57.5090 106.6329 31.2891 -17.9884 13.3149
# 4 5.7738 18.8412 31.2891 36.1887 1.4919 1.0790
# 5 -20.5831 -20.7913 -17.9884 1.4919 23.2575 -1.9002
# 6 13.5622 17.8141 13.3149 1.0790 -1.9002 30.7861
#
#
#
# Elastic Compliance Matrix: (Units=1/GPa)
#
#
# Indices 1 2 3 4 5 6 
#
# 1 0.016874 0.000775 0.000649 -0.004099 0.015816 -0.007043
# 2 0.000775 0.011198 -0.003305 -0.003281 0.007959 -0.004785
# 3 0.000649 -0.003305 0.017753 -0.014077 0.011859 -0.004826
# 4 -0.004099 -0.003281 -0.014077 0.042764 -0.019613 0.007083
# 5 0.015816 0.007959 0.011859 -0.019613 0.073603 -0.011472
# 6 -0.007043 -0.004785 -0.004826 0.007083 -0.011472 0.039484
#
#
# Mechanical properties :
#
#
# Convention : Reuss Voigt Hill
#
# Bulk Modulus (GPa) = 23.77441 58.98211 41.37826
# Shear Modulus (GPa) = 22.78324 32.63891 27.71108
#
# Velocity S-wave (km/s) = 3.16110 3.78354 3.48624
# Velocity P-wave (km/s) = 4.87347 6.70492 5.86117
#
# Compressibility (1/GPa) = 0.04206202
#
# Stress axis : x y z
#
# Youngs Moduli (GPa) = 59.26252 89.29961 56.32960
#
# Poissons Ratio (x) = -0.06917 -0.03658
# Poissons Ratio (y) = -0.04590 0.18620
# Poissons Ratio (z) = -0.03849 0.29518
#
# Static dielectric constant tensor:
#      x y z
#    x 4.201350 0.178720 -0.263200 
#    y 0.178720 4.373400 0.283140 
#    z -0.263200 0.283140 4.319930 
# 
# 
# High freq. dielectric constant tensor:
#      x y z
#    x 1.895570 0.013510 -0.014620 
#    y 0.013510 1.905640 0.003540 
#    z -0.014620 0.003540 1.900760 
# 
# From -- ./inp_files/462557.got.cif
#   From: 2010.06.25/outbox.cif.g09.slc.cpg/sg2_232_cif.got.tgz:462557.got - 2010.06.27 13:26:56.
