data_PCOD8011206
_publ_section_title
;
Structure prediction by ZEFSAII (Michael W. Deem and Ramdas Pophale) SiO2 
 PCOD8011206
Probable space group: P -1
;
_chemical_formula_sum "Si O2"
_cell_formula_units_Z 16
_cell_length_a 22.293080
_cell_length_b 13.452223
_cell_length_c 9.019120
_cell_angle_alpha 135.386741
_cell_angle_beta 150.477567
_cell_angle_gamma 34.685927
_cell_volume 758.406519
_symmetry_space_group_name_H-M "P -1"
_symmetry_group_IT_number 2
_symmetry_cell_setting 'triclinic'
loop_
_space_group_symop_operation_xyz
x,y,z
-x,-y,-z
loop_
_atom_site_type_symbol
_atom_site_label
_atom_site_fract_x
_atom_site_fract_y
_atom_site_fract_z
Si Si1 0.684758 0.919396 0.049174
Si Si2 0.147690 0.398714 0.108501
Si Si3 0.495989 0.529479 0.738613
Si Si4 0.750516 0.317389 0.852390
Si Si5 0.530169 0.751689 0.250732
Si Si6 0.052141 0.599834 0.812982
Si Si7 0.202548 0.016119 0.354736
Si Si8 0.487861 0.803710 0.541409
O O1 0.807515 0.790618 0.050991
O O2 0.624899 0.815807 0.889401
O O3 0.536599 0.095304 0.851515
O O4 0.769516 0.958639 0.389148
O O5 0.289121 0.360953 0.466397
O O6 0.000000 0.500000 0.000000
O O7 0.124150 0.509782 0.028997
O O8 0.663530 0.437869 0.936355
O O9 0.372757 0.671894 0.509674
O O10 0.453204 0.395331 0.524484
O O11 0.487754 0.621197 0.971482
O O12 0.852191 0.111734 0.900256
O O13 0.838276 0.385890 0.041601
O O14 0.446403 0.847475 0.325058
O O15 0.918185 0.797184 0.777862
O O16 0.000000 0.500000 0.500000
O O17 0.349652 0.935109 0.486479
#
# Coordination Sequence:
#
# PCOD8011206 Si02
#       8
#     2   2   2   2   2   2   2   2
#     4  11  22  42  65  97 127 172 216 272 320 380
#     4  11  26  44  64  98 134 170 218 266 328 391
#     4  10  21  38  70  94 127 167 211 279 320 380
#     4  10  22  42  63 100 129 164 222 266 324 383
#     4  11  23  41  68  95 132 169 212 276 328 378
#     4  12  26  42  67  91 132 179 217 262 323 391
#     4  11  23  41  65  95 128 176 212 272 319 386
#     4  10  22  37  61  97 129 159 221 262 321 379
#
# _framework density 21.096865000000001
#
# number of rings (size 3 to 8) (size 9 to 14) (size 15 to 20)
#    0.000    1.250    2.500    4.125    5.250    0.000 
#    0.000    0.000    0.000    3.000    0.000    0.000 
#    0.000    0.000    0.000    0.000    0.000    0.000 
#
# Total GULP energy -198330.342533 kJ/mol
# GULP energy per Si atom -12395.646408 kJ/mol
# Density = 2.104885 g / cm^3
# Si number density = 21.096865 Si / 1000 Ang^3
#
#
#
# Elastic Constant Matrix: (Units=GPa)
#
#
# Indices 1 2 3 4 5 6 
#
# 1 81.0273 22.9939 25.6660 7.5108 18.4829 -2.3788
# 2 22.9939 124.5344 39.1982 -2.8782 11.1583 -0.6239
# 3 25.6660 39.1982 65.9224 4.0374 -3.7486 -4.3827
# 4 7.5108 -2.8782 4.0374 37.6316 4.2632 -4.0062
# 5 18.4829 11.1583 -3.7486 4.2632 32.8279 0.3652
# 6 -2.3788 -0.6239 -4.3827 -4.0062 0.3652 32.2448
#
#
#
# Elastic Compliance Matrix: (Units=1/GPa)
#
#
# Indices 1 2 3 4 5 6 
#
# 1 0.017077 -0.000033 -0.007106 -0.001466 -0.010227 0.000227
# 2 -0.000033 0.010604 -0.006705 0.002016 -0.004609 -0.000406
# 3 -0.007106 -0.006705 0.022723 -0.002353 0.009157 0.002039
# 4 -0.001466 0.002016 -0.002353 0.028038 -0.003805 0.003138
# 5 -0.010227 -0.004609 0.009157 -0.003805 0.039332 -0.000517
# 6 0.000227 -0.000406 0.002039 0.003138 -0.000517 0.031694
#
#
# Mechanical properties :
#
#
# Convention : Reuss Voigt Hill
#
# Bulk Modulus (GPa) = 44.02029 49.68893 46.85461
# Shear Modulus (GPa) = 27.06681 32.78258 29.92469
#
# Velocity S-wave (km/s) = 3.58575 3.94624 3.77031
# Velocity P-wave (km/s) = 6.16884 6.66090 6.41959
#
# Compressibility (1/GPa) = 0.02271680
#
# Stress axis : x y z
#
# Youngs Moduli (GPa) = 58.55771 94.30499 44.00805
#
# Poissons Ratio (x) = 0.00310 0.31272
# Poissons Ratio (y) = 0.00192 0.29507
# Poissons Ratio (z) = 0.41611 0.63231
#
# Static dielectric constant tensor:
#      x y z
#    x 3.814760 -0.016630 -0.083610 
#    y -0.016630 4.197090 -0.024320 
#    z -0.083610 -0.024320 3.615890 
# 
# 
# High freq. dielectric constant tensor:
#      x y z
#    x 1.821650 -0.002220 -0.004280 
#    y -0.002220 1.849650 0.004000 
#    z -0.004280 0.004000 1.811060 
# 
# From -- ./inp_files/244259.got.cif
#   From: 2010.06.25/outbox.cif.g09.slc.cpg/sg2_123_cif.got.tgz:244259.got - 2010.06.27 13:26:56.
