data_PCOD8011790
_publ_section_title
;
Structure prediction by ZEFSAII (Michael W. Deem and Ramdas Pophale) SiO2 
 PCOD8011790
Probable space group: P -1
;
_chemical_formula_sum "Si O2"
_cell_formula_units_Z 14
_cell_length_a 16.073114
_cell_length_b 30.330811
_cell_length_c 11.977525
_cell_angle_alpha 21.654053
_cell_angle_beta 149.704179
_cell_angle_gamma 162.233671
_cell_volume 645.172249
_symmetry_space_group_name_H-M "P -1"
_symmetry_group_IT_number 2
_symmetry_cell_setting 'triclinic'
loop_
_space_group_symop_operation_xyz
x,y,z
-x,-y,-z
loop_
_atom_site_type_symbol
_atom_site_label
_atom_site_fract_x
_atom_site_fract_y
_atom_site_fract_z
Si Si1 0.525293 0.213084 0.605928
Si Si2 0.937625 0.607323 0.890340
Si Si3 0.828429 0.992654 0.746082
Si Si4 0.316719 0.806617 0.667540
Si Si5 0.685172 0.781637 0.863079
Si Si6 0.956312 0.554401 0.460230
Si Si7 0.084148 0.812803 0.178821
O O1 0.342493 0.174591 0.392803
O O2 0.700702 0.412816 0.410797
O O3 0.746510 0.251892 0.712950
O O4 0.319181 0.024703 0.890977
O O5 0.051457 0.804629 0.583374
O O6 0.043320 0.615698 0.873318
O O7 0.606931 0.423347 0.937926
O O8 0.043168 0.578712 0.174891
O O9 0.510296 0.805857 0.863388
O O10 0.840565 0.962318 0.701867
O O11 0.000000 0.000000 0.000000
O O12 0.236884 0.819369 0.428720
O O13 0.500000 0.000000 0.500000
O O14 0.865985 0.768147 0.094586
O O15 0.915352 0.632551 0.320479
#
# Coordination Sequence:
#
# PCOD8011790 Si02
#       7
#     2   2   2   2   2   2   2
#     4  10  22  42  62  90 126 161 213 259 304 369
#     4  10  23  43  63  92 129 160 211 258 303 374
#     4  11  24  42  65  93 127 163 203 257 315 370
#     4  10  21  39  64  90 121 164 205 251 309 365
#     4  11  25  40  63  96 126 168 205 254 317 360
#     4  10  23  40  66  92 118 168 211 257 313 361
#     4  12  24  40  64  93 128 166 209 255 309 372
#
# _framework density 21.699632999999999
#
# number of rings (size 3 to 8) (size 9 to 14) (size 15 to 20)
#    0.000    1.429    0.000    6.000    0.000   10.857 
#    0.000    0.000    0.000    0.000    0.000    0.000 
#    0.000    0.000    0.000    0.000    0.000    0.000 
#
# Total GULP energy -173625.483410 kJ/mol
# GULP energy per Si atom -12401.820244 kJ/mol
# Density = 2.165024 g / cm^3
# Si number density = 21.699633 Si / 1000 Ang^3
#
#
#
# Elastic Constant Matrix: (Units=GPa)
#
#
# Indices 1 2 3 4 5 6 
#
# 1 146.2452 58.7042 39.7089 9.7476 3.8051 5.1875
# 2 58.7042 107.8347 47.6836 20.1655 -11.1362 6.8151
# 3 39.7089 47.6836 53.6986 0.7358 -4.1647 22.7811
# 4 9.7476 20.1655 0.7358 32.7288 3.8727 -2.0992
# 5 3.8051 -11.1362 -4.1647 3.8727 42.0261 -2.8480
# 6 5.1875 6.8151 22.7811 -2.0992 -2.8480 48.4611
#
#
#
# Elastic Compliance Matrix: (Units=1/GPa)
#
#
# Indices 1 2 3 4 5 6 
#
# 1 0.009513 -0.003171 -0.005085 -0.000414 -0.002053 0.001679
# 2 -0.003171 0.022020 -0.019154 -0.012489 0.005785 0.006046
# 3 -0.005085 -0.019154 0.046884 0.011347 -0.002264 -0.018444
# 4 -0.000414 -0.012489 0.011347 0.038670 -0.005860 -0.002203
# 5 -0.002053 0.005785 -0.002264 -0.005860 0.025947 0.001742
# 6 0.001679 0.006046 -0.018444 -0.002203 0.001742 0.028282
#
#
# Mechanical properties :
#
#
# Convention : Reuss Voigt Hill
#
# Bulk Modulus (GPa) = 42.37623 66.66356 54.51990
# Shear Modulus (GPa) = 21.36739 35.42197 28.39468
#
# Velocity S-wave (km/s) = 3.14138 4.04465 3.62129
# Velocity P-wave (km/s) = 5.72089 7.25259 6.53179
#
# Compressibility (1/GPa) = 0.02359814
#
# Stress axis : x y z
#
# Youngs Moduli (GPa) = 105.12163 45.41289 21.32911
#
# Poissons Ratio (x) = 0.14400 0.10845
# Poissons Ratio (y) = 0.33333 0.40853
# Poissons Ratio (z) = 0.53452 0.86983
#
# Static dielectric constant tensor:
#      x y z
#    x 4.193450 0.134540 -0.149420 
#    y 0.134540 4.095760 -0.040010 
#    z -0.149420 -0.040010 3.671890 
# 
# 
# High freq. dielectric constant tensor:
#      x y z
#    x 1.875510 -0.003970 -0.005580 
#    y -0.003970 1.861670 -0.001750 
#    z -0.005580 -0.001750 1.836360 
# 
# From -- ./inp_files/242295.got.cif
#   From: 2010.06.25/outbox.cif.g09.slc.cpg/sg2_122_cif.got.tgz:242295.got - 2010.06.27 13:26:56.
