data_PCOD8011984
_publ_section_title
;
Structure prediction by ZEFSAII (Michael W. Deem and Ramdas Pophale) SiO2 
 PCOD8011984
Probable space group: P -1
;
_chemical_formula_sum "Si O2"
_cell_formula_units_Z 12
_cell_length_a 9.076436
_cell_length_b 14.819157
_cell_length_c 14.868601
_cell_angle_alpha 160.045893
_cell_angle_beta 54.240387
_cell_angle_gamma 121.032391
_cell_volume 549.697840
_symmetry_space_group_name_H-M "P -1"
_symmetry_group_IT_number 2
_symmetry_cell_setting 'triclinic'
loop_
_space_group_symop_operation_xyz
x,y,z
-x,-y,-z
loop_
_atom_site_type_symbol
_atom_site_label
_atom_site_fract_x
_atom_site_fract_y
_atom_site_fract_z
Si Si1 0.975257 0.298221 0.187833
Si Si2 0.190916 0.727371 0.591761
Si Si3 0.510132 0.941119 0.591451
Si Si4 0.334842 0.338071 0.890278
Si Si5 0.161439 0.942022 0.316142
Si Si6 0.074351 0.500727 0.795718
O O1 0.824835 0.335372 0.355524
O O2 0.872441 0.392956 0.221092
O O3 0.137862 0.478018 0.319375
O O4 0.055861 0.990782 0.861293
O O5 0.401526 0.761935 0.528269
O O6 0.655688 0.763685 0.310567
O O7 0.637683 0.124602 0.772396
O O8 0.354034 0.100358 0.733722
O O9 0.500000 0.500000 0.000000
O O10 0.142986 0.515282 0.138341
O O11 0.171493 0.203478 0.496445
O O12 0.000000 0.000000 0.500000
O O13 0.132723 0.691354 0.031079
#
# Coordination Sequence:
#
# PCOD8011984 Si02
#       6
#     2   2   2   2   2   2
#     4  10  21  40  65  92 123 158 207 260 316 353
#     4  10  21  39  65  94 121 157 209 266 302 362
#     4  11  24  39  60  95 121 163 209 257 309 360
#     4  11  23  37  65  89 124 157 214 264 298 367
#     4  12  26  42  60  90 134 170 198 250 315 381
#     4  12  24  42  63  90 126 169 205 247 318 373
#
# _framework density 21.830172999999998
#
# number of rings (size 3 to 8) (size 9 to 14) (size 15 to 20)
#    0.000    1.000    3.333    3.500    4.667    0.000 
#    0.000    1.667    0.000    0.000    0.000    0.000 
#    0.000    0.000    0.000    0.000    0.000    0.000 
#
# Total GULP energy -148835.788751 kJ/mol
# GULP energy per Si atom -12402.982396 kJ/mol
# Density = 2.178049 g / cm^3
# Si number density = 21.830173 Si / 1000 Ang^3
#
#
#
# Elastic Constant Matrix: (Units=GPa)
#
#
# Indices 1 2 3 4 5 6 
#
# 1 88.6677 36.9643 8.6813 -4.0398 19.9145 4.6615
# 2 36.9643 119.0490 -0.6366 1.0182 14.6491 -1.3650
# 3 8.6813 -0.6366 59.6670 14.3493 9.9033 -3.2480
# 4 -4.0398 1.0182 14.3493 27.8675 1.5123 5.1628
# 5 19.9145 14.6491 9.9033 1.5123 33.4758 4.9747
# 6 4.6615 -1.3650 -3.2480 5.1628 4.9747 35.0689
#
#
#
# Elastic Compliance Matrix: (Units=1/GPa)
#
#
# Indices 1 2 3 4 5 6 
#
# 1 0.014849 -0.003902 -0.002269 0.004188 -0.006339 -0.002053
# 2 -0.003902 0.009993 0.001697 -0.001980 -0.002723 0.001743
# 3 -0.002269 0.001697 0.021211 -0.011906 -0.005861 0.004916
# 4 0.004188 -0.001980 -0.011906 0.044189 0.001150 -0.008405
# 5 -0.006339 -0.002723 -0.005861 0.001150 0.037300 -0.005267
# 6 -0.002053 0.001743 0.004916 -0.008405 -0.005267 0.031296
#
#
# Mechanical properties :
#
#
# Convention : Reuss Voigt Hill
#
# Bulk Modulus (GPa) = 26.94986 39.71128 33.33057
# Shear Modulus (GPa) = 27.75406 34.10741 30.93074
#
# Velocity S-wave (km/s) = 3.56949 3.95701 3.76823
# Velocity P-wave (km/s) = 5.41852 6.25361 5.85098
#
# Compressibility (1/GPa) = 0.03710595
#
# Stress axis : x y z
#
# Youngs Moduli (GPa) = 67.34265 100.07428 47.14424
#
# Poissons Ratio (x) = 0.39051 0.10697
# Poissons Ratio (y) = 0.26278 -0.08002
# Poissons Ratio (z) = 0.15280 -0.16986
#
# Static dielectric constant tensor:
#      x y z
#    x 4.013430 -0.336530 0.139430 
#    y -0.336530 4.284090 0.138350 
#    z 0.139430 0.138350 4.065350 
# 
# 
# High freq. dielectric constant tensor:
#      x y z
#    x 1.839670 -0.012220 0.015940 
#    y -0.012220 1.868670 0.009630 
#    z 0.015940 0.009630 1.858840 
# 
# From -- ./inp_files/19091.got.cif
#   From: 2010.06.25/outbox.cif.g09.slc.cpg/sg2_10_cif.got.tgz:19091.got - 2010.06.27 13:26:56.
