data_PCOD8011871
_publ_section_title
;
Structure prediction by ZEFSAII (Michael W. Deem and Ramdas Pophale) SiO2 
 PCOD8011871
Probable space group: P -1
;
_chemical_formula_sum "Si O2"
_cell_formula_units_Z 16
_cell_length_a 20.178071
_cell_length_b 22.996072
_cell_length_c 5.034597
_cell_angle_alpha 95.767322
_cell_angle_beta 96.847489
_cell_angle_gamma 19.057024
_cell_volume 756.791687
_symmetry_space_group_name_H-M "P -1"
_symmetry_group_IT_number 2
_symmetry_cell_setting 'triclinic'
loop_
_space_group_symop_operation_xyz
x,y,z
-x,-y,-z
loop_
_atom_site_type_symbol
_atom_site_label
_atom_site_fract_x
_atom_site_fract_y
_atom_site_fract_z
Si Si1 0.765627 0.275233 0.802232
Si Si2 0.616392 0.334536 0.255345
Si Si3 0.430387 0.992806 0.026444
Si Si4 0.229881 0.919691 0.861215
Si Si5 0.836896 0.587011 0.040455
Si Si6 0.814551 0.529022 0.488621
Si Si7 0.650011 0.110610 0.595640
Si Si8 0.799596 0.858828 0.529504
O O1 0.690414 0.289046 0.564135
O O2 0.620398 0.452341 0.799917
O O3 0.757035 0.253429 0.078353
O O4 0.994114 0.104407 0.768960
O O5 0.637360 0.248363 0.186568
O O6 0.293800 0.106500 0.276485
O O7 0.621851 0.794231 0.082923
O O8 0.303250 0.070756 0.764425
O O9 0.500000 0.000000 0.000000
O O10 0.314285 0.898658 0.692391
O O11 0.254946 0.920992 0.173559
O O12 0.902744 0.502904 0.309052
O O13 0.818626 0.553069 0.792508
O O14 0.000000 0.500000 0.000000
O O15 0.589380 0.696404 0.373795
O O16 0.959146 0.352522 0.473692
O O17 0.763889 0.955510 0.631312
#
# Coordination Sequence:
#
# PCOD8011871 Si02
#       8
#     2   2   2   2   2   2   2   2
#     4  10  21  39  64  95 131 164 207 269 321 367
#     4  10  21  39  64  95 131 164 207 269 321 367
#     4  12  23  42  67  97 127 157 210 270 330 400
#     4  12  24  39  66  92 126 172 224 250 322 378
#     4  12  23  42  67  97 127 157 210 270 330 400
#     4  12  25  45  65  90 128 170 212 264 332 383
#     4  12  26  43  62  90 130 176 212 274 304 396
#     4  12  25  45  65  90 128 170 212 264 332 383
#
# _framework density 21.141883
#
# number of rings (size 3 to 8) (size 9 to 14) (size 15 to 20)
#    0.000    0.500    2.500    6.750    0.000    2.000 
#    0.000    0.000    0.000    0.000    0.000    0.000 
#    0.000    0.000    0.000    0.000    0.000    0.000 
#
# Total GULP energy -198536.013173 kJ/mol
# GULP energy per Si atom -12408.500823 kJ/mol
# Density = 2.109376 g / cm^3
# Si number density = 21.141883 Si / 1000 Ang^3
#
#
#
# Elastic Constant Matrix: (Units=GPa)
#
#
# Indices 1 2 3 4 5 6 
#
# 1 81.6137 37.4088 0.2484 2.6558 3.4123 16.7600
# 2 37.4088 172.8006 -0.3013 -11.1802 -7.4714 26.5393
# 3 0.2484 -0.3013 75.7838 2.6132 4.9098 6.9192
# 4 2.6558 -11.1802 2.6132 27.5157 6.7179 0.4173
# 5 3.4123 -7.4714 4.9098 6.7179 46.1661 7.2747
# 6 16.7600 26.5393 6.9192 0.4173 7.2747 31.6989
#
#
#
# Elastic Compliance Matrix: (Units=1/GPa)
#
#
# Indices 1 2 3 4 5 6 
#
# 1 0.014635 -0.002453 0.000562 -0.002302 -0.000304 -0.005707
# 2 -0.002453 0.007415 0.000319 0.002866 0.001786 -0.005428
# 3 0.000562 0.000319 0.013583 -0.000977 -0.000766 -0.003340
# 4 -0.002302 0.002866 -0.000977 0.039020 -0.004883 -0.000362
# 5 -0.000304 0.001786 -0.000766 -0.004883 0.023799 -0.006564
# 6 -0.005707 -0.005428 -0.003340 -0.000362 -0.006564 0.041349
#
#
# Mechanical properties :
#
#
# Convention : Reuss Voigt Hill
#
# Bulk Modulus (GPa) = 30.77932 44.98999 37.88465
# Shear Modulus (GPa) = 32.51512 40.59895 36.55704
#
# Velocity S-wave (km/s) = 3.92592 4.38689 4.16279
# Velocity P-wave (km/s) = 5.92795 6.85463 6.40806
#
# Compressibility (1/GPa) = 0.03248935
#
# Stress axis : x y z
#
# Youngs Moduli (GPa) = 68.32921 134.86387 73.62054
#
# Poissons Ratio (x) = 0.33081 -0.04141
# Poissons Ratio (y) = 0.16760 -0.02346
# Poissons Ratio (z) = -0.03843 -0.04297
#
# Static dielectric constant tensor:
#      x y z
#    x 3.689050 0.160920 -0.083500 
#    y 0.160920 4.144900 0.068950 
#    z -0.083500 0.068950 3.968120 
# 
# 
# High freq. dielectric constant tensor:
#      x y z
#    x 1.820030 0.009410 -0.006970 
#    y 0.009410 1.845210 0.004480 
#    z -0.006970 0.004480 1.847300 
# 
# From -- ./inp_files/112446.got.cif
#   From: 2010.06.25/outbox.cif.g09.slc.cpg/sg2_57_cif.got.tgz:112446.got - 2010.06.27 13:26:56.
