data_PCOD8011713
_publ_section_title
;
Structure prediction by ZEFSAII (Michael W. Deem and Ramdas Pophale) SiO2 
 PCOD8011713
Probable space group: P -1
;
_chemical_formula_sum "Si O2"
_cell_formula_units_Z 14
_cell_length_a 10.067444
_cell_length_b 8.927934
_cell_length_c 12.472340
_cell_angle_alpha 121.378588
_cell_angle_beta 139.798134
_cell_angle_gamma 64.579942
_cell_volume 616.762043
_symmetry_space_group_name_H-M "P -1"
_symmetry_group_IT_number 2
_symmetry_cell_setting 'triclinic'
loop_
_space_group_symop_operation_xyz
x,y,z
-x,-y,-z
loop_
_atom_site_type_symbol
_atom_site_label
_atom_site_fract_x
_atom_site_fract_y
_atom_site_fract_z
Si Si1 0.650098 0.227651 0.651350
Si Si2 0.331104 0.356650 0.822082
Si Si3 0.553400 0.793159 0.951103
Si Si4 0.918402 0.196822 0.016930
Si Si5 0.276039 0.143447 0.512708
Si Si6 0.802011 0.581815 0.847797
Si Si7 0.147317 0.677941 0.750011
O O1 0.761797 0.231568 0.836313
O O2 0.410421 0.195719 0.512274
O O3 0.667869 0.415129 0.672348
O O4 0.744953 0.067712 0.576731
O O5 0.386064 0.203764 0.712111
O O6 0.132654 0.469844 0.691574
O O7 0.500000 0.500000 0.000000
O O8 0.291061 0.263009 0.875691
O O9 0.667521 0.726352 0.888681
O O10 0.338600 0.700240 0.796322
O O11 0.500000 0.000000 0.000000
O O12 0.804284 0.233561 0.072692
O O13 0.115839 0.317890 0.168466
O O14 0.000000 0.000000 0.000000
O O15 0.053192 0.238277 0.398186
O O16 0.000000 0.500000 0.000000
#
# Coordination Sequence:
#
# PCOD8011713 Si02
#       7
#     2   2   2   2   2   2   2
#     4  10  21  39  63  93 140 175 226 271 347 393
#     4  10  21  40  65  89 126 170 223 270 337 399
#     4  11  23  41  70  99 131 174 229 281 334 403
#     4  11  20  39  69  96 129 177 229 272 332 410
#     4  11  22  38  66  98 136 179 222 287 334 408
#     4  10  22  40  67  95 132 173 221 280 331 397
#     4  11  22  40  67 100 129 175 231 273 335 403
#
# _framework density 22.699190000000002
#
# number of rings (size 3 to 8) (size 9 to 14) (size 15 to 20)
#    0.000    1.429    1.429    6.429    2.000    0.000 
#    0.000    1.429    6.286    0.000    0.000    0.000 
#    0.000    0.000    0.000    0.000    0.000    0.000 
#
# Total GULP energy -173484.508253 kJ/mol
# GULP energy per Si atom -12391.750589 kJ/mol
# Density = 2.264753 g / cm^3
# Si number density = 22.699190 Si / 1000 Ang^3
#
#
#
# Elastic Constant Matrix: (Units=GPa)
#
#
# Indices 1 2 3 4 5 6 
#
# 1 74.1921 18.6574 14.7444 1.7012 8.5558 -12.7196
# 2 18.6574 128.0947 16.3436 23.8446 10.3499 -4.2398
# 3 14.7444 16.3436 75.6789 21.5631 -10.8222 -7.4444
# 4 1.7012 23.8446 21.5631 37.7793 -6.9443 -0.3222
# 5 8.5558 10.3499 -10.8222 -6.9443 33.3243 5.7074
# 6 -12.7196 -4.2398 -7.4444 -0.3222 5.7074 39.9682
#
#
#
# Elastic Compliance Matrix: (Units=1/GPa)
#
#
# Indices 1 2 3 4 5 6 
#
# 1 0.015997 -0.001528 -0.003409 0.001250 -0.005347 0.005068
# 2 -0.001528 0.009692 -0.000435 -0.006583 -0.004306 0.001023
# 3 -0.003409 -0.000435 0.017190 -0.008529 0.004585 0.001347
# 4 0.001250 -0.006583 -0.008529 0.036710 0.007049 -0.002600
# 5 -0.005347 -0.004306 0.004585 0.007049 0.036789 -0.006501
# 6 0.005068 0.001023 0.001347 -0.002600 -0.006501 0.027899
#
#
# Mechanical properties :
#
#
# Convention : Reuss Voigt Hill
#
# Bulk Modulus (GPa) = 31.11843 41.93960 36.52901
# Shear Modulus (GPa) = 30.16889 37.42903 33.79896
#
# Velocity S-wave (km/s) = 3.64960 4.06509 3.86293
# Velocity P-wave (km/s) = 5.61233 6.36786 6.00199
#
# Compressibility (1/GPa) = 0.03213530
#
# Stress axis : x y z
#
# Youngs Moduli (GPa) = 62.51165 103.17865 58.17245
#
# Poissons Ratio (x) = 0.15766 0.19831
# Poissons Ratio (y) = 0.09552 0.02530
# Poissons Ratio (z) = 0.21311 0.04487
#
# Static dielectric constant tensor:
#      x y z
#    x 4.146040 0.010910 0.229160 
#    y 0.010910 4.693990 0.166990 
#    z 0.229160 0.166990 3.988970 
# 
# 
# High freq. dielectric constant tensor:
#      x y z
#    x 1.885200 -0.017270 0.000600 
#    y -0.017270 1.913770 0.011370 
#    z 0.000600 0.011370 1.875900 
# 
# From -- ./inp_files/238749.got.cif
#   From: 2010.06.25/outbox.cif.g09.slc.cpg/sg2_120_cif.got.tgz:238749.got - 2010.06.27 13:26:56.
