data_PCOD8011571
_publ_section_title
;
Structure prediction by ZEFSAII (Michael W. Deem and Ramdas Pophale) SiO2 
 PCOD8011571
Probable space group: P -1
;
_chemical_formula_sum "Si O2"
_cell_formula_units_Z 14
_cell_length_a 8.459382
_cell_length_b 11.899739
_cell_length_c 8.965270
_cell_angle_alpha 113.811122
_cell_angle_beta 132.007600
_cell_angle_gamma 80.143848
_cell_volume 606.974232
_symmetry_space_group_name_H-M "P -1"
_symmetry_group_IT_number 2
_symmetry_cell_setting 'triclinic'
loop_
_space_group_symop_operation_xyz
x,y,z
-x,-y,-z
loop_
_atom_site_type_symbol
_atom_site_label
_atom_site_fract_x
_atom_site_fract_y
_atom_site_fract_z
Si Si1 0.104938 0.691230 0.501715
Si Si2 0.287688 0.641553 0.884291
Si Si3 0.591572 0.201525 0.677604
Si Si4 0.271240 0.401303 0.941575
Si Si5 0.318061 0.554066 0.327286
Si Si6 0.194316 0.018817 0.425629
Si Si7 0.732923 0.039901 0.235961
O O1 0.096751 0.653024 0.651163
O O2 0.153183 0.580158 0.364325
O O3 0.268983 0.815981 0.649405
O O4 0.876133 0.713729 0.297071
O O5 0.256680 0.510759 0.873993
O O6 0.316103 0.755820 0.078396
O O7 0.499665 0.643501 0.916687
O O8 0.584449 0.321965 0.635054
O O9 0.757337 0.114817 0.672033
O O10 0.347815 0.127409 0.492131
O O11 0.200811 0.447183 0.083990
O O12 0.500000 0.500000 0.500000
O O13 0.249199 0.037438 0.644654
O O14 0.937737 0.027310 0.248302
O O15 0.500000 0.000000 0.000000
#
# Coordination Sequence:
#
# PCOD8011571 Si02
#       7
#     2   2   2   2   2   2   2
#     4  12  22  40  64  97 129 176 222 275 333 400
#     4  10  21  39  62  93 133 172 219 273 333 398
#     4  10  21  43  71  99 136 180 221 282 337 402
#     4  10  22  39  63  90 134 177 221 267 334 399
#     4  11  22  42  66 101 137 175 220 275 335 402
#     4  10  22  45  70  94 136 176 227 279 341 390
#     4  11  24  43  69 101 130 175 231 282 336 399
#
# _framework density 23.065228999999999
#
# number of rings (size 3 to 8) (size 9 to 14) (size 15 to 20)
#    0.000    1.429    2.857    2.571    0.000    1.143 
#    2.571    7.857    3.143    0.000    0.000    0.000 
#    0.000    0.000    0.000    0.000    0.000    0.000 
#
# Total GULP energy -173487.056635 kJ/mol
# GULP energy per Si atom -12391.932617 kJ/mol
# Density = 2.301273 g / cm^3
# Si number density = 23.065229 Si / 1000 Ang^3
#
#
#
# Elastic Constant Matrix: (Units=GPa)
#
#
# Indices 1 2 3 4 5 6 
#
# 1 105.8946 14.1585 45.5480 -4.0605 -5.0220 -18.8640
# 2 14.1585 73.9929 39.2146 -5.9985 -7.3822 -2.3155
# 3 45.5480 39.2146 163.1033 -4.5139 -1.3788 -8.9986
# 4 -4.0605 -5.9985 -4.5139 32.0554 -0.1162 -0.9064
# 5 -5.0220 -7.3822 -1.3788 -0.1162 40.8009 -0.4672
# 6 -18.8640 -2.3155 -8.9986 -0.9064 -0.4672 30.5215
#
#
#
# Elastic Compliance Matrix: (Units=1/GPa)
#
#
# Indices 1 2 3 4 5 6 
#
# 1 0.012012 -0.000333 -0.002863 0.001248 0.001401 0.006613
# 2 -0.000333 0.015990 -0.003658 0.002446 0.002736 0.000043
# 3 -0.002863 -0.003658 0.007819 0.000058 -0.000747 0.000249
# 4 0.001248 0.002446 0.000058 0.031877 0.000711 0.001932
# 5 0.001401 0.002736 -0.000747 0.000711 0.025168 0.001259
# 6 0.006613 0.000043 0.000249 0.001932 0.001259 0.037004
#
#
# Mechanical properties :
#
#
# Convention : Reuss Voigt Hill
#
# Bulk Modulus (GPa) = 45.22447 60.09255 52.65851
# Shear Modulus (GPa) = 33.12366 36.94687 35.03526
#
# Velocity S-wave (km/s) = 3.79368 4.00664 3.90162
# Velocity P-wave (km/s) = 6.23211 6.89305 6.57089
#
# Compressibility (1/GPa) = 0.02211192
#
# Stress axis : x y z
#
# Youngs Moduli (GPa) = 83.25223 62.53934 127.89121
#
# Poissons Ratio (x) = 0.02084 0.36616
# Poissons Ratio (y) = 0.02774 0.46785
# Poissons Ratio (z) = 0.23835 0.22878
#
# Static dielectric constant tensor:
#      x y z
#    x 5.094580 -0.046880 0.315300 
#    y -0.046880 4.089560 0.173580 
#    z 0.315300 0.173580 4.568410 
# 
# 
# High freq. dielectric constant tensor:
#      x y z
#    x 1.908710 -0.006460 -0.006040 
#    y -0.006460 1.909830 0.006250 
#    z -0.006040 0.006250 1.917510 
# 
# From -- ./inp_files/34670.got.cif
#   From: 2010.06.25/outbox.cif.g09.slc.cpg/sg2_18_cif.got.tgz:34670.got - 2010.06.27 13:26:56.
