data_PCOD8011469
_publ_section_title
;
Structure prediction by ZEFSAII (Michael W. Deem and Ramdas Pophale) SiO2 
 PCOD8011469
Probable space group: P -1
;
_chemical_formula_sum "Si O2"
_cell_formula_units_Z 16
_cell_length_a 8.545945
_cell_length_b 16.417469
_cell_length_c 7.716383
_cell_angle_alpha 126.651204
_cell_angle_beta 81.716267
_cell_angle_gamma 69.341150
_cell_volume 716.294757
_symmetry_space_group_name_H-M "P -1"
_symmetry_group_IT_number 2
_symmetry_cell_setting 'triclinic'
loop_
_space_group_symop_operation_xyz
x,y,z
-x,-y,-z
loop_
_atom_site_type_symbol
_atom_site_label
_atom_site_fract_x
_atom_site_fract_y
_atom_site_fract_z
Si Si1 0.189194 0.639539 0.641879
Si Si2 0.654158 0.222986 0.715139
Si Si3 0.408907 0.548676 0.817362
Si Si4 0.044474 0.181445 0.519181
Si Si5 0.300944 0.014429 0.566242
Si Si6 0.000368 0.411700 0.675691
Si Si7 0.928232 0.914194 0.954103
Si Si8 0.302443 0.396332 0.810729
O O1 0.227219 0.598654 0.782849
O O2 0.394248 0.564422 0.426299
O O3 0.045655 0.607540 0.537772
O O4 0.105989 0.782275 0.819164
O O5 0.487900 0.262704 0.650464
O O6 0.849941 0.186635 0.550855
O O7 0.681617 0.106765 0.663200
O O8 0.574064 0.338302 0.001368
O O9 0.363876 0.492838 0.915698
O O10 0.152709 0.125839 0.610819
O O11 0.160937 0.103753 0.230518
O O12 0.993198 0.317561 0.686809
O O13 0.500000 0.000000 0.500000
O O14 0.228232 0.032634 0.800138
O O15 0.210581 0.385650 0.632625
O O16 0.850442 0.550256 0.940270
O O17 0.000000 0.000000 0.000000
#
# Coordination Sequence:
#
# PCOD8011469 Si02
#       8
#     2   2   2   2   2   2   2   2
#     4  10  23  42  61  96 135 171 231 282 340 403
#     4  12  22  41  71 100 133 180 237 282 336 420
#     4  11  22  38  66  97 130 178 228 283 331 413
#     4  11  23  44  71  98 136 185 233 284 345 414
#     4  12  28  47  70 105 141 183 232 289 355 413
#     4  10  21  39  61  94 135 174 217 278 348 404
#     4  11  24  43  71 101 135 181 232 287 339 412
#     4  11  21  36  64  94 131 174 219 280 338 406
#
# _framework density 22.337171999999999
#
# number of rings (size 3 to 8) (size 9 to 14) (size 15 to 20)
#    0.000    1.000    3.750    3.750    1.750    1.000 
#    0.000    5.000    0.000    0.000    0.000    0.000 
#    0.000    0.000    0.000    0.000    0.000    0.000 
#
# Total GULP energy -198296.911118 kJ/mol
# GULP energy per Si atom -12393.556945 kJ/mol
# Density = 2.228633 g / cm^3
# Si number density = 22.337172 Si / 1000 Ang^3
#
#
#
# Elastic Constant Matrix: (Units=GPa)
#
#
# Indices 1 2 3 4 5 6 
#
# 1 113.0933 25.7178 26.6687 6.3791 -3.1287 -14.8396
# 2 25.7178 63.6581 27.4272 5.8356 -11.2869 -10.0559
# 3 26.6687 27.4272 84.9853 9.9921 -6.0020 2.2834
# 4 6.3791 5.8356 9.9921 34.4137 3.6439 2.3374
# 5 -3.1287 -11.2869 -6.0020 3.6439 30.4862 1.5989
# 6 -14.8396 -10.0559 2.2834 2.3374 1.5989 44.2058
#
#
#
# Elastic Compliance Matrix: (Units=1/GPa)
#
#
# Indices 1 2 3 4 5 6 
#
# 1 0.010472 -0.002692 -0.002421 -0.000944 -0.000448 0.003094
# 2 -0.002692 0.021132 -0.005324 -0.002513 0.006586 0.004073
# 3 -0.002421 -0.005324 0.014736 -0.002869 0.001165 -0.002676
# 4 -0.000944 -0.002513 -0.002869 0.031193 -0.005205 -0.002201
# 5 -0.000448 0.006586 0.001165 -0.005205 0.036032 0.000260
# 6 0.003094 0.004073 -0.002676 -0.002201 0.000260 0.024832
#
#
# Mechanical properties :
#
#
# Convention : Reuss Voigt Hill
#
# Bulk Modulus (GPa) = 39.26767 46.81820 43.04294
# Shear Modulus (GPa) = 29.80458 33.94936 31.87697
#
# Velocity S-wave (km/s) = 3.65678 3.90277 3.78177
# Velocity P-wave (km/s) = 5.95374 6.42760 6.19520
#
# Compressibility (1/GPa) = 0.02546624
#
# Stress axis : x y z
#
# Youngs Moduli (GPa) = 95.49080 47.32233 67.85998
#
# Poissons Ratio (x) = 0.12737 0.16431
# Poissons Ratio (y) = 0.25702 0.36129
# Poissons Ratio (z) = 0.23121 0.25195
#
# Static dielectric constant tensor:
#      x y z
#    x 4.002100 -0.180460 0.168220 
#    y -0.180460 4.167260 0.109640 
#    z 0.168220 0.109640 4.027870 
# 
# 
# High freq. dielectric constant tensor:
#      x y z
#    x 1.873470 -0.011930 0.010850 
#    y -0.011930 1.881610 0.015790 
#    z 0.010850 0.015790 1.876310 
# 
# From -- ./inp_files/215853.got.cif
#   From: 2010.06.25/outbox.cif.g09.slc.cpg/sg2_108_cif.got.tgz:215853.got - 2010.06.27 13:26:56.
