data_PCOD8011438
_publ_section_title
;
Structure prediction by ZEFSAII (Michael W. Deem and Ramdas Pophale) SiO2 
 PCOD8011438
Probable space group: P -1
;
_chemical_formula_sum "Si O2"
_cell_formula_units_Z 16
_cell_length_a 14.805965
_cell_length_b 8.881863
_cell_length_c 12.699231
_cell_angle_alpha 113.292824
_cell_angle_beta 77.580434
_cell_angle_gamma 147.208753
_cell_volume 807.279359
_symmetry_space_group_name_H-M "P -1"
_symmetry_group_IT_number 2
_symmetry_cell_setting 'triclinic'
loop_
_space_group_symop_operation_xyz
x,y,z
-x,-y,-z
loop_
_atom_site_type_symbol
_atom_site_label
_atom_site_fract_x
_atom_site_fract_y
_atom_site_fract_z
Si Si1 0.050220 0.506928 0.162934
Si Si2 0.183692 0.362760 0.160521
Si Si3 0.979409 0.085151 0.433181
Si Si4 0.689318 0.280801 0.572872
Si Si5 0.423574 0.555707 0.989373
Si Si6 0.118028 0.730689 0.436397
Si Si7 0.140869 0.258126 0.842411
Si Si8 0.236835 0.780847 0.983749
O O1 0.079967 0.361410 0.139728
O O2 0.045125 0.601153 0.299529
O O3 0.868419 0.266154 0.085976
O O4 0.193248 0.771442 0.112378
O O5 0.290082 0.565536 0.293369
O O6 0.332810 0.519032 0.094088
O O7 0.035911 0.007066 0.119408
O O8 0.841964 0.019093 0.484005
O O9 0.164512 0.447682 0.471227
O O10 0.904092 0.869635 0.297298
O O11 0.000000 0.000000 0.500000
O O12 0.712629 0.127624 0.562026
O O13 0.500000 0.000000 0.500000
O O14 0.567183 0.885612 0.994515
O O15 0.500000 0.500000 0.000000
O O16 0.277542 0.327685 0.872101
O O17 0.000000 0.500000 0.500000
O O18 0.208055 0.544066 0.906483
#
# Coordination Sequence:
#
# PCOD8011438 Si02
#       8
#     2   2   2   2   2   2   2   2
#     4  10  21  39  64  90 121 165 204 247 312 367
#     4  10  22  40  62  86 126 163 203 250 308 368
#     4  10  21  39  61  91 120 160 201 249 308 360
#     4   9  20  38  62  88 116 159 207 251 295 354
#     4  12  26  40  60  93 124 160 209 255 307 365
#     4   9  19  38  63  87 119 159 208 245 295 366
#     4  11  23  41  63  89 128 163 202 253 308 375
#     4  11  24  39  64  94 123 159 207 254 312 368
#
# _framework density 19.819658
#
# number of rings (size 3 to 8) (size 9 to 14) (size 15 to 20)
#    0.000    1.750    1.250    3.000    3.500    4.000 
#    2.250    0.625    0.000    0.000    0.000    0.000 
#    0.000    0.000    0.000    0.000    0.000    0.000 
#
# Total GULP energy -198226.035874 kJ/mol
# GULP energy per Si atom -12389.127242 kJ/mol
# Density = 1.977455 g / cm^3
# Si number density = 19.819658 Si / 1000 Ang^3
#
#
#
# Elastic Constant Matrix: (Units=GPa)
#
#
# Indices 1 2 3 4 5 6 
#
# 1 84.3224 28.4484 40.5892 1.5492 7.9917 -0.3049
# 2 28.4484 109.1192 63.5564 0.0830 2.7259 9.3368
# 3 40.5892 63.5564 122.4389 -15.8188 10.2475 1.2023
# 4 1.5492 0.0830 -15.8188 30.2845 5.3230 4.0364
# 5 7.9917 2.7259 10.2475 5.3230 39.2766 0.3820
# 6 -0.3049 9.3368 1.2023 4.0364 0.3820 29.5129
#
#
#
# Elastic Compliance Matrix: (Units=1/GPa)
#
#
# Indices 1 2 3 4 5 6 
#
# 1 0.014629 -0.001269 -0.004480 -0.003008 -0.001323 0.001163
# 2 -0.001269 0.014148 -0.007516 -0.003720 0.001777 -0.003697
# 3 -0.004480 -0.007516 0.014969 0.008631 -0.003648 0.000589
# 4 -0.003008 -0.003720 0.008631 0.039470 -0.006687 -0.004518
# 5 -0.001323 0.001777 -0.003648 -0.006687 0.027463 0.000132
# 6 0.001163 -0.003697 0.000589 -0.004518 0.000132 0.035657
#
#
# Mechanical properties :
#
#
# Convention : Reuss Voigt Hill
#
# Bulk Modulus (GPa) = 58.08904 64.56315 61.32610
# Shear Modulus (GPa) = 27.99483 32.03390 30.01437
#
# Velocity S-wave (km/s) = 3.76237 4.02465 3.89572
# Velocity P-wave (km/s) = 6.94596 7.36499 7.15854
#
# Compressibility (1/GPa) = 0.01721495
#
# Stress axis : x y z
#
# Youngs Moduli (GPa) = 68.35878 70.68311 66.80526
#
# Poissons Ratio (x) = 0.08966 0.29931
# Poissons Ratio (y) = 0.08671 0.50213
# Poissons Ratio (z) = 0.30627 0.53128
#
# Static dielectric constant tensor:
#      x y z
#    x 4.223810 -0.035230 -0.213390 
#    y -0.035230 3.561340 -0.193520 
#    z -0.213390 -0.193520 3.973280 
# 
# 
# High freq. dielectric constant tensor:
#      x y z
#    x 1.788680 -0.003540 0.003100 
#    y -0.003540 1.758650 -0.017040 
#    z 0.003100 -0.017040 1.781650 
# 
# From -- ./inp_files/185756.got.cif
#   From: 2010.06.25/outbox.cif.g09.slc.cpg/sg2_93_cif.got.tgz:185756.got - 2010.06.27 13:26:56.
