data_PCOD8011833
_publ_section_title
;
Structure prediction by ZEFSAII (Michael W. Deem and Ramdas Pophale) SiO2 
 PCOD8011833
Probable space group: P -1
;
_chemical_formula_sum "Si O2"
_cell_formula_units_Z 16
_cell_length_a 13.317558
_cell_length_b 15.939229
_cell_length_c 6.617786
_cell_angle_alpha 81.437929
_cell_angle_beta 110.417368
_cell_angle_gamma 145.877143
_cell_volume 711.890047
_symmetry_space_group_name_H-M "P -1"
_symmetry_group_IT_number 2
_symmetry_cell_setting 'triclinic'
loop_
_space_group_symop_operation_xyz
x,y,z
-x,-y,-z
loop_
_atom_site_type_symbol
_atom_site_label
_atom_site_fract_x
_atom_site_fract_y
_atom_site_fract_z
Si Si1 0.825525 0.289739 0.121785
Si Si2 0.508392 0.304662 0.823791
Si Si3 0.106841 0.847471 0.942648
Si Si4 0.907155 0.028618 0.453513
Si Si5 0.471709 0.815777 0.788659
Si Si6 0.157790 0.280700 0.856419
Si Si7 0.236831 0.624547 0.301376
Si Si8 0.486277 0.488120 0.731718
O O1 0.852907 0.208420 0.140307
O O2 0.648971 0.188159 0.189051
O O3 0.023422 0.459841 0.297707
O O4 0.777824 0.301045 0.870841
O O5 0.691070 0.409222 0.765502
O O6 0.474622 0.380595 0.819143
O O7 0.325934 0.136638 0.647101
O O8 0.553014 0.288876 0.072615
O O9 0.029168 0.866946 0.722824
O O10 0.948205 0.725546 0.056788
O O11 0.303712 0.008338 0.132368
O O12 0.986003 0.110707 0.699181
O O13 0.000000 0.000000 0.500000
O O14 0.392223 0.748721 0.535389
O O15 0.290448 0.404559 0.715992
O O16 0.322457 0.342316 0.090105
O O17 0.500000 0.500000 0.500000
#
# Coordination Sequence:
#
# PCOD8011833 Si02
#       8
#     2   2   2   2   2   2   2   2
#     4  10  22  40  63  93 130 163 211 265 315 380
#     4  10  22  41  61  90 130 162 212 264 315 375
#     4  11  24  41  64  95 129 168 215 266 315 376
#     4  11  23  43  61  90 130 171 215 267 313 373
#     4  10  22  40  64  95 124 169 209 258 323 379
#     4  11  24  40  63  92 121 169 217 255 323 376
#     4  10  21  39  64  93 124 167 210 260 318 380
#     4  11  24  43  61  91 128 167 214 268 313 374
#
# _framework density 22.475382
#
# number of rings (size 3 to 8) (size 9 to 14) (size 15 to 20)
#    0.000    1.500    1.250    3.000    0.000    5.000 
#    0.000    0.000    0.000    0.000    0.000    0.000 
#    0.000    0.000    0.000    0.000    0.000    0.000 
#
# Total GULP energy -198283.221027 kJ/mol
# GULP energy per Si atom -12392.701314 kJ/mol
# Density = 2.242423 g / cm^3
# Si number density = 22.475382 Si / 1000 Ang^3
#
#
#
# Elastic Constant Matrix: (Units=GPa)
#
#
# Indices 1 2 3 4 5 6 
#
# 1 109.5452 32.8726 26.6306 -18.3263 -2.8424 3.8898
# 2 32.8726 58.2411 41.3580 -1.2581 -1.4902 16.7136
# 3 26.6306 41.3580 124.8056 18.2085 -4.5208 -1.7946
# 4 -18.3263 -1.2581 18.2085 37.3131 5.3072 -4.9083
# 5 -2.8424 -1.4902 -4.5208 5.3072 25.3834 -2.2081
# 6 3.8898 16.7136 -1.7946 -4.9083 -2.2081 42.0294
#
#
#
# Elastic Compliance Matrix: (Units=1/GPa)
#
#
# Indices 1 2 3 4 5 6 
#
# 1 0.012530 -0.006438 -0.001558 0.007055 -0.000542 0.002129
# 2 -0.006438 0.030769 -0.009214 0.001051 -0.001820 -0.012006
# 3 -0.001558 -0.009214 0.012629 -0.007233 0.003366 0.003680
# 4 0.007055 0.001051 -0.007233 0.035218 -0.007597 0.002334
# 5 -0.000542 -0.001820 0.003366 -0.007597 0.041609 0.002216
# 6 0.002129 -0.012006 0.003680 0.002334 0.002216 0.028916
#
#
# Mechanical properties :
#
#
# Convention : Reuss Voigt Hill
#
# Bulk Modulus (GPa) = 46.49966 54.92380 50.71173
# Shear Modulus (GPa) = 24.59894 33.72722 29.16308
#
# Velocity S-wave (km/s) = 3.31189 3.87800 3.60607
# Velocity P-wave (km/s) = 5.94633 6.67399 6.32064
#
# Compressibility (1/GPa) = 0.02150554
#
# Stress axis : x y z
#
# Youngs Moduli (GPa) = 79.80832 32.50064 79.18542
#
# Poissons Ratio (x) = 0.20924 0.12340
# Poissons Ratio (y) = 0.51382 0.72964
# Poissons Ratio (z) = 0.12437 0.29947
#
# Static dielectric constant tensor:
#      x y z
#    x 4.076580 0.281320 0.086350 
#    y 0.281320 4.381320 0.431640 
#    z 0.086350 0.431640 4.294940 
# 
# 
# High freq. dielectric constant tensor:
#      x y z
#    x 1.884150 0.024950 -0.005360 
#    y 0.024950 1.879690 0.020950 
#    z -0.005360 0.020950 1.893650 
# 
# From -- ./inp_files/99716.got.cif
#   From: 2010.06.25/outbox.cif.g09.slc.cpg/sg2_50_cif.got.tgz:99716.got - 2010.06.27 13:26:56.
