data_PCOD8011049
_publ_section_title
;
Structure prediction by ZEFSAII (Michael W. Deem and Ramdas Pophale) SiO2 
 PCOD8011049
Probable space group: P -1
;
_chemical_formula_sum "Si O2"
_cell_formula_units_Z 16
_cell_length_a 17.920771
_cell_length_b 9.091989
_cell_length_c 6.823061
_cell_angle_alpha 53.304849
_cell_angle_beta 115.693885
_cell_angle_gamma 121.393951
_cell_volume 748.665982
_symmetry_space_group_name_H-M "P -1"
_symmetry_group_IT_number 2
_symmetry_cell_setting 'triclinic'
loop_
_space_group_symop_operation_xyz
x,y,z
-x,-y,-z
loop_
_atom_site_type_symbol
_atom_site_label
_atom_site_fract_x
_atom_site_fract_y
_atom_site_fract_z
Si Si1 0.456711 0.201388 0.678242
Si Si2 0.272299 0.556761 0.917138
Si Si3 0.555097 0.513423 0.859969
Si Si4 0.046210 0.567276 0.203329
Si Si5 0.363490 0.851547 0.102475
Si Si6 0.764422 0.181272 0.673713
Si Si7 0.006322 0.204129 0.702077
Si Si8 0.845949 0.885166 0.876853
O O1 0.490320 0.358548 0.762208
O O2 0.416934 0.276086 0.385815
O O3 0.538035 0.142271 0.741187
O O4 0.374740 0.021721 0.818721
O O5 0.239681 0.687269 0.625223
O O6 0.358937 0.532037 0.941422
O O7 0.298460 0.653046 0.084317
O O8 0.198751 0.343180 0.051546
O O9 0.500000 0.500000 0.000000
O O10 0.150342 0.696760 0.196705
O O11 0.038177 0.359581 0.445994
O O12 0.999399 0.684108 0.189776
O O13 0.000000 0.500000 0.000000
O O14 0.322521 0.878050 0.241996
O O15 0.772017 0.973331 0.787566
O O16 0.080478 0.103507 0.881256
O O17 0.909838 0.036721 0.667453
#
# Coordination Sequence:
#
# PCOD8011049 Si02
#       8
#     2   2   2   2   2   2   2   2
#     4   9  21  42  60  92 128 163 211 250 312 379
#     4  11  24  41  62  95 125 165 210 256 321 364
#     4  10  21  38  66  92 121 167 209 255 310 375
#     4  10  21  39  67  91 121 168 210 250 316 374
#     4  10  23  41  64  90 130 167 203 265 312 365
#     4  11  24  41  62  96 128 159 213 264 304 373
#     4   9  20  43  62  86 129 164 200 265 308 371
#     4  10  22  41  65  90 125 165 208 257 313 367
#
# _framework density 21.371347
#
# number of rings (size 3 to 8) (size 9 to 14) (size 15 to 20)
#    0.000    2.000    1.250    0.750    5.250    0.000 
#    0.000   11.875    0.000    0.000    0.000    0.000 
#    0.000    0.000    0.000    0.000    0.000    0.000 
#
# Total GULP energy -198284.182565 kJ/mol
# GULP energy per Si atom -12392.761410 kJ/mol
# Density = 2.132270 g / cm^3
# Si number density = 21.371347 Si / 1000 Ang^3
#
#
#
# Elastic Constant Matrix: (Units=GPa)
#
#
# Indices 1 2 3 4 5 6 
#
# 1 79.8158 15.3031 24.2182 -7.7946 6.3293 -5.7400
# 2 15.3031 77.7250 22.7824 -24.5103 -0.0074 15.6337
# 3 24.2182 22.7824 76.5797 -16.6347 9.8652 -9.3779
# 4 -7.7946 -24.5103 -16.6347 36.4725 4.3040 6.9103
# 5 6.3293 -0.0074 9.8652 4.3040 30.2548 -6.6473
# 6 -5.7400 15.6337 -9.3779 6.9103 -6.6473 26.2548
#
#
#
# Elastic Compliance Matrix: (Units=1/GPa)
#
#
# Indices 1 2 3 4 5 6 
#
# 1 0.014336 -0.002909 -0.003304 -0.000985 -0.000969 0.003700
# 2 -0.002909 0.026208 -0.004717 0.020274 -0.006186 -0.024829
# 3 -0.003304 -0.004717 0.017561 0.003402 -0.004109 0.006423
# 4 -0.000985 0.020274 0.003402 0.049255 -0.013963 -0.027571
# 5 -0.000969 -0.006186 -0.004109 -0.013963 0.040056 0.015821
# 6 0.003700 -0.024829 0.006423 -0.027571 0.015821 0.067238
#
#
# Mechanical properties :
#
#
# Convention : Reuss Voigt Hill
#
# Bulk Modulus (GPa) = 27.58959 39.85864 33.72412
# Shear Modulus (GPa) = 20.11305 30.05088 25.08197
#
# Velocity S-wave (km/s) = 3.07110 3.75391 3.42954
# Velocity P-wave (km/s) = 5.05106 6.12210 5.61219
#
# Compressibility (1/GPa) = 0.03624556
#
# Stress axis : x y z
#
# Youngs Moduli (GPa) = 69.75475 38.15666 56.94369
#
# Poissons Ratio (x) = 0.11099 0.18816
# Poissons Ratio (y) = 0.20290 0.26858
# Poissons Ratio (z) = 0.23049 0.17997
#
# Static dielectric constant tensor:
#      x y z
#    x 4.457550 0.029010 -0.362760 
#    y 0.029010 3.997270 -0.336750 
#    z -0.362760 -0.336750 4.370010 
# 
# 
# High freq. dielectric constant tensor:
#      x y z
#    x 1.838390 0.010480 0.014190 
#    y 0.010480 1.843080 -0.026350 
#    z 0.014190 -0.026350 1.829740 
# 
# From -- ./inp_files/106356.got.cif
#   From: 2010.06.25/outbox.cif.g09.slc.cpg/sg2_54_cif.got.tgz:106356.got - 2010.06.27 13:26:56.
