data_PCOD8011494
_publ_section_title
;
Structure prediction by ZEFSAII (Michael W. Deem and Ramdas Pophale) SiO2 
 PCOD8011494
Probable space group: P -1
;
_chemical_formula_sum "Si O2"
_cell_formula_units_Z 16
_cell_length_a 8.627583
_cell_length_b 15.235698
_cell_length_c 14.665996
_cell_angle_alpha 38.886935
_cell_angle_beta 65.623378
_cell_angle_gamma 94.672309
_cell_volume 782.585706
_symmetry_space_group_name_H-M "P -1"
_symmetry_group_IT_number 2
_symmetry_cell_setting 'triclinic'
loop_
_space_group_symop_operation_xyz
x,y,z
-x,-y,-z
loop_
_atom_site_type_symbol
_atom_site_label
_atom_site_fract_x
_atom_site_fract_y
_atom_site_fract_z
Si Si1 0.744974 0.418809 0.348409
Si Si2 0.233203 0.838888 0.899772
Si Si3 0.423028 0.411130 0.850449
Si Si4 0.425155 0.069349 0.837400
Si Si5 0.913286 0.099995 0.295859
Si Si6 0.893792 0.783819 0.524603
Si Si7 0.683226 0.933483 0.936171
Si Si8 0.747359 0.139701 0.484835
O O1 0.612480 0.483679 0.297943
O O2 0.631616 0.294346 0.570107
O O3 0.713126 0.287405 0.381077
O O4 0.027982 0.603916 0.148095
O O5 0.186421 0.912203 0.767062
O O6 0.229446 0.933360 0.915025
O O7 0.497687 0.922259 0.754192
O O8 0.657318 0.564847 0.730599
O O9 0.449345 0.282526 0.892168
O O10 0.201412 0.276839 0.083330
O O11 0.534406 0.981409 0.903259
O O12 0.299102 0.062543 0.961627
O O13 0.805220 0.136393 0.370008
O O14 0.829210 0.892617 0.501745
O O15 0.039788 0.777348 0.566422
O O16 0.048305 0.904660 0.298783
#
# Coordination Sequence:
#
# PCOD8011494 Si02
#       8
#     2   2   2   2   2   2   2   2
#     4  10  22  40  60  91 121 161 198 249 293 357
#     4  10  21  39  62  87 123 155 200 251 293 354
#     4  10  24  40  60  88 128 157 198 246 302 352
#     4  10  21  40  64  90 120 154 204 243 303 359
#     4  10  23  40  59  90 125 161 198 247 301 352
#     4  11  21  39  61  88 126 158 195 252 297 353
#     4  10  22  40  62  91 121 157 196 251 300 359
#     4  11  22  37  63  91 120 161 206 244 296 352
#
# _framework density 20.445045
#
# number of rings (size 3 to 8) (size 9 to 14) (size 15 to 20)
#    0.000    1.750    2.500    2.250    1.750    5.000 
#    0.000   11.250    0.000    0.000    0.000    0.000 
#    0.000    0.000    0.000    0.000    0.000    0.000 
#
# Total GULP energy -198410.898555 kJ/mol
# GULP energy per Si atom -12400.681160 kJ/mol
# Density = 2.039851 g / cm^3
# Si number density = 20.445045 Si / 1000 Ang^3
#
#
#
# Elastic Constant Matrix: (Units=GPa)
#
#
# Indices 1 2 3 4 5 6 
#
# 1 70.7019 18.9464 21.5530 -10.1866 -0.5931 11.4345
# 2 18.9464 85.5885 36.3810 -2.7785 -5.7601 7.9967
# 3 21.5530 36.3810 84.7191 -18.3679 -4.0877 8.6650
# 4 -10.1866 -2.7785 -18.3679 28.0303 4.7144 0.1076
# 5 -0.5931 -5.7601 -4.0877 4.7144 36.2188 -10.4022
# 6 11.4345 7.9967 8.6650 0.1076 -10.4022 33.3001
#
#
#
# Elastic Compliance Matrix: (Units=1/GPa)
#
#
# Indices 1 2 3 4 5 6 
#
# 1 0.016975 -0.002545 -0.001624 0.005315 -0.002619 -0.005631
# 2 -0.002545 0.015083 -0.006577 -0.004080 0.002034 -0.000388
# 3 -0.001624 -0.006577 0.017544 0.010481 -0.001278 -0.002862
# 4 0.005315 -0.004080 0.010481 0.045264 -0.006964 -0.005894
# 5 -0.002619 0.002034 -0.001278 -0.006964 0.031718 0.010674
# 6 -0.005631 -0.000388 -0.002862 -0.005894 0.010674 0.036155
#
#
# Mechanical properties :
#
#
# Convention : Reuss Voigt Hill
#
# Bulk Modulus (GPa) = 35.57199 43.86338 39.71768
# Shear Modulus (GPa) = 25.82618 30.45177 28.13897
#
# Velocity S-wave (km/s) = 3.55801 3.86352 3.71391
# Velocity P-wave (km/s) = 5.85797 6.43453 6.15301
#
# Compressibility (1/GPa) = 0.02811201
#
# Stress axis : x y z
#
# Youngs Moduli (GPa) = 58.90895 66.29786 56.99876
#
# Poissons Ratio (x) = 0.16874 0.09256
# Poissons Ratio (y) = 0.14993 0.37485
# Poissons Ratio (z) = 0.09566 0.43601
#
# Static dielectric constant tensor:
#      x y z
#    x 3.673230 -0.044400 -0.067990 
#    y -0.044400 3.803570 -0.010440 
#    z -0.067990 -0.010440 3.830180 
# 
# 
# High freq. dielectric constant tensor:
#      x y z
#    x 1.799230 0.000900 0.001390 
#    y 0.000900 1.798520 -0.006320 
#    z 0.001390 -0.006320 1.799870 
# 
# From -- ./inp_files/46323.got.cif
#   From: 2010.06.25/outbox.cif.g09.slc.cpg/sg2_24_cif.got.tgz:46323.got - 2010.06.27 13:26:56.
