data_PCOD8011073
_publ_section_title
;
Structure prediction by ZEFSAII (Michael W. Deem and Ramdas Pophale) SiO2 
 PCOD8011073
Probable space group: P -1
;
_chemical_formula_sum "Si O2"
_cell_formula_units_Z 14
_cell_length_a 31.526778
_cell_length_b 30.628078
_cell_length_c 12.837391
_cell_angle_alpha 162.064452
_cell_angle_beta 18.669530
_cell_angle_gamma 170.864023
_cell_volume 597.834314
_symmetry_space_group_name_H-M "P -1"
_symmetry_group_IT_number 2
_symmetry_cell_setting 'triclinic'
loop_
_space_group_symop_operation_xyz
x,y,z
-x,-y,-z
loop_
_atom_site_type_symbol
_atom_site_label
_atom_site_fract_x
_atom_site_fract_y
_atom_site_fract_z
Si Si1 0.780273 0.103957 0.642783
Si Si2 0.322018 0.662366 0.556508
Si Si3 0.694995 0.325191 0.612236
Si Si4 0.708686 0.562516 0.449756
Si Si5 0.250868 0.327973 0.627326
Si Si6 0.835782 0.949733 0.342585
Si Si7 0.819318 0.344678 0.670800
O O1 0.067787 0.337423 0.452204
O O2 0.571331 0.839625 0.447507
O O3 0.760288 0.019687 0.612316
O O4 0.723297 0.214711 0.041150
O O5 0.370501 0.678948 0.359976
O O6 0.968375 0.483049 0.336344
O O7 0.427588 0.998015 0.535698
O O8 0.778958 0.534383 0.964793
O O9 0.713091 0.652110 0.535103
O O10 0.450423 0.380244 0.701334
O O11 0.680296 0.367534 0.056135
O O12 0.986740 0.850257 0.515784
O O13 0.500000 0.500000 0.500000
O O14 0.000000 0.000000 0.500000
O O15 0.000000 0.000000 0.000000
O O16 0.000000 0.500000 0.500000
#
# Coordination Sequence:
#
# PCOD8011073 Si02
#       7
#     2   2   2   2   2   2   2
#     4  10  21  40  63  96 135 172 230 285 346 398
#     4  10  21  38  66  96 134 176 219 287 349 409
#     4  12  25  43  70 107 142 184 234 284 360 427
#     4  12  26  47  74 102 142 185 234 304 358 403
#     4  12  28  47  69 100 147 191 234 282 347 438
#     4  12  27  46  71  99 139 189 245 288 346 422
#     4  12  24  42  75 106 145 176 234 297 356 420
#
# _framework density 23.417860000000001
#
# number of rings (size 3 to 8) (size 9 to 14) (size 15 to 20)
#    0.000    0.571    1.429    6.857    2.000    5.714 
#    0.000    0.000    0.000    0.000    0.000    0.000 
#    0.000    0.000    0.000    0.000    0.000    0.000 
#
# Total GULP energy -173653.005023 kJ/mol
# GULP energy per Si atom -12403.786073 kJ/mol
# Density = 2.336456 g / cm^3
# Si number density = 23.417860 Si / 1000 Ang^3
#
#
#
# Elastic Constant Matrix: (Units=GPa)
#
#
# Indices 1 2 3 4 5 6 
#
# 1 182.1245 68.8478 11.6063 -0.9573 3.5766 8.9938
# 2 68.8478 185.0978 20.3655 2.5603 -8.5804 -0.6276
# 3 11.6063 20.3655 48.8642 -2.4276 4.3791 -4.8626
# 4 -0.9573 2.5603 -2.4276 31.8163 0.6744 0.9588
# 5 3.5766 -8.5804 4.3791 0.6744 31.3585 -4.8506
# 6 8.9938 -0.6276 -4.8626 0.9588 -4.8506 54.1514
#
#
#
# Elastic Compliance Matrix: (Units=1/GPa)
#
#
# Indices 1 2 3 4 5 6 
#
# 1 0.006552 -0.002465 -0.000498 0.000430 -0.001564 -0.001309
# 2 -0.002465 0.006720 -0.002437 -0.000871 0.002558 0.000513
# 3 -0.000498 -0.002437 0.022174 0.001896 -0.003484 0.001700
# 4 0.000430 -0.000871 0.001896 0.031704 -0.001325 -0.000591
# 5 -0.001564 0.002558 -0.003484 -0.001325 0.033750 0.003023
# 6 -0.001309 0.000513 0.001700 -0.000591 0.003023 0.019124
#
#
# Mechanical properties :
#
#
# Convention : Reuss Voigt Hill
#
# Bulk Modulus (GPa) = 40.57228 68.63618 54.60423
# Shear Modulus (GPa) = 35.96114 44.48305 40.22209
#
# Velocity S-wave (km/s) = 3.92296 4.36309 4.14887
# Velocity P-wave (km/s) = 6.15487 7.39967 6.80579
#
# Compressibility (1/GPa) = 0.02464737
#
# Stress axis : x y z
#
# Youngs Moduli (GPa) = 152.62545 148.81063 45.09752
#
# Poissons Ratio (x) = 0.36685 0.02244
# Poissons Ratio (y) = 0.37625 0.10989
# Poissons Ratio (z) = 0.07594 0.36260
#
# Static dielectric constant tensor:
#      x y z
#    x 4.563940 0.173960 -0.083740 
#    y 0.173960 4.528010 0.005880 
#    z -0.083740 0.005880 4.146340 
# 
# 
# High freq. dielectric constant tensor:
#      x y z
#    x 1.947320 0.006930 -0.002840 
#    y 0.006930 1.943680 -0.002160 
#    z -0.002840 -0.002160 1.913760 
# 
# From -- ./inp_files/477844.got.cif
#   From: 2010.06.25/outbox.cif.g09.slc.cpg/sg2_239_cif.got.tgz:477844.got - 2010.06.27 13:26:56.
