data_PCOD8011446
_publ_section_title
;
Structure prediction by ZEFSAII (Michael W. Deem and Ramdas Pophale) SiO2 
 PCOD8011446
Probable space group: P -1
;
_chemical_formula_sum "Si O2"
_cell_formula_units_Z 16
_cell_length_a 11.481204
_cell_length_b 9.457866
_cell_length_c 15.110442
_cell_angle_alpha 137.910244
_cell_angle_beta 134.379911
_cell_angle_gamma 40.176776
_cell_volume 675.469475
_symmetry_space_group_name_H-M "P -1"
_symmetry_group_IT_number 2
_symmetry_cell_setting 'triclinic'
loop_
_space_group_symop_operation_xyz
x,y,z
-x,-y,-z
loop_
_atom_site_type_symbol
_atom_site_label
_atom_site_fract_x
_atom_site_fract_y
_atom_site_fract_z
Si Si1 0.112378 0.514756 0.683945
Si Si2 0.607908 0.578936 0.525643
Si Si3 0.514156 0.081283 0.645116
Si Si4 0.732685 0.973343 0.195600
Si Si5 0.019785 0.820971 0.618769
Si Si6 0.956393 0.491146 0.757254
Si Si7 0.670133 0.295401 0.713002
Si Si8 0.699681 0.739447 0.897982
O O1 0.327166 0.301189 0.690043
O O2 0.071076 0.753461 0.718070
O O3 0.980014 0.408152 0.531547
O O4 0.046540 0.605205 0.791558
O O5 0.500000 0.500000 0.500000
O O6 0.826793 0.410654 0.594581
O O7 0.534652 0.563255 0.381243
O O8 0.582484 0.854691 0.644175
O O9 0.653428 0.191286 0.751959
O O10 0.500000 0.000000 0.500000
O O11 0.860492 0.748349 0.221133
O O12 0.813401 0.157364 0.329492
O O13 0.518096 0.106554 0.179190
O O14 0.744569 0.893181 0.062518
O O15 0.818222 0.075573 0.624857
O O16 0.835741 0.679656 0.858625
O O17 0.740462 0.488713 0.852317
#
# Coordination Sequence:
#
# PCOD8011446 Si02
#       8
#     2   2   2   2   2   2   2   2
#     4  11  25  38  63 103 143 169 220 269 336 403
#     4  11  21  36  59  99 138 165 206 267 343 378
#     4  10  21  39  61  91 139 182 212 256 327 404
#     4  11  26  47  72  94 127 179 235 269 329 396
#     4  11  22  42  65 100 134 181 221 267 325 408
#     4  12  26  40  67 100 138 167 217 282 331 394
#     4  11  21  41  69  94 133 181 219 265 330 392
#     4  11  25  47  72  93 130 178 229 279 324 391
#
# _framework density 23.687232000000002
#
# number of rings (size 3 to 8) (size 9 to 14) (size 15 to 20)
#    0.000    1.000    5.000    1.875    8.750    0.500 
#    0.000    0.625    2.750    2.250    0.000    0.000 
#    0.000    0.000    0.000    0.000    0.000    0.000 
#
# Total GULP energy -198218.909507 kJ/mol
# GULP energy per Si atom -12388.681844 kJ/mol
# Density = 2.363332 g / cm^3
# Si number density = 23.687232 Si / 1000 Ang^3
#
#
#
# Elastic Constant Matrix: (Units=GPa)
#
#
# Indices 1 2 3 4 5 6 
#
# 1 130.0804 28.6685 -9.1029 -4.8438 -24.9074 1.4689
# 2 28.6685 98.6681 0.3389 -18.4541 -13.5693 -9.2728
# 3 -9.1029 0.3389 21.5260 2.2021 -0.7682 -3.6307
# 4 -4.8438 -18.4541 2.2021 27.3365 -8.5651 -2.7499
# 5 -24.9074 -13.5693 -0.7682 -8.5651 20.4446 -2.1727
# 6 1.4689 -9.2728 -3.6307 -2.7499 -2.1727 37.5608
#
#
#
# Elastic Compliance Matrix: (Units=1/GPa)
#
#
# Indices 1 2 3 4 5 6 
#
# 1 0.011734 0.000909 0.005093 0.008372 0.018806 0.001959
# 2 0.000909 0.016891 0.000078 0.018785 0.020906 0.006727
# 3 0.005093 0.000078 0.049768 0.000209 0.008761 0.005153
# 4 0.008372 0.018785 0.000209 0.068482 0.052682 0.012391
# 5 0.018806 0.020906 0.008761 0.052682 0.109744 0.015478
# 6 0.001959 0.006727 0.005153 0.012391 0.015478 0.030508
#
#
# Mechanical properties :
#
#
# Convention : Reuss Voigt Hill
#
# Bulk Modulus (GPa) = 11.04327 32.23149 21.63738
# Shear Modulus (GPa) = 16.38529 32.42638 24.40584
#
# Velocity S-wave (km/s) = 2.63294 3.70393 3.21337
# Velocity P-wave (km/s) = 3.73034 5.65056 4.78770
#
# Compressibility (1/GPa) = 0.09055287
#
# Stress axis : x y z
#
# Youngs Moduli (GPa) = 85.22192 59.20279 20.09314
#
# Poissons Ratio (x) = -0.05384 -0.10233
# Poissons Ratio (y) = -0.07750 -0.00156
# Poissons Ratio (z) = -0.43402 -0.00459
#
# Static dielectric constant tensor:
#      x y z
#    x 4.735910 0.283840 0.164160 
#    y 0.283840 4.644910 -0.020070 
#    z 0.164160 -0.020070 3.923460 
# 
# 
# High freq. dielectric constant tensor:
#      x y z
#    x 1.959060 -0.003320 0.003430 
#    y -0.003320 1.952550 -0.002600 
#    z 0.003430 -0.002600 1.881440 
# 
# From -- ./inp_files/516290.got.cif
#   From: 2010.06.25/outbox.cif.g09.slc.cpg/sg2_259_cif.got.tgz:516290.got - 2010.06.27 13:26:56.
