data_PCOD8011128
_publ_section_title
;
Structure prediction by ZEFSAII (Michael W. Deem and Ramdas Pophale) SiO2 
 PCOD8011128
Probable space group: P -1
;
_chemical_formula_sum "Si O2"
_cell_formula_units_Z 16
_cell_length_a 9.310573
_cell_length_b 15.284925
_cell_length_c 9.025307
_cell_angle_alpha 72.757673
_cell_angle_beta 94.240683
_cell_angle_gamma 142.479574
_cell_volume 717.859878
_symmetry_space_group_name_H-M "P -1"
_symmetry_group_IT_number 2
_symmetry_cell_setting 'triclinic'
loop_
_space_group_symop_operation_xyz
x,y,z
-x,-y,-z
loop_
_atom_site_type_symbol
_atom_site_label
_atom_site_fract_x
_atom_site_fract_y
_atom_site_fract_z
Si Si1 0.719667 0.335185 0.533493
Si Si2 0.396743 0.038117 0.801389
Si Si3 0.906989 0.745092 0.417765
Si Si4 0.603922 0.954532 0.861772
Si Si5 0.066545 0.177788 0.298631
Si Si6 0.468059 0.711196 0.777529
Si Si7 0.314658 0.476631 0.064365
Si Si8 0.579750 0.425944 0.658349
O O1 0.651356 0.200487 0.660701
O O2 0.645140 0.307891 0.371088
O O3 0.555426 0.317440 0.630093
O O4 0.000000 0.500000 0.500000
O O5 0.398433 0.928429 0.846454
O O6 0.186535 0.981223 0.717745
O O7 0.365309 0.055767 0.958650
O O8 0.955547 0.834784 0.518935
O O9 0.838057 0.606896 0.536262
O O10 0.664450 0.644572 0.359721
O O11 0.139102 0.872958 0.264783
O O12 0.511708 0.818742 0.835002
O O13 0.279400 0.215755 0.254743
O O14 0.090542 0.295736 0.183568
O O15 0.265702 0.534264 0.915368
O O16 0.421836 0.585005 0.159912
O O17 0.500000 0.500000 0.000000
#
# Coordination Sequence:
#
# PCOD8011128 Si02
#       8
#     2   2   2   2   2   2   2   2
#     4  12  26  44  69  95 135 174 222 272 332 396
#     4  11  27  46  64  99 136 175 222 272 336 393
#     4  10  21  38  67  96 130 174 214 272 323 383
#     4  11  26  44  66  96 135 177 220 272 335 395
#     4  10  22  42  68 100 136 169 219 279 320 395
#     4  11  24  42  69 101 128 178 224 270 330 395
#     4   9  21  39  64 100 134 169 215 271 330 380
#     4  10  21  39  64  98 131 168 224 265 322 392
#
# _framework density 22.288471000000001
#
# number of rings (size 3 to 8) (size 9 to 14) (size 15 to 20)
#    0.000    1.500    1.250    2.250    7.000    7.500 
#    0.000    1.875    0.000    0.000    0.000    0.000 
#    0.000    0.000    0.000    0.000    0.000    0.000 
#
# Total GULP energy -198276.399146 kJ/mol
# GULP energy per Si atom -12392.274947 kJ/mol
# Density = 2.223774 g / cm^3
# Si number density = 22.288471 Si / 1000 Ang^3
#
#
#
# Elastic Constant Matrix: (Units=GPa)
#
#
# Indices 1 2 3 4 5 6 
#
# 1 64.0268 38.2143 36.5685 10.6382 2.0232 -9.2389
# 2 38.2143 95.4359 47.9666 9.8814 -2.9520 -4.5503
# 3 36.5685 47.9666 152.1249 5.7903 -5.2582 -8.1912
# 4 10.6382 9.8814 5.7903 38.2492 -6.9273 -6.3218
# 5 2.0232 -2.9520 -5.2582 -6.9273 23.4320 -1.1236
# 6 -9.2389 -4.5503 -8.1912 -6.3218 -1.1236 40.0567
#
#
#
# Elastic Compliance Matrix: (Units=1/GPa)
#
#
# Indices 1 2 3 4 5 6 
#
# 1 0.023006 -0.007202 -0.003092 -0.004431 -0.004753 0.003023
# 2 -0.007202 0.014978 -0.002932 -0.001282 0.001437 -0.000721
# 3 -0.003092 -0.002932 0.008325 0.000872 0.002064 0.000852
# 4 -0.004431 -0.001282 0.000872 0.029951 0.009463 0.004003
# 5 -0.004753 0.001437 0.002064 0.009463 0.046639 0.002291
# 6 0.003023 -0.000721 0.000852 0.004003 0.002291 0.026450
#
#
# Mechanical properties :
#
#
# Convention : Reuss Voigt Hill
#
# Bulk Modulus (GPa) = 50.35932 61.89851 56.12891
# Shear Modulus (GPa) = 27.40911 32.93677 30.17294
#
# Velocity S-wave (km/s) = 3.51057 3.84832 3.68332
# Velocity P-wave (km/s) = 6.25105 6.89767 6.58231
#
# Compressibility (1/GPa) = 0.01985730
#
# Stress axis : x y z
#
# Youngs Moduli (GPa) = 43.46780 66.76290 120.11430
#
# Poissons Ratio (x) = 0.48081 0.37142
# Poissons Ratio (y) = 0.31304 0.35218
# Poissons Ratio (z) = 0.13441 0.19575
#
# Static dielectric constant tensor:
#      x y z
#    x 3.924970 -0.316100 0.078690 
#    y -0.316100 4.145980 -0.226160 
#    z 0.078690 -0.226160 4.374070 
# 
# 
# High freq. dielectric constant tensor:
#      x y z
#    x 1.868270 -0.013690 -0.001160 
#    y -0.013690 1.877450 -0.001020 
#    z -0.001160 -0.001020 1.894720 
# 
# From -- ./inp_files/206460.got.cif
#   From: 2010.06.25/outbox.cif.g09.slc.cpg/sg2_104_cif.got.tgz:206460.got - 2010.06.27 13:26:56.
