data_PCOD8011831
_publ_section_title
;
Structure prediction by ZEFSAII (Michael W. Deem and Ramdas Pophale) SiO2 
 PCOD8011831
Probable space group: P -1
;
_chemical_formula_sum "Si O2"
_cell_formula_units_Z 14
_cell_length_a 14.737359
_cell_length_b 11.282104
_cell_length_c 9.026216
_cell_angle_alpha 103.694613
_cell_angle_beta 71.432553
_cell_angle_gamma 150.585032
_cell_volume 696.047063
_symmetry_space_group_name_H-M "P -1"
_symmetry_group_IT_number 2
_symmetry_cell_setting 'triclinic'
loop_
_space_group_symop_operation_xyz
x,y,z
-x,-y,-z
loop_
_atom_site_type_symbol
_atom_site_label
_atom_site_fract_x
_atom_site_fract_y
_atom_site_fract_z
Si Si1 0.474261 0.756093 0.788565
Si Si2 0.139933 0.200697 0.282036
Si Si3 0.171067 0.967068 0.176632
Si Si4 0.082520 0.685906 0.895445
Si Si5 0.248043 0.543262 0.144312
Si Si6 0.538056 0.009893 0.314686
Si Si7 0.185669 0.312473 0.612558
O O1 0.479919 0.892567 0.749841
O O2 0.377219 0.547867 0.673123
O O3 0.688601 0.949828 0.762772
O O4 0.363678 0.645278 0.966315
O O5 0.157156 0.315163 0.174630
O O6 0.237567 0.361975 0.427225
O O7 0.241496 0.184588 0.178699
O O8 0.915774 0.925776 0.351887
O O9 0.962299 0.738373 0.295083
O O10 0.159511 0.889641 0.001014
O O11 0.251451 0.813056 0.751781
O O12 0.918982 0.543812 0.823441
O O13 0.000000 0.500000 0.000000
O O14 0.384868 0.743154 0.260364
O O15 0.500000 0.000000 0.500000
#
# Coordination Sequence:
#
# PCOD8011831 Si02
#       7
#     2   2   2   2   2   2   2
#     4  12  22  39  69  89 122 171 207 261 316 364
#     4   9  22  42  61  95 130 161 205 262 311 375
#     4  10  21  39  64  93 122 163 208 252 311 376
#     4  12  23  42  68  93 124 170 214 260 314 373
#     4  12  23  41  68  92 126 167 211 259 316 375
#     4  12  27  44  62  98 130 160 216 269 312 374
#     4   9  20  43  60  92 133 157 207 260 310 372
#
# _framework density 20.113582000000001
#
# number of rings (size 3 to 8) (size 9 to 14) (size 15 to 20)
#    0.857    0.286    4.286    2.143    0.000    5.143 
#    2.571    0.000    0.000    0.000    0.000    0.000 
#    0.000    0.000    0.000    0.000    0.000    0.000 
#
# Total GULP energy -173601.570256 kJ/mol
# GULP energy per Si atom -12400.112161 kJ/mol
# Density = 2.006780 g / cm^3
# Si number density = 20.113582 Si / 1000 Ang^3
#
#
#
# Elastic Constant Matrix: (Units=GPa)
#
#
# Indices 1 2 3 4 5 6 
#
# 1 99.7302 23.7589 30.5175 -17.6081 1.9509 -3.4583
# 2 23.7589 66.6461 28.1797 5.0893 1.3602 4.6846
# 3 30.5175 28.1797 114.1163 -3.7165 -6.9248 -4.4532
# 4 -17.6081 5.0893 -3.7165 34.6544 -1.9635 3.7553
# 5 1.9509 1.3602 -6.9248 -1.9635 25.9229 -3.2159
# 6 -3.4583 4.6846 -4.4532 3.7553 -3.2159 42.6219
#
#
#
# Elastic Compliance Matrix: (Units=1/GPa)
#
#
# Indices 1 2 3 4 5 6 
#
# 1 0.012962 -0.004236 -0.002218 0.006860 -0.000749 0.000625
# 2 -0.004236 0.018799 -0.003925 -0.005196 -0.002426 -0.002545
# 3 -0.002218 -0.003925 0.010616 0.000614 0.003450 0.001567
# 4 0.006860 -0.005196 0.000614 0.033471 0.002259 -0.001587
# 5 -0.000749 -0.002426 0.003450 0.002259 0.040275 0.003406
# 6 0.000625 -0.002545 0.001567 -0.001587 0.003406 0.024353
#
#
# Mechanical properties :
#
#
# Convention : Reuss Voigt Hill
#
# Bulk Modulus (GPa) = 46.25427 49.48944 47.87185
# Shear Modulus (GPa) = 29.68396 33.84228 31.76312
#
# Velocity S-wave (km/s) = 3.84580 4.10635 3.97821
# Velocity P-wave (km/s) = 6.53963 6.86595 6.70477
#
# Compressibility (1/GPa) = 0.02161962
#
# Stress axis : x y z
#
# Youngs Moduli (GPa) = 77.14611 53.19295 94.19788
#
# Poissons Ratio (x) = 0.22531 0.20895
# Poissons Ratio (y) = 0.32676 0.36976
# Poissons Ratio (z) = 0.17112 0.20880
#
# Static dielectric constant tensor:
#      x y z
#    x 3.818000 0.045980 0.134910 
#    y 0.045980 3.727250 0.186600 
#    z 0.134910 0.186600 3.880860 
# 
# 
# High freq. dielectric constant tensor:
#      x y z
#    x 1.779550 -0.002210 -0.005570 
#    y -0.002210 1.786680 0.015080 
#    z -0.005570 0.015080 1.785990 
# 
# From -- ./inp_files/307973.got.cif
#   From: 2010.06.25/outbox.cif.g09.slc.cpg/sg2_154_cif.got.tgz:307973.got - 2010.06.27 13:26:56.
