data_PCOD8011235
_publ_section_title
;
Structure prediction by ZEFSAII (Michael W. Deem and Ramdas Pophale) SiO2 
 PCOD8011235
Probable space group: P -1
;
_chemical_formula_sum "Si O2"
_cell_formula_units_Z 16
_cell_length_a 12.687789
_cell_length_b 8.781603
_cell_length_c 8.997481
_cell_angle_alpha 90.215668
_cell_angle_beta 128.561078
_cell_angle_gamma 83.289816
_cell_volume 775.437007
_symmetry_space_group_name_H-M "P -1"
_symmetry_group_IT_number 2
_symmetry_cell_setting 'triclinic'
loop_
_space_group_symop_operation_xyz
x,y,z
-x,-y,-z
loop_
_atom_site_type_symbol
_atom_site_label
_atom_site_fract_x
_atom_site_fract_y
_atom_site_fract_z
Si Si1 0.060276 0.941590 0.895471
Si Si2 0.324826 0.608380 0.541144
Si Si3 0.832470 0.787859 0.172738
Si Si4 0.588185 0.739903 0.464267
Si Si5 0.389929 0.343148 0.187173
Si Si6 0.160270 0.198075 0.467088
Si Si7 0.060318 0.533741 0.397776
Si Si8 0.299296 0.693657 0.190799
O O1 0.932922 0.920453 0.678555
O O2 0.145416 0.060556 0.893969
O O3 0.164308 0.783438 0.997379
O O4 0.000000 0.000000 0.000000
O O5 0.386817 0.435646 0.560995
O O6 0.450655 0.680890 0.723137
O O7 0.196071 0.616056 0.538934
O O8 0.270773 0.689686 0.341458
O O9 0.840413 0.811922 0.356042
O O10 0.947218 0.650406 0.212496
O O11 0.686514 0.740145 0.006283
O O12 0.619513 0.748263 0.667040
O O13 0.684843 0.841986 0.459743
O O14 0.428022 0.788918 0.284247
O O15 0.326201 0.522680 0.144386
O O16 0.101864 0.369426 0.352680
O O17 0.000000 0.500000 0.500000
#
# Coordination Sequence:
#
# PCOD8011235 Si02
#       8
#     2   2   2   2   2   2   2   2
#     4  12  24  37  54  79 108 145 183 219 265 320
#     4   8  15  31  56  84 109 134 175 226 266 305
#     4  11  22  36  53  82 113 142 176 218 267 321
#     4   8  16  34  59  81 104 137 180 224 265 308
#     4   9  17  34  60  84 105 136 179 224 265 313
#     4  10  21  39  56  76 109 144 177 223 269 314
#     4   9  18  34  56  80 107 142 177 214 265 318
#     4   9  18  35  58  82 107 138 178 224 266 313
#
# _framework density 20.633527000000001
#
# number of rings (size 3 to 8) (size 9 to 14) (size 15 to 20)
#    0.000    2.500    0.000    4.125    0.000    0.000 
#    0.000   25.000    0.000    0.000    0.000    0.000 
#    0.000    0.000    0.000    0.000    0.000    0.000 
#
# Total GULP energy -198287.623177 kJ/mol
# GULP energy per Si atom -12392.976449 kJ/mol
# Density = 2.058656 g / cm^3
# Si number density = 20.633527 Si / 1000 Ang^3
#
#
#
# Elastic Constant Matrix: (Units=GPa)
#
#
# Indices 1 2 3 4 5 6 
#
# 1 132.5889 26.8361 52.3079 8.9301 16.1647 27.5613
# 2 26.8361 54.7877 33.9167 7.0970 2.0944 21.6567
# 3 52.3079 33.9167 125.6616 27.8189 8.2716 17.6964
# 4 8.9301 7.0970 27.8189 31.3019 6.7226 2.3308
# 5 16.1647 2.0944 8.2716 6.7226 26.8136 8.4158
# 6 27.5613 21.6567 17.6964 2.3308 8.4158 22.8859
#
#
#
# Elastic Compliance Matrix: (Units=1/GPa)
#
#
# Indices 1 2 3 4 5 6 
#
# 1 0.011223 0.000877 -0.003438 0.001026 -0.002634 -0.010823
# 2 0.000877 0.033576 -0.004797 -0.003185 0.009230 -0.032189
# 3 -0.003438 -0.004797 0.012807 -0.009498 0.001083 -0.000655
# 4 0.001026 -0.003185 -0.009498 0.042493 -0.010851 0.008784
# 5 -0.002634 0.009230 0.001083 -0.010851 0.047717 -0.022841
# 6 -0.010823 -0.032189 -0.000655 0.008784 -0.022841 0.095200
#
#
# Mechanical properties :
#
#
# Convention : Reuss Voigt Hill
#
# Bulk Modulus (GPa) = 23.31529 59.90661 41.61095
# Shear Modulus (GPa) = 18.38047 29.53213 23.95630
#
# Velocity S-wave (km/s) = 2.98788 3.78732 3.41110
# Velocity P-wave (km/s) = 4.81949 6.94418 5.97700
#
# Compressibility (1/GPa) = 0.04289030
#
# Stress axis : x y z
#
# Youngs Moduli (GPa) = 89.10541 29.78336 78.08193
#
# Poissons Ratio (x) = -0.02612 0.26844
# Poissons Ratio (y) = -0.07815 0.37453
# Poissons Ratio (z) = 0.30634 0.14286
#
# Static dielectric constant tensor:
#      x y z
#    x 4.297090 0.173040 0.424810 
#    y 0.173040 3.744020 -0.115840 
#    z 0.424810 -0.115840 3.633490 
# 
# 
# High freq. dielectric constant tensor:
#      x y z
#    x 1.813090 0.016260 0.023400 
#    y 0.016260 1.784300 -0.001670 
#    z 0.023400 -0.001670 1.795010 
# 
# From -- ./inp_files/158697.got.cif
#   From: 2010.06.25/outbox.cif.g09.slc.cpg/sg2_80_cif.got.tgz:158697.got - 2010.06.27 13:26:56.
