data_PCOD8011145
_publ_section_title
;
Structure prediction by ZEFSAII (Michael W. Deem and Ramdas Pophale) SiO2 
 PCOD8011145
Probable space group: P -1
;
_chemical_formula_sum "Si O2"
_cell_formula_units_Z 14
_cell_length_a 9.958250
_cell_length_b 12.642415
_cell_length_c 8.816182
_cell_angle_alpha 104.860446
_cell_angle_beta 115.403205
_cell_angle_gamma 124.976532
_cell_volume 603.308905
_symmetry_space_group_name_H-M "P -1"
_symmetry_group_IT_number 2
_symmetry_cell_setting 'triclinic'
loop_
_space_group_symop_operation_xyz
x,y,z
-x,-y,-z
loop_
_atom_site_type_symbol
_atom_site_label
_atom_site_fract_x
_atom_site_fract_y
_atom_site_fract_z
Si Si1 0.358295 0.686656 0.498766
Si Si2 0.484043 0.364650 0.979868
Si Si3 0.847000 0.589784 0.500702
Si Si4 0.368411 0.913714 0.748928
Si Si5 0.786384 0.760185 0.732559
Si Si6 0.020052 0.081024 0.813933
Si Si7 0.478933 0.173421 0.677734
O O1 0.124545 0.494953 0.394832
O O2 0.437746 0.836800 0.688383
O O3 0.558435 0.707811 0.610732
O O4 0.319523 0.708245 0.315200
O O5 0.208929 0.179630 0.808369
O O6 0.542216 0.321330 0.850182
O O7 0.500000 0.500000 0.000000
O O8 0.655392 0.436422 0.229555
O O9 0.733020 0.625049 0.552320
O O10 0.085217 0.760052 0.588244
O O11 0.478524 0.068784 0.748022
O O12 0.500000 0.000000 0.000000
O O13 0.878058 0.778864 0.952700
O O14 0.002554 0.950037 0.828239
O O15 0.772532 0.978205 0.587090
#
# Coordination Sequence:
#
# PCOD8011145 Si02
#       7
#     2   2   2   2   2   2   2
#     4  11  24  46  68 105 138 176 232 283 340 400
#     4  12  23  39  66 106 143 174 221 290 344 399
#     4  12  25  44  72 102 138 178 230 282 350 396
#     4  12  28  49  70  94 139 191 232 272 339 422
#     4  10  22  40  73 104 133 176 225 286 335 403
#     4  10  21  38  68 101 141 169 228 270 345 396
#     4  11  25  44  69 100 139 184 228 276 339 410
#
# _framework density 23.205359999999999
#
# number of rings (size 3 to 8) (size 9 to 14) (size 15 to 20)
#    0.000    0.857    1.429    6.000    8.000    0.000 
#    0.000    1.429    0.000    0.000    0.000    0.000 
#    0.000    0.000    0.000    0.000    0.000    0.000 
#
# Total GULP energy -173516.627266 kJ/mol
# GULP energy per Si atom -12394.044805 kJ/mol
# Density = 2.315254 g / cm^3
# Si number density = 23.205360 Si / 1000 Ang^3
#
#
#
# Elastic Constant Matrix: (Units=GPa)
#
#
# Indices 1 2 3 4 5 6 
#
# 1 86.9688 35.6400 31.1301 1.2581 -33.4490 -4.7670
# 2 35.6400 172.4328 23.4101 -10.4626 -16.5838 1.2837
# 3 31.1301 23.4101 99.1723 -12.7776 -25.1638 -3.0438
# 4 1.2581 -10.4626 -12.7776 35.2979 0.3228 -6.0277
# 5 -33.4490 -16.5838 -25.1638 0.3228 43.5544 2.7417
# 6 -4.7670 1.2837 -3.0438 -6.0277 2.7417 32.5163
#
#
#
# Elastic Compliance Matrix: (Units=1/GPa)
#
#
# Indices 1 2 3 4 5 6 
#
# 1 0.017776 -0.002400 -0.002383 -0.002118 0.011305 0.001132
# 2 -0.002400 0.006506 -0.000469 0.001780 0.000372 -0.000354
# 3 -0.002383 -0.000469 0.012964 0.004816 0.005362 0.001323
# 4 -0.002118 0.001780 0.004816 0.031662 0.001232 0.005836
# 5 0.011305 0.000372 0.005362 0.001232 0.034908 -0.000570
# 6 0.001132 -0.000354 0.001323 0.005836 -0.000570 0.032187
#
#
# Mechanical properties :
#
#
# Convention : Reuss Voigt Hill
#
# Bulk Modulus (GPa) = 37.39657 59.88159 48.63908
# Shear Modulus (GPa) = 32.17068 40.16664 36.16866
#
# Velocity S-wave (km/s) = 3.72741 4.16495 3.95224
# Velocity P-wave (km/s) = 5.88857 6.99930 6.46782
#
# Compressibility (1/GPa) = 0.02674042
#
# Stress axis : x y z
#
# Youngs Moduli (GPa) = 56.25681 153.71438 77.13716
#
# Poissons Ratio (x) = 0.36894 0.18379
# Poissons Ratio (y) = 0.13503 0.03621
# Poissons Ratio (z) = 0.13404 0.07217
#
# Static dielectric constant tensor:
#      x y z
#    x 3.899560 0.520510 -0.317170 
#    y 0.520510 5.174930 -0.044560 
#    z -0.317170 -0.044560 4.200530 
# 
# 
# High freq. dielectric constant tensor:
#      x y z
#    x 1.902340 0.014200 -0.027220 
#    y 0.014200 1.942760 0.001380 
#    z -0.027220 0.001380 1.914700 
# 
# From -- ./inp_files/189490.got.cif
#   From: 2010.06.25/outbox.cif.g09.slc.cpg/sg2_95_cif.got.tgz:189490.got - 2010.06.27 13:26:56.
