data_PCOD8011197
_publ_section_title
;
Structure prediction by ZEFSAII (Michael W. Deem and Ramdas Pophale) SiO2 
 PCOD8011197
Probable space group: P -1
;
_chemical_formula_sum "Si O2"
_cell_formula_units_Z 16
_cell_length_a 8.598945
_cell_length_b 15.290055
_cell_length_c 9.167435
_cell_angle_alpha 144.303624
_cell_angle_beta 104.728826
_cell_angle_gamma 86.877175
_cell_volume 655.042732
_symmetry_space_group_name_H-M "P -1"
_symmetry_group_IT_number 2
_symmetry_cell_setting 'triclinic'
loop_
_space_group_symop_operation_xyz
x,y,z
-x,-y,-z
loop_
_atom_site_type_symbol
_atom_site_label
_atom_site_fract_x
_atom_site_fract_y
_atom_site_fract_z
Si Si1 0.920619 0.841936 0.962316
Si Si2 0.044343 0.814587 0.638593
Si Si3 0.556749 0.697737 0.755900
Si Si4 0.252157 0.870402 0.235351
Si Si5 0.284445 0.386475 0.821585
Si Si6 0.667779 0.321423 0.577139
Si Si7 0.536803 0.018073 0.298863
Si Si8 0.425244 0.602362 0.903577
O O1 0.752890 0.712518 0.795504
O O2 0.994045 0.791180 0.763348
O O3 0.056956 0.849975 0.132956
O O4 0.879836 0.006798 0.148598
O O5 0.177310 0.718423 0.517182
O O6 0.887370 0.745532 0.402604
O O7 0.443112 0.617206 0.483734
O O8 0.482366 0.589774 0.732078
O O9 0.535527 0.870414 0.000717
O O10 0.301682 0.949314 0.511790
O O11 0.361721 0.984798 0.296657
O O12 0.292900 0.703515 0.015345
O O13 0.349137 0.433634 0.734218
O O14 0.263718 0.543262 0.105748
O O15 0.412695 0.314371 0.845950
O O16 0.543984 0.168525 0.409549
#
# Coordination Sequence:
#
# PCOD8011197 Si02
#       8
#     2   2   2   2   2   2   2   2
#     4  11  26  42  71 106 142 173 225 298 344 405
#     4  11  26  45  68 106 139 181 229 282 351 404
#     4  11  25  43  71 105 138 179 233 287 343 399
#     4  10  22  40  68 103 139 179 225 286 352 394
#     4  11  26  46  76  95 140 187 234 276 337 421
#     4  12  24  47  71 101 140 185 230 279 345 413
#     4  10  21  38  70 100 136 180 226 284 342 409
#     4  10  24  47  69 103 133 186 230 280 338 413
#
# _framework density 24.425885999999998
#
# number of rings (size 3 to 8) (size 9 to 14) (size 15 to 20)
#    0.000    1.250    2.500    2.250   12.250    2.000 
#    2.250    1.250    0.000    0.000    0.000    0.000 
#    0.000    0.000    0.000    0.000    0.000    0.000 
#
# Total GULP energy -198456.499423 kJ/mol
# GULP energy per Si atom -12403.531214 kJ/mol
# Density = 2.437029 g / cm^3
# Si number density = 24.425886 Si / 1000 Ang^3
#
#
#
# Elastic Constant Matrix: (Units=GPa)
#
#
# Indices 1 2 3 4 5 6 
#
# 1 113.3635 29.7215 20.1358 -14.8880 16.6738 -3.9099
# 2 29.7215 92.2565 34.9474 -8.5227 3.8215 12.9043
# 3 20.1358 34.9474 47.7717 -18.6115 -1.3524 2.7925
# 4 -14.8880 -8.5227 -18.6115 33.3734 -8.6732 -2.2667
# 5 16.6738 3.8215 -1.3524 -8.6732 43.1312 -5.6560
# 6 -3.9099 12.9043 2.7925 -2.2667 -5.6560 41.1955
#
#
#
# Elastic Compliance Matrix: (Units=1/GPa)
#
#
# Indices 1 2 3 4 5 6 
#
# 1 0.010681 -0.002607 -0.001885 0.002307 -0.003279 0.001635
# 2 -0.002607 0.017040 -0.013157 -0.005204 -0.002662 -0.005345
# 3 -0.001885 -0.013157 0.039073 0.019783 0.007546 0.003418
# 4 0.002307 -0.005204 0.019783 0.043445 0.009476 0.004199
# 5 -0.003279 -0.002662 0.007546 0.009476 0.027394 0.004294
# 6 0.001635 -0.005345 0.003418 0.004199 0.004294 0.026693
#
#
# Mechanical properties :
#
#
# Convention : Reuss Voigt Hill
#
# Bulk Modulus (GPa) = 31.74867 47.00011 39.37439
# Shear Modulus (GPa) = 23.79562 34.77918 29.28740
#
# Velocity S-wave (km/s) = 3.12460 3.77751 3.46646
# Velocity P-wave (km/s) = 5.10330 6.18949 5.67245
#
# Compressibility (1/GPa) = 0.03149738
#
# Stress axis : x y z
#
# Youngs Moduli (GPa) = 93.62399 58.68385 25.59282
#
# Poissons Ratio (x) = 0.15298 0.04823
# Poissons Ratio (y) = 0.24406 0.33673
# Poissons Ratio (z) = 0.17644 0.77212
#
# Static dielectric constant tensor:
#      x y z
#    x 4.323890 0.125830 -0.053020 
#    y 0.125830 4.319490 -0.122030 
#    z -0.053020 -0.122030 4.465590 
# 
# 
# High freq. dielectric constant tensor:
#      x y z
#    x 1.966120 -0.001090 -0.012800 
#    y -0.001090 1.977600 0.000180 
#    z -0.012800 0.000180 1.982180 
# 
# From -- ./inp_files/209549.got.cif
#   From: 2010.06.25/outbox.cif.g09.slc.cpg/sg2_105_cif.got.tgz:209549.got - 2010.06.27 13:26:56.
