data_PCOD8011671
_publ_section_title
;
Structure prediction by ZEFSAII (Michael W. Deem and Ramdas Pophale) SiO2 
 PCOD8011671
Probable space group: P -1
;
_chemical_formula_sum "Si O2"
_cell_formula_units_Z 16
_cell_length_a 17.233129
_cell_length_b 7.293809
_cell_length_c 11.700995
_cell_angle_alpha 128.193341
_cell_angle_beta 133.296403
_cell_angle_gamma 74.001963
_cell_volume 812.477003
_symmetry_space_group_name_H-M "P -1"
_symmetry_group_IT_number 2
_symmetry_cell_setting 'triclinic'
loop_
_space_group_symop_operation_xyz
x,y,z
-x,-y,-z
loop_
_atom_site_type_symbol
_atom_site_label
_atom_site_fract_x
_atom_site_fract_y
_atom_site_fract_z
Si Si1 0.712349 0.638270 0.736738
Si Si2 0.262320 0.110169 0.686511
Si Si3 0.387600 0.525924 0.844226
Si Si4 0.411866 0.753539 0.710963
Si Si5 0.645344 0.997128 0.942852
Si Si6 0.030931 0.749350 0.265847
Si Si7 0.200199 0.246051 0.899364
Si Si8 0.951867 0.771341 0.943000
O O1 0.638304 0.403597 0.510724
O O2 0.644287 0.844378 0.764234
O O3 0.822530 0.751148 0.819804
O O4 0.747817 0.562450 0.871724
O O5 0.354757 0.970372 0.754771
O O6 0.145403 0.920850 0.486397
O O7 0.296493 0.269985 0.668409
O O8 0.253321 0.307858 0.851468
O O9 0.395222 0.586670 0.741756
O O10 0.500000 0.500000 0.000000
O O11 0.353802 0.726825 0.966637
O O12 0.540838 0.867257 0.865656
O O13 0.760922 0.997093 0.123052
O O14 0.032750 0.475437 0.191162
O O15 0.931520 0.805621 0.259608
O O16 0.016696 0.804766 0.140483
O O17 0.000000 0.000000 0.000000
#
# Coordination Sequence:
#
# PCOD8011671 Si02
#       8
#     2   2   2   2   2   2   2   2
#     4   9  21  39  65  91 121 169 202 250 323 355
#     4  12  23  39  68  93 124 165 209 260 303 376
#     4  12  25  40  64  95 122 167 212 250 317 377
#     4  12  21  42  66  91 127 161 209 265 305 370
#     4  10  21  42  63  86 128 163 205 255 318 355
#     4  10  22  40  62  94 124 164 214 245 310 379
#     4   9  21  42  62  88 129 168 198 259 316 358
#     4  10  21  39  63  91 130 166 199 258 314 361
#
# _framework density 19.692864
#
# number of rings (size 3 to 8) (size 9 to 14) (size 15 to 20)
#    0.750    0.750    3.750    1.875    1.750    1.000 
#    0.000    2.500    0.000    0.000    0.000    0.000 
#    0.000    0.000    0.000    0.000    0.000    0.000 
#
# Total GULP energy -198210.157565 kJ/mol
# GULP energy per Si atom -12388.134848 kJ/mol
# Density = 1.964804 g / cm^3
# Si number density = 19.692864 Si / 1000 Ang^3
#
#
#
# Elastic Constant Matrix: (Units=GPa)
#
#
# Indices 1 2 3 4 5 6 
#
# 1 136.9359 64.9704 36.5719 4.5682 8.5056 -26.1659
# 2 64.9704 121.2192 35.9687 8.5070 9.4044 3.4624
# 3 36.5719 35.9687 72.3647 3.6847 2.5861 -4.7370
# 4 4.5682 8.5070 3.6847 20.3348 -0.8769 0.6459
# 5 8.5056 9.4044 2.5861 -0.8769 28.0511 -5.0675
# 6 -26.1659 3.4624 -4.7370 0.6459 -5.0675 28.1448
#
#
#
# Elastic Compliance Matrix: (Units=1/GPa)
#
#
# Indices 1 2 3 4 5 6 
#
# 1 0.013924 -0.007130 -0.002635 -0.000061 0.000854 0.013534
# 2 -0.007130 0.013986 -0.003658 -0.003455 -0.004034 -0.009612
# 3 -0.002635 -0.003658 0.017062 -0.000975 0.000603 0.001003
# 4 -0.000061 -0.003455 -0.000975 0.050947 0.002775 -0.000465
# 5 0.000854 -0.004034 0.000603 0.002775 0.038258 0.008217
# 6 0.013534 -0.009612 0.001003 -0.000465 0.008217 0.050954
#
#
# Mechanical properties :
#
#
# Convention : Reuss Voigt Hill
#
# Bulk Modulus (GPa) = 55.16194 67.28244 61.22219
# Shear Modulus (GPa) = 22.93370 28.17339 25.55354
#
# Velocity S-wave (km/s) = 3.41628 3.78648 3.60614
# Velocity P-wave (km/s) = 6.60555 7.30457 6.96383
#
# Compressibility (1/GPa) = 0.01812844
#
# Stress axis : x y z
#
# Youngs Moduli (GPa) = 71.81719 71.49885 58.60901
#
# Poissons Ratio (x) = 0.50977 0.15442
# Poissons Ratio (y) = 0.51204 0.21437
# Poissons Ratio (z) = 0.18922 0.26151
#
# Static dielectric constant tensor:
#      x y z
#    x 3.984070 -0.149350 -0.096140 
#    y -0.149350 3.479720 -0.033940 
#    z -0.096140 -0.033940 3.520420 
# 
# 
# High freq. dielectric constant tensor:
#      x y z
#    x 1.787620 -0.017230 -0.000150 
#    y -0.017230 1.743320 -0.006830 
#    z -0.000150 -0.006830 1.761200 
# 
# From -- ./inp_files/459629.got.cif
#   From: 2010.06.25/outbox.cif.g09.slc.cpg/sg2_230_cif.got.tgz:459629.got - 2010.06.27 13:26:56.
