data_PCOD8011688
_publ_section_title
;
Structure prediction by ZEFSAII (Michael W. Deem and Ramdas Pophale) SiO2 
 PCOD8011688
Probable space group: P -1
;
_chemical_formula_sum "Si O2"
_cell_formula_units_Z 12
_cell_length_a 12.006517
_cell_length_b 8.904552
_cell_length_c 13.938932
_cell_angle_alpha 134.684731
_cell_angle_beta 149.719434
_cell_angle_gamma 53.871648
_cell_volume 533.611164
_symmetry_space_group_name_H-M "P -1"
_symmetry_group_IT_number 2
_symmetry_cell_setting 'triclinic'
loop_
_space_group_symop_operation_xyz
x,y,z
-x,-y,-z
loop_
_atom_site_type_symbol
_atom_site_label
_atom_site_fract_x
_atom_site_fract_y
_atom_site_fract_z
Si Si1 0.403601 0.381981 0.467843
Si Si2 0.012736 0.368405 0.298243
Si Si3 0.782637 0.720017 0.396600
Si Si4 0.370138 0.965281 0.154052
Si Si5 0.135927 0.979656 0.687559
Si Si6 0.552763 0.749657 0.849057
O O1 0.500000 0.500000 0.500000
O O2 0.148756 0.428224 0.328230
O O3 0.559807 0.499278 0.718088
O O4 0.412457 0.129972 0.348577
O O5 0.202539 0.351162 0.514029
O O6 0.847445 0.544509 0.287915
O O7 0.873297 0.147745 0.076662
O O8 0.541314 0.783575 0.214590
O O9 0.959647 0.918588 0.611199
O O10 0.404054 0.091556 0.137021
O O11 0.309229 0.794624 0.727659
O O12 0.263771 0.200815 0.910563
O O13 0.000000 0.000000 0.500000
#
# Coordination Sequence:
#
# PCOD8011688 Si02
#       6
#     2   2   2   2   2   2
#     4  10  23  43  66  91 127 174 210 253 318 381
#     4  11  23  43  64  91 133 165 211 265 315 372
#     4  11  23  38  66  98 124 165 215 264 318 368
#     4  11  22  41  65  94 128 168 210 257 317 380
#     4  11  20  37  66  93 125 164 211 263 312 367
#     4  10  21  39  63  92 128 163 210 259 310 372
#
# _framework density 22.488284
#
# number of rings (size 3 to 8) (size 9 to 14) (size 15 to 20)
#    0.000    1.333    5.000    1.000    0.000    0.667 
#    3.000    2.500    0.000    0.000    0.000    0.000 
#    0.000    0.000    0.000    0.000    0.000    0.000 
#
# Total GULP energy -148658.427445 kJ/mol
# GULP energy per Si atom -12388.202287 kJ/mol
# Density = 2.243710 g / cm^3
# Si number density = 22.488284 Si / 1000 Ang^3
#
#
#
# Elastic Constant Matrix: (Units=GPa)
#
#
# Indices 1 2 3 4 5 6 
#
# 1 111.5673 28.5614 49.9320 4.2208 11.3737 -11.0478
# 2 28.5614 74.8548 46.3009 4.8401 -14.4384 -8.6413
# 3 49.9320 46.3009 142.7880 9.5826 -19.7966 -8.9903
# 4 4.2208 4.8401 9.5826 35.5150 -5.1495 -9.1191
# 5 11.3737 -14.4384 -19.7966 -5.1495 41.1618 8.0999
# 6 -11.0478 -8.6413 -8.9903 -9.1191 8.0999 21.9804
#
#
#
# Elastic Compliance Matrix: (Units=1/GPa)
#
#
# Indices 1 2 3 4 5 6 
#
# 1 0.013190 -0.003175 -0.004317 0.000615 -0.008107 0.006859
# 2 -0.003175 0.018235 -0.003994 0.000258 0.004947 0.002224
# 3 -0.004317 -0.003994 0.010486 -0.001542 0.005024 -0.001942
# 4 0.000615 0.000258 -0.001542 0.031832 0.000653 0.012746
# 5 -0.008107 0.004947 0.005024 0.000653 0.033132 -0.012013
# 6 0.006859 0.002224 -0.001942 0.012746 -0.012013 0.058737
#
#
# Mechanical properties :
#
#
# Convention : Reuss Voigt Hill
#
# Bulk Modulus (GPa) = 52.79693 64.31097 58.55395
# Shear Modulus (GPa) = 25.65460 33.35917 29.50689
#
# Velocity S-wave (km/s) = 3.38124 3.85567 3.62622
# Velocity P-wave (km/s) = 6.22673 6.96285 6.60505
#
# Compressibility (1/GPa) = 0.01894049
#
# Stress axis : x y z
#
# Youngs Moduli (GPa) = 75.81445 54.83832 95.36695
#
# Poissons Ratio (x) = 0.17409 0.41165
# Poissons Ratio (y) = 0.24068 0.38093
# Poissons Ratio (z) = 0.32725 0.21904
#
# Static dielectric constant tensor:
#      x y z
#    x 4.654450 0.073860 0.153330 
#    y 0.073860 3.893630 0.547060 
#    z 0.153330 0.547060 4.529890 
# 
# 
# High freq. dielectric constant tensor:
#      x y z
#    x 1.892610 -0.005260 0.007550 
#    y -0.005260 1.842450 0.025440 
#    z 0.007550 0.025440 1.908720 
# 
# From -- ./inp_files/101447.got.cif
#   From: 2010.06.25/outbox.cif.g09.slc.cpg/sg2_51_cif.got.tgz:101447.got - 2010.06.27 13:26:56.
