data_PCOD8011367
_publ_section_title
;
Structure prediction by ZEFSAII (Michael W. Deem and Ramdas Pophale) SiO2 
 PCOD8011367
Probable space group: P -1
;
_chemical_formula_sum "Si O2"
_cell_formula_units_Z 16
_cell_length_a 21.191908
_cell_length_b 9.546606
_cell_length_c 20.682684
_cell_angle_alpha 48.002515
_cell_angle_beta 19.259283
_cell_angle_gamma 36.107294
_cell_volume 712.821780
_symmetry_space_group_name_H-M "P -1"
_symmetry_group_IT_number 2
_symmetry_cell_setting 'triclinic'
loop_
_space_group_symop_operation_xyz
x,y,z
-x,-y,-z
loop_
_atom_site_type_symbol
_atom_site_label
_atom_site_fract_x
_atom_site_fract_y
_atom_site_fract_z
Si Si1 0.327421 0.653998 0.925098
Si Si2 0.132027 0.205068 0.472516
Si Si3 0.265202 0.292669 0.934276
Si Si4 0.317450 0.284358 0.624032
Si Si5 0.102479 0.748292 0.439188
Si Si6 0.686225 0.924527 0.181707
Si Si7 0.936630 0.641801 0.369236
Si Si8 0.292088 0.690759 0.803950
O O1 0.570440 0.488997 0.793962
O O2 0.431672 0.555619 0.780987
O O3 0.175688 0.965547 0.978074
O O4 0.133263 0.612588 0.138890
O O5 0.085438 0.202620 0.594770
O O6 0.000000 0.500000 0.500000
O O7 0.973017 0.171632 0.588923
O O8 0.460474 0.967213 0.212401
O O9 0.240272 0.195153 0.922887
O O10 0.271692 0.508546 0.843368
O O11 0.982374 0.459674 0.198360
O O12 0.216773 0.288545 0.791156
O O13 0.501240 0.339509 0.431814
O O14 0.500000 0.000000 0.500000
O O15 0.960116 0.647392 0.627711
O O16 0.000000 0.000000 0.500000
O O17 0.359434 0.172970 0.434039
O O18 0.000000 0.000000 0.000000
#
# Coordination Sequence:
#
# PCOD8011367 Si02
#       8
#     2   2   2   2   2   2   2   2
#     4  11  22  39  63  89 125 173 214 261 326 383
#     4   9  20  44  65  91 128 167 216 271 319 377
#     4  11  24  40  66  98 128 168 218 271 322 388
#     4  12  23  41  67  95 129 175 213 260 325 385
#     4  10  21  39  60  91 126 162 215 272 318 384
#     4  10  22  42  62  93 130 164 218 263 311 391
#     4   9  21  38  65  88 124 170 209 262 326 379
#     4  12  24  40  64  96 135 172 212 266 323 390
#
# _framework density 22.446003000000001
#
# number of rings (size 3 to 8) (size 9 to 14) (size 15 to 20)
#    0.000    1.500    2.500    2.625    0.000    3.500 
#    0.000    6.250    0.000    0.000    0.000    0.000 
#    0.000    0.000    0.000    0.000    0.000    0.000 
#
# Total GULP energy -198256.138572 kJ/mol
# GULP energy per Si atom -12391.008661 kJ/mol
# Density = 2.239491 g / cm^3
# Si number density = 22.446003 Si / 1000 Ang^3
#
#
#
# Elastic Constant Matrix: (Units=GPa)
#
#
# Indices 1 2 3 4 5 6 
#
# 1 73.4135 9.1220 2.0504 -2.6136 -6.7247 9.8547
# 2 9.1220 113.6951 55.8393 -5.3269 -4.3771 16.0593
# 3 2.0504 55.8393 120.9144 -3.4151 -13.1323 -4.5309
# 4 -2.6136 -5.3269 -3.4151 49.1381 -2.7625 -10.7909
# 5 -6.7247 -4.3771 -13.1323 -2.7625 21.5576 1.6083
# 6 9.8547 16.0593 -4.5309 -10.7909 1.6083 39.0694
#
#
#
# Elastic Compliance Matrix: (Units=1/GPa)
#
#
# Indices 1 2 3 4 5 6 
#
# 1 0.014632 -0.000730 0.000512 0.000255 0.005019 -0.003467
# 2 -0.000730 0.012644 -0.006169 -0.000430 -0.001041 -0.005804
# 3 0.000512 -0.006169 0.011957 0.001394 0.006076 0.003928
# 4 0.000255 -0.000430 0.001394 0.021957 0.003192 0.006207
# 5 0.005019 -0.001041 0.006076 0.003192 0.051956 -0.001391
# 6 -0.003467 -0.005804 0.003928 0.006207 -0.001391 0.031083
#
#
# Mechanical properties :
#
#
# Convention : Reuss Voigt Hill
#
# Bulk Modulus (GPa) = 37.79709 49.11626 43.45668
# Shear Modulus (GPa) = 30.15240 38.02044 34.08642
#
# Velocity S-wave (km/s) = 3.66912 4.12012 3.90114
# Velocity P-wave (km/s) = 5.90132 6.67558 6.30036
#
# Compressibility (1/GPa) = 0.02645706
#
# Stress axis : x y z
#
# Youngs Moduli (GPa) = 68.34238 79.09156 83.63193
#
# Poissons Ratio (x) = 0.05776 -0.04278
# Poissons Ratio (y) = 0.04991 0.51594
# Poissons Ratio (z) = -0.03496 0.48793
#
# Static dielectric constant tensor:
#      x y z
#    x 4.665890 -0.248910 -0.218170 
#    y -0.248910 4.517590 -0.003480 
#    z -0.218170 -0.003480 4.063380 
# 
# 
# High freq. dielectric constant tensor:
#      x y z
#    x 1.891990 0.006830 -0.022930 
#    y 0.006830 1.887460 0.009900 
#    z -0.022930 0.009900 1.863970 
# 
# From -- ./inp_files/601142.got.cif
#   From: 2010.06.25/outbox.cif.g09.slc.cpg/sg2_301_cif.got.tgz:601142.got - 2010.06.27 13:26:56.
