data_PCOD8011185
_publ_section_title
;
Structure prediction by ZEFSAII (Michael W. Deem and Ramdas Pophale) SiO2 
 PCOD8011185
Probable space group: P -1
;
_chemical_formula_sum "Si O2"
_cell_formula_units_Z 16
_cell_length_a 18.472567
_cell_length_b 21.538485
_cell_length_c 12.979635
_cell_angle_alpha 144.850274
_cell_angle_beta 27.860028
_cell_angle_gamma 162.366605
_cell_volume 719.652879
_symmetry_space_group_name_H-M "P -1"
_symmetry_group_IT_number 2
_symmetry_cell_setting 'triclinic'
loop_
_space_group_symop_operation_xyz
x,y,z
-x,-y,-z
loop_
_atom_site_type_symbol
_atom_site_label
_atom_site_fract_x
_atom_site_fract_y
_atom_site_fract_z
Si Si1 0.149741 0.981687 0.247599
Si Si2 0.833279 0.503233 0.845494
Si Si3 0.205532 0.282462 0.863093
Si Si4 0.159677 0.573230 0.045869
Si Si5 0.147414 0.802479 0.171537
Si Si6 0.253042 0.762101 0.497504
Si Si7 0.872677 0.633232 0.496096
Si Si8 0.845883 0.681694 0.812566
O O1 0.047131 0.821794 0.232202
O O2 0.043229 0.898684 0.152296
O O3 0.503604 0.204039 0.110086
O O4 0.000000 0.000000 0.500000
O O5 0.637507 0.284999 0.754100
O O6 0.166414 0.693239 0.633015
O O7 0.686130 0.529048 0.034114
O O8 0.858162 0.513454 0.949879
O O9 0.513973 0.400284 0.623263
O O10 0.047184 0.177736 0.034899
O O11 0.992750 0.401476 0.936722
O O12 0.003895 0.592755 0.292188
O O13 0.017057 0.773688 0.403533
O O14 0.500000 0.000000 0.000000
O O15 0.949369 0.621921 0.631442
O O16 0.500000 0.000000 0.500000
O O17 0.959569 0.762640 0.660745
O O18 0.500000 0.500000 0.000000
#
# Coordination Sequence:
#
# PCOD8011185 Si02
#       8
#     2   2   2   2   2   2   2   2
#     4  12  28  46  71 104 137 184 235 292 352 413
#     4  10  22  39  64 104 132 171 230 284 337 405
#     4  10  23  44  70  99 142 178 232 290 347 410
#     4  12  25  44  71 101 137 182 234 286 350 418
#     4  12  27  46  70 102 139 178 237 288 350 421
#     4  10  21  38  69  95 134 182 228 279 338 404
#     4  11  23  43  71  98 140 189 223 289 351 413
#     4   9  20  39  65  97 133 177 218 274 346 401
#
# _framework density 22.232941
#
# number of rings (size 3 to 8) (size 9 to 14) (size 15 to 20)
#    0.000    1.250    3.750    1.125    7.000    2.000 
#    0.000    0.000    0.000    8.250    0.000    0.000 
#    0.000    0.000    0.000    0.000    0.000    0.000 
#
# Total GULP energy -198211.375048 kJ/mol
# GULP energy per Si atom -12388.210941 kJ/mol
# Density = 2.218234 g / cm^3
# Si number density = 22.232941 Si / 1000 Ang^3
#
#
#
# Elastic Constant Matrix: (Units=GPa)
#
#
# Indices 1 2 3 4 5 6 
#
# 1 94.1601 34.5953 48.6127 -0.0266 23.2913 11.2264
# 2 34.5953 123.4140 53.9368 5.7296 3.5416 4.9012
# 3 48.6127 53.9368 140.6617 4.3316 10.3591 12.4825
# 4 -0.0266 5.7296 4.3316 28.1439 -1.7072 1.0021
# 5 23.2913 3.5416 10.3591 -1.7072 62.0062 2.3340
# 6 11.2264 4.9012 12.4825 1.0021 2.3340 27.4771
#
#
#
# Elastic Compliance Matrix: (Units=1/GPa)
#
#
# Indices 1 2 3 4 5 6 
#
# 1 0.014965 -0.002375 -0.003615 0.000899 -0.004719 -0.003681
# 2 -0.002375 0.010167 -0.003137 -0.001563 0.000771 0.000574
# 3 -0.003615 -0.003137 0.009800 -0.000790 -0.000032 -0.002384
# 4 0.000899 -0.001563 -0.000790 0.036068 0.000919 -0.001123
# 5 -0.004719 0.000771 -0.000032 0.000919 0.017877 0.000253
# 6 -0.003681 0.000574 -0.002384 -0.001123 0.000253 0.038898
#
#
# Mechanical properties :
#
#
# Convention : Reuss Voigt Hill
#
# Bulk Modulus (GPa) = 59.96060 70.28062 65.12061
# Shear Modulus (GPa) = 32.98372 38.26482 35.62427
#
# Velocity S-wave (km/s) = 3.85587 4.15310 4.00724
# Velocity P-wave (km/s) = 6.84481 7.39441 7.12491
#
# Compressibility (1/GPa) = 0.01667762
#
# Stress axis : x y z
#
# Youngs Moduli (GPa) = 66.82054 98.35273 102.04321
#
# Poissons Ratio (x) = 0.23363 0.36886
# Poissons Ratio (y) = 0.15873 0.32014
# Poissons Ratio (z) = 0.24154 0.30857
#
# Static dielectric constant tensor:
#      x y z
#    x 8.530960 -2.355730 1.584970 
#    y -2.355730 5.360470 -0.810860 
#    z 1.584970 -0.810860 5.037310 
# 
# 
# High freq. dielectric constant tensor:
#      x y z
#    x 1.892350 0.005680 0.011520 
#    y 0.005680 1.835810 0.004770 
#    z 0.011520 0.004770 1.897370 
# 
# From -- ./inp_files/467134.got.cif
#   From: 2010.06.25/outbox.cif.g09.slc.cpg/sg2_234_cif.got.tgz:467134.got - 2010.06.27 13:26:56.
