data_PCOD8011354
_publ_section_title
;
Structure prediction by ZEFSAII (Michael W. Deem and Ramdas Pophale) SiO2 
 PCOD8011354
Probable space group: P -1
;
_chemical_formula_sum "Si O2"
_cell_formula_units_Z 14
_cell_length_a 11.979098
_cell_length_b 8.986001
_cell_length_c 7.837976
_cell_angle_alpha 119.454656
_cell_angle_beta 100.829623
_cell_angle_gamma 54.952458
_cell_volume 596.139912
_symmetry_space_group_name_H-M "P -1"
_symmetry_group_IT_number 2
_symmetry_cell_setting 'triclinic'
loop_
_space_group_symop_operation_xyz
x,y,z
-x,-y,-z
loop_
_atom_site_type_symbol
_atom_site_label
_atom_site_fract_x
_atom_site_fract_y
_atom_site_fract_z
Si Si1 0.568983 0.866493 0.608324
Si Si2 0.319711 0.186427 0.929998
Si Si3 0.197867 0.773430 0.046115
Si Si4 0.352132 0.581847 0.650583
Si Si5 0.925336 0.466998 0.109314
Si Si6 0.175894 0.175392 0.194652
Si Si7 0.368166 0.514975 0.251209
O O1 0.570971 0.664075 0.472093
O O2 0.722595 0.812005 0.642105
O O3 0.500000 0.000000 0.500000
O O4 0.471430 0.998334 0.814915
O O5 0.226868 0.314977 0.805549
O O6 0.245258 0.108867 0.986310
O O7 0.325679 0.352427 0.141210
O O8 0.232901 0.685120 0.813408
O O9 0.085594 0.728022 0.047557
O O10 0.324833 0.655265 0.148549
O O11 0.144582 0.011652 0.162639
O O12 0.299563 0.658422 0.483610
O O13 0.466606 0.621336 0.763594
O O14 0.025932 0.397357 0.264372
O O15 0.000000 0.500000 0.000000
#
# Coordination Sequence:
#
# PCOD8011354 Si02
#       7
#     2   2   2   2   2   2   2
#     4  12  23  37  62  99 128 161 212 261 311 375
#     4  10  21  41  65  88 125 169 207 256 316 372
#     4  11  22  40  65  91 124 166 214 257 318 373
#     4  11  23  36  61  96 132 166 204 258 319 372
#     4   9  21  42  68  88 119 171 213 256 313 380
#     4  11  22  39  66  92 124 164 211 257 318 369
#     4  10  21  39  60  88 135 166 204 252 316 373
#
# _framework density 23.484421000000001
#
# number of rings (size 3 to 8) (size 9 to 14) (size 15 to 20)
#    0.000    1.429    1.429    4.714    4.000    0.000 
#    0.000    2.857    0.000    4.286    0.000    0.000 
#    0.000    0.000    0.000    0.000    0.000    0.000 
#
# Total GULP energy -173482.245592 kJ/mol
# GULP energy per Si atom -12391.588971 kJ/mol
# Density = 2.343097 g / cm^3
# Si number density = 23.484421 Si / 1000 Ang^3
#
#
#
# Elastic Constant Matrix: (Units=GPa)
#
#
# Indices 1 2 3 4 5 6 
#
# 1 99.5691 31.5063 18.7814 -3.0460 27.1742 10.2468
# 2 31.5063 90.7370 15.0692 -11.9491 19.6858 5.5184
# 3 18.7814 15.0692 76.6192 -21.2601 1.2836 -4.4900
# 4 -3.0460 -11.9491 -21.2601 28.2792 -1.7027 6.8717
# 5 27.1742 19.6858 1.2836 -1.7027 27.4029 -9.0710
# 6 10.2468 5.5184 -4.4900 6.8717 -9.0710 46.6418
#
#
#
# Elastic Compliance Matrix: (Units=1/GPa)
#
#
# Indices 1 2 3 4 5 6 
#
# 1 0.016938 -0.000815 -0.004440 -0.001155 -0.018555 -0.007491
# 2 -0.000815 0.014962 -0.001227 0.005791 -0.011085 -0.004718
# 3 -0.004440 -0.001227 0.017798 0.012209 0.005934 0.002189
# 4 -0.001155 0.005791 0.012209 0.048377 -0.002879 -0.006943
# 5 -0.018555 -0.011085 0.005934 -0.002879 0.068950 0.019793
# 6 -0.007491 -0.004718 0.002189 -0.006943 0.019793 0.028727
#
#
# Mechanical properties :
#
#
# Convention : Reuss Voigt Hill
#
# Bulk Modulus (GPa) = 27.22288 44.18212 35.70250
# Shear Modulus (GPa) = 22.62843 33.90267 28.26555
#
# Velocity S-wave (km/s) = 3.10748 3.80363 3.47304
# Velocity P-wave (km/s) = 4.94897 6.17611 5.59628
#
# Compressibility (1/GPa) = 0.03673381
#
# Stress axis : x y z
#
# Youngs Moduli (GPa) = 59.03840 66.83564 56.18643
#
# Poissons Ratio (x) = 0.05447 0.24949
# Poissons Ratio (y) = 0.04812 0.06893
# Poissons Ratio (z) = 0.26215 0.08199
#
# Static dielectric constant tensor:
#      x y z
#    x 4.257680 -0.259710 0.256830 
#    y -0.259710 4.588850 -0.395350 
#    z 0.256830 -0.395350 4.087790 
# 
# 
# High freq. dielectric constant tensor:
#      x y z
#    x 1.931450 0.016800 0.021010 
#    y 0.016800 1.943420 -0.028540 
#    z 0.021010 -0.028540 1.898920 
# 
# From -- ./inp_files/245588.got.cif
#   From: 2010.06.25/outbox.cif.g09.slc.cpg/sg2_123_cif.got.tgz:245588.got - 2010.06.27 13:26:56.
