data_PCOD8011366
_publ_section_title
;
Structure prediction by ZEFSAII (Michael W. Deem and Ramdas Pophale) SiO2 
 PCOD8011366
Probable space group: P -1
;
_chemical_formula_sum "Si O2"
_cell_formula_units_Z 14
_cell_length_a 13.695615
_cell_length_b 8.840826
_cell_length_c 11.035005
_cell_angle_alpha 68.819885
_cell_angle_beta 148.776518
_cell_angle_gamma 111.472930
_cell_volume 641.308889
_symmetry_space_group_name_H-M "P -1"
_symmetry_group_IT_number 2
_symmetry_cell_setting 'triclinic'
loop_
_space_group_symop_operation_xyz
x,y,z
-x,-y,-z
loop_
_atom_site_type_symbol
_atom_site_label
_atom_site_fract_x
_atom_site_fract_y
_atom_site_fract_z
Si Si1 0.286219 0.433582 0.539603
Si Si2 0.007024 0.799007 0.858414
Si Si3 0.114885 0.635479 0.503373
Si Si4 0.724991 0.929753 0.702993
Si Si5 0.191282 0.128484 0.916952
Si Si6 0.648269 0.257599 0.618872
Si Si7 0.490996 0.315465 0.002041
O O1 0.141258 0.316812 0.340626
O O2 0.170556 0.540267 0.472559
O O3 0.405035 0.572024 0.543289
O O4 0.420746 0.318181 0.786664
O O5 0.910171 0.887687 0.841598
O O6 0.108303 0.945446 0.840036
O O7 0.170910 0.698103 0.113719
O O8 0.295347 0.729386 0.741898
O O9 0.000000 0.500000 0.500000
O O10 0.982864 0.768196 0.287934
O O11 0.536317 0.823583 0.478570
O O12 0.704597 0.123905 0.617439
O O13 0.719274 0.877353 0.853359
O O14 0.347003 0.197446 0.964393
O O15 0.500000 0.500000 0.000000
#
# Coordination Sequence:
#
# PCOD8011366 Si02
#       7
#     2   2   2   2   2   2   2
#     4  11  22  40  60  88 128 150 192 252 294 350
#     4  11  24  39  57  92 124 157 191 242 304 345
#     4  11  21  39  63  87 109 155 205 237 287 353
#     4  10  21  39  63  90 114 159 204 239 290 343
#     4  11  21  39  65  84 121 155 199 246 283 355
#     4  10  21  39  63  87 118 160 200 240 285 354
#     4  10  21  39  60  91 113 149 202 245 293 340
#
# _framework density 21.830355000000001
#
# number of rings (size 3 to 8) (size 9 to 14) (size 15 to 20)
#    0.000    1.429    2.857    5.571    0.000    3.429 
#    2.571    0.714    0.000    0.000    0.000    0.000 
#    0.000    0.000    0.000    0.000    0.000    0.000 
#
# Total GULP energy -173522.209081 kJ/mol
# GULP energy per Si atom -12394.443506 kJ/mol
# Density = 2.178067 g / cm^3
# Si number density = 21.830355 Si / 1000 Ang^3
#
#
#
# Elastic Constant Matrix: (Units=GPa)
#
#
# Indices 1 2 3 4 5 6 
#
# 1 38.2470 33.5314 27.1706 0.2921 0.7992 22.5611
# 2 33.5314 117.1049 36.0461 14.1017 -13.4845 27.3951
# 3 27.1706 36.0461 98.7170 10.8726 -2.1284 -1.9112
# 4 0.2921 14.1017 10.8726 37.5449 -1.3070 1.9420
# 5 0.7992 -13.4845 -2.1284 -1.3070 34.5394 4.7096
# 6 22.5611 27.3951 -1.9112 1.9420 4.7096 27.0631
#
#
#
# Elastic Compliance Matrix: (Units=1/GPa)
#
#
# Indices 1 2 3 4 5 6 
#
# 1 0.097698 0.001257 -0.030208 0.012333 0.008733 -0.087256
# 2 0.001257 0.015598 -0.005902 -0.002923 0.008103 -0.018455
# 3 -0.030208 -0.005902 0.021786 -0.005794 -0.005119 0.034003
# 4 0.012333 -0.002923 -0.005794 0.029856 0.000710 -0.009998
# 5 0.008733 0.008103 -0.005119 0.000710 0.034614 -0.021918
# 6 -0.087256 -0.018455 0.034003 -0.009998 -0.021918 0.135305
#
#
# Mechanical properties :
#
#
# Convention : Reuss Voigt Hill
#
# Bulk Modulus (GPa) = 15.29653 49.72946 32.51300
# Shear Modulus (GPa) = 11.72725 30.31753 21.02239
#
# Velocity S-wave (km/s) = 2.32027 3.73068 3.10657
# Velocity P-wave (km/s) = 3.76834 6.43325 5.27196
#
# Compressibility (1/GPa) = 0.06537428
#
# Stress axis : x y z
#
# Youngs Moduli (GPa) = 10.23560 64.10891 45.90161
#
# Poissons Ratio (x) = -0.08056 1.38662
# Poissons Ratio (y) = -0.01286 0.27092
# Poissons Ratio (z) = 0.30920 0.37839
#
# Static dielectric constant tensor:
#      x y z
#    x 3.605390 0.340510 -0.000860 
#    y 0.340510 4.088640 -0.058530 
#    z -0.000860 -0.058530 4.776970 
# 
# 
# High freq. dielectric constant tensor:
#      x y z
#    x 1.823010 0.032050 0.009770 
#    y 0.032050 1.861600 0.002820 
#    z 0.009770 0.002820 1.879500 
# 
# From -- ./inp_files/398066.got.cif
#   From: 2010.06.25/outbox.cif.g09.slc.cpg/sg2_200_cif.got.tgz:398066.got - 2010.06.27 13:26:56.
