data_PCOD8011584
_publ_section_title
;
Structure prediction by ZEFSAII (Michael W. Deem and Ramdas Pophale) SiO2 
 PCOD8011584
Probable space group: P -1
;
_chemical_formula_sum "Si O2"
_cell_formula_units_Z 16
_cell_length_a 11.896242
_cell_length_b 18.697207
_cell_length_c 9.751203
_cell_angle_alpha 27.533491
_cell_angle_beta 126.170568
_cell_angle_gamma 126.678712
_cell_volume 793.316192
_symmetry_space_group_name_H-M "P -1"
_symmetry_group_IT_number 2
_symmetry_cell_setting 'triclinic'
loop_
_space_group_symop_operation_xyz
x,y,z
-x,-y,-z
loop_
_atom_site_type_symbol
_atom_site_label
_atom_site_fract_x
_atom_site_fract_y
_atom_site_fract_z
Si Si1 0.619218 0.914429 0.370886
Si Si2 0.913611 0.934644 0.182432
Si Si3 0.120270 0.603790 0.105391
Si Si4 0.899083 0.036970 0.486060
Si Si5 0.307280 0.880837 0.181953
Si Si6 0.349161 0.414323 0.090704
Si Si7 0.830974 0.563802 0.830308
Si Si8 0.833293 0.453388 0.464586
O O1 0.458023 0.888471 0.356281
O O2 0.641471 0.762146 0.562911
O O3 0.737018 0.940481 0.531192
O O4 0.656705 0.059272 0.047778
O O5 0.869614 0.743921 0.491465
O O6 0.025956 0.013266 0.242260
O O7 0.776176 0.013624 0.965714
O O8 0.000000 0.000000 0.000000
O O9 0.209513 0.560520 0.112574
O O10 0.195595 0.549307 0.387917
O O11 0.114596 0.783114 0.822633
O O12 0.958271 0.520819 0.089357
O O13 0.000000 0.000000 0.500000
O O14 0.222415 0.703888 0.397809
O O15 0.304706 0.476813 0.098241
O O16 0.500000 0.500000 0.000000
O O17 0.236088 0.414450 0.885447
O O18 0.000000 0.500000 0.500000
#
# Coordination Sequence:
#
# PCOD8011584 Si02
#       8
#     2   2   2   2   2   2   2   2
#     4  11  22  41  68  89 132 172 215 273 323 388
#     4  11  24  39  66  97 128 166 222 274 327 392
#     4  10  21  39  62  96 126 167 212 269 330 382
#     4  11  20  40  67  96 125 170 226 266 320 387
#     4  11  23  41  66  95 126 172 221 266 332 386
#     4  12  24  42  64  97 133 173 218 266 332 393
#     4  10  22  42  62  90 137 172 204 271 344 381
#     4  12  24  37  67 101 127 162 234 276 308 393
#
# _framework density 20.168502
#
# number of rings (size 3 to 8) (size 9 to 14) (size 15 to 20)
#    0.000    1.000    6.250    0.750    3.500    1.000 
#    0.000    1.250    0.000    0.000    0.000    0.000 
#    0.000    0.000    0.000    0.000    0.000    0.000 
#
# Total GULP energy -198208.799096 kJ/mol
# GULP energy per Si atom -12388.049943 kJ/mol
# Density = 2.012260 g / cm^3
# Si number density = 20.168502 Si / 1000 Ang^3
#
#
#
# Elastic Constant Matrix: (Units=GPa)
#
#
# Indices 1 2 3 4 5 6 
#
# 1 154.9140 74.0683 46.7798 14.0213 7.3997 -3.6998
# 2 74.0683 109.3444 28.2104 6.2001 6.7726 -2.9602
# 3 46.7798 28.2104 76.1502 8.4246 5.7651 -6.2919
# 4 14.0213 6.2001 8.4246 29.8368 0.4882 0.6081
# 5 7.3997 6.7726 5.7651 0.4882 35.2036 3.2902
# 6 -3.6998 -2.9602 -6.2919 0.6081 3.2902 44.5676
#
#
#
# Elastic Compliance Matrix: (Units=1/GPa)
#
#
# Indices 1 2 3 4 5 6 
#
# 1 0.010889 -0.006145 -0.004087 -0.002679 -0.000399 -0.000015
# 2 -0.006145 0.013682 -0.001224 0.000403 -0.001174 0.000307
# 3 -0.004087 -0.001224 0.016688 -0.002550 -0.001800 0.002103
# 4 -0.002679 0.000403 -0.002550 0.035425 0.000513 -0.001077
# 5 -0.000399 -0.001174 -0.001800 0.000513 0.029240 -0.002531
# 6 -0.000015 0.000307 0.002103 -0.001077 -0.002531 0.022955
#
#
# Mechanical properties :
#
#
# Convention : Reuss Voigt Hill
#
# Bulk Modulus (GPa) = 54.50638 70.94731 62.72684
# Shear Modulus (GPa) = 31.66417 34.67828 33.17122
#
# Velocity S-wave (km/s) = 3.96660 4.15110 4.05990
# Velocity P-wave (km/s) = 6.93273 7.63080 7.29012
#
# Compressibility (1/GPa) = 0.01834648
#
# Stress axis : x y z
#
# Youngs Moduli (GPa) = 91.83765 73.08850 59.92218
#
# Poissons Ratio (x) = 0.44915 0.24492
# Poissons Ratio (y) = 0.56436 0.07334
# Poissons Ratio (z) = 0.37536 0.08945
#
# Static dielectric constant tensor:
#      x y z
#    x 3.707610 0.073770 0.175750 
#    y 0.073770 4.300010 0.166810 
#    z 0.175750 0.166810 4.014960 
# 
# 
# High freq. dielectric constant tensor:
#      x y z
#    x 1.780500 0.002440 0.013490 
#    y 0.002440 1.779140 -0.002100 
#    z 0.013490 -0.002100 1.794730 
# 
# From -- ./inp_files/277262.got.cif
#   From: 2010.06.25/outbox.cif.g09.slc.cpg/sg2_139_cif.got.tgz:277262.got - 2010.06.27 13:26:56.
