data_PCOD8011520
_publ_section_title
;
Structure prediction by ZEFSAII (Michael W. Deem and Ramdas Pophale) SiO2 
 PCOD8011520
Probable space group: P -1
;
_chemical_formula_sum "Si O2"
_cell_formula_units_Z 16
_cell_length_a 13.822124
_cell_length_b 12.717967
_cell_length_c 8.037490
_cell_angle_alpha 100.474465
_cell_angle_beta 135.210393
_cell_angle_gamma 54.212654
_cell_volume 737.164808
_symmetry_space_group_name_H-M "P -1"
_symmetry_group_IT_number 2
_symmetry_cell_setting 'triclinic'
loop_
_space_group_symop_operation_xyz
x,y,z
-x,-y,-z
loop_
_atom_site_type_symbol
_atom_site_label
_atom_site_fract_x
_atom_site_fract_y
_atom_site_fract_z
Si Si1 0.103498 0.306893 0.951260
Si Si2 0.771797 0.432126 0.807622
Si Si3 0.728584 0.972737 0.052511
Si Si4 0.607790 0.284173 0.577892
Si Si5 0.903720 0.058456 0.080963
Si Si6 0.995220 0.560823 0.685697
Si Si7 0.745880 0.022641 0.453605
Si Si8 0.329552 0.155016 0.503371
O O1 0.172305 0.193643 0.854467
O O2 0.068671 0.444022 0.885194
O O3 0.913907 0.366847 0.813556
O O4 0.266941 0.210187 0.255194
O O5 0.691480 0.356454 0.663747
O O6 0.609236 0.600959 0.634193
O O7 0.873409 0.403552 0.103283
O O8 0.880211 0.965471 0.138441
O O9 0.665549 0.041199 0.178518
O O10 0.544039 0.066399 0.746375
O O11 0.654955 0.177848 0.456069
O O12 0.697916 0.204397 0.841024
O O13 0.036499 0.073096 0.341199
O O14 0.000000 0.000000 0.000000
O O15 0.000000 0.500000 0.500000
O O16 0.785123 0.703446 0.483272
O O17 0.710828 0.945919 0.519132
#
# Coordination Sequence:
#
# PCOD8011520 Si02
#       8
#     2   2   2   2   2   2   2   2
#     4  11  23  41  65  93 132 173 217 261 328 394
#     4  10  22  41  63  92 128 173 223 256 327 391
#     4  12  25  38  69 101 133 168 224 280 328 390
#     4  10  22  39  67  91 126 173 220 270 309 406
#     4  10  21  39  62  89 129 173 217 261 328 383
#     4  11  25  42  67  94 140 172 211 272 339 385
#     4  11  23  42  66  96 137 167 218 278 343 379
#     4  11  24  42  65 101 130 174 226 271 325 400
#
# _framework density 21.704781000000001
#
# number of rings (size 3 to 8) (size 9 to 14) (size 15 to 20)
#    0.000    1.250    0.000    7.875    7.000    0.000 
#    0.000    0.000    0.000    3.750    0.000    0.000 
#    0.000    0.000    0.000    0.000    0.000    0.000 
#
# Total GULP energy -198244.703153 kJ/mol
# GULP energy per Si atom -12390.293947 kJ/mol
# Density = 2.165538 g / cm^3
# Si number density = 21.704781 Si / 1000 Ang^3
#
#
#
# Elastic Constant Matrix: (Units=GPa)
#
#
# Indices 1 2 3 4 5 6 
#
# 1 55.5319 32.8916 34.3370 5.8144 2.7116 -0.2608
# 2 32.8916 129.5200 36.9654 1.5129 -1.6204 -18.3763
# 3 34.3370 36.9654 92.5484 -2.9493 16.1390 -12.8144
# 4 5.8144 1.5129 -2.9493 31.5920 -3.0590 1.8497
# 5 2.7116 -1.6204 16.1390 -3.0590 30.6394 -0.3004
# 6 -0.2608 -18.3763 -12.8144 1.8497 -0.3004 36.4721
#
#
#
# Elastic Compliance Matrix: (Units=1/GPa)
#
#
# Indices 1 2 3 4 5 6 
#
# 1 0.027071 -0.004893 -0.009271 -0.005145 0.001664 -0.005255
# 2 -0.004893 0.010183 -0.002001 0.000170 0.002086 0.004401
# 3 -0.009271 -0.002001 0.017185 0.002347 -0.008056 0.004778
# 4 -0.005145 0.000170 0.002347 0.033102 0.002525 -0.000784
# 5 0.001664 0.002086 -0.008056 0.002525 0.037081 -0.001591
# 6 -0.005255 0.004401 0.004778 -0.000784 -0.001591 0.031304
#
#
# Mechanical properties :
#
#
# Convention : Reuss Voigt Hill
#
# Bulk Modulus (GPa) = 45.22933 53.99869 49.61401
# Shear Modulus (GPa) = 25.55895 31.30111 28.43003
#
# Velocity S-wave (km/s) = 3.43530 3.80166 3.62311
# Velocity P-wave (km/s) = 6.05134 6.64852 6.35695
#
# Compressibility (1/GPa) = 0.02210955
#
# Stress axis : x y z
#
# Youngs Moduli (GPa) = 36.93936 98.20267 58.18941
#
# Poissons Ratio (x) = 0.48055 0.53948
# Poissons Ratio (y) = 0.18076 0.11641
# Poissons Ratio (z) = 0.34247 0.19646
#
# Static dielectric constant tensor:
#      x y z
#    x 3.668160 0.000700 0.214450 
#    y 0.000700 4.290490 -0.163950 
#    z 0.214450 -0.163950 4.269830 
# 
# 
# High freq. dielectric constant tensor:
#      x y z
#    x 1.835800 0.001770 0.015910 
#    y 0.001770 1.868680 -0.004220 
#    z 0.015910 -0.004220 1.860030 
# 
# From -- ./inp_files/307832.got.cif
#   From: 2010.06.25/outbox.cif.g09.slc.cpg/sg2_154_cif.got.tgz:307832.got - 2010.06.27 13:26:56.
