data_PCOD8011405
_publ_section_title
;
Structure prediction by ZEFSAII (Michael W. Deem and Ramdas Pophale) SiO2 
 PCOD8011405
Probable space group: P -1
;
_chemical_formula_sum "Si O2"
_cell_formula_units_Z 12
_cell_length_a 5.152675
_cell_length_b 19.561100
_cell_length_c 16.038064
_cell_angle_alpha 157.174242
_cell_angle_beta 56.473240
_cell_angle_gamma 129.635872
_cell_volume 479.486559
_symmetry_space_group_name_H-M "P -1"
_symmetry_group_IT_number 2
_symmetry_cell_setting 'triclinic'
loop_
_space_group_symop_operation_xyz
x,y,z
-x,-y,-z
loop_
_atom_site_type_symbol
_atom_site_label
_atom_site_fract_x
_atom_site_fract_y
_atom_site_fract_z
Si Si1 0.336417 0.943109 0.554300
Si Si2 0.714845 0.864422 0.063462
Si Si3 0.313866 0.382888 0.671425
Si Si4 0.212799 0.663081 0.782692
Si Si5 0.254352 0.280828 0.387799
Si Si6 0.319242 0.566470 0.178493
O O1 0.417154 0.119530 0.801900
O O2 0.500000 0.000000 0.500000
O O3 0.482732 0.798001 0.406869
O O4 0.927874 0.827381 0.485973
O O5 0.394071 0.775624 0.960040
O O6 0.951241 0.073679 0.221279
O O7 0.895710 0.714399 0.870602
O O8 0.446259 0.357220 0.527760
O O9 0.616758 0.493739 0.807066
O O10 0.087977 0.512900 0.850850
O O11 0.099014 0.432541 0.553674
O O12 0.479703 0.739898 0.746366
O O13 0.500000 0.500000 0.000000
#
# Coordination Sequence:
#
# PCOD8011405 Si02
#       6
#     2   2   2   2   2   2
#     4   9  23  40  62  91 128 169 214 272 321 390
#     4  11  25  45  66 101 138 173 223 276 338 389
#     4   9  22  38  62  89 127 169 206 271 323 379
#     4  11  26  43  70 104 127 184 222 272 337 401
#     4  10  24  45  71  97 141 170 228 276 330 397
#     4  10  21  39  61  88 121 170 215 256 327 385
#
# _framework density 25.026768000000001
#
# number of rings (size 3 to 8) (size 9 to 14) (size 15 to 20)
#    1.000    1.000    0.000    1.500    4.667   10.000 
#    0.000    0.000    0.000    0.000    0.000    0.000 
#    0.000    0.000    0.000    0.000    0.000    0.000 
#
# Total GULP energy -148691.330257 kJ/mol
# GULP energy per Si atom -12390.944188 kJ/mol
# Density = 2.496981 g / cm^3
# Si number density = 25.026768 Si / 1000 Ang^3
#
#
#
# Elastic Constant Matrix: (Units=GPa)
#
#
# Indices 1 2 3 4 5 6 
#
# 1 121.9406 -11.5863 25.0375 -10.1885 5.2762 -25.2180
# 2 -11.5863 116.0025 27.6972 -9.8844 -0.2170 -18.9102
# 3 25.0375 27.6972 98.9854 -7.0474 -14.8384 -5.7490
# 4 -10.1885 -9.8844 -7.0474 62.5476 -1.2464 -6.6520
# 5 5.2762 -0.2170 -14.8384 -1.2464 33.9331 -6.7623
# 6 -25.2180 -18.9102 -5.7490 -6.6520 -6.7623 18.8657
#
#
#
# Elastic Compliance Matrix: (Units=1/GPa)
#
#
# Indices 1 2 3 4 5 6 
#
# 1 0.017748 0.009174 -0.004014 0.007717 0.002893 0.035454
# 2 0.009174 0.016125 -0.004055 0.006929 0.003299 0.030815
# 3 -0.004014 -0.004055 0.012861 -0.000116 0.005505 -0.003578
# 4 0.007717 0.006929 -0.000116 0.021236 0.004844 0.026449
# 5 0.002893 0.003299 0.005505 0.004844 0.036325 0.023580
# 6 0.035454 0.030815 -0.003578 0.026449 0.023580 0.147973
#
#
# Mechanical properties :
#
#
# Convention : Reuss Voigt Hill
#
# Bulk Modulus (GPa) = 20.43145 46.58058 33.50602
# Shear Modulus (GPa) = 18.77064 42.78794 30.77929
#
# Velocity S-wave (km/s) = 2.74163 4.13932 3.51073
# Velocity P-wave (km/s) = 4.26656 6.44190 5.46359
#
# Compressibility (1/GPa) = 0.04894416
#
# Stress axis : x y z
#
# Youngs Moduli (GPa) = 56.34385 62.01642 77.75168
#
# Poissons Ratio (x) = -0.56891 0.31209
# Poissons Ratio (y) = -0.51687 0.31526
# Poissons Ratio (z) = 0.22616 0.25146
#
# Static dielectric constant tensor:
#      x y z
#    x 4.597660 -0.313780 -0.374120 
#    y -0.313780 4.888910 0.105490 
#    z -0.374120 0.105490 4.708110 
# 
# 
# High freq. dielectric constant tensor:
#      x y z
#    x 1.984760 -0.005570 -0.003830 
#    y -0.005570 2.019510 -0.004110 
#    z -0.003830 -0.004110 1.998430 
# 
# From -- ./inp_files/484954.got.cif
#   From: 2010.06.25/outbox.cif.g09.slc.cpg/sg2_243_cif.got.tgz:484954.got - 2010.06.27 13:26:56.
