data_PCOD8011363
_publ_section_title
;
Structure prediction by ZEFSAII (Michael W. Deem and Ramdas Pophale) SiO2 
 PCOD8011363
Probable space group: P -1
;
_chemical_formula_sum "Si O2"
_cell_formula_units_Z 12
_cell_length_a 13.023311
_cell_length_b 9.892566
_cell_length_c 5.126119
_cell_angle_alpha 62.493464
_cell_angle_beta 99.203838
_cell_angle_gamma 89.420276
_cell_volume 575.555300
_symmetry_space_group_name_H-M "P -1"
_symmetry_group_IT_number 2
_symmetry_cell_setting 'triclinic'
loop_
_space_group_symop_operation_xyz
x,y,z
-x,-y,-z
loop_
_atom_site_type_symbol
_atom_site_label
_atom_site_fract_x
_atom_site_fract_y
_atom_site_fract_z
Si Si1 0.549661 0.151500 0.813429
Si Si2 0.928343 0.988836 0.732466
Si Si3 0.103939 0.349224 0.935546
Si Si4 0.748475 0.228690 0.612433
Si Si5 0.550159 0.329908 0.169143
Si Si6 0.134151 0.525372 0.285604
O O1 0.675659 0.120224 0.844333
O O2 0.497221 0.229420 0.460532
O O3 0.525433 0.268553 0.932256
O O4 0.500000 0.000000 0.000000
O O5 0.839723 0.131083 0.578435
O O6 0.872247 0.832400 0.849402
O O7 0.000000 0.000000 0.500000
O O8 0.000000 0.000000 0.000000
O O9 0.144061 0.396014 0.628556
O O10 0.980365 0.388739 0.864536
O O11 0.163116 0.440246 0.099951
O O12 0.674884 0.322981 0.284464
O O13 0.790075 0.345860 0.732374
O O14 0.500000 0.500000 0.000000
#
# Coordination Sequence:
#
# PCOD8011363 Si02
#       6
#     2   2   2   2   2   2
#     4  10  23  45  71  98 135 171 224 291 346 399
#     4  12  25  41  64  95 137 180 219 267 325 399
#     4  10  22  38  60  88 130 169 219 262 317 368
#     4  10  26  40  72  94 137 177 229 265 345 398
#     4  10  23  44  70  97 131 174 225 283 345 399
#     4  10  21  39  60  90 125 173 215 272 307 388
#
# _framework density 20.849430999999999
#
# number of rings (size 3 to 8) (size 9 to 14) (size 15 to 20)
#    1.000    0.667    1.667    2.000    9.333    0.000 
#    3.000    0.000    0.000    0.000    0.000    0.000 
#    0.000    0.000    0.000    0.000    0.000    0.000 
#
# Total GULP energy -148742.609654 kJ/mol
# GULP energy per Si atom -12395.217471 kJ/mol
# Density = 2.080198 g / cm^3
# Si number density = 20.849431 Si / 1000 Ang^3
#
#
#
# Elastic Constant Matrix: (Units=GPa)
#
#
# Indices 1 2 3 4 5 6 
#
# 1 95.1496 52.5094 41.8405 -11.9187 -2.1531 -2.5097
# 2 52.5094 115.0608 22.5123 -5.5040 3.6953 -8.8893
# 3 41.8405 22.5123 92.8160 -3.2964 -6.1396 -18.8510
# 4 -11.9187 -5.5040 -3.2964 43.0599 -5.4419 -5.8861
# 5 -2.1531 3.6953 -6.1396 -5.4419 30.5964 -5.1335
# 6 -2.5097 -8.8893 -18.8510 -5.8861 -5.1335 36.5310
#
#
#
# Elastic Compliance Matrix: (Units=1/GPa)
#
#
# Indices 1 2 3 4 5 6 
#
# 1 0.017582 -0.006827 -0.006798 0.003100 0.000684 -0.003366
# 2 -0.006827 0.011922 0.000599 -0.000153 -0.001405 0.002519
# 3 -0.006798 0.000599 0.015758 0.001112 0.004250 0.008587
# 4 0.003100 -0.000153 0.001112 0.025687 0.005990 0.005730
# 5 0.000684 -0.001405 0.004250 0.005990 0.036152 0.007944
# 6 -0.003366 0.002519 0.008587 0.005730 0.007944 0.034226
#
#
# Mechanical properties :
#
#
# Convention : Reuss Voigt Hill
#
# Bulk Modulus (GPa) = 52.05766 59.63898 55.84832
# Shear Modulus (GPa) = 28.77163 34.44842 31.61003
#
# Velocity S-wave (km/s) = 3.71883 4.06919 3.89795
# Velocity P-wave (km/s) = 6.59258 7.12352 6.86319
#
# Compressibility (1/GPa) = 0.01920947
#
# Stress axis : x y z
#
# Youngs Moduli (GPa) = 56.87693 83.87887 63.46137
#
# Poissons Ratio (x) = 0.57267 0.43141
# Poissons Ratio (y) = 0.38832 -0.03804
# Poissons Ratio (z) = 0.38665 -0.05027
#
# Static dielectric constant tensor:
#      x y z
#    x 3.556730 -0.139990 -0.164070 
#    y -0.139990 2.880870 -0.370810 
#    z -0.164070 -0.370810 3.527730 
# 
# 
# High freq. dielectric constant tensor:
#      x y z
#    x 1.790770 0.003010 -0.012430 
#    y 0.003010 1.828080 0.011150 
#    z -0.012430 0.011150 1.821740 
# 
# From -- ./inp_files/86159.got.cif
#   From: 2010.06.25/outbox.cif.g09.slc.cpg/sg2_44_cif.got.tgz:86159.got - 2010.06.27 13:26:56.
