data_PCOD8011344
_publ_section_title
;
Structure prediction by ZEFSAII (Michael W. Deem and Ramdas Pophale) SiO2 
 PCOD8011344
Probable space group: P -1
;
_chemical_formula_sum "Si O2"
_cell_formula_units_Z 14
_cell_length_a 9.885685
_cell_length_b 20.897416
_cell_length_c 8.837609
_cell_angle_alpha 130.381856
_cell_angle_beta 30.268335
_cell_angle_gamma 133.580029
_cell_volume 659.719735
_symmetry_space_group_name_H-M "P -1"
_symmetry_group_IT_number 2
_symmetry_cell_setting 'triclinic'
loop_
_space_group_symop_operation_xyz
x,y,z
-x,-y,-z
loop_
_atom_site_type_symbol
_atom_site_label
_atom_site_fract_x
_atom_site_fract_y
_atom_site_fract_z
Si Si1 0.509540 0.036931 0.380704
Si Si2 0.402142 0.398914 0.724028
Si Si3 0.921647 0.967379 0.694904
Si Si4 0.266390 0.205687 0.538191
Si Si5 0.790338 0.212215 0.227295
Si Si6 0.794852 0.402183 0.603267
Si Si7 0.994974 0.496266 0.177781
O O1 0.681097 0.143990 0.369810
O O2 0.500000 0.000000 0.500000
O O3 0.180710 0.016666 0.628776
O O4 0.644749 0.986095 0.053055
O O5 0.347540 0.305586 0.548040
O O6 0.484943 0.389399 0.807172
O O7 0.665064 0.473693 0.505097
O O8 0.111916 0.420615 0.017861
O O9 0.857059 0.860521 0.584782
O O10 0.000000 0.000000 0.500000
O O11 0.544084 0.187080 0.301353
O O12 0.055416 0.193191 0.866009
O O13 0.884286 0.316435 0.344611
O O14 0.807378 0.411329 0.789471
O O15 0.000000 0.500000 0.500000
O O16 0.000000 0.500000 0.000000
#
# Coordination Sequence:
#
# PCOD8011344 Si02
#       7
#     2   2   2   2   2   2   2
#     4  12  25  42  62  92 134 166 204 256 321 378
#     4  10  21  39  60  88 117 157 205 253 296 368
#     4  12  22  42  68  91 121 165 216 258 310 367
#     4  11  21  37  66  93 116 154 217 262 296 352
#     4  11  21  38  61  92 123 158 207 261 304 369
#     4   9  20  38  63  87 113 160 204 248 302 355
#     4  11  22  39  60  86 127 158 196 250 313 368
#
# _framework density 21.221131
#
# number of rings (size 3 to 8) (size 9 to 14) (size 15 to 20)
#    0.000    1.143    2.857    5.143    0.000    3.429 
#    5.143    0.000    0.000    0.000    0.000    0.000 
#    0.000    0.000    0.000    0.000    0.000    0.000 
#
# Total GULP energy -173485.205027 kJ/mol
# GULP energy per Si atom -12391.800359 kJ/mol
# Density = 2.117283 g / cm^3
# Si number density = 21.221131 Si / 1000 Ang^3
#
#
#
# Elastic Constant Matrix: (Units=GPa)
#
#
# Indices 1 2 3 4 5 6 
#
# 1 95.0316 26.9042 12.4802 1.7956 11.0573 4.1723
# 2 26.9042 129.0780 18.3876 19.3430 6.0880 10.5520
# 3 12.4802 18.3876 68.9646 7.9119 -1.3585 2.7543
# 4 1.7956 19.3430 7.9119 34.7904 3.5819 2.0422
# 5 11.0573 6.0880 -1.3585 3.5819 33.7920 0.2104
# 6 4.1723 10.5520 2.7543 2.0422 0.2104 26.0668
#
#
#
# Elastic Compliance Matrix: (Units=1/GPa)
#
#
# Indices 1 2 3 4 5 6 
#
# 1 0.011812 -0.002179 -0.001758 0.001434 -0.003690 -0.000906
# 2 -0.002179 0.009354 -0.001474 -0.004526 -0.000534 -0.002923
# 3 -0.001758 -0.001474 0.015588 -0.002783 0.001766 -0.000565
# 4 0.001434 -0.004526 -0.002783 0.032181 -0.003173 -0.000599
# 5 -0.003690 -0.000534 0.001766 -0.003173 0.031300 0.000616
# 6 -0.000906 -0.002923 -0.000565 -0.000599 0.000616 0.039793
#
#
# Mechanical properties :
#
#
# Convention : Reuss Voigt Hill
#
# Bulk Modulus (GPa) = 38.56092 45.40204 41.98148
# Shear Modulus (GPa) = 31.34924 34.61665 32.98294
#
# Velocity S-wave (km/s) = 3.84769 4.04324 3.94667
# Velocity P-wave (km/s) = 6.16036 6.57558 6.37135
#
# Compressibility (1/GPa) = 0.02593299
#
# Stress axis : x y z
#
# Youngs Moduli (GPa) = 84.65662 106.90878 64.15184
#
# Poissons Ratio (x) = 0.23291 0.11277
# Poissons Ratio (y) = 0.18443 0.09457
# Poissons Ratio (z) = 0.14881 0.15760
#
# Static dielectric constant tensor:
#      x y z
#    x 3.794580 0.296230 0.041880 
#    y 0.296230 4.282580 0.193070 
#    z 0.041880 0.193070 3.873840 
# 
# 
# High freq. dielectric constant tensor:
#      x y z
#    x 1.805530 0.018610 -0.016400 
#    y 0.018610 1.839520 0.006810 
#    z -0.016400 0.006810 1.839780 
# 
# From -- ./inp_files/223979.got.cif
#   From: 2010.06.25/outbox.cif.g09.slc.cpg/sg2_112_cif.got.tgz:223979.got - 2010.06.27 13:26:56.
