data_PCOD8011795
_publ_section_title
;
Structure prediction by ZEFSAII (Michael W. Deem and Ramdas Pophale) SiO2 
 PCOD8011795
Probable space group: P -1
;
_chemical_formula_sum "Si O2"
_cell_formula_units_Z 16
_cell_length_a 7.851912
_cell_length_b 14.347332
_cell_length_c 15.408503
_cell_angle_alpha 41.226218
_cell_angle_beta 114.574447
_cell_angle_gamma 135.617614
_cell_volume 771.775431
_symmetry_space_group_name_H-M "P -1"
_symmetry_group_IT_number 2
_symmetry_cell_setting 'triclinic'
loop_
_space_group_symop_operation_xyz
x,y,z
-x,-y,-z
loop_
_atom_site_type_symbol
_atom_site_label
_atom_site_fract_x
_atom_site_fract_y
_atom_site_fract_z
Si Si1 0.759396 0.952614 0.445893
Si Si2 0.090049 0.301674 0.588245
Si Si3 0.318606 0.791824 0.566415
Si Si4 0.342486 0.982506 0.900250
Si Si5 0.528434 0.710383 0.402105
Si Si6 0.091938 0.650325 0.791006
Si Si7 0.645271 0.286065 0.026990
Si Si8 0.934356 0.967874 0.908224
O O1 0.513859 0.782862 0.569173
O O2 0.691082 0.880812 0.384819
O O3 0.829245 0.149943 0.324966
O O4 0.000000 0.000000 0.500000
O O5 0.247606 0.517537 0.507656
O O6 0.293154 0.332472 0.547342
O O7 0.853466 0.227873 0.531822
O O8 0.003457 0.155313 0.749966
O O9 0.160772 0.633026 0.719756
O O10 0.500000 0.000000 0.500000
O O11 0.318457 0.851450 0.911831
O O12 0.071143 0.907196 0.928872
O O13 0.502307 0.198284 0.749282
O O14 0.500000 0.000000 0.000000
O O15 0.242940 0.643623 0.901816
O O16 0.793847 0.471872 0.866355
O O17 0.364666 0.200494 0.039596
O O18 0.000000 0.000000 0.000000
#
# Coordination Sequence:
#
# PCOD8011795 Si02
#       8
#     2   2   2   2   2   2   2   2
#     4  11  22  40  63  94 127 164 208 267 322 383
#     4  10  23  40  65  95 127 166 212 266 324 384
#     4  10  21  39  64  90 125 166 207 258 323 378
#     4  11  23  41  67  94 130 172 213 262 325 389
#     4  10  22  41  64  95 128 162 213 270 320 379
#     4  10  23  43  65  89 124 174 209 265 324 374
#     4  11  23  45  66  90 133 167 219 265 315 389
#     4  11  23  41  67  93 131 171 208 264 327 382
#
# _framework density 20.731418999999999
#
# number of rings (size 3 to 8) (size 9 to 14) (size 15 to 20)
#    0.000    1.500    2.500    3.000    1.750    3.500 
#    4.500    1.250    0.000    0.000    0.000    0.000 
#    0.000    0.000    0.000    0.000    0.000    0.000 
#
# Total GULP energy -198253.287646 kJ/mol
# GULP energy per Si atom -12390.830478 kJ/mol
# Density = 2.068423 g / cm^3
# Si number density = 20.731419 Si / 1000 Ang^3
#
#
#
# Elastic Constant Matrix: (Units=GPa)
#
#
# Indices 1 2 3 4 5 6 
#
# 1 118.7014 45.8195 53.8853 1.8497 -12.5726 26.7936
# 2 45.8195 96.1542 52.7487 1.9948 -2.3897 27.5412
# 3 53.8853 52.7487 126.4589 7.8551 -24.6208 23.5919
# 4 1.8497 1.9948 7.8551 38.6733 5.2776 -1.1485
# 5 -12.5726 -2.3897 -24.6208 5.2776 27.5823 -3.9582
# 6 26.7936 27.5412 23.5919 -1.1485 -3.9582 37.3430
#
#
#
# Elastic Compliance Matrix: (Units=1/GPa)
#
#
# Indices 1 2 3 4 5 6 
#
# 1 0.012011 -0.002939 -0.002554 -0.000361 0.002349 -0.004599
# 2 -0.002939 0.016844 -0.005675 0.001052 -0.006202 -0.007354
# 3 -0.002554 -0.005675 0.014215 -0.004104 0.011550 -0.001864
# 4 -0.000361 0.001052 -0.004104 0.027913 -0.008790 0.002003
# 5 0.002349 -0.006202 0.011550 -0.008790 0.048852 0.000500
# 6 -0.004599 -0.007354 -0.001864 0.002003 0.000500 0.036794
#
#
# Mechanical properties :
#
#
# Convention : Reuss Voigt Hill
#
# Bulk Modulus (GPa) = 48.23115 71.80240 60.01677
# Shear Modulus (GPa) = 26.89960 33.31045 30.10503
#
# Velocity S-wave (km/s) = 3.60603 4.01279 3.81484
# Velocity P-wave (km/s) = 6.37599 7.49532 6.95820
#
# Compressibility (1/GPa) = 0.02073349
#
# Stress axis : x y z
#
# Youngs Moduli (GPa) = 83.25659 59.36864 70.35062
#
# Poissons Ratio (x) = 0.17450 0.17969
# Poissons Ratio (y) = 0.24471 0.39920
# Poissons Ratio (z) = 0.21266 0.33689
#
# Static dielectric constant tensor:
#      x y z
#    x 3.122120 0.463650 -0.776360 
#    y 0.463650 3.687910 0.168590 
#    z -0.776360 0.168590 4.030490 
# 
# 
# High freq. dielectric constant tensor:
#      x y z
#    x 1.811340 0.008810 -0.015760 
#    y 0.008810 1.816110 0.006810 
#    z -0.015760 0.006810 1.816900 
# 
# From -- ./inp_files/503917.got.cif
#   From: 2010.06.25/outbox.cif.g09.slc.cpg/sg2_252_cif.got.tgz:503917.got - 2010.06.27 13:26:56.
