data_PCOD8011369
_publ_section_title
;
Structure prediction by ZEFSAII (Michael W. Deem and Ramdas Pophale) SiO2 
 PCOD8011369
Probable space group: P -1
;
_chemical_formula_sum "Si O2"
_cell_formula_units_Z 16
_cell_length_a 15.953986
_cell_length_b 16.623248
_cell_length_c 8.552157
_cell_angle_alpha 56.326954
_cell_angle_beta 122.173971
_cell_angle_gamma 156.041105
_cell_volume 764.255624
_symmetry_space_group_name_H-M "P -1"
_symmetry_group_IT_number 2
_symmetry_cell_setting 'triclinic'
loop_
_space_group_symop_operation_xyz
x,y,z
-x,-y,-z
loop_
_atom_site_type_symbol
_atom_site_label
_atom_site_fract_x
_atom_site_fract_y
_atom_site_fract_z
Si Si1 0.977647 0.422553 0.846280
Si Si2 0.371423 0.295699 0.923461
Si Si3 0.977932 0.052066 0.279561
Si Si4 0.771260 0.197043 0.203949
Si Si5 0.640325 0.700066 0.742887
Si Si6 0.582631 0.298169 0.994753
Si Si7 0.308878 0.076847 0.674921
Si Si8 0.410768 0.963604 0.290206
O O1 0.831169 0.275273 0.709517
O O2 0.059177 0.604159 0.729154
O O3 0.175089 0.520401 0.944641
O O4 0.824497 0.273757 0.999056
O O5 0.318568 0.221353 0.129316
O O6 0.547168 0.375151 0.942430
O O7 0.167865 0.117521 0.812537
O O8 0.428537 0.458324 0.794861
O O9 0.881634 0.068261 0.235887
O O10 0.000000 0.000000 0.500000
O O11 0.198527 0.246623 0.204373
O O12 0.765518 0.075775 0.343060
O O13 0.543645 0.038376 0.194911
O O14 0.636965 0.785189 0.526659
O O15 0.437456 0.102411 0.165211
O O16 0.513077 0.229781 0.816746
O O17 0.500000 0.000000 0.500000
#
# Coordination Sequence:
#
# PCOD8011369 Si02
#       8
#     2   2   2   2   2   2   2   2
#     4  10  22  41  65  89 119 160 201 249 302 355
#     4  10  22  40  61  91 124 161 200 248 308 356
#     4   9  20  38  62  87 119 159 204 247 297 349
#     4  10  22  38  63  90 118 155 205 248 294 358
#     4  10  22  40  62  87 125 160 200 254 302 359
#     4  10  23  38  62  91 123 159 205 248 300 362
#     4  10  21  39  60  93 122 159 206 252 299 351
#     4  11  24  42  63  87 128 157 195 252 307 362
#
# _framework density 20.935403000000001
#
# number of rings (size 3 to 8) (size 9 to 14) (size 15 to 20)
#    0.000    2.000    1.250    0.750    7.000    6.500 
#    2.250    1.250    2.750    0.000    0.000    0.000 
#    0.000    0.000    0.000    0.000    0.000    0.000 
#
# Total GULP energy -198262.945056 kJ/mol
# GULP energy per Si atom -12391.434066 kJ/mol
# Density = 2.088775 g / cm^3
# Si number density = 20.935403 Si / 1000 Ang^3
#
#
#
# Elastic Constant Matrix: (Units=GPa)
#
#
# Indices 1 2 3 4 5 6 
#
# 1 62.1807 18.8335 23.2114 -5.3847 4.8524 -4.1955
# 2 18.8335 102.6998 52.0409 10.8963 12.0406 -4.8791
# 3 23.2114 52.0409 116.6385 8.4175 3.2400 -10.8047
# 4 -5.3847 10.8963 8.4175 34.2564 -2.9910 5.1071
# 5 4.8524 12.0406 3.2400 -2.9910 26.7237 -5.0423
# 6 -4.1955 -4.8791 -10.8047 5.1071 -5.0423 32.8087
#
#
#
# Elastic Compliance Matrix: (Units=1/GPa)
#
#
# Indices 1 2 3 4 5 6 
#
# 1 0.018307 -0.002120 -0.002935 0.004113 -0.001518 0.000186
# 2 -0.002120 0.013921 -0.005371 -0.003905 -0.005719 -0.000241
# 3 -0.002935 -0.005371 0.011960 -0.002028 0.001913 0.003374
# 4 0.004113 -0.003905 -0.002028 0.032698 0.003935 -0.005208
# 5 -0.001518 -0.005719 0.001913 0.003935 0.041490 0.005349
# 6 0.000186 -0.000241 0.003374 -0.005208 0.005349 0.033212
#
#
# Mechanical properties :
#
#
# Convention : Reuss Voigt Hill
#
# Bulk Modulus (GPa) = 42.85118 52.18785 47.51952
# Shear Modulus (GPa) = 27.74436 31.25329 29.49883
#
# Velocity S-wave (km/s) = 3.64433 3.86793 3.75779
# Velocity P-wave (km/s) = 6.18231 6.70298 6.44790
#
# Compressibility (1/GPa) = 0.02333658
#
# Stress axis : x y z
#
# Youngs Moduli (GPa) = 54.62439 71.83558 83.61460
#
# Poissons Ratio (x) = 0.15226 0.24540
# Poissons Ratio (y) = 0.11578 0.44908
# Poissons Ratio (z) = 0.16031 0.38582
#
# Static dielectric constant tensor:
#      x y z
#    x 4.187110 0.086710 0.197360 
#    y 0.086710 3.882160 0.035260 
#    z 0.197360 0.035260 4.090180 
# 
# 
# High freq. dielectric constant tensor:
#      x y z
#    x 1.823270 -0.003660 -0.001670 
#    y -0.003660 1.822920 0.000130 
#    z -0.001670 0.000130 1.804960 
# 
# From -- ./inp_files/45083.got.cif
#   From: 2010.06.25/outbox.cif.g09.slc.cpg/sg2_23_cif.got.tgz:45083.got - 2010.06.27 13:26:56.
