data_PCOD8011395
_publ_section_title
;
Structure prediction by ZEFSAII (Michael W. Deem and Ramdas Pophale) SiO2 
 PCOD8011395
Probable space group: P -1
;
_chemical_formula_sum "Si O2"
_cell_formula_units_Z 12
_cell_length_a 9.504989
_cell_length_b 13.615363
_cell_length_c 8.185604
_cell_angle_alpha 51.757482
_cell_angle_beta 67.706784
_cell_angle_gamma 104.052736
_cell_volume 580.175741
_symmetry_space_group_name_H-M "P -1"
_symmetry_group_IT_number 2
_symmetry_cell_setting 'triclinic'
loop_
_space_group_symop_operation_xyz
x,y,z
-x,-y,-z
loop_
_atom_site_type_symbol
_atom_site_label
_atom_site_fract_x
_atom_site_fract_y
_atom_site_fract_z
Si Si1 0.338722 0.335362 0.140158
Si Si2 0.750495 0.583262 0.243973
Si Si3 0.911542 0.057277 0.602804
Si Si4 0.364212 0.242219 0.727261
Si Si5 0.566529 0.848736 0.546830
Si Si6 0.200271 0.815464 0.741837
O O1 0.410858 0.228625 0.224498
O O2 0.111940 0.221319 0.434661
O O3 0.500000 0.500000 0.000000
O O4 0.325982 0.376455 0.918682
O O5 0.597782 0.384242 0.538405
O O6 0.740168 0.676609 0.302166
O O7 0.975240 0.651380 0.058460
O O8 0.799077 0.107552 0.505941
O O9 0.000000 0.000000 0.500000
O O10 0.753624 0.919660 0.942913
O O11 0.356819 0.189912 0.600191
O O12 0.333254 0.762646 0.715890
O O13 0.704570 0.046454 0.300025
#
# Coordination Sequence:
#
# PCOD8011395 Si02
#       6
#     2   2   2   2   2   2
#     4  11  20  39  59  88 114 159 194 237 291 354
#     4  10  21  39  61  87 118 156 196 239 293 347
#     4  11  20  40  61  81 117 162 194 236 298 348
#     4  11  21  36  62  92 113 153 203 247 275 352
#     4  11  22  36  64  91 120 150 200 240 292 344
#     4  10  22  41  60  86 123 162 183 240 303 350
#
# _framework density 20.683388999999998
#
# number of rings (size 3 to 8) (size 9 to 14) (size 15 to 20)
#    0.000    1.333    6.667    0.000    0.000    4.000 
#    0.000    0.000    0.000    6.000    0.000    0.000 
#    0.000    0.000    0.000    0.000    0.000    0.000 
#
# Total GULP energy -148729.840704 kJ/mol
# GULP energy per Si atom -12394.153392 kJ/mol
# Density = 2.063631 g / cm^3
# Si number density = 20.683389 Si / 1000 Ang^3
#
#
#
# Elastic Constant Matrix: (Units=GPa)
#
#
# Indices 1 2 3 4 5 6 
#
# 1 134.4836 23.5141 47.6777 5.9248 -17.7327 -7.2358
# 2 23.5141 78.9722 30.2503 5.9972 -4.5739 9.2795
# 3 47.6777 30.2503 147.2348 -9.1863 -33.0179 2.6927
# 4 5.9248 5.9972 -9.1863 27.9262 3.6839 -6.9761
# 5 -17.7327 -4.5739 -33.0179 3.6839 25.8541 -10.0768
# 6 -7.2358 9.2795 2.6927 -6.9761 -10.0768 20.6293
#
#
#
# Elastic Compliance Matrix: (Units=1/GPa)
#
#
# Indices 1 2 3 4 5 6 
#
# 1 0.009970 -0.003200 -0.000762 -0.000557 0.008978 0.009233
# 2 -0.003200 0.017404 -0.005153 -0.007333 -0.010924 -0.016094
# 3 -0.000762 -0.005153 0.012204 0.005705 0.017625 0.010996
# 4 -0.000557 -0.007333 0.005705 0.043574 0.007485 0.020750
# 5 0.008978 -0.010924 0.017625 0.007485 0.083470 0.049066
# 6 0.009233 -0.016094 0.010996 0.020750 0.049066 0.088501
#
#
# Mechanical properties :
#
#
# Convention : Reuss Voigt Hill
#
# Bulk Modulus (GPa) = 46.83484 62.61941 54.72713
# Shear Modulus (GPa) = 17.82726 32.16515 24.99621
#
# Velocity S-wave (km/s) = 2.93902 3.94778 3.48014
# Velocity P-wave (km/s) = 5.84893 7.14989 6.53188
#
# Compressibility (1/GPa) = 0.02135163
#
# Stress axis : x y z
#
# Youngs Moduli (GPa) = 100.29734 57.45657 81.93748
#
# Poissons Ratio (x) = 0.18384 0.06240
# Poissons Ratio (y) = 0.32092 0.42219
# Poissons Ratio (z) = 0.07638 0.29605
#
# Static dielectric constant tensor:
#      x y z
#    x 3.851170 0.168390 -0.245120 
#    y 0.168390 3.704550 -0.306910 
#    z -0.245120 -0.306910 4.170540 
# 
# 
# High freq. dielectric constant tensor:
#      x y z
#    x 1.797630 0.014660 -0.017720 
#    y 0.014660 1.792730 -0.018170 
#    z -0.017720 -0.018170 1.816510 
# 
# From -- ./inp_files/155875.got.cif
#   From: 2010.06.25/outbox.cif.g09.slc.cpg/sg2_78_cif.got.tgz:155875.got - 2010.06.27 13:26:56.
