data_PCOD8011477
_publ_section_title
;
Structure prediction by ZEFSAII (Michael W. Deem and Ramdas Pophale) SiO2 
 PCOD8011477
Probable space group: P -1
;
_chemical_formula_sum "Si O2"
_cell_formula_units_Z 14
_cell_length_a 5.543967
_cell_length_b 20.663800
_cell_length_c 15.136780
_cell_angle_alpha 21.196228
_cell_angle_beta 80.609096
_cell_angle_gamma 82.839421
_cell_volume 616.731749
_symmetry_space_group_name_H-M "P -1"
_symmetry_group_IT_number 2
_symmetry_cell_setting 'triclinic'
loop_
_space_group_symop_operation_xyz
x,y,z
-x,-y,-z
loop_
_atom_site_type_symbol
_atom_site_label
_atom_site_fract_x
_atom_site_fract_y
_atom_site_fract_z
Si Si1 0.089568 0.542525 0.067644
Si Si2 0.272921 0.162427 0.272683
Si Si3 0.263982 0.442370 0.528598
Si Si4 0.592182 0.470253 0.781819
Si Si5 0.229424 0.029808 0.016582
Si Si6 0.400995 0.828615 0.600775
Si Si7 0.274096 0.758282 0.510786
O O1 0.176782 0.467712 0.250804
O O2 0.937898 0.364211 0.266096
O O3 0.309100 0.618754 0.893404
O O4 0.949538 0.717031 0.873152
O O5 0.347002 0.127474 0.415472
O O6 0.214526 0.974606 0.462113
O O7 0.499258 0.270554 0.071567
O O8 0.500000 0.500000 0.500000
O O9 0.320940 0.540506 0.308699
O O10 0.000000 0.500000 0.500000
O O11 0.237806 0.230387 0.793844
O O12 0.400718 0.621089 0.614049
O O13 0.176052 0.907602 0.262314
O O14 0.500000 0.000000 0.000000
O O15 0.000000 0.000000 0.000000
O O16 0.439922 0.847004 0.468648
#
# Coordination Sequence:
#
# PCOD8011477 Si02
#       7
#     2   2   2   2   2   2   2
#     4  10  21  39  64  93 131 177 219 288 344 421
#     4   9  21  39  63  90 140 168 222 283 346 423
#     4  12  28  47  75 107 144 188 246 304 364 433
#     4  10  23  42  64  92 134 180 224 290 356 416
#     4  12  26  50  75 106 148 190 241 303 365 427
#     4  10  21  39  61  99 128 177 223 280 348 417
#     4  11  24  39  68  94 135 176 235 280 353 424
#
# _framework density 22.700308
#
# number of rings (size 3 to 8) (size 9 to 14) (size 15 to 20)
#    0.000    1.429    1.429    2.571    6.000    6.286 
#    0.000    0.000    0.000    0.000    0.000    0.000 
#    0.000    0.000    0.000    0.000    0.000    0.000 
#
# Total GULP energy -173454.934371 kJ/mol
# GULP energy per Si atom -12389.638169 kJ/mol
# Density = 2.264864 g / cm^3
# Si number density = 22.700308 Si / 1000 Ang^3
#
#
#
# Elastic Constant Matrix: (Units=GPa)
#
#
# Indices 1 2 3 4 5 6 
#
# 1 108.4947 42.5989 38.9198 -3.1338 9.1925 18.2846
# 2 42.5989 127.3377 51.1467 14.8897 -1.0401 20.7269
# 3 38.9198 51.1467 134.0545 -3.0610 4.3781 16.3479
# 4 -3.1338 14.8897 -3.0610 43.9076 8.1468 9.7691
# 5 9.1925 -1.0401 4.3781 8.1468 32.7770 -2.1916
# 6 18.2846 20.7269 16.3479 9.7691 -2.1916 32.9795
#
#
#
# Elastic Compliance Matrix: (Units=1/GPa)
#
#
# Indices 1 2 3 4 5 6 
#
# 1 0.012468 -0.003160 -0.001471 0.004015 -0.004780 -0.005704
# 2 -0.003160 0.011072 -0.003218 -0.004190 0.002562 -0.002200
# 3 -0.001471 -0.003218 0.009575 0.002612 -0.001805 -0.002802
# 4 0.004015 -0.004190 0.002612 0.028631 -0.009392 -0.009992
# 5 -0.004780 0.002562 -0.001805 -0.009392 0.034977 0.007041
# 6 -0.005704 -0.002200 -0.002802 -0.009992 0.007041 0.039684
#
#
# Mechanical properties :
#
#
# Convention : Reuss Voigt Hill
#
# Bulk Modulus (GPa) = 57.41600 70.57976 63.99788
# Shear Modulus (GPa) = 31.66383 37.74760 34.70571
#
# Velocity S-wave (km/s) = 3.73884 4.08225 3.91431
# Velocity P-wave (km/s) = 6.63223 7.30611 6.97731
#
# Compressibility (1/GPa) = 0.01741675
#
# Stress axis : x y z
#
# Youngs Moduli (GPa) = 80.20747 90.31950 104.44222
#
# Poissons Ratio (x) = 0.28543 0.15359
# Poissons Ratio (y) = 0.25347 0.33608
# Poissons Ratio (z) = 0.11795 0.29064
#
# Static dielectric constant tensor:
#      x y z
#    x 4.147370 0.377700 -0.262110 
#    y 0.377700 3.861830 0.044440 
#    z -0.262110 0.044440 4.313100 
# 
# 
# High freq. dielectric constant tensor:
#      x y z
#    x 1.898240 0.016150 0.005240 
#    y 0.016150 1.887680 -0.002150 
#    z 0.005240 -0.002150 1.912260 
# 
# From -- ./inp_files/89010.got.cif
#   From: 2010.06.25/outbox.cif.g09.slc.cpg/sg2_45_cif.got.tgz:89010.got - 2010.06.27 13:26:56.
