data_PCOD8011977
_publ_section_title
;
Structure prediction by ZEFSAII (Michael W. Deem and Ramdas Pophale) SiO2 
 PCOD8011977
Probable space group: P -1
;
_chemical_formula_sum "Si O2"
_cell_formula_units_Z 16
_cell_length_a 9.709813
_cell_length_b 27.908598
_cell_length_c 9.151676
_cell_angle_alpha 143.425388
_cell_angle_beta 116.332056
_cell_angle_gamma 36.535559
_cell_volume 723.696760
_symmetry_space_group_name_H-M "P -1"
_symmetry_group_IT_number 2
_symmetry_cell_setting 'triclinic'
loop_
_space_group_symop_operation_xyz
x,y,z
-x,-y,-z
loop_
_atom_site_type_symbol
_atom_site_label
_atom_site_fract_x
_atom_site_fract_y
_atom_site_fract_z
Si Si1 0.060860 0.936149 0.647183
Si Si2 0.853157 0.633642 0.669422
Si Si3 0.537814 0.453597 0.743991
Si Si4 0.792376 0.388629 0.290528
Si Si5 0.588141 0.076604 0.320570
Si Si6 0.898615 0.785936 0.729499
Si Si7 0.348609 0.770359 0.655755
Si Si8 0.537209 0.071909 0.621019
O O1 0.277188 0.892564 0.539224
O O2 0.241430 0.802561 0.518626
O O3 0.855466 0.966430 0.537107
O O4 0.890815 0.078368 0.999859
O O5 0.631185 0.699211 0.607349
O O6 0.000000 0.500000 0.500000
O O7 0.108713 0.562374 0.526359
O O8 0.697685 0.766554 0.026407
O O9 0.261468 0.603291 0.888009
O O10 0.571215 0.343358 0.493939
O O11 0.818128 0.366512 0.590859
O O12 0.500000 0.500000 0.000000
O O13 0.500000 0.500000 0.500000
O O14 0.041136 0.232169 0.109552
O O15 0.324891 0.184825 0.349823
O O16 0.488593 0.092610 0.474245
O O17 0.804213 0.916703 0.961515
O O18 0.500000 0.000000 0.500000
#
# Coordination Sequence:
#
# PCOD8011977 Si02
#       8
#     2   2   2   2   2   2   2   2
#     4  10  22  41  66  92 130 172 217 273 336 395
#     4  11  22  41  66  93 129 174 219 272 332 395
#     4  11  23  39  65  95 132 173 216 274 319 392
#     4  10  22  41  63  93 126 179 222 262 324 402
#     4  11  22  41  67  95 134 172 216 285 333 399
#     4  10  23  39  66  95 134 172 223 267 340 393
#     4  10  21  39  65  93 126 170 220 263 335 396
#     4  11  26  40  65 100 132 173 225 282 331 399
#
# _framework density 22.108708
#
# number of rings (size 3 to 8) (size 9 to 14) (size 15 to 20)
#    0.000    1.500    2.500    1.875    3.500    3.000 
#    0.000    3.750    0.000    5.250    0.000    0.000 
#    0.000    0.000    0.000    0.000    0.000    0.000 
#
# Total GULP energy -198214.202237 kJ/mol
# GULP energy per Si atom -12388.387640 kJ/mol
# Density = 2.205839 g / cm^3
# Si number density = 22.108708 Si / 1000 Ang^3
#
#
#
# Elastic Constant Matrix: (Units=GPa)
#
#
# Indices 1 2 3 4 5 6 
#
# 1 141.8256 55.5058 16.7148 8.7451 -7.2450 -15.0832
# 2 55.5058 191.0320 40.6160 -1.0967 -7.2958 -3.9292
# 3 16.7148 40.6160 49.8102 2.6555 4.0643 -1.0071
# 4 8.7451 -1.0967 2.6555 27.8533 1.5527 -2.2187
# 5 -7.2450 -7.2958 4.0643 1.5527 24.1234 -0.6606
# 6 -15.0832 -3.9292 -1.0071 -2.2187 -0.6606 40.2280
#
#
#
# Elastic Compliance Matrix: (Units=1/GPa)
#
#
# Indices 1 2 3 4 5 6 
#
# 1 0.008604 -0.002118 -0.001159 -0.002577 0.002384 0.002887
# 2 -0.002118 0.007074 -0.005319 0.001312 0.002312 -0.000126
# 3 -0.001159 -0.005319 0.025396 -0.001967 -0.006123 -0.000527
# 4 -0.002577 0.001312 -0.001967 0.037174 -0.002408 0.001123
# 5 0.002384 0.002312 -0.006123 -0.002408 0.044098 0.001558
# 6 0.002887 -0.000126 -0.000527 0.001123 0.001558 0.026003
#
#
# Mechanical properties :
#
#
# Convention : Reuss Voigt Hill
#
# Bulk Modulus (GPa) = 41.87101 67.59345 54.73223
# Shear Modulus (GPa) = 28.81809 36.42967 32.62388
#
# Velocity S-wave (km/s) = 3.61428 4.06366 3.84554
# Velocity P-wave (km/s) = 6.03301 7.25654 6.67287
#
# Compressibility (1/GPa) = 0.02388287
#
# Stress axis : x y z
#
# Youngs Moduli (GPa) = 116.22312 141.35904 39.37621
#
# Poissons Ratio (x) = 0.29939 0.04564
# Poissons Ratio (y) = 0.24615 0.20943
# Poissons Ratio (z) = 0.13470 0.75186
#
# Static dielectric constant tensor:
#      x y z
#    x 4.312990 0.205000 0.001530 
#    y 0.205000 4.877350 0.291840 
#    z 0.001530 0.291840 3.623220 
# 
# 
# High freq. dielectric constant tensor:
#      x y z
#    x 1.882100 -0.003880 -0.005630 
#    y -0.003880 1.896320 0.012160 
#    z -0.005630 0.012160 1.830060 
# 
# From -- ./inp_files/227762.got.cif
#   From: 2010.06.25/outbox.cif.g09.slc.cpg/sg2_114_cif.got.tgz:227762.got - 2010.06.27 13:26:56.
