data_PCOD8011320
_publ_section_title
;
Structure prediction by ZEFSAII (Michael W. Deem and Ramdas Pophale) SiO2 
 PCOD8011320
Probable space group: P -1
;
_chemical_formula_sum "Si O2"
_cell_formula_units_Z 14
_cell_length_a 19.365322
_cell_length_b 5.123676
_cell_length_c 16.127177
_cell_angle_alpha 91.805728
_cell_angle_beta 155.050820
_cell_angle_gamma 87.094120
_cell_volume 673.707503
_symmetry_space_group_name_H-M "P -1"
_symmetry_group_IT_number 2
_symmetry_cell_setting 'triclinic'
loop_
_space_group_symop_operation_xyz
x,y,z
-x,-y,-z
loop_
_atom_site_type_symbol
_atom_site_label
_atom_site_fract_x
_atom_site_fract_y
_atom_site_fract_z
Si Si1 0.159909 0.542788 0.726308
Si Si2 0.098336 0.138423 0.903920
Si Si3 0.067921 0.335742 0.231977
Si Si4 0.570555 0.731765 0.678080
Si Si5 0.310121 0.039082 0.816134
Si Si6 0.369561 0.254936 0.445066
Si Si7 0.066800 0.169016 0.401324
O O1 0.276786 0.276597 0.848340
O O2 0.000000 0.500000 0.500000
O O3 0.087675 0.633470 0.737773
O O4 0.260064 0.771914 0.798605
O O5 0.008177 0.374237 0.857623
O O6 0.289498 0.195247 0.103788
O O7 0.074067 0.875625 0.929912
O O8 0.018286 0.096446 0.724818
O O9 0.193520 0.293078 0.294437
O O10 0.152212 0.298239 0.415357
O O11 0.492321 0.463445 0.618092
O O12 0.651851 0.698659 0.675613
O O13 0.430960 0.961371 0.529363
O O14 0.202203 0.102283 0.617224
O O15 0.500000 0.000000 0.000000
#
# Coordination Sequence:
#
# PCOD8011320 Si02
#       7
#     2   2   2   2   2   2   2
#     4  10  21  39  66  80 113 156 192 230 288 349
#     4  10  22  37  59  85 116 153 192 240 278 353
#     4  10  22  37  59  84 119 152 190 244 290 333
#     4  10  21  39  60  84 118 154 200 231 286 347
#     4  11  23  40  62  89 113 148 199 239 286 341
#     4  10  21  39  60  85 119 156 188 245 285 336
#     4   9  23  39  60  83 121 149 195 235 293 339
#
# _framework density 20.780529999999999
#
# number of rings (size 3 to 8) (size 9 to 14) (size 15 to 20)
#    0.857    1.143    0.000    3.857    6.000    1.143 
#    2.571    0.000    0.000    0.000    0.000    0.000 
#    0.000    0.000    0.000    0.000    0.000    0.000 
#
# Total GULP energy -173482.132594 kJ/mol
# GULP energy per Si atom -12391.580900 kJ/mol
# Density = 2.073323 g / cm^3
# Si number density = 20.780530 Si / 1000 Ang^3
#
#
#
# Elastic Constant Matrix: (Units=GPa)
#
#
# Indices 1 2 3 4 5 6 
#
# 1 29.6838 20.7556 5.5975 -2.0547 14.7019 -8.5213
# 2 20.7556 133.6062 24.4210 14.1763 12.9040 -16.5124
# 3 5.5975 24.4210 81.1537 8.1449 8.0765 -12.3408
# 4 -2.0547 14.1763 8.1449 29.0552 0.7173 11.1326
# 5 14.7019 12.9040 8.0765 0.7173 27.4933 -5.1694
# 6 -8.5213 -16.5124 -12.3408 11.1326 -5.1694 28.7103
#
#
#
# Elastic Compliance Matrix: (Units=1/GPa)
#
#
# Indices 1 2 3 4 5 6 
#
# 1 0.051447 -0.005464 0.001112 0.004019 -0.024117 0.006704
# 2 -0.005464 0.010164 -0.000858 -0.007719 -0.000111 0.006828
# 3 0.001112 -0.000858 0.014713 -0.006727 -0.002784 0.008268
# 4 0.004019 -0.007719 -0.006727 0.050464 -0.002795 -0.026209
# 5 -0.024117 -0.000111 -0.002784 -0.002795 0.050544 0.001765
# 6 0.006704 0.006828 0.008268 -0.026209 0.001765 0.054782
#
#
# Mechanical properties :
#
#
# Convention : Reuss Voigt Hill
#
# Bulk Modulus (GPa) = 15.17338 38.44356 26.80847
# Shear Modulus (GPa) = 18.90347 29.96306 24.43327
#
# Velocity S-wave (km/s) = 3.01935 3.80133 3.43268
# Velocity P-wave (km/s) = 4.41281 6.14872 5.35162
#
# Compressibility (1/GPa) = 0.06590490
#
# Stress axis : x y z
#
# Youngs Moduli (GPa) = 19.43746 98.38734 67.96636
#
# Poissons Ratio (x) = 0.53760 -0.07558
# Poissons Ratio (y) = 0.10621 0.05829
# Poissons Ratio (z) = -0.02162 0.08438
#
# Static dielectric constant tensor:
#      x y z
#    x 3.766330 -0.361080 0.053170 
#    y -0.361080 4.323570 0.108760 
#    z 0.053170 0.108760 3.488350 
# 
# 
# High freq. dielectric constant tensor:
#      x y z
#    x 1.800640 -0.010250 0.011440 
#    y -0.010250 1.838210 0.008290 
#    z 0.011440 0.008290 1.787990 
# 
# From -- ./inp_files/287116.got.cif
#   From: 2010.06.25/outbox.cif.g09.slc.cpg/sg2_144_cif.got.tgz:287116.got - 2010.06.27 13:26:56.
