data_PCOD8011931
_publ_section_title
;
Structure prediction by ZEFSAII (Michael W. Deem and Ramdas Pophale) SiO2 
 PCOD8011931
Probable space group: P -1
;
_chemical_formula_sum "Si O2"
_cell_formula_units_Z 14
_cell_length_a 10.825423
_cell_length_b 13.784308
_cell_length_c 11.530278
_cell_angle_alpha 33.086381
_cell_angle_beta 136.663188
_cell_angle_gamma 125.612732
_cell_volume 642.912116
_symmetry_space_group_name_H-M "P -1"
_symmetry_group_IT_number 2
_symmetry_cell_setting 'triclinic'
loop_
_space_group_symop_operation_xyz
x,y,z
-x,-y,-z
loop_
_atom_site_type_symbol
_atom_site_label
_atom_site_fract_x
_atom_site_fract_y
_atom_site_fract_z
Si Si1 0.534803 0.689167 0.889811
Si Si2 0.031712 0.456815 0.252975
Si Si3 0.455857 0.664710 0.471230
Si Si4 0.183496 0.466052 0.591313
Si Si5 0.736152 0.776989 0.726363
Si Si6 0.668087 0.331238 0.860194
Si Si7 0.793515 0.156369 0.339804
O O1 0.605263 0.812375 0.712092
O O2 0.349524 0.774536 0.729988
O O3 0.500000 0.500000 0.000000
O O4 0.685705 0.675005 0.107875
O O5 0.133586 0.395542 0.501380
O O6 0.165739 0.542800 0.168921
O O7 0.965234 0.274152 0.339815
O O8 0.863451 0.600754 0.015484
O O9 0.285947 0.649670 0.458148
O O10 0.615134 0.760487 0.544942
O O11 0.510485 0.457738 0.684673
O O12 0.393450 0.757571 0.213806
O O13 0.000000 0.500000 0.500000
O O14 0.850966 0.948975 0.612689
O O15 0.715042 0.170489 0.141730
#
# Coordination Sequence:
#
# PCOD8011931 Si02
#       7
#     2   2   2   2   2   2   2
#     4  12  20  42  68  89 124 163 205 254 313 369
#     4  11  23  40  62  93 126 163 205 256 305 367
#     4  10  21  39  65  90 121 166 209 255 302 370
#     4  11  19  36  69  88 117 166 202 253 315 356
#     4  12  24  40  65  94 126 162 209 253 312 370
#     4  10  21  41  65  89 125 167 210 248 311 361
#     4  12  24  41  65  93 125 167 204 255 310 370
#
# _framework density 21.775915999999999
#
# number of rings (size 3 to 8) (size 9 to 14) (size 15 to 20)
#    0.000    0.857    7.143    0.857    0.000    1.143 
#    0.000    3.571    0.000    0.000    0.000    0.000 
#    0.000    0.000    0.000    0.000    0.000    0.000 
#
# Total GULP energy -173558.586375 kJ/mol
# GULP energy per Si atom -12397.041884 kJ/mol
# Density = 2.172635 g / cm^3
# Si number density = 21.775916 Si / 1000 Ang^3
#
#
#
# Elastic Constant Matrix: (Units=GPa)
#
#
# Indices 1 2 3 4 5 6 
#
# 1 84.4292 16.9688 7.6345 1.9870 -13.6514 6.8798
# 2 16.9688 100.2730 55.1981 9.1113 -9.7340 5.4058
# 3 7.6345 55.1981 74.5453 10.1576 -25.7212 -1.9252
# 4 1.9870 9.1113 10.1576 33.8119 3.2579 -4.8691
# 5 -13.6514 -9.7340 -25.7212 3.2579 36.4084 7.8117
# 6 6.8798 5.4058 -1.9252 -4.8691 7.8117 23.8506
#
#
#
# Elastic Compliance Matrix: (Units=1/GPa)
#
#
# Indices 1 2 3 4 5 6 
#
# 1 0.014234 -0.003320 0.004476 -0.003149 0.009329 -0.006690
# 2 -0.003320 0.018841 -0.016211 0.000371 -0.007226 -0.002179
# 3 0.004476 -0.016211 0.034047 -0.008965 0.023115 -0.004270
# 4 -0.003149 0.000371 -0.008965 0.035279 -0.013056 0.011579
# 5 0.009329 -0.007226 0.023115 -0.013056 0.050475 -0.018385
# 6 -0.006690 -0.002179 -0.004270 0.011579 -0.018385 0.052392
#
#
# Mechanical properties :
#
#
# Convention : Reuss Voigt Hill
#
# Bulk Modulus (GPa) = 27.01865 46.53892 36.77879
# Shear Modulus (GPa) = 20.18440 30.77725 25.48083
#
# Velocity S-wave (km/s) = 3.04783 3.76355 3.42444
# Velocity P-wave (km/s) = 4.98199 6.34853 5.70632
#
# Compressibility (1/GPa) = 0.03701148
#
# Stress axis : x y z
#
# Youngs Moduli (GPa) = 70.25193 53.07664 29.37132
#
# Poissons Ratio (x) = 0.17623 -0.13146
# Poissons Ratio (y) = 0.23326 0.47613
# Poissons Ratio (z) = -0.31444 0.86041
#
# Static dielectric constant tensor:
#      x y z
#    x 4.290530 0.098250 -0.225280 
#    y 0.098250 3.813990 0.400090 
#    z -0.225280 0.400090 3.891860 
# 
# 
# High freq. dielectric constant tensor:
#      x y z
#    x 1.876910 0.010810 -0.021990 
#    y 0.010810 1.835060 0.034580 
#    z -0.021990 0.034580 1.837460 
# 
# From -- ./inp_files/238369.got.cif
#   From: 2010.06.25/outbox.cif.g09.slc.cpg/sg2_120_cif.got.tgz:238369.got - 2010.06.27 13:26:56.
