data_PCOD8011081
_publ_section_title
;
Structure prediction by ZEFSAII (Michael W. Deem and Ramdas Pophale) SiO2 
 PCOD8011081
Probable space group: P -1
;
_chemical_formula_sum "Si O2"
_cell_formula_units_Z 16
_cell_length_a 5.274600
_cell_length_b 22.686928
_cell_length_c 12.564246
_cell_angle_alpha 30.109040
_cell_angle_beta 72.777707
_cell_angle_gamma 68.762081
_cell_volume 702.519350
_symmetry_space_group_name_H-M "P -1"
_symmetry_group_IT_number 2
_symmetry_cell_setting 'triclinic'
loop_
_space_group_symop_operation_xyz
x,y,z
-x,-y,-z
loop_
_atom_site_type_symbol
_atom_site_label
_atom_site_fract_x
_atom_site_fract_y
_atom_site_fract_z
Si Si1 0.627526 0.360266 0.499905
Si Si2 0.322910 0.854027 0.468983
Si Si3 0.642094 0.216035 0.925951
Si Si4 0.512211 0.360364 0.919175
Si Si5 0.123227 0.044594 0.020454
Si Si6 0.667731 0.955345 0.654348
Si Si7 0.013602 0.750024 0.821822
Si Si8 0.263787 0.249850 0.572083
O O1 0.522647 0.301983 0.708209
O O2 0.608797 0.499957 0.304102
O O3 0.424811 0.343265 0.457286
O O4 0.940359 0.299340 0.528763
O O5 0.105007 0.773955 0.652204
O O6 0.621001 0.774019 0.525853
O O7 0.243410 0.927857 0.256156
O O8 0.328415 0.927948 0.460165
O O9 0.675414 0.302010 0.885840
O O10 0.446394 0.130435 0.116957
O O11 0.923536 0.130521 0.991561
O O12 0.731924 0.343403 0.012737
O O13 0.260316 0.299463 0.073085
O O14 0.332631 0.124648 0.828937
O O15 0.000000 0.000000 0.000000
O O16 0.957152 0.875187 0.703199
O O17 0.500000 0.000000 0.500000
#
# Coordination Sequence:
#
# PCOD8011081 Si02
#       8
#     2   2   2   2   2   2   2   2
#     4  11  24  45  66  92 127 168 221 283 326 371
#     4  12  22  40  65  94 135 178 208 264 330 394
#     4  10  21  38  66  98 128 170 217 262 330 398
#     4  11  24  45  66  92 127 168 221 283 326 371
#     4  11  22  39  65 101 138 173 210 262 325 401
#     4  11  22  39  65 101 138 173 210 262 325 401
#     4  11  25  42  65  97 128 168 220 264 322 398
#     4  11  25  42  65  97 128 168 220 264 322 398
#
# _framework density 22.775175000000001
#
# number of rings (size 3 to 8) (size 9 to 14) (size 15 to 20)
#    0.000    1.000    0.000    7.875    0.000    6.000 
#    0.000   10.000    0.000    0.000    0.000    0.000 
#    0.000    0.000    0.000    0.000    0.000    0.000 
#
# Total GULP energy -198324.852166 kJ/mol
# GULP energy per Si atom -12395.303260 kJ/mol
# Density = 2.272334 g / cm^3
# Si number density = 22.775175 Si / 1000 Ang^3
#
#
#
# Elastic Constant Matrix: (Units=GPa)
#
#
# Indices 1 2 3 4 5 6 
#
# 1 104.3316 56.8432 27.6215 9.4349 2.2536 -7.9994
# 2 56.8432 77.4040 110.8011 42.5336 -51.4681 -10.4320
# 3 27.6215 110.8011 64.3550 -15.5456 19.2201 -27.0211
# 4 9.4349 42.5336 -15.5456 20.2498 10.2152 -15.9568
# 5 2.2536 -51.4681 19.2201 10.2152 17.0537 9.4455
# 6 -7.9994 -10.4320 -27.0211 -15.9568 9.4455 33.4930
#
#
#
# Elastic Compliance Matrix: (Units=1/GPa)
#
#
# Indices 1 2 3 4 5 6 
#
# 1 0.011949 -0.002318 -0.003193 -0.004847 -0.000649 -0.002571
# 2 -0.002318 0.002582 0.003649 0.007897 -0.005446 0.008493
# 3 -0.003193 0.003649 0.005930 -0.006827 0.009226 -0.000697
# 4 -0.004847 0.007897 -0.006827 0.027077 0.013194 0.004973
# 5 -0.000649 -0.005446 0.009226 0.013194 0.020629 0.006060
# 6 -0.002571 0.008493 -0.000697 0.004973 0.006060 0.031987
#
#
# Mechanical properties :
#
#
# Convention : Reuss Voigt Hill
#
# Bulk Modulus (GPa) = 59.75323 70.73580 65.24452
# Shear Modulus (GPa) = 45.67970 17.54764 31.61367
#
# Velocity S-wave (km/s) = 4.48334 2.77875 3.72973
# Velocity P-wave (km/s) = 7.28653 6.43591 6.87439
#
# Compressibility (1/GPa) = 0.01673550
#
# Stress axis : x y z
#
# Youngs Moduli (GPa) = 83.69183 387.23966 168.63467
#
# Poissons Ratio (x) = 0.89774 0.53850
# Poissons Ratio (y) = 0.19402 -0.61532
# Poissons Ratio (z) = 0.26725 -1.41298
#
# Static dielectric constant tensor:
#      x y z
#    x 4.790540 -0.300330 -0.130490 
#    y -0.300330 4.452550 0.048250 
#    z -0.130490 0.048250 4.327840 
# 
# 
# High freq. dielectric constant tensor:
#      x y z
#    x 1.888960 -0.015480 -0.011490 
#    y -0.015480 1.915090 0.009630 
#    z -0.011490 0.009630 1.901980 
# 
# From -- ./inp_files/370972.got.cif
#   From: 2010.06.25/outbox.cif.g09.slc.cpg/sg2_186_cif.got.tgz:370972.got - 2010.06.27 13:26:56.
