data_PCOD8011653
_publ_section_title
;
Structure prediction by ZEFSAII (Michael W. Deem and Ramdas Pophale) SiO2 
 PCOD8011653
Probable space group: P -1
;
_chemical_formula_sum "Si O2"
_cell_formula_units_Z 16
_cell_length_a 15.638207
_cell_length_b 14.947960
_cell_length_c 7.795649
_cell_angle_alpha 66.274319
_cell_angle_beta 88.440003
_cell_angle_gamma 143.506180
_cell_volume 758.976508
_symmetry_space_group_name_H-M "P -1"
_symmetry_group_IT_number 2
_symmetry_cell_setting 'triclinic'
loop_
_space_group_symop_operation_xyz
x,y,z
-x,-y,-z
loop_
_atom_site_type_symbol
_atom_site_label
_atom_site_fract_x
_atom_site_fract_y
_atom_site_fract_z
Si Si1 0.264103 0.349306 0.536573
Si Si2 0.371615 0.160226 0.325100
Si Si3 0.561625 0.519883 0.223933
Si Si4 0.811154 0.366723 0.943824
Si Si5 0.438570 0.708877 0.110516
Si Si6 0.763726 0.189962 0.391920
Si Si7 0.321780 0.880306 0.156582
Si Si8 0.107959 0.046990 0.320582
O O1 0.377560 0.399685 0.353080
O O2 0.305422 0.347750 0.720568
O O3 0.331258 0.530802 0.387797
O O4 0.039284 0.117876 0.699509
O O5 0.490543 0.338536 0.324687
O O6 0.166751 0.001535 0.429914
O O7 0.347505 0.022398 0.482433
O O8 0.490877 0.289793 0.044511
O O9 0.694774 0.700299 0.931139
O O10 0.697166 0.345944 0.913162
O O11 0.834655 0.313007 0.824032
O O12 0.016771 0.609799 0.799614
O O13 0.705246 0.210490 0.235222
O O14 0.622592 0.948474 0.000093
O O15 0.728817 0.192631 0.585654
O O16 0.500000 0.000000 0.000000
O O17 0.000000 0.000000 0.500000
#
# Coordination Sequence:
#
# PCOD8011653 Si02
#       8
#     2   2   2   2   2   2   2   2
#     4  11  23  41  64  91 132 162 213 264 319 381
#     4  11  22  40  64  92 127 166 218 257 318 384
#     4  11  24  41  62  95 126 168 209 266 319 379
#     4  10  21  41  63  91 131 162 214 263 325 375
#     4  10  21  39  63  91 121 168 210 257 315 386
#     4  10  22  38  64  95 124 167 212 267 311 392
#     4   9  20  36  61  86 121 164 205 256 318 367
#     4  12  22  40  67  89 126 172 210 262 318 377
#
# _framework density 21.081022000000001
#
# number of rings (size 3 to 8) (size 9 to 14) (size 15 to 20)
#    0.000    1.500    2.500    2.625    1.750    4.500 
#    2.250    0.000    8.250    0.000    0.000    0.000 
#    0.000    0.000    0.000    0.000    0.000    0.000 
#
# Total GULP energy -198332.295430 kJ/mol
# GULP energy per Si atom -12395.768464 kJ/mol
# Density = 2.103304 g / cm^3
# Si number density = 21.081022 Si / 1000 Ang^3
#
#
#
# Elastic Constant Matrix: (Units=GPa)
#
#
# Indices 1 2 3 4 5 6 
#
# 1 79.6318 10.4309 19.9523 4.7084 -0.9772 -6.9117
# 2 10.4309 77.8635 12.1276 -3.6234 -2.9246 -15.2263
# 3 19.9523 12.1276 83.9275 4.8594 4.0729 -12.4290
# 4 4.7084 -3.6234 4.8594 34.6009 -1.4246 -3.0345
# 5 -0.9772 -2.9246 4.0729 -1.4246 31.8656 -2.2872
# 6 -6.9117 -15.2263 -12.4290 -3.0345 -2.2872 33.2031
#
#
#
# Elastic Compliance Matrix: (Units=1/GPa)
#
#
# Indices 1 2 3 4 5 6 
#
# 1 0.013621 -0.001201 -0.002846 -0.001452 0.000688 0.001134
# 2 -0.001201 0.014623 -0.001122 0.002497 0.002020 0.006403
# 3 -0.002846 -0.001122 0.013462 -0.001368 -0.001707 0.003690
# 4 -0.001452 0.002497 -0.001368 0.029912 0.001926 0.003197
# 5 0.000688 0.002020 -0.001707 0.001926 0.032095 0.002817
# 6 0.001134 0.006403 0.003690 0.003197 0.002817 0.035158
#
#
# Mechanical properties :
#
#
# Convention : Reuss Voigt Hill
#
# Bulk Modulus (GPa) = 31.87993 36.27161 34.07577
# Shear Modulus (GPa) = 31.31568 33.19469 32.25519
#
# Velocity S-wave (km/s) = 3.85839 3.97246 3.91584
# Velocity P-wave (km/s) = 5.91650 6.18739 6.05346
#
# Compressibility (1/GPa) = 0.03136770
#
# Stress axis : x y z
#
# Youngs Moduli (GPa) = 73.41639 68.38609 74.28210
#
# Poissons Ratio (x) = 0.08216 0.21140
# Poissons Ratio (y) = 0.08821 0.08333
# Poissons Ratio (z) = 0.20894 0.07671
#
# Static dielectric constant tensor:
#      x y z
#    x 3.717830 -0.126670 -0.037020 
#    y -0.126670 4.556890 -0.127960 
#    z -0.037020 -0.127960 3.840280 
# 
# 
# High freq. dielectric constant tensor:
#      x y z
#    x 1.819710 -0.005880 -0.000520 
#    y -0.005880 1.832040 -0.008690 
#    z -0.000520 -0.008690 1.825120 
# 
# From -- ./inp_files/312777.got.cif
#   From: 2010.06.25/outbox.cif.g09.slc.cpg/sg2_157_cif.got.tgz:312777.got - 2010.06.27 13:26:56.
