data_PCOD8011891
_publ_section_title
;
Structure prediction by ZEFSAII (Michael W. Deem and Ramdas Pophale) SiO2 
 PCOD8011891
Probable space group: P -1
;
_chemical_formula_sum "Si O2"
_cell_formula_units_Z 14
_cell_length_a 14.144768
_cell_length_b 9.220083
_cell_length_c 8.830704
_cell_angle_alpha 65.471846
_cell_angle_beta 89.241235
_cell_angle_gamma 135.626056
_cell_volume 639.871811
_symmetry_space_group_name_H-M "P -1"
_symmetry_group_IT_number 2
_symmetry_cell_setting 'triclinic'
loop_
_space_group_symop_operation_xyz
x,y,z
-x,-y,-z
loop_
_atom_site_type_symbol
_atom_site_label
_atom_site_fract_x
_atom_site_fract_y
_atom_site_fract_z
Si Si1 0.807960 0.785537 0.267615
Si Si2 0.088606 0.178015 0.274307
Si Si3 0.340436 0.341503 0.355535
Si Si4 0.849026 0.402698 0.022518
Si Si5 0.434455 0.245846 0.169602
Si Si6 0.641203 0.291302 0.306324
Si Si7 0.678568 0.910751 0.069346
O O1 0.745847 0.771023 0.434941
O O2 0.718228 0.506546 0.340074
O O3 0.789850 0.905892 0.096385
O O4 0.991540 0.995530 0.203466
O O5 0.257023 0.323665 0.225320
O O6 0.107418 0.393461 0.176985
O O7 0.000000 0.000000 0.500000
O O8 0.353831 0.175660 0.365296
O O9 0.508113 0.640230 0.248340
O O10 0.778238 0.367907 0.199170
O O11 0.721930 0.125181 0.065942
O O12 0.000000 0.500000 0.000000
O O13 0.571884 0.303630 0.165950
O O14 0.500000 0.500000 0.000000
O O15 0.316604 0.032009 0.133590
O O16 0.500000 0.000000 0.500000
#
# Coordination Sequence:
#
# PCOD8011891 Si02
#       7
#     2   2   2   2   2   2   2
#     4  11  22  42  69  98 136 192 227 280 358 422
#     4  10  24  42  67  99 139 180 236 283 349 420
#     4  10  21  39  71  98 134 181 237 285 345 419
#     4  12  26  44  67 105 144 183 230 295 351 417
#     4  10  21  39  64  99 130 172 229 287 334 406
#     4  12  27  42  70 110 143 175 244 297 341 416
#     4  11  22  40  71  95 134 186 234 279 357 411
#
# _framework density 21.879380999999999
#
# number of rings (size 3 to 8) (size 9 to 14) (size 15 to 20)
#    0.000    1.143    4.286    3.000    2.000    6.286 
#    0.000    0.000    0.000    6.857    0.000    0.000 
#    0.000    0.000    0.000    0.000    0.000    0.000 
#
# Total GULP energy -173497.296421 kJ/mol
# GULP energy per Si atom -12392.664030 kJ/mol
# Density = 2.182958 g / cm^3
# Si number density = 21.879381 Si / 1000 Ang^3
#
#
#
# Elastic Constant Matrix: (Units=GPa)
#
#
# Indices 1 2 3 4 5 6 
#
# 1 116.8757 33.9554 22.4133 8.8507 2.9746 9.5029
# 2 33.9554 136.8636 14.4044 10.0704 7.1794 2.9003
# 3 22.4133 14.4044 68.0751 -2.7379 3.3349 -4.9035
# 4 8.8507 10.0704 -2.7379 37.1398 -7.5816 2.8530
# 5 2.9746 7.1794 3.3349 -7.5816 32.3793 13.1995
# 6 9.5029 2.9003 -4.9035 2.8530 13.1995 46.5178
#
#
#
# Elastic Compliance Matrix: (Units=1/GPa)
#
#
# Indices 1 2 3 4 5 6 
#
# 1 0.010052 -0.001997 -0.003138 -0.001848 0.000322 -0.002238
# 2 -0.001997 0.008190 -0.001013 -0.002338 -0.002316 0.000591
# 3 -0.003138 -0.001013 0.016306 0.001602 -0.001967 0.002883
# 4 -0.001848 -0.002338 0.001602 0.030273 0.009144 -0.003759
# 5 0.000322 -0.002316 -0.001967 0.009144 0.038439 -0.011597
# 6 -0.002238 0.000591 0.002883 -0.003759 -0.011597 0.025742
#
#
# Mechanical properties :
#
#
# Convention : Reuss Voigt Hill
#
# Bulk Modulus (GPa) = 44.94391 51.48452 48.21422
# Shear Modulus (GPa) = 33.62126 39.94345 36.78235
#
# Velocity S-wave (km/s) = 3.92428 4.27736 4.10462
# Velocity P-wave (km/s) = 6.41246 6.92651 6.67444
#
# Compressibility (1/GPa) = 0.02224996
#
# Stress axis : x y z
#
# Youngs Moduli (GPa) = 99.48497 122.10533 61.32814
#
# Poissons Ratio (x) = 0.24385 0.19246
# Poissons Ratio (y) = 0.19868 0.06215
# Poissons Ratio (z) = 0.31220 0.12373
#
# Static dielectric constant tensor:
#      x y z
#    x 4.821360 0.162660 -0.036990 
#    y 0.162660 4.628010 0.344480 
#    z -0.036990 0.344480 4.098880 
# 
# 
# High freq. dielectric constant tensor:
#      x y z
#    x 1.870000 0.012200 0.001920 
#    y 0.012200 1.870090 0.009610 
#    z 0.001920 0.009610 1.846990 
# 
# From -- ./inp_files/297695.got.cif
#   From: 2010.06.25/outbox.cif.g09.slc.cpg/sg2_149_cif.got.tgz:297695.got - 2010.06.27 13:26:56.
