data_PCOD8011682
_publ_section_title
;
Structure prediction by ZEFSAII (Michael W. Deem and Ramdas Pophale) SiO2 
 PCOD8011682
Probable space group: P -1
;
_chemical_formula_sum "Si O2"
_cell_formula_units_Z 16
_cell_length_a 15.251048
_cell_length_b 12.782564
_cell_length_c 8.452754
_cell_angle_alpha 139.882091
_cell_angle_beta 113.086370
_cell_angle_gamma 44.306567
_cell_volume 696.227455
_symmetry_space_group_name_H-M "P -1"
_symmetry_group_IT_number 2
_symmetry_cell_setting 'triclinic'
loop_
_space_group_symop_operation_xyz
x,y,z
-x,-y,-z
loop_
_atom_site_type_symbol
_atom_site_label
_atom_site_fract_x
_atom_site_fract_y
_atom_site_fract_z
Si Si1 0.551300 0.249421 0.847414
Si Si2 0.817249 0.945760 0.146008
Si Si3 0.855375 0.609941 0.983812
Si Si4 0.392621 0.535955 0.364515
Si Si5 0.691085 0.403422 0.104722
Si Si6 0.868256 0.434294 0.104301
Si Si7 0.718353 0.567806 0.607790
Si Si8 0.720422 0.832974 0.687554
O O1 0.446989 0.454453 0.133207
O O2 0.672462 0.231544 0.877006
O O3 0.455890 0.335490 0.726862
O O4 0.613449 0.009856 0.681826
O O5 0.747494 0.199302 0.428828
O O6 0.776012 0.864860 0.160636
O O7 0.771131 0.934103 0.928338
O O8 0.976019 0.783851 0.065219
O O9 0.851962 0.483274 0.689288
O O10 0.797264 0.596269 0.085278
O O11 0.000000 0.500000 0.000000
O O12 0.500000 0.500000 0.500000
O O13 0.375262 0.380499 0.255126
O O14 0.797976 0.344954 0.985994
O O15 0.745321 0.383542 0.296233
O O16 0.843061 0.588983 0.410488
O O17 0.650916 0.792566 0.716429
#
# Coordination Sequence:
#
# PCOD8011682 Si02
#       8
#     2   2   2   2   2   2   2   2
#     4  11  23  41  62  90 131 168 214 255 313 369
#     4  10  21  41  65  92 126 166 207 260 317 372
#     4   9  20  40  63  92 127 161 206 257 310 373
#     4  12  22  41  64  92 130 166 213 257 311 372
#     4  10  22  40  61  94 128 169 209 260 312 375
#     4  10  21  40  62  92 126 159 213 256 319 372
#     4  10  21  39  63  93 122 163 213 254 310 371
#     4  10  21  39  63  92 124 165 205 262 313 372
#
# _framework density 22.980995
#
# number of rings (size 3 to 8) (size 9 to 14) (size 15 to 20)
#    0.000    1.750    2.500    1.125    0.000    5.500 
#    2.250   15.000    0.000    0.000    0.000    0.000 
#    0.000    0.000    0.000    0.000    0.000    0.000 
#
# Total GULP energy -198241.330162 kJ/mol
# GULP energy per Si atom -12390.083135 kJ/mol
# Density = 2.292869 g / cm^3
# Si number density = 22.980995 Si / 1000 Ang^3
#
#
#
# Elastic Constant Matrix: (Units=GPa)
#
#
# Indices 1 2 3 4 5 6 
#
# 1 129.0301 38.7239 31.2353 3.7874 6.4676 18.1603
# 2 38.7239 100.7311 23.7811 0.0148 6.4769 8.0248
# 3 31.2353 23.7811 74.2489 4.9746 -3.0215 -3.8362
# 4 3.7874 0.0148 4.9746 41.7514 -7.3614 4.8032
# 5 6.4676 6.4769 -3.0215 -7.3614 25.6269 -4.3509
# 6 18.1603 8.0248 -3.8362 4.8032 -4.3509 43.4131
#
#
#
# Elastic Compliance Matrix: (Units=1/GPa)
#
#
# Indices 1 2 3 4 5 6 
#
# 1 0.010224 -0.002456 -0.003842 -0.000544 -0.003322 -0.004435
# 2 -0.002456 0.011915 -0.003012 0.000257 -0.002973 -0.001767
# 3 -0.003842 -0.003012 0.016521 -0.001397 0.003987 0.004178
# 4 -0.000544 0.000257 -0.001397 0.025626 0.006915 -0.002085
# 5 -0.003322 -0.002973 0.003987 0.006915 0.044077 0.005944
# 6 -0.004435 -0.001767 0.004178 -0.002085 0.005944 0.026412
#
#
# Mechanical properties :
#
#
# Convention : Reuss Voigt Hill
#
# Bulk Modulus (GPa) = 49.90476 54.61009 52.25743
# Shear Modulus (GPa) = 31.23513 36.17627 33.70570
#
# Velocity S-wave (km/s) = 3.69070 3.97190 3.83388
# Velocity P-wave (km/s) = 6.31858 6.69697 6.51052
#
# Compressibility (1/GPa) = 0.02003817
#
# Stress axis : x y z
#
# Youngs Moduli (GPa) = 97.80779 83.92927 60.52873
#
# Poissons Ratio (x) = 0.20616 0.23257
# Poissons Ratio (y) = 0.24025 0.18233
# Poissons Ratio (z) = 0.37580 0.25282
#
# Static dielectric constant tensor:
#      x y z
#    x 4.400310 0.502440 0.233870 
#    y 0.502440 4.736310 -0.363990 
#    z 0.233870 -0.363990 3.977620 
# 
# 
# High freq. dielectric constant tensor:
#      x y z
#    x 1.912290 0.022080 0.024500 
#    y 0.022080 1.921430 -0.025030 
#    z 0.024500 -0.025030 1.869740 
# 
# From -- ./inp_files/308831.got.cif
#   From: 2010.06.25/outbox.cif.g09.slc.cpg/sg2_155_cif.got.tgz:308831.got - 2010.06.27 13:26:56.
