data_PCOD8011994
_publ_section_title
;
Structure prediction by ZEFSAII (Michael W. Deem and Ramdas Pophale) SiO2 
 PCOD8011994
Probable space group: P -1
;
_chemical_formula_sum "Si O2"
_cell_formula_units_Z 16
_cell_length_a 8.299077
_cell_length_b 14.838818
_cell_length_c 11.892506
_cell_angle_alpha 42.011044
_cell_angle_beta 68.916343
_cell_angle_gamma 49.586827
_cell_volume 724.608675
_symmetry_space_group_name_H-M "P -1"
_symmetry_group_IT_number 2
_symmetry_cell_setting 'triclinic'
loop_
_space_group_symop_operation_xyz
x,y,z
-x,-y,-z
loop_
_atom_site_type_symbol
_atom_site_label
_atom_site_fract_x
_atom_site_fract_y
_atom_site_fract_z
Si Si1 0.999283 0.028311 0.842112
Si Si2 0.089194 0.149327 0.387561
Si Si3 0.347360 0.685743 0.986232
Si Si4 0.924253 0.608932 0.695759
Si Si5 0.798511 0.068008 0.639477
Si Si6 0.755230 0.419357 0.517015
Si Si7 0.353670 0.424710 0.376004
Si Si8 0.185358 0.567003 0.964378
O O1 0.840330 0.012954 0.813175
O O2 0.926243 0.214890 0.666136
O O3 0.245248 0.872548 0.886935
O O4 0.000000 0.000000 0.000000
O O5 0.203386 0.197086 0.403098
O O6 0.009955 0.053599 0.559703
O O7 0.891980 0.343020 0.219946
O O8 0.224578 0.047639 0.333839
O O9 0.383448 0.557558 0.192210
O O10 0.575276 0.613354 0.937380
O O11 0.186467 0.699386 0.920288
O O12 0.761044 0.626688 0.628177
O O13 0.161679 0.531456 0.654693
O O14 0.968681 0.474965 0.904696
O O15 0.588512 0.260080 0.505687
O O16 0.500000 0.500000 0.500000
O O17 0.791084 0.488989 0.555904
#
# Coordination Sequence:
#
# PCOD8011994 Si02
#       8
#     2   2   2   2   2   2   2   2
#     4  12  23  40  69 100 127 170 235 280 313 394
#     4  11  21  40  66 100 136 170 223 269 333 393
#     4  10  21  39  66 100 128 178 223 261 334 392
#     4  11  25  40  66 101 134 175 219 273 338 396
#     4  11  23  40  69  96 131 178 223 274 323 400
#     4  12  24  45  71  93 128 177 228 271 328 398
#     4  11  22  43  67  94 138 175 222 271 330 394
#     4  10  21  39  65  94 141 174 211 274 331 397
#
# _framework density 22.080883
#
# number of rings (size 3 to 8) (size 9 to 14) (size 15 to 20)
#    0.000    1.000    6.250    0.750    0.000    0.500 
#    2.250    0.000    0.000    4.500    0.000    0.000 
#    0.000    0.000    0.000    0.000    0.000    0.000 
#
# Total GULP energy -198229.386568 kJ/mol
# GULP energy per Si atom -12389.336660 kJ/mol
# Density = 2.203063 g / cm^3
# Si number density = 22.080883 Si / 1000 Ang^3
#
#
#
# Elastic Constant Matrix: (Units=GPa)
#
#
# Indices 1 2 3 4 5 6 
#
# 1 58.4380 42.8723 39.5193 3.9298 -7.7057 10.3560
# 2 42.8723 158.6965 44.5608 -6.0219 -4.0967 27.4528
# 3 39.5193 44.5608 93.5472 9.1278 0.5330 -2.2195
# 4 3.9298 -6.0219 9.1278 42.5097 0.2102 -0.5578
# 5 -7.7057 -4.0967 0.5330 0.2102 32.0669 4.5292
# 6 10.3560 27.4528 -2.2195 -0.5578 4.5292 40.7901
#
#
#
# Elastic Compliance Matrix: (Units=1/GPa)
#
#
# Indices 1 2 3 4 5 6 
#
# 1 0.029237 -0.003615 -0.010725 -0.001034 0.007658 -0.006438
# 2 -0.003615 0.009275 -0.003251 0.002267 0.001146 -0.005598
# 3 -0.010725 -0.003251 0.017241 -0.003068 -0.004144 0.006268
# 4 -0.001034 0.002267 -0.003068 0.024585 0.000087 -0.001104
# 5 0.007658 0.001146 -0.004144 0.000087 0.034191 -0.006736
# 6 -0.006438 -0.005598 0.006268 -0.001104 -0.006736 0.030992
#
#
# Mechanical properties :
#
#
# Convention : Reuss Voigt Hill
#
# Bulk Modulus (GPa) = 48.61275 62.73182 55.67228
# Shear Modulus (GPa) = 26.65809 35.32197 30.99003
#
# Velocity S-wave (km/s) = 3.47838 4.00392 3.75037
# Velocity P-wave (km/s) = 6.18027 7.06023 6.63485
#
# Compressibility (1/GPa) = 0.02057074
#
# Stress axis : x y z
#
# Youngs Moduli (GPa) = 34.20286 107.81871 58.00102
#
# Poissons Ratio (x) = 0.38975 0.62206
# Poissons Ratio (y) = 0.12364 0.18859
# Poissons Ratio (z) = 0.36682 0.35057
#
# Static dielectric constant tensor:
#      x y z
#    x 3.813940 0.449310 0.130750 
#    y 0.449310 4.448080 0.158680 
#    z 0.130750 0.158680 3.990440 
# 
# 
# High freq. dielectric constant tensor:
#      x y z
#    x 1.838220 0.033720 0.017530 
#    y 0.033720 1.889280 0.002870 
#    z 0.017530 0.002870 1.864580 
# 
# From -- ./inp_files/398394.got.cif
#   From: 2010.06.25/outbox.cif.g09.slc.cpg/sg2_200_cif.got.tgz:398394.got - 2010.06.27 13:26:56.
