data_PCOD8011601
_publ_section_title
;
Structure prediction by ZEFSAII (Michael W. Deem and Ramdas Pophale) SiO2 
 PCOD8011601
Probable space group: P -1
;
_chemical_formula_sum "Si O2"
_cell_formula_units_Z 14
_cell_length_a 13.812105
_cell_length_b 9.779382
_cell_length_c 16.535668
_cell_angle_alpha 31.171169
_cell_angle_beta 144.678866
_cell_angle_gamma 149.651440
_cell_volume 557.844442
_symmetry_space_group_name_H-M "P -1"
_symmetry_group_IT_number 2
_symmetry_cell_setting 'triclinic'
loop_
_space_group_symop_operation_xyz
x,y,z
-x,-y,-z
loop_
_atom_site_type_symbol
_atom_site_label
_atom_site_fract_x
_atom_site_fract_y
_atom_site_fract_z
Si Si1 0.900274 0.531941 0.584366
Si Si2 0.431222 0.143380 0.295634
Si Si3 0.645552 0.753755 0.230755
Si Si4 0.770079 0.060439 0.513729
Si Si5 0.638897 0.382768 0.764584
Si Si6 0.029318 0.866073 0.859734
Si Si7 0.786139 0.163656 0.844821
O O1 0.812282 0.747166 0.400723
O O2 0.916841 0.479851 0.718138
O O3 0.121007 0.709200 0.605756
O O4 0.735665 0.186888 0.607329
O O5 0.468044 0.421030 0.238798
O O6 0.639434 0.167768 0.414203
O O7 0.342252 0.144059 0.145495
O O8 0.530444 0.844969 0.169453
O O9 0.758271 0.998864 0.110266
O O10 0.949619 0.098663 0.674212
O O11 0.625282 0.685742 0.580368
O O12 0.622195 0.190598 0.770471
O O13 0.862861 0.518857 0.885496
O O14 0.064880 0.868494 0.979050
#
# Coordination Sequence:
#
# PCOD8011601 Si02
#       7
#     2   2   2   2   2   2   2
#     4   9  20  36  58  89 117 152 190 248 283 347
#     4  10  22  38  62  90 119 150 194 254 280 353
#     4  11  21  40  64  84 121 156 200 229 305 344
#     4   9  20  36  61  87 115 157 194 229 305 341
#     4  10  21  39  63  85 116 162 193 239 288 360
#     4   9  22  41  58  89 116 161 192 243 284 365
#     4  10  22  41  60  87 127 142 202 248 292 327
#
# _framework density 25.096601
#
# number of rings (size 3 to 8) (size 9 to 14) (size 15 to 20)
#    1.714    0.571    1.429    0.857    0.000    7.429 
#    5.143    0.714    0.000    0.000    0.000    0.000 
#    0.000    0.000    0.000    0.000    0.000    0.000 
#
# Total GULP energy -173469.572390 kJ/mol
# GULP energy per Si atom -12390.683742 kJ/mol
# Density = 2.503948 g / cm^3
# Si number density = 25.096601 Si / 1000 Ang^3
#
#
#
# Elastic Constant Matrix: (Units=GPa)
#
#
# Indices 1 2 3 4 5 6 
#
# 1 63.6365 9.7345 13.3857 -6.0155 -19.7809 4.3792
# 2 9.7345 33.0074 5.3829 -4.4996 -9.7006 18.1952
# 3 13.3857 5.3829 89.6584 11.5136 -40.4676 -0.5179
# 4 -6.0155 -4.4996 11.5136 16.3367 1.4925 -4.1177
# 5 -19.7809 -9.7006 -40.4676 1.4925 40.5947 -2.7072
# 6 4.3792 18.1952 -0.5179 -4.1177 -2.7072 35.9764
#
#
#
# Elastic Compliance Matrix: (Units=1/GPa)
#
#
# Indices 1 2 3 4 5 6 
#
# 1 0.019334 -0.002466 0.000986 0.004913 0.009647 0.000196
# 2 -0.002466 0.046262 0.001025 0.004762 0.009244 -0.021842
# 3 0.000986 0.001025 0.025763 -0.020122 0.027112 -0.000531
# 4 0.004913 0.004762 -0.020122 0.081423 -0.019215 0.004578
# 5 0.009647 0.009244 0.027112 -0.019215 0.059063 -0.003214
# 6 0.000196 -0.021842 -0.000531 0.004578 -0.003214 0.039093
#
#
# Mechanical properties :
#
#
# Convention : Reuss Voigt Hill
#
# Bulk Modulus (GPa) = 11.05593 27.03428 19.04511
# Shear Modulus (GPa) = 16.55651 29.10152 22.82902
#
# Velocity S-wave (km/s) = 2.57127 3.40896 3.01931
# Velocity P-wave (km/s) = 3.63733 5.12739 4.44524
#
# Compressibility (1/GPa) = 0.09044919
#
# Stress axis : x y z
#
# Youngs Moduli (GPa) = 51.72325 21.61589 38.81598
#
# Poissons Ratio (x) = 0.05330 -0.03827
# Poissons Ratio (y) = 0.12754 -0.03979
# Poissons Ratio (z) = -0.05100 -0.02216
#
# Static dielectric constant tensor:
#      x y z
#    x 4.304530 0.253810 -0.204160 
#    y 0.253810 4.090210 -0.013010 
#    z -0.204160 -0.013010 4.257690 
# 
# 
# High freq. dielectric constant tensor:
#      x y z
#    x 2.005410 0.015250 -0.009760 
#    y 0.015250 1.968260 0.001490 
#    z -0.009760 0.001490 1.994130 
# 
# From -- ./inp_files/515091.got.cif
#   From: 2010.06.25/outbox.cif.g09.slc.cpg/sg2_258_cif.got.tgz:515091.got - 2010.06.27 13:26:56.
