data_PCOD8011326
_publ_section_title
;
Structure prediction by ZEFSAII (Michael W. Deem and Ramdas Pophale) SiO2 
 PCOD8011326
Probable space group: P -1
;
_chemical_formula_sum "Si O2"
_cell_formula_units_Z 14
_cell_length_a 6.515671
_cell_length_b 19.753674
_cell_length_c 15.020062
_cell_angle_alpha 30.825050
_cell_angle_beta 109.510109
_cell_angle_gamma 88.122653
_cell_volume 700.159186
_symmetry_space_group_name_H-M "P -1"
_symmetry_group_IT_number 2
_symmetry_cell_setting 'triclinic'
loop_
_space_group_symop_operation_xyz
x,y,z
-x,-y,-z
loop_
_atom_site_type_symbol
_atom_site_label
_atom_site_fract_x
_atom_site_fract_y
_atom_site_fract_z
Si Si1 0.722944 0.964788 0.298611
Si Si2 0.784569 0.506872 0.347318
Si Si3 0.841645 0.210413 0.994406
Si Si4 0.665384 0.620145 0.837290
Si Si5 0.445023 0.996324 0.394328
Si Si6 0.897389 0.747679 0.165354
Si Si7 0.252361 0.576719 0.761033
O O1 0.649554 0.002144 0.352106
O O2 0.949863 0.757295 0.549059
O O3 0.857125 0.046664 0.190394
O O4 0.421800 0.057260 0.097743
O O5 0.880883 0.618300 0.252564
O O6 0.809050 0.464073 0.296119
O O7 0.994474 0.323457 0.638887
O O8 0.456971 0.612317 0.212159
O O9 0.109003 0.166582 0.136739
O O10 0.878594 0.241234 0.862175
O O11 0.499064 0.823295 0.573410
O O12 0.506807 0.584344 0.785776
O O13 0.634149 0.582315 0.976676
O O14 0.000000 0.500000 0.000000
O O15 0.500000 0.000000 0.500000
#
# Coordination Sequence:
#
# PCOD8011326 Si02
#       7
#     2   2   2   2   2   2   2
#     4  10  21  41  58  87 121 152 195 248 287 357
#     4  10  22  39  64  90 116 154 199 244 296 354
#     4  10  21  39  60  85 121 151 195 248 291 346
#     4  11  24  41  57  86 126 157 195 241 290 355
#     4  11  24  37  63  87 116 160 199 242 295 343
#     4   9  21  41  63  89 117 151 199 250 291 345
#     4  11  24  39  60  88 122 158 194 239 301 347
#
# _framework density 19.995453999999999
#
# number of rings (size 3 to 8) (size 9 to 14) (size 15 to 20)
#    0.000    1.714    2.857    0.429    8.000    1.143 
#    0.000    0.714    0.000    0.000    0.000    0.000 
#    0.000    0.000    0.000    0.000    0.000    0.000 
#
# Total GULP energy -173595.107673 kJ/mol
# GULP energy per Si atom -12399.650548 kJ/mol
# Density = 1.994994 g / cm^3
# Si number density = 19.995454 Si / 1000 Ang^3
#
#
#
# Elastic Constant Matrix: (Units=GPa)
#
#
# Indices 1 2 3 4 5 6 
#
# 1 110.2295 20.3040 22.1344 1.3241 -5.2760 -6.2052
# 2 20.3040 69.1293 12.5022 22.3080 2.0599 1.3282
# 3 22.1344 12.5022 91.4141 10.3091 2.8470 -4.4823
# 4 1.3241 22.3080 10.3091 26.9825 -7.9967 1.3576
# 5 -5.2760 2.0599 2.8470 -7.9967 41.4992 -3.8827
# 6 -6.2052 1.3282 -4.4823 1.3576 -3.8827 17.2764
#
#
#
# Elastic Compliance Matrix: (Units=1/GPa)
#
#
# Indices 1 2 3 4 5 6 
#
# 1 0.010670 -0.004384 -0.002422 0.004725 0.003011 0.003846
# 2 -0.004384 0.022375 0.000289 -0.019967 -0.005812 -0.002957
# 3 -0.002422 0.000289 0.012284 -0.005526 -0.002017 0.002276
# 4 0.004725 -0.019967 -0.005526 0.059423 0.013435 0.000148
# 5 0.003011 -0.005812 -0.002017 0.013435 0.028081 0.006260
# 6 0.003846 -0.002957 0.002276 0.000148 0.006260 0.061477
#
#
# Mechanical properties :
#
#
# Convention : Reuss Voigt Hill
#
# Bulk Modulus (GPa) = 30.96518 42.29489 36.63004
# Shear Modulus (GPa) = 22.92450 31.54044 27.23247
#
# Velocity S-wave (km/s) = 3.38965 3.97593 3.69444
# Velocity P-wave (km/s) = 5.55332 6.50197 6.04628
#
# Compressibility (1/GPa) = 0.03229433
#
# Stress axis : x y z
#
# Youngs Moduli (GPa) = 93.72309 44.69373 81.40901
#
# Poissons Ratio (x) = 0.19595 0.19717
# Poissons Ratio (y) = 0.41090 -0.02356
# Poissons Ratio (z) = 0.22699 -0.01293
#
# Static dielectric constant tensor:
#      x y z
#    x 3.845400 -0.048090 -0.086790 
#    y -0.048090 3.221010 0.007730 
#    z -0.086790 0.007730 4.092620 
# 
# 
# High freq. dielectric constant tensor:
#      x y z
#    x 1.794330 -0.006350 -0.002490 
#    y -0.006350 1.736940 0.005240 
#    z -0.002490 0.005240 1.806740 
# 
# From -- ./inp_files/26888.got.cif
#   From: 2010.06.25/outbox.cif.g09.slc.cpg/sg2_14_cif.got.tgz:26888.got - 2010.06.27 13:26:56.
