data_PCOD8011039
_publ_section_title
;
Structure prediction by ZEFSAII (Michael W. Deem and Ramdas Pophale) SiO2 
 PCOD8011039
Probable space group: P -1
;
_chemical_formula_sum "Si O2"
_cell_formula_units_Z 16
_cell_length_a 15.080427
_cell_length_b 17.442000
_cell_length_c 16.513961
_cell_angle_alpha 26.117130
_cell_angle_beta 153.297411
_cell_angle_gamma 154.499940
_cell_volume 740.210922
_symmetry_space_group_name_H-M "P -1"
_symmetry_group_IT_number 2
_symmetry_cell_setting 'triclinic'
loop_
_space_group_symop_operation_xyz
x,y,z
-x,-y,-z
loop_
_atom_site_type_symbol
_atom_site_label
_atom_site_fract_x
_atom_site_fract_y
_atom_site_fract_z
Si Si1 0.914218 0.634718 0.188886
Si Si2 0.279244 0.744233 0.506494
Si Si3 0.944580 0.359238 0.163380
Si Si4 0.975823 0.983664 0.686226
Si Si5 0.072198 0.658969 0.124257
Si Si6 0.693787 0.734338 0.434337
Si Si7 0.804985 0.969908 0.732665
Si Si8 0.407589 0.055339 0.710043
O O1 0.736542 0.445274 0.277861
O O2 0.163420 0.696738 0.369092
O O3 0.909671 0.563576 0.160246
O O4 0.849872 0.811604 0.969638
O O5 0.544891 0.887034 0.571974
O O6 0.141639 0.838395 0.350779
O O7 0.047120 0.478371 0.218507
O O8 0.076460 0.240057 0.362384
O O9 0.676673 0.184611 0.118867
O O10 0.000000 0.500000 0.000000
O O11 0.959933 0.043612 0.708775
O O12 0.749534 0.932679 0.499529
O O13 0.219716 0.165259 0.679309
O O14 0.982116 0.777743 0.884061
O O15 0.326033 0.813548 0.219423
O O16 0.500000 0.500000 0.500000
O O17 0.611019 0.860484 0.298148
#
# Coordination Sequence:
#
# PCOD8011039 Si02
#       8
#     2   2   2   2   2   2   2   2
#     4  10  22  39  61  94 125 157 208 254 308 379
#     4  10  21  38  66  89 122 165 200 250 322 372
#     4  11  23  38  61  88 118 161 213 253 302 368
#     4  10  23  40  59  90 126 156 209 262 301 369
#     4  11  23  41  63  89 126 163 204 260 307 364
#     4  11  22  38  59  84 120 163 203 253 308 355
#     4  10  21  39  63  90 124 161 202 257 311 371
#     4  11  23  40  61  86 123 163 206 251 307 364
#
# _framework density 21.615459999999999
#
# number of rings (size 3 to 8) (size 9 to 14) (size 15 to 20)
#    0.000    1.500    1.250    4.500    5.250    1.000 
#    0.000    0.000   11.000    0.000    0.000    0.000 
#    0.000    0.000    0.000    0.000    0.000    0.000 
#
# Total GULP energy -198282.033229 kJ/mol
# GULP energy per Si atom -12392.627077 kJ/mol
# Density = 2.156626 g / cm^3
# Si number density = 21.615460 Si / 1000 Ang^3
#
#
#
# Elastic Constant Matrix: (Units=GPa)
#
#
# Indices 1 2 3 4 5 6 
#
# 1 85.0241 13.9309 30.1469 -10.5427 -12.9945 -1.7245
# 2 13.9309 92.0198 9.6349 -6.3266 -11.2955 3.5570
# 3 30.1469 9.6349 94.2170 -13.6330 -14.5781 -3.6649
# 4 -10.5427 -6.3266 -13.6330 28.5708 3.1383 3.0780
# 5 -12.9945 -11.2955 -14.5781 3.1383 27.9270 2.0828
# 6 -1.7245 3.5570 -3.6649 3.0780 2.0828 22.9423
#
#
#
# Elastic Compliance Matrix: (Units=1/GPa)
#
#
# Indices 1 2 3 4 5 6 
#
# 1 0.014110 -0.001083 -0.003356 0.002928 0.004051 -0.000068
# 2 -0.001083 0.011789 -0.000014 0.002017 0.004222 -0.002565
# 3 -0.003356 -0.000014 0.013086 0.004397 0.004708 0.000823
# 4 0.002928 0.002017 0.004397 0.039082 0.000430 -0.004673
# 5 0.004051 0.004222 0.004708 0.000430 0.042069 -0.003475
# 6 -0.000068 -0.002565 0.000823 -0.004673 -0.003475 0.045054
#
#
# Mechanical properties :
#
#
# Convention : Reuss Voigt Hill
#
# Bulk Modulus (GPa) = 33.24724 42.07626 37.66175
# Shear Modulus (GPa) = 27.15605 30.39123 28.77364
#
# Velocity S-wave (km/s) = 3.54831 3.75373 3.65246
# Velocity P-wave (km/s) = 5.67468 6.18833 5.93706
#
# Compressibility (1/GPa) = 0.03007768
#
# Stress axis : x y z
#
# Youngs Moduli (GPa) = 70.87345 84.82711 76.41876
#
# Poissons Ratio (x) = 0.09191 0.25647
# Poissons Ratio (y) = 0.07679 0.00104
# Poissons Ratio (z) = 0.23786 0.00116
#
# Static dielectric constant tensor:
#      x y z
#    x 3.763700 0.040250 0.353850 
#    y 0.040250 3.898640 -0.098430 
#    z 0.353850 -0.098430 3.092360 
# 
# 
# High freq. dielectric constant tensor:
#      x y z
#    x 1.849740 0.002910 -0.005600 
#    y 0.002910 1.840380 -0.006340 
#    z -0.005600 -0.006340 1.856540 
# 
# From -- ./inp_files/534203.got.cif
#   From: 2010.06.25/outbox.cif.g09.slc.cpg/sg2_268_cif.got.tgz:534203.got - 2010.06.27 13:26:56.
