data_PCOD8011947
_publ_section_title
;
Structure prediction by ZEFSAII (Michael W. Deem and Ramdas Pophale) SiO2 
 PCOD8011947
Probable space group: P -1
;
_chemical_formula_sum "Si O2"
_cell_formula_units_Z 14
_cell_length_a 8.179134
_cell_length_b 10.626840
_cell_length_c 16.604756
_cell_angle_alpha 32.833064
_cell_angle_beta 60.447637
_cell_angle_gamma 81.086466
_cell_volume 568.444860
_symmetry_space_group_name_H-M "P -1"
_symmetry_group_IT_number 2
_symmetry_cell_setting 'triclinic'
loop_
_space_group_symop_operation_xyz
x,y,z
-x,-y,-z
loop_
_atom_site_type_symbol
_atom_site_label
_atom_site_fract_x
_atom_site_fract_y
_atom_site_fract_z
Si Si1 0.204814 0.235143 0.776127
Si Si2 0.282016 0.225910 0.126947
Si Si3 0.552776 0.734861 0.523280
Si Si4 0.952845 0.730126 0.370967
Si Si5 0.952494 0.685447 0.721935
Si Si6 0.370296 0.231990 0.331511
Si Si7 0.640850 0.099707 0.164993
O O1 0.325995 0.500026 0.661656
O O2 0.090798 0.292493 0.700333
O O3 0.376121 0.153655 0.744584
O O4 0.000000 0.000000 0.000000
O O5 0.103450 0.179095 0.262686
O O6 0.438394 0.131023 0.175949
O O7 0.428067 0.557474 0.891743
O O8 0.160385 0.040499 0.177549
O O9 0.736727 0.658755 0.512194
O O10 0.518870 0.740291 0.623832
O O11 0.635940 0.030156 0.299493
O O12 0.000000 0.500000 0.500000
O O13 0.811684 0.678756 0.681249
O O14 0.880729 0.377833 0.931141
O O15 0.223511 0.896346 0.526349
#
# Coordination Sequence:
#
# PCOD8011947 Si02
#       7
#     2   2   2   2   2   2   2
#     4  11  24  43  60  94 132 162 213 267 317 377
#     4  11  21  43  66  96 129 168 213 258 317 377
#     4  11  22  42  62  92 129 164 211 266 321 373
#     4  11  22  39  67  92 123 170 212 260 319 376
#     4  10  22  43  64  94 132 166 215 258 314 375
#     4  10  21  39  65  91 127 164 213 257 305 379
#     4  10  22  41  66  90 131 170 205 265 320 373
#
# _framework density 24.628596000000002
#
# number of rings (size 3 to 8) (size 9 to 14) (size 15 to 20)
#    0.000    1.429    1.429    6.000    0.000    2.857 
#   10.286    7.857    0.000    0.000    0.000    0.000 
#    0.000    0.000    0.000    0.000    0.000    0.000 
#
# Total GULP energy -173535.908352 kJ/mol
# GULP energy per Si atom -12395.422025 kJ/mol
# Density = 2.457254 g / cm^3
# Si number density = 24.628596 Si / 1000 Ang^3
#
#
#
# Elastic Constant Matrix: (Units=GPa)
#
#
# Indices 1 2 3 4 5 6 
#
# 1 96.6585 41.5591 47.2487 -9.0244 13.0024 29.8315
# 2 41.5591 58.5764 25.3851 -5.1817 12.3217 31.6289
# 3 47.2487 25.3851 150.3287 -8.2220 8.9088 18.6436
# 4 -9.0244 -5.1817 -8.2220 47.0746 4.7021 -0.8643
# 5 13.0024 12.3217 8.9088 4.7021 47.8372 -3.2929
# 6 29.8315 31.6289 18.6436 -0.8643 -3.2929 43.8053
#
#
#
# Elastic Compliance Matrix: (Units=1/GPa)
#
#
# Indices 1 2 3 4 5 6 
#
# 1 0.017248 -0.007140 -0.003265 0.002133 -0.002820 -0.005371
# 2 -0.007140 0.036276 -0.000477 0.003052 -0.009111 -0.021752
# 3 -0.003265 -0.000477 0.007940 0.000753 -0.000600 -0.000841
# 4 0.002133 0.003052 0.000753 0.022446 -0.003976 -0.003833
# 5 -0.002820 -0.009111 -0.000600 -0.003976 0.025248 0.010574
# 6 -0.005371 -0.021752 -0.000841 -0.003833 0.010574 0.043268
#
#
# Mechanical properties :
#
#
# Convention : Reuss Voigt Hill
#
# Bulk Modulus (GPa) = 25.18991 59.32771 42.25881
# Shear Modulus (GPa) = 26.67737 40.50145 33.58941
#
# Velocity S-wave (km/s) = 3.29475 4.05963 3.69702
# Velocity P-wave (km/s) = 4.97232 6.79083 5.95144
#
# Compressibility (1/GPa) = 0.03969843
#
# Stress axis : x y z
#
# Youngs Moduli (GPa) = 57.97783 27.56653 125.94335
#
# Poissons Ratio (x) = 0.19683 0.41127
# Poissons Ratio (y) = 0.41397 0.06008
# Poissons Ratio (z) = 0.18933 0.01315
#
# Static dielectric constant tensor:
#      x y z
#    x 4.447720 0.070930 -0.021540 
#    y 0.070930 4.478090 0.032950 
#    z -0.021540 0.032950 4.922590 
# 
# 
# High freq. dielectric constant tensor:
#      x y z
#    x 1.982700 0.006350 0.005730 
#    y 0.006350 1.966580 0.001630 
#    z 0.005730 0.001630 2.000600 
# 
# From -- ./inp_files/195441.got.cif
#   From: 2010.06.25/outbox.cif.g09.slc.cpg/sg2_98_cif.got.tgz:195441.got - 2010.06.27 13:26:56.
