data_PCOD8011574
_publ_section_title
;
Structure prediction by ZEFSAII (Michael W. Deem and Ramdas Pophale) SiO2 
 PCOD8011574
Probable space group: P -1
;
_chemical_formula_sum "Si O2"
_cell_formula_units_Z 12
_cell_length_a 26.042965
_cell_length_b 10.056541
_cell_length_c 16.687430
_cell_angle_alpha 29.145785
_cell_angle_beta 17.815389
_cell_angle_gamma 25.271359
_cell_volume 568.238058
_symmetry_space_group_name_H-M "P -1"
_symmetry_group_IT_number 2
_symmetry_cell_setting 'triclinic'
loop_
_space_group_symop_operation_xyz
x,y,z
-x,-y,-z
loop_
_atom_site_type_symbol
_atom_site_label
_atom_site_fract_x
_atom_site_fract_y
_atom_site_fract_z
Si Si1 0.820456 0.279572 0.902187
Si Si2 0.489180 0.486974 0.885495
Si Si3 0.474431 0.124861 0.241403
Si Si4 0.819297 0.862277 0.655219
Si Si5 0.081978 0.236820 0.263949
Si Si6 0.137861 0.072322 0.811923
O O1 0.738179 0.646217 0.852029
O O2 0.034664 0.117577 0.634409
O O3 0.676548 0.270419 0.054613
O O4 0.828758 0.080271 0.071008
O O5 0.575879 0.670365 0.710135
O O6 0.653909 0.212921 0.732590
O O7 0.400857 0.346394 0.155764
O O8 0.350431 0.943056 0.524284
O O9 0.701876 0.897394 0.018815
O O10 0.926630 0.688224 0.668713
O O11 0.952705 0.554101 0.240884
O O12 0.000000 0.000000 0.500000
O O13 0.000000 0.000000 0.000000
#
# Coordination Sequence:
#
# PCOD8011574 Si02
#       6
#     2   2   2   2   2   2
#     4  11  23  38  62  94 134 166 208 270 321 378
#     4  10  21  42  66  93 121 170 219 263 315 383
#     4  10  23  41  68  93 126 170 220 263 312 387
#     4  10  21  39  62  94 126 172 212 256 321 387
#     4  11  22  44  71  93 126 175 219 259 320 387
#     4  12  25  42  62  98 136 168 211 269 324 376
#
# _framework density 21.117909999999998
#
# number of rings (size 3 to 8) (size 9 to 14) (size 15 to 20)
#    0.000    1.333    1.667    5.500    2.333    2.667 
#    0.000    5.833    0.000    0.000    0.000    0.000 
#    0.000    0.000    0.000    0.000    0.000    0.000 
#
# Total GULP energy -148797.590417 kJ/mol
# GULP energy per Si atom -12399.799201 kJ/mol
# Density = 2.106984 g / cm^3
# Si number density = 21.117910 Si / 1000 Ang^3
#
#
#
# Elastic Constant Matrix: (Units=GPa)
#
#
# Indices 1 2 3 4 5 6 
#
# 1 125.4639 31.6915 56.2485 1.5383 5.7230 -14.7626
# 2 31.6915 78.5258 43.8820 -2.1515 -0.5989 -4.3197
# 3 56.2485 43.8820 155.7618 6.6987 -4.7506 -5.4531
# 4 1.5383 -2.1515 6.6987 18.1279 -2.9339 3.3967
# 5 5.7230 -0.5989 -4.7506 -2.9339 31.7954 -4.0145
# 6 -14.7626 -4.3197 -5.4531 3.3967 -4.0145 43.0004
#
#
#
# Elastic Compliance Matrix: (Units=1/GPa)
#
#
# Indices 1 2 3 4 5 6 
#
# 1 0.010353 -0.002394 -0.002990 -0.000922 -0.002085 0.002813
# 2 -0.002394 0.015901 -0.003750 0.003545 0.000506 0.000067
# 3 -0.002990 -0.003750 0.008743 -0.003199 0.001491 0.000097
# 4 -0.000922 0.003545 -0.003199 0.058438 0.004572 -0.004556
# 5 -0.002085 0.000506 0.001491 0.004572 0.032761 0.002221
# 6 0.002813 0.000067 0.000097 -0.004556 0.002221 0.024808
#
#
# Mechanical properties :
#
#
# Convention : Reuss Voigt Hill
#
# Bulk Modulus (GPa) = 59.77483 69.26618 64.52051
# Shear Modulus (GPa) = 28.59645 33.78004 31.18825
#
# Velocity S-wave (km/s) = 3.68385 4.00383 3.84717
# Velocity P-wave (km/s) = 6.81623 7.36513 7.09599
#
# Compressibility (1/GPa) = 0.01672945
#
# Stress axis : x y z
#
# Youngs Moduli (GPa) = 96.59188 62.88891 114.38296
#
# Poissons Ratio (x) = 0.15056 0.34196
# Poissons Ratio (y) = 0.23124 0.42893
# Poissons Ratio (z) = 0.28877 0.23583
#
# Static dielectric constant tensor:
#      x y z
#    x 3.961030 0.060320 -0.038870 
#    y 0.060320 3.722820 0.063510 
#    z -0.038870 0.063510 3.828370 
# 
# 
# High freq. dielectric constant tensor:
#      x y z
#    x 1.836300 0.001820 -0.007180 
#    y 0.001820 1.817240 0.012050 
#    z -0.007180 0.012050 1.830140 
# 
# From -- ./inp_files/167346.got.cif
#   From: 2010.06.25/outbox.cif.g09.slc.cpg/sg2_84_cif.got.tgz:167346.got - 2010.06.27 13:26:56.
