data_PCOD8011103
_publ_section_title
;
Structure prediction by ZEFSAII (Michael W. Deem and Ramdas Pophale) SiO2 
 PCOD8011103
Probable space group: P -1
;
_chemical_formula_sum "Si O2"
_cell_formula_units_Z 14
_cell_length_a 9.705397
_cell_length_b 18.900928
_cell_length_c 10.466566
_cell_angle_alpha 34.429278
_cell_angle_beta 133.712808
_cell_angle_gamma 150.762374
_cell_volume 527.344551
_symmetry_space_group_name_H-M "P -1"
_symmetry_group_IT_number 2
_symmetry_cell_setting 'triclinic'
loop_
_space_group_symop_operation_xyz
x,y,z
-x,-y,-z
loop_
_atom_site_type_symbol
_atom_site_label
_atom_site_fract_x
_atom_site_fract_y
_atom_site_fract_z
Si Si1 0.415859 0.267509 0.432934
Si Si2 0.700533 0.934271 0.571899
Si Si3 0.780321 0.232487 0.075485
Si Si4 0.765692 0.987733 0.078759
Si Si5 0.730171 0.613632 0.247890
Si Si6 0.882001 0.397518 0.386268
Si Si7 0.328880 0.157500 0.031991
O O1 0.255577 0.165094 0.347560
O O2 0.231653 0.114536 0.655490
O O3 0.476101 0.441886 0.248401
O O4 0.733349 0.360279 0.482920
O O5 0.359351 0.797195 0.559171
O O6 0.871805 0.138049 0.322573
O O7 0.808426 0.950545 0.757710
O O8 0.547598 0.104742 0.001142
O O9 0.631871 0.235717 0.092261
O O10 0.047851 0.440112 0.886736
O O11 0.859050 0.971901 0.022370
O O12 0.997932 0.207743 0.927235
O O13 0.607967 0.662970 0.187319
O O14 0.834302 0.547196 0.500907
#
# Coordination Sequence:
#
# PCOD8011103 Si02
#       7
#     2   2   2   2   2   2   2
#     4  10  24  38  65  97 118 161 213 252 310 353
#     4  10  23  42  62  91 132 155 205 260 301 376
#     4  10  21  38  67  88 122 161 210 248 303 361
#     4  10  22  38  65  93 120 161 207 254 304 353
#     4  12  21  40  65  91 130 154 210 259 299 373
#     4  10  22  37  65  97 114 162 209 254 306 348
#     4  10  24  42  61  93 128 166 198 250 323 361
#
# _framework density 26.548109
#
# number of rings (size 3 to 8) (size 9 to 14) (size 15 to 20)
#    1.714    0.000    2.857    1.286    2.000    4.571 
#    0.000    3.571    0.000    0.000    0.000    0.000 
#    0.000    0.000    0.000    0.000    0.000    0.000 
#
# Total GULP energy -173491.337340 kJ/mol
# GULP energy per Si atom -12392.238381 kJ/mol
# Density = 2.648768 g / cm^3
# Si number density = 26.548109 Si / 1000 Ang^3
#
#
#
# Elastic Constant Matrix: (Units=GPa)
#
#
# Indices 1 2 3 4 5 6 
#
# 1 60.8644 36.3381 29.3955 -8.9016 -13.8647 -27.2181
# 2 36.3381 76.8112 55.8665 -7.0338 -5.1658 -20.5905
# 3 29.3955 55.8665 174.0442 -21.2719 -8.1742 -26.4066
# 4 -8.9016 -7.0338 -21.2719 42.8106 0.1892 -6.2941
# 5 -13.8647 -5.1658 -8.1742 0.1892 54.0918 -4.8767
# 6 -27.2181 -20.5905 -26.4066 -6.2941 -4.8767 27.9803
#
#
#
# Elastic Compliance Matrix: (Units=1/GPa)
#
#
# Indices 1 2 3 4 5 6 
#
# 1 0.053054 -0.011501 0.006917 0.020971 0.018669 0.057644
# 2 -0.011501 0.021966 -0.005535 -0.001662 -0.001765 -0.000929
# 3 0.006917 -0.005535 0.009558 0.007320 0.003926 0.014007
# 4 0.020971 -0.001662 0.007320 0.036320 0.009432 0.035900
# 5 0.018669 -0.001765 0.003926 0.009432 0.026120 0.027242
# 6 0.057644 -0.000929 0.014007 0.035900 0.027242 0.117173
#
#
# Mechanical properties :
#
#
# Convention : Reuss Voigt Hill
#
# Bulk Modulus (GPa) = 15.54253 61.65777 38.60015
# Shear Modulus (GPa) = 16.34642 37.65120 26.99881
#
# Velocity S-wave (km/s) = 2.48408 3.77002 3.19247
# Velocity P-wave (km/s) = 3.75429 6.49816 5.30664
#
# Compressibility (1/GPa) = 0.06433961
#
# Stress axis : x y z
#
# Youngs Moduli (GPa) = 18.84872 45.52439 104.61960
#
# Poissons Ratio (x) = 0.52360 -0.72367
# Poissons Ratio (y) = 0.21679 0.57909
# Poissons Ratio (z) = -0.13038 0.25199
#
# Static dielectric constant tensor:
#      x y z
#    x 4.612110 0.036080 0.018930 
#    y 0.036080 4.602760 -0.148790 
#    z 0.018930 -0.148790 4.425270 
# 
# 
# High freq. dielectric constant tensor:
#      x y z
#    x 2.068450 0.014320 -0.004390 
#    y 0.014320 2.068960 -0.010020 
#    z -0.004390 -0.010020 2.052750 
# 
# From -- ./inp_files/438345.got.cif
#   From: 2010.06.25/outbox.cif.g09.slc.cpg/sg2_220_cif.got.tgz:438345.got - 2010.06.27 13:26:56.
