data_PCOD8011550
_publ_section_title
;
Structure prediction by ZEFSAII (Michael W. Deem and Ramdas Pophale) SiO2 
 PCOD8011550
Probable space group: P -1
;
_chemical_formula_sum "Si O2"
_cell_formula_units_Z 16
_cell_length_a 6.881013
_cell_length_b 10.112051
_cell_length_c 14.207665
_cell_angle_alpha 111.933362
_cell_angle_beta 123.921249
_cell_angle_gamma 65.944330
_cell_volume 735.040968
_symmetry_space_group_name_H-M "P -1"
_symmetry_group_IT_number 2
_symmetry_cell_setting 'triclinic'
loop_
_space_group_symop_operation_xyz
x,y,z
-x,-y,-z
loop_
_atom_site_type_symbol
_atom_site_label
_atom_site_fract_x
_atom_site_fract_y
_atom_site_fract_z
Si Si1 0.464808 0.876876 0.026660
Si Si2 0.467070 0.995005 0.262656
Si Si3 0.399500 0.869991 0.401190
Si Si4 0.147607 0.350366 0.551577
Si Si5 0.753607 0.555365 0.001831
Si Si6 0.046461 0.815448 0.800234
Si Si7 0.933108 0.079481 0.370817
Si Si8 0.728758 0.511780 0.197263
O O1 0.653808 0.728683 0.004529
O O2 0.510021 0.906706 0.154138
O O3 0.192033 0.860097 0.938906
O O4 0.500000 0.000000 0.000000
O O5 0.236255 0.136111 0.237488
O O6 0.700685 0.059913 0.360829
O O7 0.418869 0.879710 0.295511
O O8 0.580940 0.712249 0.439748
O O9 0.500000 0.000000 0.500000
O O10 0.126374 0.915208 0.381009
O O11 0.200618 0.372359 0.681845
O O12 0.000000 0.500000 0.500000
O O13 0.015664 0.217371 0.475283
O O14 0.821967 0.524683 0.121108
O O15 0.560854 0.471285 0.885805
O O16 0.000000 0.500000 0.000000
O O17 0.120690 0.887707 0.744926
O O18 0.124479 0.641814 0.759016
#
# Coordination Sequence:
#
# PCOD8011550 Si02
#       8
#     2   2   2   2   2   2   2   2
#     4  11  22  38  63  96 123 157 212 257 309 374
#     4  11  22  39  66  89 125 165 206 258 311 361
#     4   9  22  40  62  87 122 161 205 253 308 357
#     4  11  21  40  67  91 127 168 204 256 310 368
#     4  10  24  43  64  92 125 167 204 256 313 368
#     4  10  21  39  62  91 126 162 203 260 312 360
#     4  10  21  40  63  91 123 162 209 252 307 370
#     4  10  22  42  65  89 129 164 208 252 311 371
#
# _framework density 21.767495
#
# number of rings (size 3 to 8) (size 9 to 14) (size 15 to 20)
#    0.000    1.750    2.500    1.125    1.750    3.000 
#    2.250    4.375    0.000    0.000    0.000    0.000 
#    0.000    0.000    0.000    0.000    0.000    0.000 
#
# Total GULP energy -198252.598768 kJ/mol
# GULP energy per Si atom -12390.787423 kJ/mol
# Density = 2.171795 g / cm^3
# Si number density = 21.767495 Si / 1000 Ang^3
#
#
#
# Elastic Constant Matrix: (Units=GPa)
#
#
# Indices 1 2 3 4 5 6 
#
# 1 112.6075 38.8714 24.5476 -2.3071 10.7018 -29.2638
# 2 38.8714 116.3923 24.0492 -15.3072 8.3799 -27.5699
# 3 24.5476 24.0492 126.2972 10.2505 -1.9462 -10.5619
# 4 -2.3071 -15.3072 10.2505 30.3012 0.2410 5.0810
# 5 10.7018 8.3799 -1.9462 0.2410 27.4551 -6.3520
# 6 -29.2638 -27.5699 -10.5619 5.0810 -6.3520 33.7362
#
#
#
# Elastic Compliance Matrix: (Units=1/GPa)
#
#
# Indices 1 2 3 4 5 6 
#
# 1 0.012154 -0.001755 -0.001287 -0.000916 -0.002341 0.008403
# 2 -0.001755 0.011940 -0.001854 0.005443 -0.001629 0.006529
# 3 -0.001287 -0.001854 0.009003 -0.004300 0.002025 0.001216
# 4 -0.000916 0.005443 -0.004300 0.037817 -0.002849 -0.003924
# 5 -0.002341 -0.001629 0.002025 -0.002849 0.039176 0.005077
# 6 0.008403 0.006529 0.001216 -0.003924 0.005077 0.044194
#
#
# Mechanical properties :
#
#
# Convention : Reuss Voigt Hill
#
# Bulk Modulus (GPa) = 42.90617 58.91482 50.91050
# Shear Modulus (GPa) = 29.09604 36.15375 32.62489
#
# Velocity S-wave (km/s) = 3.66002 4.07984 3.87562
# Velocity P-wave (km/s) = 6.13310 7.02266 6.59290
#
# Compressibility (1/GPa) = 0.02330667
#
# Stress axis : x y z
#
# Youngs Moduli (GPa) = 82.27612 83.75004 111.07591
#
# Poissons Ratio (x) = 0.14695 0.14298
# Poissons Ratio (y) = 0.14436 0.20588
# Poissons Ratio (z) = 0.10591 0.15523
#
# Static dielectric constant tensor:
#      x y z
#    x 4.410390 -2.097670 -0.316820 
#    y -2.097670 10.470790 1.579110 
#    z -0.316820 1.579110 4.664680 
# 
# 
# High freq. dielectric constant tensor:
#      x y z
#    x 1.829600 -0.017860 -0.002820 
#    y -0.017860 1.863930 -0.009070 
#    z -0.002820 -0.009070 1.875490 
# 
# From -- ./inp_files/94381.got.cif
#   From: 2010.06.25/outbox.cif.g09.slc.cpg/sg2_48_cif.got.tgz:94381.got - 2010.06.27 13:26:56.
