data_PCOD8011591
_publ_section_title
;
Structure prediction by ZEFSAII (Michael W. Deem and Ramdas Pophale) SiO2 
 PCOD8011591
Probable space group: P -1
;
_chemical_formula_sum "Si O2"
_cell_formula_units_Z 16
_cell_length_a 12.142355
_cell_length_b 14.955551
_cell_length_c 11.670592
_cell_angle_alpha 56.091071
_cell_angle_beta 91.437735
_cell_angle_gamma 139.529243
_cell_volume 766.253506
_symmetry_space_group_name_H-M "P -1"
_symmetry_group_IT_number 2
_symmetry_cell_setting 'triclinic'
loop_
_space_group_symop_operation_xyz
x,y,z
-x,-y,-z
loop_
_atom_site_type_symbol
_atom_site_label
_atom_site_fract_x
_atom_site_fract_y
_atom_site_fract_z
Si Si1 0.352098 0.825500 0.515489
Si Si2 0.000950 0.688466 0.495551
Si Si3 0.790821 0.668758 0.679735
Si Si4 0.546930 0.165638 0.858537
Si Si5 0.493871 0.215753 0.061286
Si Si6 0.712392 0.013379 0.236817
Si Si7 0.688360 0.819031 0.552716
Si Si8 0.728729 0.430341 0.145968
O O1 0.153229 0.741438 0.541775
O O2 0.538791 0.958504 0.320265
O O3 0.214118 0.598855 0.725678
O O4 0.500000 0.000000 0.500000
O O5 0.863973 0.664863 0.573809
O O6 0.802184 0.433091 0.606878
O O7 0.197079 0.924603 0.249710
O O8 0.674766 0.679991 0.628759
O O9 0.569260 0.409243 0.928768
O O10 0.035588 0.901553 0.597989
O O11 0.321443 0.015901 0.881695
O O12 0.607612 0.268999 0.909946
O O13 0.500000 0.000000 0.000000
O O14 0.615302 0.271912 0.140934
O O15 0.627036 0.826012 0.426768
O O16 0.004800 0.283170 0.084447
O O17 0.480018 0.665419 0.752766
#
# Coordination Sequence:
#
# PCOD8011591 Si02
#       8
#     2   2   2   2   2   2   2   2
#     4  11  22  35  61  93 123 159 204 262 317 367
#     4  11  22  42  62  90 132 166 212 256 320 372
#     4  10  21  39  63 100 124 158 211 267 321 368
#     4  11  26  42  61  91 129 177 211 251 308 384
#     4  11  22  38  63  92 124 163 208 257 316 369
#     4  11  24  42  61  92 129 167 210 256 313 375
#     4  10  21  39  67  95 127 160 209 268 319 369
#     4  11  22  38  64  97 125 159 210 264 318 373
#
# _framework density 20.880818000000001
#
# number of rings (size 3 to 8) (size 9 to 14) (size 15 to 20)
#    0.000    1.250    3.750    2.250    1.750    7.000 
#    0.000    2.500    0.000    4.500    0.000    0.000 
#    0.000    0.000    0.000    0.000    0.000    0.000 
#
# Total GULP energy -198210.422022 kJ/mol
# GULP energy per Si atom -12388.151376 kJ/mol
# Density = 2.083329 g / cm^3
# Si number density = 20.880818 Si / 1000 Ang^3
#
#
#
# Elastic Constant Matrix: (Units=GPa)
#
#
# Indices 1 2 3 4 5 6 
#
# 1 99.6040 41.3064 25.3158 4.8204 8.0792 -7.0324
# 2 41.3064 85.9676 38.5497 -5.4028 2.1258 3.4772
# 3 25.3158 38.5497 112.2160 -16.4247 14.0370 -6.2960
# 4 4.8204 -5.4028 -16.4247 40.5076 -6.4037 7.5822
# 5 8.0792 2.1258 14.0370 -6.4037 29.3581 -3.6520
# 6 -7.0324 3.4772 -6.2960 7.5822 -3.6520 22.4695
#
#
#
# Elastic Compliance Matrix: (Units=1/GPa)
#
#
# Indices 1 2 3 4 5 6 
#
# 1 0.013989 -0.006862 -0.000710 -0.004548 -0.003228 0.006252
# 2 -0.006862 0.017438 -0.004730 0.002906 0.002686 -0.006716
# 3 -0.000710 -0.004730 0.011799 0.003195 -0.004150 0.002063
# 4 -0.004548 0.002906 0.003195 0.029561 0.004694 -0.010190
# 5 -0.003228 0.002686 -0.004150 0.004694 0.038013 0.002006
# 6 0.006252 -0.006716 0.002063 -0.010190 0.002006 0.051843
#
#
# Mechanical properties :
#
#
# Convention : Reuss Voigt Hill
#
# Bulk Modulus (GPa) = 53.69757 56.45905 55.07831
# Shear Modulus (GPa) = 25.84570 31.30809 28.57690
#
# Velocity S-wave (km/s) = 3.52202 3.87637 3.70343
# Velocity P-wave (km/s) = 6.50473 6.86531 6.68745
#
# Compressibility (1/GPa) = 0.01862282
#
# Stress axis : x y z
#
# Youngs Moduli (GPa) = 71.48301 57.34462 84.75332
#
# Poissons Ratio (x) = 0.39352 0.06015
# Poissons Ratio (y) = 0.49054 0.40087
# Poissons Ratio (z) = 0.05073 0.27123
#
# Static dielectric constant tensor:
#      x y z
#    x 3.723890 -0.078360 0.444380 
#    y -0.078360 3.703330 0.000660 
#    z 0.444380 0.000660 4.545270 
# 
# 
# High freq. dielectric constant tensor:
#      x y z
#    x 1.797920 -0.001730 0.016330 
#    y -0.001730 1.802580 -0.007730 
#    z 0.016330 -0.007730 1.840730 
# 
# From -- ./inp_files/433823.got.cif
#   From: 2010.06.25/outbox.cif.g09.slc.cpg/sg2_217_cif.got.tgz:433823.got - 2010.06.27 13:26:56.
