data_PCOD8011567
_publ_section_title
;
Structure prediction by ZEFSAII (Michael W. Deem and Ramdas Pophale) SiO2 
 PCOD8011567
Probable space group: P -1
;
_chemical_formula_sum "Si O2"
_cell_formula_units_Z 16
_cell_length_a 6.767196
_cell_length_b 12.420935
_cell_length_c 18.420700
_cell_angle_alpha 44.273807
_cell_angle_beta 127.719256
_cell_angle_gamma 138.066209
_cell_volume 711.855056
_symmetry_space_group_name_H-M "P -1"
_symmetry_group_IT_number 2
_symmetry_cell_setting 'triclinic'
loop_
_space_group_symop_operation_xyz
x,y,z
-x,-y,-z
loop_
_atom_site_type_symbol
_atom_site_label
_atom_site_fract_x
_atom_site_fract_y
_atom_site_fract_z
Si Si1 0.548326 0.054343 0.116927
Si Si2 0.673660 0.772672 0.243205
Si Si3 0.057752 0.738086 0.231786
Si Si4 0.816683 0.050268 0.482526
Si Si5 0.744528 0.521308 0.599983
Si Si6 0.265825 0.035280 0.334776
Si Si7 0.204959 0.302554 0.106430
Si Si8 0.714132 0.717175 0.031032
O O1 0.892904 0.226355 0.116545
O O2 0.551314 0.905331 0.134943
O O3 0.391004 0.932442 0.214652
O O4 0.344489 0.135129 0.015369
O O5 0.411019 0.576115 0.311399
O O6 0.799101 0.739310 0.215258
O O7 0.940651 0.870112 0.314949
O O8 0.093388 0.577077 0.347374
O O9 0.952526 0.707276 0.138454
O O10 0.510796 0.984711 0.402070
O O11 0.996070 0.267880 0.432076
O O12 0.744392 0.935426 0.595818
O O13 0.000000 0.000000 0.500000
O O14 0.500000 0.500000 0.500000
O O15 0.375765 0.224680 0.225175
O O16 0.395314 0.522423 0.048003
O O17 0.151976 0.228997 0.046680
#
# Coordination Sequence:
#
# PCOD8011567 Si02
#       8
#     2   2   2   2   2   2   2   2
#     4  10  21  39  62  93 124 167 217 256 314 383
#     4  10  23  41  66  94 131 174 210 269 325 384
#     4  11  25  41  66  95 133 168 215 270 323 384
#     4  11  25  41  67  96 128 169 215 273 322 385
#     4  11  24  44  66  99 130 168 223 265 324 396
#     4  10  22  42  62  94 130 167 219 262 326 385
#     4  10  23  41  65  91 131 175 211 268 325 386
#     4  11  23  41  63  96 131 172 217 265 325 385
#
# _framework density 22.476486999999999
#
# number of rings (size 3 to 8) (size 9 to 14) (size 15 to 20)
#    0.000    1.500    1.250    3.000    1.750    8.500 
#    0.000    0.000    0.000    0.000    0.000    0.000 
#    0.000    0.000    0.000    0.000    0.000    0.000 
#
# Total GULP energy -198257.818835 kJ/mol
# GULP energy per Si atom -12391.113677 kJ/mol
# Density = 2.242533 g / cm^3
# Si number density = 22.476487 Si / 1000 Ang^3
#
#
#
# Elastic Constant Matrix: (Units=GPa)
#
#
# Indices 1 2 3 4 5 6 
#
# 1 143.1293 27.0005 44.6580 -4.0444 12.4214 -5.3907
# 2 27.0005 48.8632 24.3936 -9.5997 2.6968 3.5874
# 3 44.6580 24.3936 126.0053 0.7733 14.2538 -12.4514
# 4 -4.0444 -9.5997 0.7733 36.3927 8.0872 1.9937
# 5 12.4214 2.6968 14.2538 8.0872 38.3238 -9.4377
# 6 -5.3907 3.5874 -12.4514 1.9937 -9.4377 32.5525
#
#
#
# Elastic Compliance Matrix: (Units=1/GPa)
#
#
# Indices 1 2 3 4 5 6 
#
# 1 0.008476 -0.003500 -0.002091 0.000414 -0.001694 0.000473
# 2 -0.003500 0.026637 -0.004327 0.007581 -0.002281 -0.006296
# 3 -0.002091 -0.004327 0.010058 -0.001437 -0.001566 0.003612
# 4 0.000414 0.007581 -0.001437 0.031687 -0.008208 -0.005637
# 5 -0.001694 -0.002281 -0.001566 -0.008208 0.031323 0.008956
# 6 0.000473 -0.006296 0.003612 -0.005637 0.008956 0.035815
#
#
# Mechanical properties :
#
#
# Convention : Reuss Voigt Hill
#
# Bulk Modulus (GPa) = 39.47006 56.67798 48.07402
# Shear Modulus (GPa) = 29.02342 36.25017 32.63679
#
# Velocity S-wave (km/s) = 3.59734 4.02033 3.81470
# Velocity P-wave (km/s) = 5.90366 6.84266 6.39043
#
# Compressibility (1/GPa) = 0.02533566
#
# Stress axis : x y z
#
# Youngs Moduli (GPa) = 117.98437 37.54210 99.42727
#
# Poissons Ratio (x) = 0.13139 0.20786
# Poissons Ratio (y) = 0.41292 0.43021
# Poissons Ratio (z) = 0.24665 0.16244
#
# Static dielectric constant tensor:
#      x y z
#    x 4.200360 0.287300 0.054830 
#    y 0.287300 3.683460 -0.236100 
#    z 0.054830 -0.236100 4.141880 
# 
# 
# High freq. dielectric constant tensor:
#      x y z
#    x 1.897490 0.023200 0.009070 
#    y 0.023200 1.868530 -0.019260 
#    z 0.009070 -0.019260 1.890070 
# 
# From -- ./inp_files/369435.got.cif
#   From: 2010.06.25/outbox.cif.g09.slc.cpg/sg2_185_cif.got.tgz:369435.got - 2010.06.27 13:26:56.
