data_PCOD8011512
_publ_section_title
;
Structure prediction by ZEFSAII (Michael W. Deem and Ramdas Pophale) SiO2 
 PCOD8011512
Probable space group: P -1
;
_chemical_formula_sum "Si O2"
_cell_formula_units_Z 14
_cell_length_a 20.826921
_cell_length_b 5.213131
_cell_length_c 7.806692
_cell_angle_alpha 121.832479
_cell_angle_beta 120.786161
_cell_angle_gamma 77.997942
_cell_volume 616.402216
_symmetry_space_group_name_H-M "P -1"
_symmetry_group_IT_number 2
_symmetry_cell_setting 'triclinic'
loop_
_space_group_symop_operation_xyz
x,y,z
-x,-y,-z
loop_
_atom_site_type_symbol
_atom_site_label
_atom_site_fract_x
_atom_site_fract_y
_atom_site_fract_z
Si Si1 0.678436 0.799335 0.273907
Si Si2 0.012370 0.365826 0.688047
Si Si3 0.548047 0.086621 0.344654
Si Si4 0.226014 0.686827 0.609745
Si Si5 0.463054 0.543948 0.196821
Si Si6 0.094893 0.312430 0.138352
Si Si7 0.111774 0.791330 0.768382
O O1 0.720472 0.581035 0.379168
O O2 0.634428 0.031834 0.408722
O O3 0.733714 0.000629 0.294957
O O4 0.620145 0.589982 0.007682
O O5 0.073100 0.465796 0.660120
O O6 0.960632 0.648992 0.764266
O O7 0.949672 0.104987 0.426155
O O8 0.052209 0.313119 0.900676
O O9 0.515647 0.274285 0.211297
O O10 0.544194 0.257031 0.575903
O O11 0.500461 0.757266 0.172269
O O12 0.164481 0.565995 0.342389
O O13 0.190254 0.761766 0.771469
O O14 0.125638 0.981802 0.032724
#
# Coordination Sequence:
#
# PCOD8011512 Si02
#       7
#     2   2   2   2   2   2   2
#     4  12  24  43  60  91 132 170 198 250 302 377
#     4   9  20  38  64  93 110 156 218 270 320 351
#     4  10  21  39  68  96 119 156 209 258 302 353
#     4  11  28  39  60  90 132 172 210 234 316 384
#     4  10  21  39  68  96 119 156 209 258 302 353
#     4  10  21  39  62  89 119 161 210 268 310 368
#     4  10  21  39  62  89 119 161 210 268 310 368
#
# _framework density 22.712444000000001
#
# number of rings (size 3 to 8) (size 9 to 14) (size 15 to 20)
#    0.000    1.714    0.000    3.429    4.000    2.286 
#    5.143    0.000    0.000    0.000    0.000    0.000 
#    0.000    0.000    0.000    0.000    0.000    0.000 
#
# Total GULP energy -173486.829936 kJ/mol
# GULP energy per Si atom -12391.916424 kJ/mol
# Density = 2.266075 g / cm^3
# Si number density = 22.712444 Si / 1000 Ang^3
#
#
#
# Elastic Constant Matrix: (Units=GPa)
#
#
# Indices 1 2 3 4 5 6 
#
# 1 102.2532 21.5597 31.1932 8.9455 6.8185 7.4946
# 2 21.5597 87.6273 17.8181 1.6195 1.7773 5.8065
# 3 31.1932 17.8181 92.0671 9.0119 0.7030 -4.8290
# 4 8.9455 1.6195 9.0119 29.1468 4.6902 1.4484
# 5 6.8185 1.7773 0.7030 4.6902 25.9107 6.3103
# 6 7.4946 5.8065 -4.8290 1.4484 6.3103 37.7707
#
#
#
# Elastic Compliance Matrix: (Units=1/GPa)
#
#
# Indices 1 2 3 4 5 6 
#
# 1 0.011714 -0.001959 -0.003488 -0.001985 -0.001993 -0.002060
# 2 -0.001959 0.012384 -0.001883 0.000577 0.000048 -0.001786
# 3 -0.003488 -0.001883 0.012838 -0.003022 0.000603 0.002638
# 4 -0.001985 0.000577 -0.003022 0.036807 -0.005977 -0.000494
# 5 -0.001993 0.000048 0.000603 -0.005977 0.041709 -0.006274
# 6 -0.002060 -0.001786 0.002638 -0.000494 -0.006274 0.028563
#
#
# Mechanical properties :
#
#
# Convention : Reuss Voigt Hill
#
# Bulk Modulus (GPa) = 44.89564 47.00994 45.95279
# Shear Modulus (GPa) = 30.10213 32.65742 31.37978
#
# Velocity S-wave (km/s) = 3.64450 3.79603 3.72104
# Velocity P-wave (km/s) = 6.12533 6.32107 6.22397
#
# Compressibility (1/GPa) = 0.02227388
#
# Stress axis : x y z
#
# Youngs Moduli (GPa) = 85.36498 80.75135 77.89623
#
# Poissons Ratio (x) = 0.15821 0.27173
# Poissons Ratio (y) = 0.16725 0.14670
# Poissons Ratio (z) = 0.29778 0.15208
#
# Static dielectric constant tensor:
#      x y z
#    x 4.269840 -0.274260 -0.389470 
#    y -0.274260 4.288980 0.270820 
#    z -0.389470 0.270820 4.601550 
# 
# 
# High freq. dielectric constant tensor:
#      x y z
#    x 1.896980 -0.007100 -0.016240 
#    y -0.007100 1.896080 0.010140 
#    z -0.016240 0.010140 1.917100 
# 
# From -- ./inp_files/340767.got.cif
#   From: 2010.06.25/outbox.cif.g09.slc.cpg/sg2_171_cif.got.tgz:340767.got - 2010.06.27 13:26:56.
