data_PCOD8011437
_publ_section_title
;
Structure prediction by ZEFSAII (Michael W. Deem and Ramdas Pophale) SiO2 
 PCOD8011437
Probable space group: P -1
;
_chemical_formula_sum "Si O2"
_cell_formula_units_Z 14
_cell_length_a 6.986679
_cell_length_b 21.328795
_cell_length_c 23.878644
_cell_angle_alpha 11.060810
_cell_angle_beta 66.775531
_cell_angle_gamma 66.676995
_cell_volume 626.549593
_symmetry_space_group_name_H-M "P -1"
_symmetry_group_IT_number 2
_symmetry_cell_setting 'triclinic'
loop_
_space_group_symop_operation_xyz
x,y,z
-x,-y,-z
loop_
_atom_site_type_symbol
_atom_site_label
_atom_site_fract_x
_atom_site_fract_y
_atom_site_fract_z
Si Si1 0.654224 0.275871 0.443001
Si Si2 0.726533 0.348359 0.800143
Si Si3 0.448080 0.879800 0.172120
Si Si4 0.091969 0.181511 0.099616
Si Si5 0.976464 0.894149 0.254352
Si Si6 0.547951 0.998007 0.584360
Si Si7 0.287314 0.413828 0.168539
O O1 0.417698 0.339545 0.435104
O O2 0.783801 0.040496 0.675703
O O3 0.673658 0.132278 0.504161
O O4 0.747787 0.630532 0.121681
O O5 0.890534 0.523666 0.585800
O O6 0.593725 0.080182 0.020142
O O7 0.834547 0.163634 0.001820
O O8 0.500000 0.500000 0.500000
O O9 0.205628 0.921437 0.178887
O O10 0.500000 0.000000 0.000000
O O11 0.966998 0.966297 0.259054
O O12 0.946535 0.450087 0.913475
O O13 0.710482 0.877154 0.622846
O O14 0.387811 0.280473 0.331716
O O15 0.419155 0.702112 0.878733
#
# Coordination Sequence:
#
# PCOD8011437 Si02
#       7
#     2   2   2   2   2   2   2
#     4  12  24  40  66  97 135 175 230 287 332 396
#     4  12  26  46  74 101 140 184 227 278 343 409
#     4  12  28  48  74 106 143 172 225 286 336 414
#     4  12  24  40  66  97 135 175 230 287 332 396
#     4  12  26  46  74 101 140 184 227 278 343 409
#     4  10  21  39  61  90 131 177 227 280 337 400
#     4  10  21  39  61  90 131 177 227 280 337 400
#
# _framework density 22.3446
#
# number of rings (size 3 to 8) (size 9 to 14) (size 15 to 20)
#    0.000    0.571    1.429    6.857    2.000    4.571 
#    0.000    0.000    0.000    0.000    0.000    0.000 
#    0.000    0.000    0.000    0.000    0.000    0.000 
#
# Total GULP energy -173609.068067 kJ/mol
# GULP energy per Si atom -12400.647719 kJ/mol
# Density = 2.229374 g / cm^3
# Si number density = 22.344600 Si / 1000 Ang^3
#
#
#
# Elastic Constant Matrix: (Units=GPa)
#
#
# Indices 1 2 3 4 5 6 
#
# 1 159.2018 77.0535 79.5988 0.7548 25.8326 10.9490
# 2 77.0535 120.6557 50.9756 -0.0338 14.4330 7.7902
# 3 79.5988 50.9756 155.1659 17.3976 23.7013 7.6894
# 4 0.7548 -0.0338 17.3976 44.6470 2.9066 2.9514
# 5 25.8326 14.4330 23.7013 2.9066 57.5363 10.4686
# 6 10.9490 7.7902 7.6894 2.9514 10.4686 37.5696
#
#
#
# Elastic Compliance Matrix: (Units=1/GPa)
#
#
# Indices 1 2 3 4 5 6 
#
# 1 0.011056 -0.005159 -0.003789 0.001478 -0.002014 -0.000932
# 2 -0.005159 0.012234 -0.001402 0.000699 -0.000068 -0.000782
# 3 -0.003789 -0.001402 0.009498 -0.003540 -0.001719 0.000208
# 4 0.001478 0.000699 -0.003540 0.023880 -0.000288 -0.001647
# 5 -0.002014 -0.000068 -0.001719 -0.000288 0.019853 -0.004557
# 6 -0.000932 -0.000782 0.000208 -0.001647 -0.004557 0.028408
#
#
# Mechanical properties :
#
#
# Convention : Reuss Voigt Hill
#
# Bulk Modulus (GPa) = 82.71845 94.47546 88.59695
# Shear Modulus (GPa) = 38.56285 43.11029 40.83657
#
# Velocity S-wave (km/s) = 4.15881 4.39719 4.27966
# Velocity P-wave (km/s) = 7.75634 8.25550 8.00981
#
# Compressibility (1/GPa) = 0.01208920
#
# Stress axis : x y z
#
# Youngs Moduli (GPa) = 90.44459 81.74244 105.28325
#
# Poissons Ratio (x) = 0.42167 0.39893
# Poissons Ratio (y) = 0.46656 0.14760
# Poissons Ratio (z) = 0.34270 0.11459
#
# Static dielectric constant tensor:
#      x y z
#    x 4.082880 -0.027480 -0.071510 
#    y -0.027480 4.263050 -0.019670 
#    z -0.071510 -0.019670 4.222760 
# 
# 
# High freq. dielectric constant tensor:
#      x y z
#    x 1.885450 0.000860 0.002040 
#    y 0.000860 1.887100 0.007060 
#    z 0.002040 0.007060 1.900320 
# 
# From -- ./inp_files/14324.got.cif
#   From: 2010.06.25/outbox.cif.g09.slc.cpg/sg2_8_cif.got.tgz:14324.got - 2010.06.27 13:26:56.
