data_PCOD8011402
_publ_section_title
;
Structure prediction by ZEFSAII (Michael W. Deem and Ramdas Pophale) SiO2 
 PCOD8011402
Probable space group: P -1
;
_chemical_formula_sum "Si O2"
_cell_formula_units_Z 14
_cell_length_a 5.182187
_cell_length_b 24.661875
_cell_length_c 6.652565
_cell_angle_alpha 53.564752
_cell_angle_beta 104.670178
_cell_angle_gamma 80.508861
_cell_volume 604.988026
_symmetry_space_group_name_H-M "P -1"
_symmetry_group_IT_number 2
_symmetry_cell_setting 'triclinic'
loop_
_space_group_symop_operation_xyz
x,y,z
-x,-y,-z
loop_
_atom_site_type_symbol
_atom_site_label
_atom_site_fract_x
_atom_site_fract_y
_atom_site_fract_z
Si Si1 0.344108 0.982547 0.203419
Si Si2 0.102755 0.095756 0.248049
Si Si3 0.986448 0.107394 0.611363
Si Si4 0.641054 0.592141 0.353609
Si Si5 0.100002 0.572432 0.147966
Si Si6 0.334355 0.319209 0.469324
Si Si7 0.953914 0.227163 0.631090
O O1 0.645776 0.926740 0.481774
O O2 0.194190 0.928980 0.211902
O O3 0.151146 0.029513 0.254024
O O4 0.318100 0.046664 0.884008
O O5 0.861295 0.112714 0.342558
O O6 0.052764 0.170407 0.959968
O O7 0.940166 0.187417 0.506732
O O8 0.339810 0.607224 0.143953
O O9 0.736701 0.515080 0.662744
O O10 0.585227 0.658990 0.346799
O O11 0.898315 0.590025 0.264971
O O12 0.904224 0.607740 0.838883
O O13 0.630135 0.288827 0.465290
O O14 0.199260 0.258897 0.592645
#
# Coordination Sequence:
#
# PCOD8011402 Si02
#       7
#     2   2   2   2   2   2   2
#     4   9  20  38  62  90 111 154 218 268 327 364
#     4  10  21  39  61  88 117 162 208 271 315 379
#     4  10  21  39  61  88 117 162 208 271 315 379
#     4  10  22  42  71 100 126 167 219 265 315 369
#     4  10  22  42  71 100 126 167 219 265 315 369
#     4  12  25  46  62  96 138 174 208 264 310 386
#     4  11  28  40  61  92 131 172 214 242 323 392
#
# _framework density 23.140954000000001
#
# number of rings (size 3 to 8) (size 9 to 14) (size 15 to 20)
#    0.000    1.714    0.000    3.000    4.000    3.429 
#    5.143    5.714    0.000    0.000    0.000    0.000 
#    0.000    0.000    0.000    0.000    0.000    0.000 
#
# Total GULP energy -173481.536920 kJ/mol
# GULP energy per Si atom -12391.538351 kJ/mol
# Density = 2.308828 g / cm^3
# Si number density = 23.140954 Si / 1000 Ang^3
#
#
#
# Elastic Constant Matrix: (Units=GPa)
#
#
# Indices 1 2 3 4 5 6 
#
# 1 84.8850 26.8983 -4.3681 -1.5372 4.3718 7.0852
# 2 26.8983 99.7979 1.7541 5.4578 -3.8434 9.6194
# 3 -4.3681 1.7541 83.3630 16.4268 0.6923 -1.7138
# 4 -1.5372 5.4578 16.4268 26.3159 -1.3638 -2.3101
# 5 4.3718 -3.8434 0.6923 -1.3638 37.1082 -4.2547
# 6 7.0852 9.6194 -1.7138 -2.3101 -4.2547 36.1355
#
#
#
# Elastic Compliance Matrix: (Units=1/GPa)
#
#
# Indices 1 2 3 4 5 6 
#
# 1 0.013202 -0.003522 0.000574 0.000875 -0.002107 -0.001816
# 2 -0.003522 0.011395 0.000059 -0.002751 0.001221 -0.002372
# 3 0.000574 0.000059 0.013719 -0.008585 -0.000645 -0.000102
# 4 0.000875 -0.002751 -0.008585 0.044353 0.001769 0.003197
# 5 -0.002107 0.001221 -0.000645 0.001769 0.027795 0.003443
# 6 -0.001816 -0.002372 -0.000102 0.003197 0.003443 0.029266
#
#
# Mechanical properties :
#
#
# Convention : Reuss Voigt Hill
#
# Bulk Modulus (GPa) = 30.73481 35.17939 32.95710
# Shear Modulus (GPa) = 31.97841 36.16268 34.07054
#
# Velocity S-wave (km/s) = 3.72142 3.95741 3.84123
# Velocity P-wave (km/s) = 5.63699 6.00971 5.82633
#
# Compressibility (1/GPa) = 0.03253640
#
# Stress axis : x y z
#
# Youngs Moduli (GPa) = 75.74454 87.76012 72.88900
#
# Poissons Ratio (x) = 0.30913 -0.04181
# Poissons Ratio (y) = 0.26681 -0.00428
# Poissons Ratio (z) = -0.04345 -0.00516
#
# Static dielectric constant tensor:
#      x y z
#    x 4.292970 -0.237490 -0.023260 
#    y -0.237490 4.054750 0.043720 
#    z -0.023260 0.043720 4.282030 
# 
# 
# High freq. dielectric constant tensor:
#      x y z
#    x 1.923930 -0.010450 0.000890 
#    y -0.010450 1.912150 0.007600 
#    z 0.000890 0.007600 1.931090 
# 
# From -- ./inp_files/12803.got.cif
#   From: 2010.06.25/outbox.cif.g09.slc.cpg/sg2_7_cif.got.tgz:12803.got - 2010.06.27 13:26:56.
