data_PCOD8011221
_publ_section_title
;
Structure prediction by ZEFSAII (Michael W. Deem and Ramdas Pophale) SiO2 
 PCOD8011221
Probable space group: P -1
;
_chemical_formula_sum "Si O2"
_cell_formula_units_Z 16
_cell_length_a 12.063502
_cell_length_b 8.597387
_cell_length_c 7.474748
_cell_angle_alpha 107.150570
_cell_angle_beta 62.665537
_cell_angle_gamma 112.771732
_cell_volume 628.470114
_symmetry_space_group_name_H-M "P -1"
_symmetry_group_IT_number 2
_symmetry_cell_setting 'triclinic'
loop_
_space_group_symop_operation_xyz
x,y,z
-x,-y,-z
loop_
_atom_site_type_symbol
_atom_site_label
_atom_site_fract_x
_atom_site_fract_y
_atom_site_fract_z
Si Si1 0.940852 0.616509 0.705204
Si Si2 0.462190 0.491443 0.821338
Si Si3 0.285172 0.125242 0.846367
Si Si4 0.790719 0.232294 0.323054
Si Si5 0.255935 0.439716 0.449943
Si Si6 0.768053 0.353512 0.994228
Si Si7 0.184607 0.975276 0.237084
Si Si8 0.114172 0.159536 0.685789
O O1 0.827244 0.668391 0.694977
O O2 0.876110 0.519035 0.896756
O O3 0.000000 0.500000 0.500000
O O4 0.066355 0.777509 0.715973
O O5 0.398836 0.291290 0.758669
O O6 0.596851 0.568306 0.638722
O O7 0.500000 0.500000 0.000000
O O8 0.371736 0.610117 0.882891
O O9 0.151182 0.138388 0.857216
O O10 0.310107 0.956957 0.679555
O O11 0.269632 0.101167 0.063912
O O12 0.736455 0.362023 0.524562
O O13 0.815512 0.315116 0.137976
O O14 0.175212 0.361731 0.661615
O O15 0.758077 0.184346 0.823563
O O16 0.187735 0.069185 0.456010
O O17 0.039247 0.901811 0.242770
#
# Coordination Sequence:
#
# PCOD8011221 Si02
#       8
#     2   2   2   2   2   2   2   2
#     4  10  21  38  71  97 136 174 228 290 346 421
#     4  12  26  47  72  96 145 195 241 286 338 428
#     4  11  26  44  69 108 142 187 231 297 355 417
#     4  10  24  42  70 106 137 174 234 298 361 413
#     4  11  24  45  68 104 136 192 240 274 354 422
#     4  11  23  43  68  98 139 191 228 284 355 415
#     4  10  24  44  68 110 144 177 233 295 366 421
#     4  11  24  42  74 105 146 180 230 298 362 415
#
# _framework density 25.458649000000001
#
# number of rings (size 3 to 8) (size 9 to 14) (size 15 to 20)
#    0.000    1.250    1.250    3.750    7.000    5.500 
#    0.000    6.875    0.000    0.000    0.000    0.000 
#    0.000    0.000    0.000    0.000    0.000    0.000 
#
# Total GULP energy -198306.463179 kJ/mol
# GULP energy per Si atom -12394.153949 kJ/mol
# Density = 2.540070 g / cm^3
# Si number density = 25.458649 Si / 1000 Ang^3
#
#
#
# Elastic Constant Matrix: (Units=GPa)
#
#
# Indices 1 2 3 4 5 6 
#
# 1 92.6884 16.8175 20.7334 6.1370 -14.5895 9.0839
# 2 16.8175 82.8698 -3.0146 15.9414 -9.6411 2.0983
# 3 20.7334 -3.0146 33.3834 -9.3626 -6.4172 1.6501
# 4 6.1370 15.9414 -9.3626 36.8258 -6.9299 -2.3029
# 5 -14.5895 -9.6411 -6.4172 -6.9299 42.6828 -2.9051
# 6 9.0839 2.0983 1.6501 -2.3029 -2.9051 33.5060
#
#
#
# Elastic Compliance Matrix: (Units=1/GPa)
#
#
# Indices 1 2 3 4 5 6 
#
# 1 0.014204 -0.002198 -0.009467 -0.003631 0.002120 -0.003313
# 2 -0.002198 0.013727 0.001604 -0.004869 0.001764 -0.000524
# 3 -0.009467 0.001604 0.040346 0.012250 0.005302 0.001781
# 4 -0.003631 -0.004869 0.012250 0.034196 0.005291 0.003495
# 5 0.002120 0.001764 0.005302 0.005291 0.026324 0.001700
# 6 -0.003313 -0.000524 0.001781 0.003495 0.001700 0.031076
#
#
# Mechanical properties :
#
#
# Convention : Reuss Voigt Hill
#
# Bulk Modulus (GPa) = 20.76605 30.89045 25.82825
# Shear Modulus (GPa) = 25.50407 34.22996 29.86701
#
# Velocity S-wave (km/s) = 3.16853 3.67076 3.42886
# Velocity P-wave (km/s) = 4.64334 5.48871 5.08363
#
# Compressibility (1/GPa) = 0.04815553
#
# Stress axis : x y z
#
# Youngs Moduli (GPa) = 70.40199 72.85103 24.78531
#
# Poissons Ratio (x) = 0.16012 0.23465
# Poissons Ratio (y) = 0.15474 -0.03976
# Poissons Ratio (z) = 0.66651 -0.11687
#
# Static dielectric constant tensor:
#      x y z
#    x 0.000000 0.000000 0.000000 
#    y 0.000000 0.000000 0.000000 
#    z 0.000000 0.000000 0.000000 
# 
# 
# High freq. dielectric constant tensor:
#      x y z
#    x 2.005110 -0.008930 0.017130 
#    y -0.008930 2.031280 0.011670 
#    z 0.017130 0.011670 2.007320 
# 
# From -- ./inp_files/244445.got.cif
#   From: 2010.06.25/outbox.cif.g09.slc.cpg/sg2_123_cif.got.tgz:244445.got - 2010.06.27 13:26:56.
