data_PCOD8011556
_publ_section_title
;
Structure prediction by ZEFSAII (Michael W. Deem and Ramdas Pophale) SiO2 
 PCOD8011556
Probable space group: P -1
;
_chemical_formula_sum "Si O2"
_cell_formula_units_Z 14
_cell_length_a 6.429681
_cell_length_b 17.414411
_cell_length_c 17.102798
_cell_angle_alpha 20.545954
_cell_angle_beta 71.252268
_cell_angle_gamma 71.084696
_cell_volume 634.867415
_symmetry_space_group_name_H-M "P -1"
_symmetry_group_IT_number 2
_symmetry_cell_setting 'triclinic'
loop_
_space_group_symop_operation_xyz
x,y,z
-x,-y,-z
loop_
_atom_site_type_symbol
_atom_site_label
_atom_site_fract_x
_atom_site_fract_y
_atom_site_fract_z
Si Si1 0.082608 0.656229 0.730968
Si Si2 0.339328 0.576481 0.378814
Si Si3 0.941922 0.778459 0.320178
Si Si4 0.543927 0.044364 0.622383
Si Si5 0.155147 0.407622 0.331613
Si Si6 0.654533 0.190851 0.995214
Si Si7 0.340018 0.354815 0.108431
O O1 0.212173 0.871229 0.492538
O O2 0.015377 0.548406 0.760392
O O3 0.861940 0.722157 0.742862
O O4 0.245629 0.484388 0.920699
O O5 0.500000 0.500000 0.500000
O O6 0.238974 0.357121 0.571006
O O7 0.164193 0.757412 0.263784
O O8 0.453891 0.689596 0.182770
O O9 0.982121 0.679449 0.496337
O O10 0.861834 0.033137 0.091646
O O11 0.353113 0.232602 0.449387
O O12 0.519544 0.947377 0.805559
O O13 0.519799 0.861079 0.733246
O O14 0.256717 0.635356 0.121111
O O15 0.500000 0.500000 0.000000
#
# Coordination Sequence:
#
# PCOD8011556 Si02
#       7
#     2   2   2   2   2   2   2
#     4  11  24  41  64  93 122 162 208 253 308 371
#     4  10  21  39  62  92 125 161 206 253 304 364
#     4   9  21  39  61  89 124 161 203 255 307 360
#     4  11  23  41  63  90 125 161 205 257 310 365
#     4  10  23  42  63  89 124 164 207 256 306 364
#     4  10  21  41  64  89 126 166 202 255 312 361
#     4  11  25  43  64  91 126 163 204 255 310 369
#
# _framework density 22.051846999999999
#
# number of rings (size 3 to 8) (size 9 to 14) (size 15 to 20)
#    0.000    1.714    0.000    3.429    0.000   12.000 
#    0.000    7.143    0.000    0.000    0.000    0.000 
#    0.000    0.000    0.000    0.000    0.000    0.000 
#
# Total GULP energy -173620.630819 kJ/mol
# GULP energy per Si atom -12401.473630 kJ/mol
# Density = 2.200166 g / cm^3
# Si number density = 22.051847 Si / 1000 Ang^3
#
#
#
# Elastic Constant Matrix: (Units=GPa)
#
#
# Indices 1 2 3 4 5 6 
#
# 1 115.4249 69.2566 67.3379 14.0006 2.8124 26.1249
# 2 69.2566 137.9933 71.3412 -11.5230 -1.7623 17.9142
# 3 67.3379 71.3412 121.4769 -0.2137 -3.1187 5.7814
# 4 14.0006 -11.5230 -0.2137 56.0725 -3.1810 8.5228
# 5 2.8124 -1.7623 -3.1187 -3.1810 27.5005 14.7441
# 6 26.1249 17.9142 5.7814 8.5228 14.7441 37.0951
#
#
#
# Elastic Compliance Matrix: (Units=1/GPa)
#
#
# Indices 1 2 3 4 5 6 
#
# 1 0.017826 -0.004637 -0.006703 -0.003990 0.001445 -0.008928
# 2 -0.004637 0.013179 -0.004815 0.004849 0.004054 -0.005073
# 3 -0.006703 -0.004815 0.014515 -0.000073 -0.000711 0.005083
# 4 -0.003990 0.004849 -0.000073 0.021324 0.007048 -0.007220
# 5 0.001445 0.004054 -0.000711 0.007048 0.050341 -0.024492
# 6 -0.008928 -0.005073 0.005083 -0.007220 -0.024492 0.046297
#
#
# Mechanical properties :
#
#
# Convention : Reuss Voigt Hill
#
# Bulk Modulus (GPa) = 75.70427 87.86293 81.78360
# Shear Modulus (GPa) = 24.97564 35.26425 30.11994
#
# Velocity S-wave (km/s) = 3.36904 4.00328 3.69978
# Velocity P-wave (km/s) = 7.03837 7.82934 7.44437
#
# Compressibility (1/GPa) = 0.01320930
#
# Stress axis : x y z
#
# Youngs Moduli (GPa) = 56.09803 75.88106 68.89233
#
# Poissons Ratio (x) = 0.35184 0.46181
# Poissons Ratio (y) = 0.26011 0.33173
# Poissons Ratio (z) = 0.37604 0.36538
#
# Static dielectric constant tensor:
#      x y z
#    x 3.671120 -0.006000 -0.023770 
#    y -0.006000 4.386460 0.109500 
#    z -0.023770 0.109500 4.054670 
# 
# 
# High freq. dielectric constant tensor:
#      x y z
#    x 1.841290 0.001590 0.000260 
#    y 0.001590 1.893880 0.007950 
#    z 0.000260 0.007950 1.875030 
# 
# From -- ./inp_files/7511.got.cif
#   From: 2010.06.25/outbox.cif.g09.slc.cpg/sg2_4_cif.got.tgz:7511.got - 2010.06.27 13:26:56.
