data_PCOD8011624
_publ_section_title
;
Structure prediction by ZEFSAII (Michael W. Deem and Ramdas Pophale) SiO2 
 PCOD8011624
Probable space group: P -1
;
_chemical_formula_sum "Si O2"
_cell_formula_units_Z 12
_cell_length_a 12.778869
_cell_length_b 18.820043
_cell_length_c 15.781656
_cell_angle_alpha 19.193846
_cell_angle_beta 27.220401
_cell_angle_gamma 29.118328
_cell_volume 556.170911
_symmetry_space_group_name_H-M "P -1"
_symmetry_group_IT_number 2
_symmetry_cell_setting 'triclinic'
loop_
_space_group_symop_operation_xyz
x,y,z
-x,-y,-z
loop_
_atom_site_type_symbol
_atom_site_label
_atom_site_fract_x
_atom_site_fract_y
_atom_site_fract_z
Si Si1 0.610073 0.812232 0.373151
Si Si2 0.814538 0.470620 0.266895
Si Si3 0.318858 0.035806 0.669311
Si Si4 0.835042 0.239713 0.346522
Si Si5 0.356740 0.749859 0.218187
Si Si6 0.161787 0.657790 0.296525
O O1 0.551891 0.912704 0.395920
O O2 0.374743 0.757304 0.569818
O O3 0.818439 0.589191 0.477343
O O4 0.701742 0.984705 0.051683
O O5 0.765350 0.293931 0.432551
O O6 0.599567 0.683890 0.170007
O O7 0.835020 0.338984 0.488872
O O8 0.049953 0.558355 0.992751
O O9 0.090953 0.240165 0.592151
O O10 0.500000 0.000000 0.500000
O O11 0.217901 0.814659 0.003778
O O12 0.000000 0.000000 0.500000
O O13 0.361225 0.636304 0.250400
#
# Coordination Sequence:
#
# PCOD8011624 Si02
#       6
#     2   2   2   2   2   2
#     4  11  22  40  68  94 130 168 217 265 317 380
#     4  10  22  38  59  90 130 171 208 252 312 374
#     4  10  24  44  69  92 128 166 213 271 337 381
#     4  11  22  37  59  92 129 167 213 259 307 376
#     4  10  21  39  63  88 127 171 207 258 315 371
#     4  10  22  43  65  97 128 165 214 273 320 386
#
# _framework density 21.576101999999999
#
# number of rings (size 3 to 8) (size 9 to 14) (size 15 to 20)
#    0.000    1.667    3.333    0.500    0.000    5.333 
#    0.000    3.333    0.000    0.000    0.000    0.000 
#    0.000    0.000    0.000    0.000    0.000    0.000 
#
# Total GULP energy -148726.699873 kJ/mol
# GULP energy per Si atom -12393.891656 kJ/mol
# Density = 2.152699 g / cm^3
# Si number density = 21.576102 Si / 1000 Ang^3
#
#
#
# Elastic Constant Matrix: (Units=GPa)
#
#
# Indices 1 2 3 4 5 6 
#
# 1 83.0813 30.5677 46.9980 -2.4323 10.0606 5.2076
# 2 30.5677 123.8322 63.7782 -12.6620 15.8145 13.7452
# 3 46.9980 63.7782 112.5658 -11.9227 17.3603 15.0908
# 4 -2.4323 -12.6620 -11.9227 40.6630 3.6280 -1.1434
# 5 10.0606 15.8145 17.3603 3.6280 33.8557 1.3799
# 6 5.2076 13.7452 15.0908 -1.1434 1.3799 30.3671
#
#
#
# Elastic Compliance Matrix: (Units=1/GPa)
#
#
# Indices 1 2 3 4 5 6 
#
# 1 0.015906 -0.000750 -0.006251 -0.000997 -0.001094 0.000730
# 2 -0.000750 0.011908 -0.005471 0.002232 -0.002678 -0.002337
# 3 -0.006251 -0.005471 0.016064 0.002870 -0.003963 -0.004147
# 4 -0.000997 0.002232 0.002870 0.026487 -0.005014 -0.001040
# 5 -0.001094 -0.002678 -0.003963 -0.005014 0.033615 0.001653
# 6 0.000730 -0.002337 -0.004147 -0.001040 0.001653 0.035809
#
#
# Mechanical properties :
#
#
# Convention : Reuss Voigt Hill
#
# Bulk Modulus (GPa) = 52.81397 66.90745 59.86071
# Shear Modulus (GPa) = 29.23209 32.85286 31.04248
#
# Velocity S-wave (km/s) = 3.68480 3.90635 3.79719
# Velocity P-wave (km/s) = 6.52954 7.17101 6.85778
#
# Compressibility (1/GPa) = 0.01893438
#
# Stress axis : x y z
#
# Youngs Moduli (GPa) = 62.86987 83.97693 62.25027
#
# Poissons Ratio (x) = 0.06301 0.38910
# Poissons Ratio (y) = 0.04717 0.34057
# Poissons Ratio (z) = 0.39298 0.45943
#
# Static dielectric constant tensor:
#      x y z
#    x 4.003250 -0.051290 0.006160 
#    y -0.051290 3.966490 -0.221640 
#    z 0.006160 -0.221640 3.962680 
# 
# 
# High freq. dielectric constant tensor:
#      x y z
#    x 1.857000 -0.007030 -0.003940 
#    y -0.007030 1.835240 -0.016490 
#    z -0.003940 -0.016490 1.847160 
# 
# From -- ./inp_files/49807.got.cif
#   From: 2010.06.25/outbox.cif.g09.slc.cpg/sg2_25_cif.got.tgz:49807.got - 2010.06.27 13:26:56.
