data_PCOD8011453
_publ_section_title
;
Structure prediction by ZEFSAII (Michael W. Deem and Ramdas Pophale) SiO2 
 PCOD8011453
Probable space group: P -1
;
_chemical_formula_sum "Si O2"
_cell_formula_units_Z 16
_cell_length_a 6.712886
_cell_length_b 10.417180
_cell_length_c 14.223260
_cell_angle_alpha 89.427005
_cell_angle_beta 126.418884
_cell_angle_gamma 111.889109
_cell_volume 712.304150
_symmetry_space_group_name_H-M "P -1"
_symmetry_group_IT_number 2
_symmetry_cell_setting 'triclinic'
loop_
_space_group_symop_operation_xyz
x,y,z
-x,-y,-z
loop_
_atom_site_type_symbol
_atom_site_label
_atom_site_fract_x
_atom_site_fract_y
_atom_site_fract_z
Si Si1 0.068247 0.339822 0.525551
Si Si2 0.527980 0.177308 0.140215
Si Si3 0.158237 0.281500 0.349717
Si Si4 0.651655 0.672593 0.056064
Si Si5 0.729148 0.803783 0.270594
Si Si6 0.262447 0.896349 0.170757
Si Si7 0.426151 0.644241 0.675609
Si Si8 0.694551 0.965179 0.622688
O O1 0.200075 0.370062 0.456746
O O2 0.156960 0.231283 0.601511
O O3 0.176268 0.483488 0.618426
O O4 0.730983 0.271844 0.423264
O O5 0.466346 0.278772 0.195353
O O6 0.834434 0.189779 0.236133
O O7 0.307091 0.007217 0.094508
O O8 0.511534 0.242548 0.033472
O O9 0.327549 0.379464 0.307217
O O10 0.340017 0.193512 0.403270
O O11 0.657806 0.684207 0.170328
O O12 0.957742 0.760381 0.093816
O O13 0.500000 0.500000 0.000000
O O14 0.461158 0.822324 0.219013
O O15 0.977908 0.948413 0.303492
O O16 0.356799 0.003259 0.285302
O O17 0.500000 0.000000 0.500000
#
# Coordination Sequence:
#
# PCOD8011453 Si02
#       8
#     2   2   2   2   2   2   2   2
#     4  10  22  37  60  93 130 170 207 257 311 393
#     4  11  23  42  67  93 126 166 218 264 316 385
#     4  11  21  36  63  94 125 166 211 254 319 371
#     4  11  27  47  67  92 125 169 217 272 325 373
#     4  11  24  41  63  95 128 162 215 258 320 377
#     4  11  24  43  65  97 126 168 217 261 326 378
#     4  10  21  39  61  92 130 167 210 256 320 372
#     4  11  22  37  63  96 134 166 204 258 313 380
#
# _framework density 22.462318
#
# number of rings (size 3 to 8) (size 9 to 14) (size 15 to 20)
#    0.000    1.250    2.500    3.000    1.750    5.000 
#    0.000    0.000    0.000    0.000    0.000    0.000 
#    0.000    0.000    0.000    0.000    0.000    0.000 
#
# Total GULP energy -198218.049022 kJ/mol
# GULP energy per Si atom -12388.628064 kJ/mol
# Density = 2.241119 g / cm^3
# Si number density = 22.462318 Si / 1000 Ang^3
#
#
#
# Elastic Constant Matrix: (Units=GPa)
#
#
# Indices 1 2 3 4 5 6 
#
# 1 119.0670 8.8240 19.5335 5.0862 14.8937 -1.6939
# 2 8.8240 74.0431 16.9222 2.2474 12.8354 -2.6408
# 3 19.5335 16.9222 65.1380 -2.8480 6.1387 -0.8274
# 4 5.0862 2.2474 -2.8480 40.1711 -0.2000 0.0971
# 5 14.8937 12.8354 6.1387 -0.2000 25.1792 -5.3251
# 6 -1.6939 -2.6408 -0.8274 0.0971 -5.3251 26.2619
#
#
#
# Elastic Compliance Matrix: (Units=1/GPa)
#
#
# Indices 1 2 3 4 5 6 
#
# 1 0.009503 0.000391 -0.002518 -0.001429 -0.005324 -0.000501
# 2 0.000391 0.015570 -0.003525 -0.001207 -0.007319 0.000000
# 3 -0.002518 -0.003525 0.017184 0.001730 -0.000925 -0.000169
# 4 -0.001429 -0.001207 0.001730 0.025271 0.001239 -0.000001
# 5 -0.005324 -0.007319 -0.000925 0.001239 0.048683 0.008758
# 6 -0.000501 0.000000 -0.000169 -0.000001 0.008758 0.039816
#
#
# Mechanical properties :
#
#
# Convention : Reuss Voigt Hill
#
# Bulk Modulus (GPa) = 32.30840 38.75638 35.53239
# Shear Modulus (GPa) = 28.14554 32.52035 30.33294
#
# Velocity S-wave (km/s) = 3.54363 3.80909 3.67876
# Velocity P-wave (km/s) = 5.58191 6.05285 5.82214
#
# Compressibility (1/GPa) = 0.03095170
#
# Stress axis : x y z
#
# Youngs Moduli (GPa) = 105.23401 64.22594 58.19454
#
# Poissons Ratio (x) = -0.02514 0.14656
# Poissons Ratio (y) = -0.04120 0.20516
# Poissons Ratio (z) = 0.26503 0.22642
#
# Static dielectric constant tensor:
#      x y z
#    x 7.002830 1.826490 3.428930 
#    y 1.826490 4.949360 2.037900 
#    z 3.428930 2.037900 7.976860 
# 
# 
# High freq. dielectric constant tensor:
#      x y z
#    x 1.896320 0.004590 0.010200 
#    y 0.004590 1.882620 0.007290 
#    z 0.010200 0.007290 1.879530 
# 
# From -- ./inp_files/368058.got.cif
#   From: 2010.06.25/outbox.cif.g09.slc.cpg/sg2_185_cif.got.tgz:368058.got - 2010.06.27 13:26:56.
