data_PCOD8011364
_publ_section_title
;
Structure prediction by ZEFSAII (Michael W. Deem and Ramdas Pophale) SiO2 
 PCOD8011364
Probable space group: P -1
;
_chemical_formula_sum "Si O2"
_cell_formula_units_Z 14
_cell_length_a 15.511163
_cell_length_b 14.086430
_cell_length_c 7.138070
_cell_angle_alpha 108.929361
_cell_angle_beta 87.706026
_cell_angle_gamma 149.703186
_cell_volume 643.216418
_symmetry_space_group_name_H-M "P -1"
_symmetry_group_IT_number 2
_symmetry_cell_setting 'triclinic'
loop_
_space_group_symop_operation_xyz
x,y,z
-x,-y,-z
loop_
_atom_site_type_symbol
_atom_site_label
_atom_site_fract_x
_atom_site_fract_y
_atom_site_fract_z
Si Si1 0.883590 0.353756 0.200422
Si Si2 0.020195 0.708449 0.442700
Si Si3 0.408325 0.084723 0.823757
Si Si4 0.180313 0.570596 0.063625
Si Si5 0.873752 0.756791 0.644759
Si Si6 0.537351 0.421991 0.173461
Si Si7 0.232798 0.259639 0.988912
O O1 0.798941 0.303468 0.973950
O O2 0.963973 0.537945 0.423932
O O3 0.702220 0.113981 0.169529
O O4 0.066176 0.469550 0.205381
O O5 0.947161 0.640874 0.190644
O O6 0.915038 0.683378 0.557404
O O7 0.257846 0.968788 0.603395
O O8 0.599658 0.241453 0.800497
O O9 0.464520 0.231138 0.057901
O O10 0.682666 0.593451 0.443240
O O11 0.846864 0.740712 0.859589
O O12 0.058583 0.020261 0.738435
O O13 0.354717 0.306770 0.132159
O O14 0.638588 0.545374 0.043889
#
# Coordination Sequence:
#
# PCOD8011364 Si02
#       7
#     2   2   2   2   2   2   2
#     4   9  21  42  59  92 129 162 209 254 309 383
#     4  10  21  39  60  90 126 157 209 255 308 379
#     4  12  21  38  65  89 125 168 201 261 315 371
#     4   9  21  41  59  89 128 160 212 252 309 379
#     4  11  21  43  66  89 124 167 204 268 322 367
#     4  11  22  42  62  93 127 160 213 263 317 377
#     4  10  24  41  64  93 122 161 217 260 319 383
#
# _framework density 21.765615
#
# number of rings (size 3 to 8) (size 9 to 14) (size 15 to 20)
#    0.857    0.857    2.857    1.714    0.000    1.714 
#    2.571    1.429    0.000    0.000    0.000    0.000 
#    0.000    0.000    0.000    0.000    0.000    0.000 
#
# Total GULP energy -173557.908783 kJ/mol
# GULP energy per Si atom -12396.993484 kJ/mol
# Density = 2.171608 g / cm^3
# Si number density = 21.765615 Si / 1000 Ang^3
#
#
#
# Elastic Constant Matrix: (Units=GPa)
#
#
# Indices 1 2 3 4 5 6 
#
# 1 68.4171 21.2757 45.7958 3.1314 -22.3435 17.1689
# 2 21.2757 54.7323 32.3273 4.7537 -8.9479 21.1332
# 3 45.7958 32.3273 132.6418 20.5394 -5.8703 9.8439
# 4 3.1314 4.7537 20.5394 28.6274 12.0544 -1.1451
# 5 -22.3435 -8.9479 -5.8703 12.0544 44.1539 0.5477
# 6 17.1689 21.1332 9.8439 -1.1451 0.5477 30.5581
#
#
#
# Elastic Compliance Matrix: (Units=1/GPa)
#
#
# Indices 1 2 3 4 5 6 
#
# 1 0.028107 0.002572 -0.007725 -0.005015 0.015279 -0.015544
# 2 0.002572 0.030644 -0.005476 -0.005942 0.008670 -0.021252
# 3 -0.007725 -0.005476 0.012087 -0.005987 -0.001827 0.004042
# 4 -0.005015 -0.005942 -0.005987 0.048778 -0.017991 0.011006
# 5 0.015279 0.008670 -0.001827 -0.017991 0.036996 -0.015329
# 6 -0.015544 -0.021252 0.004042 0.011006 -0.015329 0.055540
#
#
# Mechanical properties :
#
#
# Convention : Reuss Voigt Hill
#
# Bulk Modulus (GPa) = 20.16875 50.50987 35.33931
# Shear Modulus (GPa) = 20.00508 31.09403 25.54955
#
# Velocity S-wave (km/s) = 3.03498 3.78376 3.42987
# Velocity P-wave (km/s) = 4.64413 6.50736 5.65304
#
# Compressibility (1/GPa) = 0.04958164
#
# Stress axis : x y z
#
# Youngs Moduli (GPa) = 35.57806 32.63248 82.73461
#
# Poissons Ratio (x) = -0.08393 0.63911
# Poissons Ratio (y) = -0.09151 0.45302
# Poissons Ratio (z) = 0.27483 0.17868
#
# Static dielectric constant tensor:
#      x y z
#    x 3.943610 0.199320 0.025470 
#    y 0.199320 3.579560 0.183090 
#    z 0.025470 0.183090 3.998450 
# 
# 
# High freq. dielectric constant tensor:
#      x y z
#    x 1.859490 0.017080 -0.001630 
#    y 0.017080 1.831050 0.009970 
#    z -0.001630 0.009970 1.862820 
# 
# From -- ./inp_files/313852.got.cif
#   From: 2010.06.25/outbox.cif.g09.slc.cpg/sg2_157_cif.got.tgz:313852.got - 2010.06.27 13:26:56.
