data_PCOD8011631
_publ_section_title
;
Structure prediction by ZEFSAII (Michael W. Deem and Ramdas Pophale) SiO2 
 PCOD8011631
Probable space group: P -1
;
_chemical_formula_sum "Si O2"
_cell_formula_units_Z 14
_cell_length_a 12.315313
_cell_length_b 6.484690
_cell_length_c 8.137959
_cell_angle_alpha 92.573367
_cell_angle_beta 76.110638
_cell_angle_gamma 81.721043
_cell_volume 622.188454
_symmetry_space_group_name_H-M "P -1"
_symmetry_group_IT_number 2
_symmetry_cell_setting 'triclinic'
loop_
_space_group_symop_operation_xyz
x,y,z
-x,-y,-z
loop_
_atom_site_type_symbol
_atom_site_label
_atom_site_fract_x
_atom_site_fract_y
_atom_site_fract_z
Si Si1 0.433861 0.322343 0.582367
Si Si2 0.520252 0.947962 0.755375
Si Si3 0.797510 0.417012 0.354112
Si Si4 0.123152 0.976513 0.882440
Si Si5 0.075570 0.231176 0.589871
Si Si6 0.827579 0.164514 0.640517
Si Si7 0.682163 0.057281 0.959985
O O1 0.500000 0.500000 0.500000
O O2 0.483648 0.192582 0.721979
O O3 0.306825 0.424973 0.674788
O O4 0.427120 0.168321 0.427632
O O5 0.618231 0.915779 0.857527
O O6 0.413104 0.849397 0.865966
O O7 0.843957 0.269694 0.180157
O O8 0.891665 0.538352 0.406645
O O9 0.762214 0.271633 0.508763
O O10 0.127637 0.115449 0.728030
O O11 0.210151 0.058598 0.981707
O O12 0.000000 0.000000 0.000000
O O13 0.939831 0.262721 0.640731
O O14 0.131292 0.086878 0.411928
O O15 0.737809 0.213371 0.824909
#
# Coordination Sequence:
#
# PCOD8011631 Si02
#       7
#     2   2   2   2   2   2   2
#     4  11  22  44  68  94 124 166 216 264 316 382
#     4  10  24  42  68  94 127 169 210 265 323 374
#     4  11  23  39  65  94 121 170 220 255 315 389
#     4  11  23  42  63  90 132 171 204 266 321 373
#     4  10  21  41  62  88 126 171 213 255 311 380
#     4  10  21  39  63  89 128 166 209 266 311 368
#     4  11  21  42  64  93 129 167 208 259 325 372
#
# _framework density 22.501221000000001
#
# number of rings (size 3 to 8) (size 9 to 14) (size 15 to 20)
#    0.000    1.429    1.429    3.857    0.000    5.143 
#    2.571   17.143    0.000    0.000    0.000    0.000 
#    0.000    0.000    0.000    0.000    0.000    0.000 
#
# Total GULP energy -173474.028641 kJ/mol
# GULP energy per Si atom -12391.002046 kJ/mol
# Density = 2.245001 g / cm^3
# Si number density = 22.501221 Si / 1000 Ang^3
#
#
#
# Elastic Constant Matrix: (Units=GPa)
#
#
# Indices 1 2 3 4 5 6 
#
# 1 145.9054 32.5179 45.3152 2.7918 -0.8739 -6.3297
# 2 32.5179 88.6680 33.7991 1.3460 -7.7637 -4.5823
# 3 45.3152 33.7991 112.0308 -2.6337 -5.8441 -10.7563
# 4 2.7918 1.3460 -2.6337 19.6346 -0.6347 -3.6021
# 5 -0.8739 -7.7637 -5.8441 -0.6347 48.0430 -4.9887
# 6 -6.3297 -4.5823 -10.7563 -3.6021 -4.9887 29.4439
#
#
#
# Elastic Compliance Matrix: (Units=1/GPa)
#
#
# Indices 1 2 3 4 5 6 
#
# 1 0.008179 -0.001962 -0.002757 -0.001379 -0.000502 0.000192
# 2 -0.001962 0.013390 -0.003101 -0.000862 0.001815 0.000731
# 3 -0.002757 -0.003101 0.011463 0.002857 0.001262 0.003676
# 4 -0.001379 -0.000862 0.002857 0.052975 0.001649 0.007373
# 5 -0.000502 0.001815 0.001262 0.001649 0.021744 0.004522
# 6 0.000192 0.000731 0.003676 0.007373 0.004522 0.037129
#
#
# Mechanical properties :
#
#
# Convention : Reuss Voigt Hill
#
# Bulk Modulus (GPa) = 57.49894 63.31873 60.40883
# Shear Modulus (GPa) = 30.06338 35.08909 32.57623
#
# Velocity S-wave (km/s) = 3.65920 3.95325 3.80906
# Velocity P-wave (km/s) = 6.59259 7.00277 6.80077
#
# Compressibility (1/GPa) = 0.01739163
#
# Stress axis : x y z
#
# Youngs Moduli (GPa) = 122.26695 74.68531 87.23941
#
# Poissons Ratio (x) = 0.14652 0.24048
# Poissons Ratio (y) = 0.23986 0.27056
# Poissons Ratio (z) = 0.33703 0.23163
#
# Static dielectric constant tensor:
#      x y z
#    x 4.303510 -0.065530 0.011400 
#    y -0.065530 4.038580 -0.040590 
#    z 0.011400 -0.040590 4.392520 
# 
# 
# High freq. dielectric constant tensor:
#      x y z
#    x 1.906480 -0.001090 0.003520 
#    y -0.001090 1.852470 -0.011010 
#    z 0.003520 -0.011010 1.893880 
# 
# From -- ./inp_files/27616.got.cif
#   From: 2010.06.25/outbox.cif.g09.slc.cpg/sg2_14_cif.got.tgz:27616.got - 2010.06.27 13:26:56.
