data_PCOD8011466
_publ_section_title
;
Structure prediction by ZEFSAII (Michael W. Deem and Ramdas Pophale) SiO2 
 PCOD8011466
Probable space group: P -1
;
_chemical_formula_sum "Si O2"
_cell_formula_units_Z 16
_cell_length_a 12.852604
_cell_length_b 13.805939
_cell_length_c 10.863407
_cell_angle_alpha 141.514199
_cell_angle_beta 145.912703
_cell_angle_gamma 55.046671
_cell_volume 656.441434
_symmetry_space_group_name_H-M "P -1"
_symmetry_group_IT_number 2
_symmetry_cell_setting 'triclinic'
loop_
_space_group_symop_operation_xyz
x,y,z
-x,-y,-z
loop_
_atom_site_type_symbol
_atom_site_label
_atom_site_fract_x
_atom_site_fract_y
_atom_site_fract_z
Si Si1 0.640462 0.628759 0.843331
Si Si2 0.441043 0.123612 0.155027
Si Si3 0.881253 0.580023 0.626742
Si Si4 0.780118 0.380175 0.855391
Si Si5 0.389915 0.257887 0.813831
Si Si6 0.488871 0.354202 0.746541
Si Si7 0.016723 0.739115 0.663647
Si Si8 0.629704 0.001839 0.783829
O O1 0.500000 0.500000 0.500000
O O2 0.695321 0.782157 0.960730
O O3 0.810440 0.542336 0.964265
O O4 0.541479 0.673954 0.916590
O O5 0.638327 0.234434 0.507818
O O6 0.500000 0.000000 0.000000
O O7 0.323144 0.035725 0.066143
O O8 0.889897 0.394455 0.442574
O O9 0.665887 0.597964 0.451159
O O10 0.956355 0.684723 0.686554
O O11 0.012614 0.653910 0.946164
O O12 0.692799 0.417024 0.942262
O O13 0.480392 0.392556 0.927725
O O14 0.161416 0.223399 0.548522
O O15 0.459454 0.094952 0.702557
O O16 0.441778 0.161825 0.523119
O O17 0.177023 0.900428 0.989133
#
# Coordination Sequence:
#
# PCOD8011466 Si02
#       8
#     2   2   2   2   2   2   2   2
#     4  10  21  39  64  88 118 164 214 254 299 356
#     4  10  21  40  63  88 116 166 215 253 299 354
#     4  10  21  39  61  94 130 157 198 254 305 379
#     4  10  21  40  67  88 124 162 201 255 311 365
#     4  11  21  39  67  90 125 164 198 253 309 368
#     4  10  24  37  62 102 126 156 203 246 316 378
#     4  10  23  38  61  96 126 160 204 246 311 371
#     4  11  23  40  63  89 131 163 203 253 305 370
#
# _framework density 24.373842
#
# number of rings (size 3 to 8) (size 9 to 14) (size 15 to 20)
#    0.000    1.750    2.500    1.125    1.750    5.500 
#    0.000    0.625    5.500    9.000    0.000    0.000 
#    0.000    0.000    0.000    0.000    0.000    0.000 
#
# Total GULP energy -198344.876255 kJ/mol
# GULP energy per Si atom -12396.554766 kJ/mol
# Density = 2.431837 g / cm^3
# Si number density = 24.373842 Si / 1000 Ang^3
#
#
#
# Elastic Constant Matrix: (Units=GPa)
#
#
# Indices 1 2 3 4 5 6 
#
# 1 51.0090 27.6075 16.5733 -10.9986 -13.0309 14.4184
# 2 27.6075 150.5642 47.3438 -22.7664 7.7104 7.6848
# 3 16.5733 47.3438 94.9335 -18.0486 -9.1955 0.2460
# 4 -10.9986 -22.7664 -18.0486 30.2426 9.2392 3.3735
# 5 -13.0309 7.7104 -9.1955 9.2392 36.4311 -1.7539
# 6 14.4184 7.6848 0.2460 3.3735 -1.7539 44.4526
#
#
#
# Elastic Compliance Matrix: (Units=1/GPa)
#
#
# Indices 1 2 3 4 5 6 
#
# 1 0.027796 -0.004117 -0.001038 0.004567 0.008994 -0.008290
# 2 -0.004117 0.009740 -0.003649 0.005574 -0.005916 -0.000985
# 3 -0.001038 -0.003649 0.013575 0.004031 0.002839 0.000699
# 4 0.004567 0.005574 0.004031 0.045175 -0.010289 -0.006301
# 5 0.008994 -0.005916 0.002839 -0.010289 0.035257 0.000262
# 6 -0.008290 -0.000985 0.000699 -0.006301 0.000262 0.025840
#
#
# Mechanical properties :
#
#
# Convention : Reuss Voigt Hill
#
# Bulk Modulus (GPa) = 29.85031 53.28397 41.56714
# Shear Modulus (GPa) = 26.85877 35.89073 31.37475
#
# Velocity S-wave (km/s) = 3.32317 3.84149 3.59169
# Velocity P-wave (km/s) = 5.19596 6.44862 5.85588
#
# Compressibility (1/GPa) = 0.03350049
#
# Stress axis : x y z
#
# Youngs Moduli (GPa) = 35.97686 102.66646 73.66739
#
# Poissons Ratio (x) = 0.42268 0.07650
# Poissons Ratio (y) = 0.14812 0.26885
# Poissons Ratio (z) = 0.03736 0.37468
#
# Static dielectric constant tensor:
#      x y z
#    x 4.605160 0.570030 -0.432670 
#    y 0.570030 5.631570 -0.190690 
#    z -0.432670 -0.190690 4.419640 
# 
# 
# High freq. dielectric constant tensor:
#      x y z
#    x 1.942740 0.011300 -0.025360 
#    y 0.011300 2.003230 0.004460 
#    z -0.025360 0.004460 1.963900 
# 
# From -- ./inp_files/452395.got.cif
#   From: 2010.06.25/outbox.cif.g09.slc.cpg/sg2_227_cif.got.tgz:452395.got - 2010.06.27 13:26:56.
