data_PCOD8011205
_publ_section_title
;
Structure prediction by ZEFSAII (Michael W. Deem and Ramdas Pophale) SiO2 
 PCOD8011205
Probable space group: P -1
;
_chemical_formula_sum "Si O2"
_cell_formula_units_Z 16
_cell_length_a 14.239557
_cell_length_b 8.677444
_cell_length_c 22.113230
_cell_angle_alpha 54.446915
_cell_angle_beta 160.944977
_cell_angle_gamma 127.509887
_cell_volume 707.436219
_symmetry_space_group_name_H-M "P -1"
_symmetry_group_IT_number 2
_symmetry_cell_setting 'triclinic'
loop_
_space_group_symop_operation_xyz
x,y,z
-x,-y,-z
loop_
_atom_site_type_symbol
_atom_site_label
_atom_site_fract_x
_atom_site_fract_y
_atom_site_fract_z
Si Si1 0.061969 0.853927 0.256474
Si Si2 0.994830 0.051781 0.388017
Si Si3 0.612683 0.568763 0.118495
Si Si4 0.949862 0.348093 0.451639
Si Si5 0.390040 0.281567 0.397125
Si Si6 0.164376 0.774260 0.863925
Si Si7 0.450652 0.352126 0.664561
Si Si8 0.384661 0.941688 0.091306
O O1 0.267581 0.724554 0.378179
O O2 0.906415 0.741540 0.247536
O O3 0.249462 0.065328 0.338864
O O4 0.801428 0.894346 0.044435
O O5 0.846193 0.057731 0.230162
O O6 0.245321 0.244207 0.509707
O O7 0.735392 0.039048 0.283370
O O8 0.140985 0.866582 0.525539
O O9 0.693234 0.387467 0.243077
O O10 0.500000 0.500000 0.000000
O O11 0.355138 0.632079 0.985263
O O12 0.000000 0.500000 0.500000
O O13 0.260473 0.380587 0.599959
O O14 0.376106 0.438465 0.300697
O O15 0.185369 0.332441 0.315316
O O16 0.298661 0.858722 0.990242
O O17 0.678237 0.225098 0.857124
#
# Coordination Sequence:
#
# PCOD8011205 Si02
#       8
#     2   2   2   2   2   2   2   2
#     4  10  22  39  65  95 127 170 217 262 317 391
#     4  11  23  40  65  98 133 167 215 276 327 377
#     4  12  24  41  68  99 128 166 221 280 320 374
#     4  11  24  38  66  98 131 167 217 270 324 380
#     4  10  24  42  65  93 134 177 210 261 330 402
#     4  11  24  41  67  96 129 168 222 265 322 387
#     4  11  23  43  64  96 135 173 211 268 336 386
#     4  10  21  38  70  93 128 169 220 267 318 384
#
# _framework density 22.616880999999999
#
# number of rings (size 3 to 8) (size 9 to 14) (size 15 to 20)
#    0.000    1.250    2.500    4.125    7.000    2.500 
#    0.000    1.250    0.000    1.500    0.000    0.000 
#    0.000    0.000    0.000    0.000    0.000    0.000 
#
# Total GULP energy -198249.081148 kJ/mol
# GULP energy per Si atom -12390.567572 kJ/mol
# Density = 2.256540 g / cm^3
# Si number density = 22.616881 Si / 1000 Ang^3
#
#
#
# Elastic Constant Matrix: (Units=GPa)
#
#
# Indices 1 2 3 4 5 6 
#
# 1 50.0721 20.1727 29.0564 -6.1280 13.0033 13.5338
# 2 20.1727 79.6884 32.5721 -16.0915 -1.7089 24.7717
# 3 29.0564 32.5721 142.2815 -39.4292 11.6003 15.5132
# 4 -6.1280 -16.0915 -39.4292 43.0681 2.2868 -12.0689
# 5 13.0033 -1.7089 11.6003 2.2868 57.5450 -2.4357
# 6 13.5338 24.7717 15.5132 -12.0689 -2.4357 32.1509
#
#
#
# Elastic Compliance Matrix: (Units=1/GPa)
#
#
# Indices 1 2 3 4 5 6 
#
# 1 0.027148 -0.003249 -0.004371 -0.003448 -0.005574 -0.008532
# 2 -0.003249 0.017836 -0.001971 0.001295 0.001151 -0.010850
# 3 -0.004371 -0.001971 0.010856 0.009056 -0.001560 0.001402
# 4 -0.003448 0.001295 0.009056 0.034051 -0.001992 0.008715
# 5 -0.005574 0.001151 -0.001560 -0.001992 0.019189 0.002918
# 6 -0.008532 -0.010850 0.001402 0.008715 0.002918 0.045871
#
#
# Mechanical properties :
#
#
# Convention : Reuss Voigt Hill
#
# Bulk Modulus (GPa) = 27.27986 48.40493 37.84239
# Shear Modulus (GPa) = 26.83054 39.23553 33.03303
#
# Velocity S-wave (km/s) = 3.44802 4.16960 3.82586
# Velocity P-wave (km/s) = 5.28580 6.68052 6.02366
#
# Compressibility (1/GPa) = 0.03665709
#
# Stress axis : x y z
#
# Youngs Moduli (GPa) = 36.83451 56.06531 92.11266
#
# Poissons Ratio (x) = 0.18218 0.40264
# Poissons Ratio (y) = 0.11969 0.18160
# Poissons Ratio (z) = 0.16101 0.11053
#
# Static dielectric constant tensor:
#      x y z
#    x 4.154370 0.290120 0.424320 
#    y 0.290120 4.132620 -0.220680 
#    z 0.424320 -0.220680 4.873300 
# 
# 
# High freq. dielectric constant tensor:
#      x y z
#    x 1.863190 0.009530 0.002170 
#    y 0.009530 1.896490 -0.020040 
#    z 0.002170 -0.020040 1.906470 
# 
# From -- ./inp_files/611620.got.cif
#   From: 2010.06.25/outbox.cif.g09.slc.cpg/sg2_306_cif.got.tgz:611620.got - 2010.06.27 13:26:56.
