data_PCOD8011090
_publ_section_title
;
Structure prediction by ZEFSAII (Michael W. Deem and Ramdas Pophale) SiO2 
 PCOD8011090
Probable space group: P -1
;
_chemical_formula_sum "Si O2"
_cell_formula_units_Z 14
_cell_length_a 8.282499
_cell_length_b 13.564203
_cell_length_c 11.550054
_cell_angle_alpha 50.341235
_cell_angle_beta 63.427147
_cell_angle_gamma 102.622587
_cell_volume 608.684845
_symmetry_space_group_name_H-M "P -1"
_symmetry_group_IT_number 2
_symmetry_cell_setting 'triclinic'
loop_
_space_group_symop_operation_xyz
x,y,z
-x,-y,-z
loop_
_atom_site_type_symbol
_atom_site_label
_atom_site_fract_x
_atom_site_fract_y
_atom_site_fract_z
Si Si1 0.628434 0.437372 0.548785
Si Si2 0.305223 0.927616 0.735832
Si Si3 0.182505 0.812490 0.108144
Si Si4 0.672644 0.912886 0.956157
Si Si5 0.304599 0.637101 0.879319
Si Si6 0.877312 0.935546 0.462442
Si Si7 0.227473 0.659726 0.641550
O O1 0.500000 0.500000 0.500000
O O2 0.425359 0.276777 0.829032
O O3 0.668295 0.356238 0.493283
O O4 0.910535 0.607069 0.394311
O O5 0.644581 0.181866 0.260421
O O6 0.583668 0.122678 0.555289
O O7 0.162498 0.948917 0.675922
O O8 0.119300 0.812734 0.994027
O O9 0.431343 0.847400 0.010617
O O10 0.248088 0.971159 0.041143
O O11 0.930826 0.047725 0.692250
O O12 0.218418 0.561080 0.831175
O O13 0.591638 0.719640 0.737430
O O14 0.090081 0.469512 0.166670
O O15 0.000000 0.000000 0.500000
#
# Coordination Sequence:
#
# PCOD8011090 Si02
#       7
#     2   2   2   2   2   2   2
#     4  12  25  41  71 102 135 174 228 282 333 402
#     4  11  21  43  73  96 130 180 224 273 339 398
#     4  11  24  45  71  97 135 181 224 276 343 393
#     4  11  26  45  67 100 138 176 226 282 333 400
#     4  10  22  41  66  96 133 181 220 273 333 400
#     4  11  24  41  66  98 136 170 222 279 331 400
#     4  10  21  38  66  99 132 168 230 267 328 399
#
# _framework density 23.000409000000001
#
# number of rings (size 3 to 8) (size 9 to 14) (size 15 to 20)
#    0.000    1.143    2.857    3.857    4.000    1.143 
#    0.000    0.000    0.000   15.429    0.000    0.000 
#    0.000    0.000    0.000    0.000    0.000    0.000 
#
# Total GULP energy -173489.535122 kJ/mol
# GULP energy per Si atom -12392.109652 kJ/mol
# Density = 2.294806 g / cm^3
# Si number density = 23.000409 Si / 1000 Ang^3
#
#
#
# Elastic Constant Matrix: (Units=GPa)
#
#
# Indices 1 2 3 4 5 6 
#
# 1 102.2905 44.3904 53.2085 5.6639 -15.0503 11.1574
# 2 44.3904 55.3979 34.0517 -0.7056 -3.9608 8.6656
# 3 53.2085 34.0517 123.2746 0.5963 -27.9492 -3.9733
# 4 5.6639 -0.7056 0.5963 44.8333 3.0240 0.7516
# 5 -15.0503 -3.9608 -27.9492 3.0240 47.2671 4.3136
# 6 11.1574 8.6656 -3.9733 0.7516 4.3136 28.5211
#
#
#
# Elastic Compliance Matrix: (Units=1/GPa)
#
#
# Indices 1 2 3 4 5 6 
#
# 1 0.017624 -0.010682 -0.004149 -0.002454 0.002840 -0.004592
# 2 -0.010682 0.030043 -0.004608 0.002191 -0.003278 -0.005153
# 3 -0.004149 -0.004608 0.012515 -0.000141 0.005340 0.003962
# 4 -0.002454 0.002191 -0.000141 0.022796 -0.002140 -0.000003
# 5 0.002840 -0.003278 0.005340 -0.002140 0.025368 -0.003151
# 6 -0.004592 -0.005153 0.003962 -0.000003 -0.003151 0.039452
#
#
# Mechanical properties :
#
#
# Convention : Reuss Voigt Hill
#
# Bulk Modulus (GPa) = 46.93936 60.47379 53.70658
# Shear Modulus (GPa) = 25.80287 34.07845 29.94066
#
# Velocity S-wave (km/s) = 3.35303 3.85339 3.61188
# Velocity P-wave (km/s) = 5.95338 6.79321 6.38711
#
# Compressibility (1/GPa) = 0.02130408
#
# Stress axis : x y z
#
# Youngs Moduli (GPa) = 56.73959 33.28577 79.90638
#
# Poissons Ratio (x) = 0.35557 0.33151
# Poissons Ratio (y) = 0.60611 0.36820
# Poissons Ratio (z) = 0.23540 0.15338
#
# Static dielectric constant tensor:
#      x y z
#    x 4.071510 0.115050 -0.478140 
#    y 0.115050 4.106060 0.124120 
#    z -0.478140 0.124120 5.131090 
# 
# 
# High freq. dielectric constant tensor:
#      x y z
#    x 1.882980 0.018270 -0.020020 
#    y 0.018270 1.904020 0.007040 
#    z -0.020020 0.007040 1.938620 
# 
# From -- ./inp_files/397012.got.cif
#   From: 2010.06.25/outbox.cif.g09.slc.cpg/sg2_199_cif.got.tgz:397012.got - 2010.06.27 13:26:56.
