data_PCOD8011368
_publ_section_title
;
Structure prediction by ZEFSAII (Michael W. Deem and Ramdas Pophale) SiO2 
 PCOD8011368
Probable space group: P -1
;
_chemical_formula_sum "Si O2"
_cell_formula_units_Z 16
_cell_length_a 6.991449
_cell_length_b 17.293324
_cell_length_c 8.446967
_cell_angle_alpha 56.965692
_cell_angle_beta 119.773829
_cell_angle_gamma 102.017601
_cell_volume 740.418600
_symmetry_space_group_name_H-M "P -1"
_symmetry_group_IT_number 2
_symmetry_cell_setting 'triclinic'
loop_
_space_group_symop_operation_xyz
x,y,z
-x,-y,-z
loop_
_atom_site_type_symbol
_atom_site_label
_atom_site_fract_x
_atom_site_fract_y
_atom_site_fract_z
Si Si1 0.482718 0.028082 0.706969
Si Si2 0.228458 0.910083 0.510507
Si Si3 0.588444 0.395130 0.157771
Si Si4 0.722221 0.707794 0.249542
Si Si5 0.135974 0.345735 0.986142
Si Si6 0.254583 0.723909 0.917698
Si Si7 0.002418 0.543067 0.621406
Si Si8 0.224999 0.101157 0.808490
O O1 0.281234 0.977538 0.601818
O O2 0.580687 0.090708 0.542419
O O3 0.396253 0.094281 0.740419
O O4 0.672918 0.953507 0.935614
O O5 0.222859 0.807544 0.688854
O O6 0.996770 0.941981 0.294425
O O7 0.685388 0.368994 0.053182
O O8 0.794803 0.389521 0.368598
O O9 0.500000 0.500000 0.000000
O O10 0.380455 0.335691 0.180926
O O11 0.782400 0.613234 0.482662
O O12 0.830861 0.792472 0.282993
O O13 0.829094 0.688307 0.141921
O O14 0.458261 0.733988 0.110314
O O15 0.031281 0.452953 0.847475
O O16 0.973937 0.279402 0.077390
O O17 0.000000 0.500000 0.500000
#
# Coordination Sequence:
#
# PCOD8011368 Si02
#       8
#     2   2   2   2   2   2   2   2
#     4  10  24  44  65  92 125 162 207 262 319 375
#     4  11  23  43  65  91 126 166 205 259 317 376
#     4   9  19  37  58  84 120 156 208 254 302 366
#     4  10  21  39  60  91 127 158 209 263 303 375
#     4   9  21  38  61  88 123 171 203 257 313 362
#     4  11  22  39  60  90 125 164 213 252 310 383
#     4   9  18  37  60  85 121 162 205 253 312 358
#     4  11  22  42  67  96 121 160 212 259 316 380
#
# _framework density 21.609396
#
# number of rings (size 3 to 8) (size 9 to 14) (size 15 to 20)
#    0.000    2.000    1.250    2.250    0.000    5.500 
#    2.250    6.250    0.000    0.000    0.000    0.000 
#    0.000    0.000    0.000    0.000    0.000    0.000 
#
# Total GULP energy -198272.026912 kJ/mol
# GULP energy per Si atom -12392.001682 kJ/mol
# Density = 2.156021 g / cm^3
# Si number density = 21.609396 Si / 1000 Ang^3
#
#
#
# Elastic Constant Matrix: (Units=GPa)
#
#
# Indices 1 2 3 4 5 6 
#
# 1 101.7071 41.8016 26.6820 2.8504 -3.9559 15.9405
# 2 41.8016 107.5368 46.0566 9.5115 0.3198 0.2639
# 3 26.6820 46.0566 86.8413 16.1403 10.7858 17.9435
# 4 2.8504 9.5115 16.1403 37.6230 10.3303 8.6377
# 5 -3.9559 0.3198 10.7858 10.3303 31.0514 3.8405
# 6 15.9405 0.2639 17.9435 8.6377 3.8405 34.7866
#
#
#
# Elastic Compliance Matrix: (Units=1/GPa)
#
#
# Indices 1 2 3 4 5 6 
#
# 1 0.013035 -0.004892 -0.000663 0.001330 0.002262 -0.006174
# 2 -0.004892 0.014484 -0.007290 -0.002050 0.001673 0.006217
# 3 -0.000663 -0.007290 0.018305 -0.002942 -0.004416 -0.007865
# 4 0.001330 -0.002050 -0.002942 0.032041 -0.008696 -0.006072
# 5 0.002262 0.001673 -0.004416 -0.008696 0.036989 -0.000696
# 6 -0.006174 0.006217 -0.007865 -0.006072 -0.000696 0.037170
#
#
# Mechanical properties :
#
#
# Convention : Reuss Voigt Hill
#
# Bulk Modulus (GPa) = 49.66494 58.35173 54.00833
# Shear Modulus (GPa) = 27.11113 32.79521 29.95317
#
# Velocity S-wave (km/s) = 3.54587 3.89991 3.72710
# Velocity P-wave (km/s) = 6.30850 6.88045 6.60068
#
# Compressibility (1/GPa) = 0.02013493
#
# Stress axis : x y z
#
# Youngs Moduli (GPa) = 76.71533 69.04132 54.62877
#
# Poissons Ratio (x) = 0.33777 0.03621
# Poissons Ratio (y) = 0.37532 0.39823
# Poissons Ratio (z) = 0.05085 0.50329
#
# Static dielectric constant tensor:
#      x y z
#    x 3.783790 0.077830 0.441340 
#    y 0.077830 4.130200 0.151430 
#    z 0.441340 0.151430 4.267020 
# 
# 
# High freq. dielectric constant tensor:
#      x y z
#    x 1.829730 -0.004250 0.024150 
#    y -0.004250 1.857940 0.016180 
#    z 0.024150 0.016180 1.844810 
# 
# From -- ./inp_files/46963.got.cif
#   From: 2010.06.25/outbox.cif.g09.slc.cpg/sg2_24_cif.got.tgz:46963.got - 2010.06.27 13:26:56.
