data_PCOD8011250
_publ_section_title
;
Structure prediction by ZEFSAII (Michael W. Deem and Ramdas Pophale) SiO2 
 PCOD8011250
Probable space group: P -1
;
_chemical_formula_sum "Si O2"
_cell_formula_units_Z 16
_cell_length_a 13.470561
_cell_length_b 11.764086
_cell_length_c 9.640048
_cell_angle_alpha 40.147956
_cell_angle_beta 119.859718
_cell_angle_gamma 123.738392
_cell_volume 811.386158
_symmetry_space_group_name_H-M "P -1"
_symmetry_group_IT_number 2
_symmetry_cell_setting 'triclinic'
loop_
_space_group_symop_operation_xyz
x,y,z
-x,-y,-z
loop_
_atom_site_type_symbol
_atom_site_label
_atom_site_fract_x
_atom_site_fract_y
_atom_site_fract_z
Si Si1 0.359097 0.496507 0.062965
Si Si2 0.355484 0.789812 0.986650
Si Si3 0.159801 0.159553 0.171918
Si Si4 0.261692 0.208750 0.899937
Si Si5 0.403591 0.921667 0.195768
Si Si6 0.925175 0.911855 0.343732
Si Si7 0.150252 0.903325 0.631028
Si Si8 0.420543 0.621824 0.696660
O O1 0.219862 0.373721 0.059695
O O2 0.438876 0.356663 0.246282
O O3 0.383245 0.606464 0.122838
O O4 0.396378 0.642050 0.824519
O O5 0.455550 0.976127 0.829455
O O6 0.225575 0.766813 0.847696
O O7 0.347383 0.792928 0.144146
O O8 0.216030 0.034632 0.426729
O O9 0.189059 0.127573 0.063860
O O10 0.014899 0.095215 0.156938
O O11 0.165227 0.218108 0.707290
O O12 0.347246 0.416852 0.783459
O O13 0.336090 0.072839 0.032835
O O14 0.386186 0.783768 0.442456
O O15 0.845749 0.970754 0.348296
O O16 0.009786 0.802893 0.579970
#
# Coordination Sequence:
#
# PCOD8011250 Si02
#       8
#     2   2   2   2   2   2   2   2
#     4  10  21  39  57  87 125 148 200 241 290 362
#     4  11  22  39  57  89 121 154 200 241 293 358
#     4   9  20  35  61  88 110 163 190 241 295 339
#     4  11  20  40  61  90 122 151 200 239 295 356
#     4  11  24  38  60  90 122 157 191 244 301 351
#     4   9  19  37  61  82 119 157 201 240 286 348
#     4   9  19  36  58  86 109 157 201 236 285 346
#     4  10  23  39  58  90 121 156 191 244 298 348
#
# _framework density 19.719339999999999
#
# number of rings (size 3 to 8) (size 9 to 14) (size 15 to 20)
#    0.750    1.250    2.500    1.125    1.750    2.000 
#    0.000    1.875    0.000    3.750    0.000    0.000 
#    0.000    0.000    0.000    0.000    0.000    0.000 
#
# Total GULP energy -198268.825778 kJ/mol
# GULP energy per Si atom -12391.801611 kJ/mol
# Density = 1.967446 g / cm^3
# Si number density = 19.719340 Si / 1000 Ang^3
#
#
#
# Elastic Constant Matrix: (Units=GPa)
#
#
# Indices 1 2 3 4 5 6 
#
# 1 39.8278 11.5560 9.3447 10.3717 5.5997 0.5110
# 2 11.5560 80.5783 7.3562 18.5954 3.9519 -6.8692
# 3 9.3447 7.3562 58.2979 13.1496 8.4052 3.1803
# 4 10.3717 18.5954 13.1496 28.5503 -2.4498 -0.9263
# 5 5.5997 3.9519 8.4052 -2.4498 23.0033 5.9552
# 6 0.5110 -6.8692 3.1803 -0.9263 5.9552 26.6193
#
#
#
# Elastic Compliance Matrix: (Units=1/GPa)
#
#
# Indices 1 2 3 4 5 6 
#
# 1 0.029444 -0.001411 -0.001248 -0.009842 -0.007671 0.000593
# 2 -0.001411 0.015561 0.001081 -0.010401 -0.005044 0.004680
# 3 -0.001248 0.001081 0.020866 -0.010609 -0.008464 -0.000666
# 4 -0.009842 -0.010401 -0.010609 0.051396 0.014210 -0.002618
# 5 -0.007671 -0.005044 -0.008464 0.014210 0.053839 -0.011693
# 6 0.000593 0.004680 -0.000666 -0.002618 -0.011693 0.041367
#
#
# Mechanical properties :
#
#
# Convention : Reuss Voigt Hill
#
# Bulk Modulus (GPa) = 15.94524 26.13531 21.04028
# Shear Modulus (GPa) = 21.13848 25.66439 23.40144
#
# Velocity S-wave (km/s) = 3.27764 3.61152 3.44863
# Velocity P-wave (km/s) = 4.73578 5.53834 5.15271
#
# Compressibility (1/GPa) = 0.06271464
#
# Stress axis : x y z
#
# Youngs Moduli (GPa) = 33.96271 64.26483 47.92373
#
# Poissons Ratio (x) = 0.09066 0.05982
# Poissons Ratio (y) = 0.04791 -0.05179
# Poissons Ratio (z) = 0.04239 -0.06945
#
# Static dielectric constant tensor:
#      x y z
#    x 3.570220 0.031680 -0.121970 
#    y 0.031680 3.483360 0.313770 
#    z -0.121970 0.313770 3.358930 
# 
# 
# High freq. dielectric constant tensor:
#      x y z
#    x 1.770020 0.001130 -0.010340 
#    y 0.001130 1.764050 0.027660 
#    z -0.010340 0.027660 1.746670 
# 
# From -- ./inp_files/295558.got.cif
#   From: 2010.06.25/outbox.cif.g09.slc.cpg/sg2_148_cif.got.tgz:295558.got - 2010.06.27 13:26:56.
