data_PCOD8011386
_publ_section_title
;
Structure prediction by ZEFSAII (Michael W. Deem and Ramdas Pophale) SiO2 
 PCOD8011386
Probable space group: P -1
;
_chemical_formula_sum "Si O2"
_cell_formula_units_Z 16
_cell_length_a 8.884529
_cell_length_b 16.547607
_cell_length_c 8.880073
_cell_angle_alpha 116.286920
_cell_angle_beta 130.026246
_cell_angle_gamma 87.857098
_cell_volume 836.092818
_symmetry_space_group_name_H-M "P -1"
_symmetry_group_IT_number 2
_symmetry_cell_setting 'triclinic'
loop_
_space_group_symop_operation_xyz
x,y,z
-x,-y,-z
loop_
_atom_site_type_symbol
_atom_site_label
_atom_site_fract_x
_atom_site_fract_y
_atom_site_fract_z
Si Si1 0.570656 0.587892 0.504761
Si Si2 0.367930 0.826570 0.523483
Si Si3 0.378333 0.226469 0.119762
Si Si4 0.055380 0.938161 0.358152
Si Si5 0.004766 0.412354 0.331091
Si Si6 0.412699 0.741862 0.030399
Si Si7 0.286442 0.639272 0.149983
Si Si8 0.606329 0.923793 0.488314
O O1 0.500000 0.500000 0.500000
O O2 0.638320 0.688297 0.718765
O O3 0.374684 0.574617 0.257417
O O4 0.761889 0.588444 0.522591
O O5 0.454805 0.817295 0.738107
O O6 0.222693 0.891543 0.489149
O O7 0.236866 0.720848 0.283677
O O8 0.575062 0.869435 0.583760
O O9 0.454968 0.267952 0.037127
O O10 0.149121 0.145277 0.902653
O O11 0.151648 0.015930 0.349930
O O12 0.000000 0.000000 0.500000
O O13 0.000000 0.500000 0.500000
O O14 0.840161 0.310048 0.207709
O O15 0.933612 0.426494 0.125136
O O16 0.455404 0.686613 0.160877
O O17 0.485187 0.854133 0.214605
O O18 0.500000 0.000000 0.500000
#
# Coordination Sequence:
#
# PCOD8011386 Si02
#       8
#     2   2   2   2   2   2   2   2
#     4  11  23  40  64  92 116 154 201 248 298 359
#     4   9  20  39  58  84 122 159 192 245 300 348
#     4  11  22  39  59  89 119 152 203 248 292 357
#     4  11  21  36  60  90 119 154 201 244 294 343
#     4  10  21  39  61  86 115 155 198 235 302 356
#     4   9  19  40  57  82 124 154 189 247 290 349
#     4   8  20  40  63  83 122 156 197 239 297 355
#     4   9  18  36  60  80 115 160 189 237 296 342
#
# _framework density 19.136631000000001
#
# number of rings (size 3 to 8) (size 9 to 14) (size 15 to 20)
#    0.750    1.500    1.250    1.500    1.750    2.000 
#    2.250    0.000    0.000    0.000    0.000    0.000 
#    0.000    0.000    0.000    0.000    0.000    0.000 
#
# Total GULP energy -198213.751771 kJ/mol
# GULP energy per Si atom -12388.359486 kJ/mol
# Density = 1.909308 g / cm^3
# Si number density = 19.136631 Si / 1000 Ang^3
#
#
#
# Elastic Constant Matrix: (Units=GPa)
#
#
# Indices 1 2 3 4 5 6 
#
# 1 88.6010 26.0853 16.9792 3.7804 -2.7321 -8.0285
# 2 26.0853 85.0072 36.2008 -3.0798 -1.8512 -10.7386
# 3 16.9792 36.2008 77.9391 4.9222 1.4058 -6.4019
# 4 3.7804 -3.0798 4.9222 28.4184 5.2847 0.9053
# 5 -2.7321 -1.8512 1.4058 5.2847 30.1657 4.5934
# 6 -8.0285 -10.7386 -6.4019 0.9053 4.5934 31.4879
#
#
#
# Elastic Compliance Matrix: (Units=1/GPa)
#
#
# Indices 1 2 3 4 5 6 
#
# 1 0.012740 -0.003322 -0.000967 -0.002149 0.001094 0.001821
# 2 -0.003322 0.016172 -0.006729 0.003268 -0.000057 0.003215
# 3 -0.000967 -0.006729 0.016477 -0.003331 -0.000841 0.001027
# 4 -0.002149 0.003268 -0.003331 0.037601 -0.006387 -0.000260
# 5 0.001094 -0.000057 -0.000841 -0.006387 0.035143 -0.004854
# 6 0.001821 0.003215 0.001027 -0.000260 -0.004854 0.034243
#
#
# Mechanical properties :
#
#
# Convention : Reuss Voigt Hill
#
# Bulk Modulus (GPa) = 42.82105 45.56419 44.19262
# Shear Modulus (GPa) = 27.44290 29.49987 28.47138
#
# Velocity S-wave (km/s) = 3.79099 3.93050 3.86138
# Velocity P-wave (km/s) = 6.44882 6.66784 6.55924
#
# Compressibility (1/GPa) = 0.02335300
#
# Stress axis : x y z
#
# Youngs Moduli (GPa) = 78.49139 61.83584 60.69209
#
# Poissons Ratio (x) = 0.20539 0.05870
# Poissons Ratio (y) = 0.26071 0.40841
# Poissons Ratio (z) = 0.07591 0.41610
#
# Static dielectric constant tensor:
#      x y z
#    x 3.546470 0.134670 -0.128040 
#    y 0.134670 3.286910 0.123670 
#    z -0.128040 0.123670 3.476430 
# 
# 
# High freq. dielectric constant tensor:
#      x y z
#    x 1.742320 0.007260 -0.010570 
#    y 0.007260 1.732570 0.019730 
#    z -0.010570 0.019730 1.742150 
# 
# From -- ./inp_files/213403.got.cif
#   From: 2010.06.25/outbox.cif.g09.slc.cpg/sg2_107_cif.got.tgz:213403.got - 2010.06.27 13:26:56.
