data_PCOD8011716
_publ_section_title
;
Structure prediction by ZEFSAII (Michael W. Deem and Ramdas Pophale) SiO2 
 PCOD8011716
Probable space group: P -1
;
_chemical_formula_sum "Si O2"
_cell_formula_units_Z 16
_cell_length_a 9.833225
_cell_length_b 14.036677
_cell_length_c 15.857956
_cell_angle_alpha 40.532074
_cell_angle_beta 51.677924
_cell_angle_gamma 84.012702
_cell_volume 774.704421
_symmetry_space_group_name_H-M "P -1"
_symmetry_group_IT_number 2
_symmetry_cell_setting 'triclinic'
loop_
_space_group_symop_operation_xyz
x,y,z
-x,-y,-z
loop_
_atom_site_type_symbol
_atom_site_label
_atom_site_fract_x
_atom_site_fract_y
_atom_site_fract_z
Si Si1 0.059643 0.998220 0.683969
Si Si2 0.330385 1.000000 0.169617
Si Si3 0.821710 0.999998 0.178293
Si Si4 0.242165 0.341064 0.658936
Si Si5 0.451381 0.277943 0.222056
Si Si6 0.424028 0.998222 0.319587
Si Si7 0.103525 0.230425 0.269575
Si Si8 0.254218 0.650245 0.349756
O O1 0.914467 0.813012 0.794188
O O2 0.058885 0.920834 0.827478
O O3 0.348887 0.194933 0.412216
O O4 0.935347 0.082434 0.678701
O O5 0.457631 0.082434 0.156425
O O6 0.282720 0.801402 0.301487
O O7 0.511499 0.198597 0.904292
O O8 0.776327 0.804461 0.301301
O O9 0.555510 0.920834 0.330858
O O10 0.012147 0.195530 0.910229
O O11 0.500000 0.500000 0.500000
O O12 0.242216 0.491291 0.508711
O O13 0.190986 0.145978 0.354022
O O14 0.563188 0.194935 0.197915
O O15 0.652278 0.524063 0.975935
O O16 0.128870 0.813015 0.579784
O O17 0.000000 0.500000 0.500000
#
# Coordination Sequence:
#
# PCOD8011716 Si02
#       8
#     2   2   2   2   2   2   2   2
#     4  11  21  41  62  91 126 166 203 258 312 369
#     4  11  22  39  64  92 122 159 210 261 310 370
#     4  11  26  41  66  92 128 171 214 255 312 376
#     4  11  24  47  62  88 132 172 209 259 315 373
#     4  10  21  39  63  94 126 160 205 260 315 372
#     4  11  21  41  62  91 126 166 203 258 312 369
#     4  10  21  39  63  94 128 157 205 262 314 374
#     4  11  24  39  62  94 122 155 210 268 311 364
#
# _framework density 20.653037999999999
#
# number of rings (size 3 to 8) (size 9 to 14) (size 15 to 20)
#    0.000    1.250    2.500    3.750    0.000   12.000 
#    0.000    1.250    0.000    0.000    0.000    0.000 
#    0.000    0.000    0.000    0.000    0.000    0.000 
#
# Total GULP energy -198378.367706 kJ/mol
# GULP energy per Si atom -12398.647982 kJ/mol
# Density = 2.060603 g / cm^3
# Si number density = 20.653038 Si / 1000 Ang^3
#
#
#
# Elastic Constant Matrix: (Units=GPa)
#
#
# Indices 1 2 3 4 5 6 
#
# 1 143.6617 62.3719 56.2802 7.1862 13.1418 -6.7884
# 2 62.3719 115.6750 71.8665 23.5509 10.3586 -3.8072
# 3 56.2802 71.8665 89.5097 -0.5866 9.8871 -8.2694
# 4 7.1862 23.5509 -0.5866 26.8456 1.0301 -2.4728
# 5 13.1418 10.3586 9.8871 1.0301 37.2990 -1.0105
# 6 -6.7884 -3.8072 -8.2694 -2.4728 -1.0105 35.3922
#
#
#
# Elastic Compliance Matrix: (Units=1/GPa)
#
#
# Indices 1 2 3 4 5 6 
#
# 1 0.009809 -0.002830 -0.003648 -0.000096 -0.001682 0.000670
# 2 -0.002830 0.028856 -0.021887 -0.025412 -0.000631 -0.004346
# 3 -0.003648 -0.021887 0.031889 0.021472 -0.001524 0.005853
# 4 -0.000096 -0.025412 0.021472 0.060640 -0.000099 0.006499
# 5 -0.001682 -0.000631 -0.001524 -0.000099 0.027986 0.000046
# 6 0.000670 -0.004346 0.005853 0.006499 0.000046 0.029739
#
#
# Mechanical properties :
#
#
# Convention : Reuss Voigt Hill
#
# Bulk Modulus (GPa) = 72.34473 81.09818 76.72145
# Shear Modulus (GPa) = 19.97941 30.46257 25.22099
#
# Velocity S-wave (km/s) = 3.11365 3.84470 3.49832
# Velocity P-wave (km/s) = 6.93045 7.68512 7.31752
#
# Compressibility (1/GPa) = 0.01382271
#
# Stress axis : x y z
#
# Youngs Moduli (GPa) = 101.94614 34.65467 31.35919
#
# Poissons Ratio (x) = 0.09808 0.11440
# Poissons Ratio (y) = 0.28853 0.68636
# Poissons Ratio (z) = 0.37191 0.75849
#
# Static dielectric constant tensor:
#      x y z
#    x 3.644760 0.018650 -0.064130 
#    y 0.018650 3.840460 0.080790 
#    z -0.064130 0.080790 3.729580 
# 
# 
# High freq. dielectric constant tensor:
#      x y z
#    x 1.806530 0.001120 -0.004380 
#    y 0.001120 1.821730 0.006030 
#    z -0.004380 0.006030 1.813520 
# 
# From -- ./inp_files/503809.got.cif
#   From: 2010.06.25/outbox.cif.g09.slc.cpg/sg2_252_cif.got.tgz:503809.got - 2010.06.27 13:26:56.
