data_PCOD8011952
_publ_section_title
;
Structure prediction by ZEFSAII (Michael W. Deem and Ramdas Pophale) SiO2 
 PCOD8011952
Probable space group: P -1
;
_chemical_formula_sum "Si O2"
_cell_formula_units_Z 16
_cell_length_a 9.951152
_cell_length_b 18.465622
_cell_length_c 25.140344
_cell_angle_alpha 21.123158
_cell_angle_beta 47.420682
_cell_angle_gamma 36.290103
_cell_volume 921.973255
_symmetry_space_group_name_H-M "P -1"
_symmetry_group_IT_number 2
_symmetry_cell_setting 'triclinic'
loop_
_space_group_symop_operation_xyz
x,y,z
-x,-y,-z
loop_
_atom_site_type_symbol
_atom_site_label
_atom_site_fract_x
_atom_site_fract_y
_atom_site_fract_z
Si Si1 0.500381 0.501556 0.584821
Si Si2 0.459057 0.620989 0.144607
Si Si3 0.560614 0.053927 0.644853
Si Si4 0.689612 0.961850 0.184690
Si Si5 0.805964 0.543099 0.623386
Si Si6 0.062339 0.737088 0.685675
Si Si7 0.783032 0.504889 0.420789
Si Si8 0.480826 0.237734 0.862416
O O1 0.388886 0.786305 0.442817
O O2 0.720760 0.384648 0.565229
O O3 0.283846 0.535446 0.590866
O O4 0.604831 0.290877 0.748905
O O5 0.326503 0.502341 0.266991
O O6 0.750336 0.375788 0.237345
O O7 0.380168 0.823314 0.076948
O O8 0.384630 0.775487 0.003067
O O9 0.450527 0.956226 0.777706
O O10 0.379025 0.238792 0.519500
O O11 0.819643 0.796912 0.728045
O O12 0.622639 0.822333 0.259167
O O13 0.980278 0.739763 0.269646
O O14 0.931190 0.642201 0.552496
O O15 0.196740 0.508405 0.760487
O O16 0.000000 0.000000 0.500000
O O17 0.500000 0.000000 0.000000
#
# Coordination Sequence:
#
# PCOD8011952 Si02
#       8
#     2   2   2   2   2   2   2   2
#     4  10  16  33  50  77 110 139 178 227 264 322
#     4  10  19  33  53  81 112 138 185 233 270 312
#     4  11  18  34  57  78 108 148 186 218 274 331
#     4   9  20  30  50  81 115 136 182 226 279 309
#     4  10  18  32  53  82 112 143 182 228 271 328
#     4  10  19  34  55  82 108 147 183 231 261 333
#     4   8  20  28  50  79 113 136 178 225 270 316
#     4  10  20  31  57  78 108 141 185 223 276 315
#
# _framework density 17.354081999999998
#
# number of rings (size 3 to 8) (size 9 to 14) (size 15 to 20)
#    1.500    0.750    3.750    1.500    0.000    0.500 
#    0.000    0.000    0.000    3.000    0.000    1.750 
#    0.000    0.000    0.000    0.000    0.000    0.000 
#
# Total GULP energy -198209.211525 kJ/mol
# GULP energy per Si atom -12388.075720 kJ/mol
# Density = 1.731458 g / cm^3
# Si number density = 17.354082 Si / 1000 Ang^3
#
#
#
# Elastic Constant Matrix: (Units=GPa)
#
#
# Indices 1 2 3 4 5 6 
#
# 1 74.3184 25.9632 24.3123 4.8287 -3.3042 -20.0384
# 2 25.9632 77.0045 51.8992 15.4753 8.7804 -22.6712
# 3 24.3123 51.8992 94.9708 21.1815 8.7921 -8.2948
# 4 4.8287 15.4753 21.1815 35.1638 2.9022 -0.3802
# 5 -3.3042 8.7804 8.7921 2.9022 19.7410 -5.2945
# 6 -20.0384 -22.6712 -8.2948 -0.3802 -5.2945 28.1547
#
#
#
# Elastic Compliance Matrix: (Units=1/GPa)
#
#
# Indices 1 2 3 4 5 6 
#
# 1 0.019104 -0.000610 -0.004097 -0.000484 0.009008 0.013586
# 2 -0.000610 0.027927 -0.012404 -0.004415 -0.001508 0.018056
# 3 -0.004097 -0.012404 0.019289 -0.005257 -0.005205 -0.008271
# 4 -0.000484 -0.004415 -0.005257 0.033737 -0.002185 -0.005404
# 5 0.009008 -0.001508 -0.005205 -0.002185 0.059447 0.014814
# 6 0.013586 0.018056 -0.008271 -0.005404 0.014814 0.060003
#
#
# Mechanical properties :
#
#
# Convention : Reuss Voigt Hill
#
# Bulk Modulus (GPa) = 31.15415 50.07145 40.61280
# Shear Modulus (GPa) = 18.90879 26.21983 22.56431
#
# Velocity S-wave (km/s) = 3.30447 3.89121 3.60978
# Velocity P-wave (km/s) = 5.70530 7.00744 6.38962
#
# Compressibility (1/GPa) = 0.03209845
#
# Stress axis : x y z
#
# Youngs Moduli (GPa) = 52.34478 35.80744 51.84374
#
# Poissons Ratio (x) = 0.02185 0.21238
# Poissons Ratio (y) = 0.03195 0.64307
# Poissons Ratio (z) = 0.21443 0.44415
#
# Static dielectric constant tensor:
#      x y z
#    x 3.057130 -0.151460 0.004670 
#    y -0.151460 3.288860 0.269290 
#    z 0.004670 0.269290 3.053310 
# 
# 
# High freq. dielectric constant tensor:
#      x y z
#    x 1.650950 -0.013520 0.007320 
#    y -0.013520 1.653100 0.028980 
#    z 0.007320 0.028980 1.656330 
# 
# From -- ./inp_files/618774.got.cif
#   From: 2010.06.25/outbox.cif.g09.slc.cpg/sg2_310_cif.got.tgz:618774.got - 2010.06.27 13:26:56.
