data_PCOD8011769
_publ_section_title
;
Structure prediction by ZEFSAII (Michael W. Deem and Ramdas Pophale) SiO2 
 PCOD8011769
Probable space group: P -1
;
_chemical_formula_sum "Si O2"
_cell_formula_units_Z 12
_cell_length_a 9.366162
_cell_length_b 13.794977
_cell_length_c 7.398827
_cell_angle_alpha 128.927246
_cell_angle_beta 103.497486
_cell_angle_gamma 46.806368
_cell_volume 508.544413
_symmetry_space_group_name_H-M "P -1"
_symmetry_group_IT_number 2
_symmetry_cell_setting 'triclinic'
loop_
_space_group_symop_operation_xyz
x,y,z
-x,-y,-z
loop_
_atom_site_type_symbol
_atom_site_label
_atom_site_fract_x
_atom_site_fract_y
_atom_site_fract_z
Si Si1 0.562837 0.357223 0.103249
Si Si2 0.659703 0.747436 0.124620
Si Si3 0.981986 0.985192 0.768636
Si Si4 0.224700 0.308668 0.313170
Si Si5 0.566279 0.300580 0.461661
Si Si6 0.774837 0.861929 0.570336
O O1 0.584064 0.324816 0.285824
O O2 0.507087 0.534251 0.250536
O O3 0.372648 0.381919 0.009405
O O4 0.783822 0.185395 0.871345
O O5 0.811286 0.716607 0.285387
O O6 0.433910 0.941958 0.313976
O O7 0.745832 0.732551 0.937290
O O8 0.958799 0.849598 0.577568
O O9 0.203401 0.885131 0.620242
O O10 0.000000 0.000000 0.000000
O O11 0.401105 0.290852 0.432118
O O12 0.233982 0.172013 0.261315
O O13 0.000000 0.500000 0.500000
#
# Coordination Sequence:
#
# PCOD8011769 Si02
#       6
#     2   2   2   2   2   2
#     4   8  16  32  57  81 111 153 196 235 289 356
#     4   9  20  40  62  86 118 157 197 247 296 343
#     4   9  18  32  60  84 109 158 195 238 298 347
#     4  11  24  37  58  92 120 155 196 243 300 353
#     4   9  18  34  54  82 118 150 194 242 289 350
#     4  10  21  39  64  87 117 154 202 245 294 356
#
# _framework density 23.59676
#
# number of rings (size 3 to 8) (size 9 to 14) (size 15 to 20)
#    0.000    2.667    0.000    1.500    9.333    0.667 
#    0.000    0.833    0.000    4.000    0.000    0.000 
#    0.000    0.000    0.000    0.000    0.000    0.000 
#
# Total GULP energy -148728.101554 kJ/mol
# GULP energy per Si atom -12394.008463 kJ/mol
# Density = 2.354305 g / cm^3
# Si number density = 23.596760 Si / 1000 Ang^3
#
#
#
# Elastic Constant Matrix: (Units=GPa)
#
#
# Indices 1 2 3 4 5 6 
#
# 1 114.3201 27.5062 45.4746 8.6429 0.1165 -33.0750
# 2 27.5062 25.2163 18.9869 5.1583 1.2372 -12.5265
# 3 45.4746 18.9869 109.8258 -1.7266 14.5464 -18.1605
# 4 8.6429 5.1583 -1.7266 35.1677 -0.7073 -1.0273
# 5 0.1165 1.2372 14.5464 -0.7073 24.6170 0.6576
# 6 -33.0750 -12.5265 -18.1605 -1.0273 0.6576 32.6588
#
#
#
# Elastic Compliance Matrix: (Units=1/GPa)
#
#
# Indices 1 2 3 4 5 6 
#
# 1 0.015331 -0.008690 -0.003481 -0.002326 0.002083 0.010142
# 2 -0.008690 0.059765 -0.004913 -0.006556 -0.000547 0.011195
# 3 -0.003481 -0.004913 0.012694 0.002108 -0.007227 0.001861
# 4 -0.002326 -0.006556 0.002108 0.029992 0.000030 -0.002755
# 5 0.002083 -0.000547 -0.007227 0.000030 0.044992 -0.003023
# 6 0.010142 0.011195 0.001861 -0.002755 -0.003023 0.046194
#
#
# Mechanical properties :
#
#
# Convention : Reuss Voigt Hill
#
# Bulk Modulus (GPa) = 18.64946 48.14416 33.39681
# Shear Modulus (GPa) = 19.15623 28.98168 24.06896
#
# Velocity S-wave (km/s) = 2.85233 3.50838 3.19723
# Velocity P-wave (km/s) = 4.33224 6.07114 5.27385
#
# Compressibility (1/GPa) = 0.05362084
#
# Stress axis : x y z
#
# Youngs Moduli (GPa) = 65.22675 16.73214 78.77656
#
# Poissons Ratio (x) = 0.14541 0.27422
# Poissons Ratio (y) = 0.56684 0.38707
# Poissons Ratio (z) = 0.22705 0.08221
#
# Static dielectric constant tensor:
#      x y z
#    x 4.333410 -0.685850 0.464260 
#    y -0.685850 3.973460 0.167430 
#    z 0.464260 0.167430 4.733430 
# 
# 
# High freq. dielectric constant tensor:
#      x y z
#    x 1.929170 -0.021070 0.009970 
#    y -0.021070 1.904030 0.003450 
#    z 0.009970 0.003450 1.941510 
# 
# From -- ./inp_files/145820.got.cif
#   From: 2010.06.25/outbox.cif.g09.slc.cpg/sg2_73_cif.got.tgz:145820.got - 2010.06.27 13:26:56.
