data_PCOD8011226
_publ_section_title
;
Structure prediction by ZEFSAII (Michael W. Deem and Ramdas Pophale) SiO2 
 PCOD8011226
Probable space group: P -1
;
_chemical_formula_sum "Si O2"
_cell_formula_units_Z 14
_cell_length_a 9.230630
_cell_length_b 11.470942
_cell_length_c 8.741225
_cell_angle_alpha 61.653452
_cell_angle_beta 87.341021
_cell_angle_gamma 54.507421
_cell_volume 628.352013
_symmetry_space_group_name_H-M "P -1"
_symmetry_group_IT_number 2
_symmetry_cell_setting 'triclinic'
loop_
_space_group_symop_operation_xyz
x,y,z
-x,-y,-z
loop_
_atom_site_type_symbol
_atom_site_label
_atom_site_fract_x
_atom_site_fract_y
_atom_site_fract_z
Si Si1 0.282670 0.523933 0.342324
Si Si2 0.091326 0.516485 0.841230
Si Si3 0.925625 0.713468 0.424669
Si Si4 0.279709 0.620390 0.956084
Si Si5 0.033258 0.001829 0.815427
Si Si6 0.619209 0.805688 0.159895
Si Si7 0.634796 0.245551 0.649499
O O1 0.486532 0.334577 0.460961
O O2 0.311985 0.645840 0.347721
O O3 0.110567 0.551355 0.423385
O O4 0.224257 0.569008 0.141713
O O5 0.195488 0.592400 0.833408
O O6 0.237119 0.321554 0.898363
O O7 0.941869 0.650090 0.636773
O O8 0.000000 0.500000 0.000000
O O9 0.732337 0.767830 0.334280
O O10 0.914354 0.878655 0.305048
O O11 0.196306 0.815820 0.854629
O O12 0.500000 0.500000 0.000000
O O13 0.837259 0.069370 0.699775
O O14 0.000000 0.000000 0.000000
O O15 0.465592 0.779848 0.198276
O O16 0.500000 0.000000 0.000000
#
# Coordination Sequence:
#
# PCOD8011226 Si02
#       7
#     2   2   2   2   2   2   2
#     4  10  21  43  72  99 132 185 235 285 337 424
#     4  12  29  47  67 104 150 182 228 296 364 402
#     4  11  24  46  76  99 138 193 240 277 343 429
#     4  12  27  44  72 106 147 177 225 301 363 399
#     4  11  23  44  76 102 135 180 242 283 340 423
#     4  12  26  43  75 100 137 189 243 278 339 436
#     4  10  21  38  73  99 128 170 253 272 331 399
#
# _framework density 22.280505999999999
#
# number of rings (size 3 to 8) (size 9 to 14) (size 15 to 20)
#    0.000    0.857    4.286    3.000   10.000    0.571 
#    0.000    0.714    0.000    0.000    0.000    0.000 
#    0.000    0.000    0.000    0.000    0.000    0.000 
#
# Total GULP energy -173549.406418 kJ/mol
# GULP energy per Si atom -12396.386173 kJ/mol
# Density = 2.222979 g / cm^3
# Si number density = 22.280506 Si / 1000 Ang^3
#
#
#
# Elastic Constant Matrix: (Units=GPa)
#
#
# Indices 1 2 3 4 5 6 
#
# 1 70.2287 21.5757 2.4487 1.1928 15.2493 -19.4088
# 2 21.5757 129.9929 41.9930 -21.8571 11.8920 -9.1710
# 3 2.4487 41.9930 115.2080 -5.8469 3.8294 -1.6536
# 4 1.1928 -21.8571 -5.8469 37.7016 -6.1193 4.7148
# 5 15.2493 11.8920 3.8294 -6.1193 42.9327 2.1257
# 6 -19.4088 -9.1710 -1.6536 4.7148 2.1257 32.2913
#
#
#
# Elastic Compliance Matrix: (Units=1/GPa)
#
#
# Indices 1 2 3 4 5 6 
#
# 1 0.020417 -0.002879 0.000803 -0.005064 -0.007879 0.012753
# 2 -0.002879 0.010250 -0.003374 0.005351 -0.000767 0.000277
# 3 0.000803 -0.003374 0.009879 -0.000516 -0.000312 0.000126
# 4 -0.005064 0.005351 -0.000516 0.031351 0.005151 -0.006467
# 5 -0.007879 -0.000767 -0.000312 0.005151 0.027438 -0.007528
# 6 0.012753 0.000277 0.000126 -0.006467 -0.007528 0.040158
#
#
# Mechanical properties :
#
#
# Convention : Reuss Voigt Hill
#
# Bulk Modulus (GPa) = 33.73076 49.71827 41.72452
# Shear Modulus (GPa) = 31.19636 39.21263 35.20449
#
# Velocity S-wave (km/s) = 3.74594 4.19973 3.97931
# Velocity P-wave (km/s) = 5.82077 6.77349 6.31512
#
# Compressibility (1/GPa) = 0.02964653
#
# Stress axis : x y z
#
# Youngs Moduli (GPa) = 48.97811 97.56204 101.22865
#
# Poissons Ratio (x) = 0.28091 -0.08133
# Poissons Ratio (y) = 0.14102 0.34153
# Poissons Ratio (z) = -0.03935 0.32916
#
# Static dielectric constant tensor:
#      x y z
#    x 4.214270 -0.106940 0.346810 
#    y -0.106940 4.108010 -0.399740 
#    z 0.346810 -0.399740 4.323790 
# 
# 
# High freq. dielectric constant tensor:
#      x y z
#    x 1.898320 -0.004250 0.001540 
#    y -0.004250 1.856670 -0.023990 
#    z 0.001540 -0.023990 1.886220 
# 
# From -- ./inp_files/185007.got.cif
#   From: 2010.06.25/outbox.cif.g09.slc.cpg/sg2_93_cif.got.tgz:185007.got - 2010.06.27 13:26:56.
