data_PCOD8011362
_publ_section_title
;
Structure prediction by ZEFSAII (Michael W. Deem and Ramdas Pophale) SiO2 
 PCOD8011362
Probable space group: P -1
;
_chemical_formula_sum "Si O2"
_cell_formula_units_Z 16
_cell_length_a 6.591257
_cell_length_b 23.632798
_cell_length_c 14.750771
_cell_angle_alpha 20.085958
_cell_angle_beta 101.102065
_cell_angle_gamma 102.800941
_cell_volume 768.666087
_symmetry_space_group_name_H-M "P -1"
_symmetry_group_IT_number 2
_symmetry_cell_setting 'triclinic'
loop_
_space_group_symop_operation_xyz
x,y,z
-x,-y,-z
loop_
_atom_site_type_symbol
_atom_site_label
_atom_site_fract_x
_atom_site_fract_y
_atom_site_fract_z
Si Si1 0.282573 0.830274 0.299185
Si Si2 0.941898 0.233860 0.113659
Si Si3 0.436974 0.195079 0.806798
Si Si4 0.570106 0.102413 0.146803
Si Si5 0.480361 0.249622 0.388220
Si Si6 0.872794 0.590906 0.617673
Si Si7 0.225624 0.508362 0.043949
Si Si8 0.283501 0.022108 0.400191
O O1 0.368561 0.800130 0.251913
O O2 0.420196 0.746713 0.509263
O O3 0.047722 0.745268 0.413999
O O4 0.285960 0.024371 0.032230
O O5 0.762814 0.188170 0.091900
O O6 0.164755 0.176020 0.193180
O O7 0.869781 0.146658 0.335420
O O8 0.971800 0.432742 0.824447
O O9 0.306059 0.350443 0.549997
O O10 0.526740 0.211970 0.891045
O O11 0.348266 0.062609 0.240895
O O12 0.637350 0.928848 0.378988
O O13 0.314366 0.377995 0.181006
O O14 0.652382 0.308098 0.237970
O O15 0.759292 0.540198 0.777876
O O16 0.000000 0.500000 0.000000
O O17 0.500000 0.000000 0.500000
#
# Coordination Sequence:
#
# PCOD8011362 Si02
#       8
#     2   2   2   2   2   2   2   2
#     4  10  21  41  61  87 121 163 205 252 305 362
#     4  10  23  40  63  95 123 158 205 250 308 365
#     4  10  23  41  62  87 122 166 208 249 304 365
#     4  10  22  41  64  86 122 167 203 251 296 369
#     4  10  21  39  60  90 124 155 202 251 310 365
#     4  12  23  39  63  92 126 160 203 257 308 365
#     4  11  22  36  60  97 124 155 198 256 316 366
#     4   9  20  42  63  89 119 162 205 247 302 359
#
# _framework density 20.815280000000001
#
# number of rings (size 3 to 8) (size 9 to 14) (size 15 to 20)
#    0.000    1.750    2.500    1.125    0.000    7.500 
#    0.000    1.250    0.000    0.000    0.000    0.000 
#    0.000    0.000    0.000    0.000    0.000    0.000 
#
# Total GULP energy -198347.317960 kJ/mol
# GULP energy per Si atom -12396.707373 kJ/mol
# Density = 2.076790 g / cm^3
# Si number density = 20.815280 Si / 1000 Ang^3
#
#
#
# Elastic Constant Matrix: (Units=GPa)
#
#
# Indices 1 2 3 4 5 6 
#
# 1 86.3839 34.2540 37.9511 8.3880 10.8766 -5.7585
# 2 34.2540 80.2700 29.5907 20.9377 -6.9286 -6.9262
# 3 37.9511 29.5907 106.3854 12.2423 9.8017 -3.8775
# 4 8.3880 20.9377 12.2423 36.2163 -7.3910 -6.5327
# 5 10.8766 -6.9286 9.8017 -7.3910 36.7196 0.7327
# 6 -5.7585 -6.9262 -3.8775 -6.5327 0.7327 25.9947
#
#
#
# Elastic Compliance Matrix: (Units=1/GPa)
#
#
# Indices 1 2 3 4 5 6 
#
# 1 0.016243 -0.005916 -0.003653 0.000183 -0.004949 0.001662
# 2 -0.005916 0.018276 -0.002500 -0.007231 0.004388 0.001245
# 3 -0.003653 -0.002500 0.011950 -0.002411 -0.003060 -0.000213
# 4 0.000183 -0.007231 -0.002411 0.034966 0.006136 0.006369
# 5 -0.004949 0.004388 -0.003060 0.006136 0.031574 0.000268
# 6 0.001662 0.001245 -0.000213 0.006369 0.000268 0.040731
#
#
# Mechanical properties :
#
#
# Convention : Reuss Voigt Hill
#
# Bulk Modulus (GPa) = 44.78127 52.95897 48.87012
# Shear Modulus (GPa) = 26.97989 31.20235 29.09112
#
# Velocity S-wave (km/s) = 3.60412 3.87591 3.74248
# Velocity P-wave (km/s) = 6.23538 6.74743 6.49645
#
# Compressibility (1/GPa) = 0.02233076
#
# Stress axis : x y z
#
# Youngs Moduli (GPa) = 61.56317 54.71516 83.68133
#
# Poissons Ratio (x) = 0.32371 0.30573
# Poissons Ratio (y) = 0.36423 0.20919
# Poissons Ratio (z) = 0.22492 0.13678
#
# Static dielectric constant tensor:
#      x y z
#    x 3.672580 -0.130270 0.053640 
#    y -0.130270 3.536330 0.073700 
#    z 0.053640 0.073700 3.805190 
# 
# 
# High freq. dielectric constant tensor:
#      x y z
#    x 1.815540 -0.010280 0.003340 
#    y -0.010280 1.799550 0.011420 
#    z 0.003340 0.011420 1.823480 
# 
# From -- ./inp_files/78184.got.cif
#   From: 2010.06.25/outbox.cif.g09.slc.cpg/sg2_40_cif.got.tgz:78184.got - 2010.06.27 13:26:56.
