data_PCOD8011594
_publ_section_title
;
Structure prediction by ZEFSAII (Michael W. Deem and Ramdas Pophale) SiO2 
 PCOD8011594
Probable space group: P -1
;
_chemical_formula_sum "Si O2"
_cell_formula_units_Z 16
_cell_length_a 14.320273
_cell_length_b 8.970427
_cell_length_c 11.733840
_cell_angle_alpha 76.726977
_cell_angle_beta 149.572172
_cell_angle_gamma 112.223887
_cell_volume 691.530220
_symmetry_space_group_name_H-M "P -1"
_symmetry_group_IT_number 2
_symmetry_cell_setting 'triclinic'
loop_
_space_group_symop_operation_xyz
x,y,z
-x,-y,-z
loop_
_atom_site_type_symbol
_atom_site_label
_atom_site_fract_x
_atom_site_fract_y
_atom_site_fract_z
Si Si1 0.746215 0.441606 0.621389
Si Si2 0.214921 0.017527 0.516098
Si Si3 0.141592 0.898877 0.895700
Si Si4 0.059336 0.746292 0.588343
Si Si5 0.311214 0.556866 0.790334
Si Si6 0.469159 0.369823 0.771402
Si Si7 0.192411 0.579172 0.058155
Si Si8 0.451073 0.826933 0.696207
O O1 0.695909 0.578985 0.473646
O O2 0.729276 0.470331 0.732997
O O3 0.596541 0.258775 0.462732
O O4 0.968592 0.457360 0.817191
O O5 0.096951 0.882142 0.507191
O O6 0.325856 0.944087 0.555897
O O7 0.384285 0.172181 0.727952
O O8 0.056292 0.075474 0.272770
O O9 0.112193 0.844137 0.743608
O O10 0.187416 0.761247 0.040790
O O11 0.318107 0.072490 0.065614
O O12 0.193140 0.636344 0.735800
O O13 0.829410 0.625284 0.366317
O O14 0.389726 0.678851 0.747009
O O15 0.484111 0.550019 0.064055
O O16 0.669460 0.434564 0.896379
#
# Coordination Sequence:
#
# PCOD8011594 Si02
#       8
#     2   2   2   2   2   2   2   2
#     4  11  27  45  70  97 128 173 228 270 326 385
#     4  11  24  40  65  97 135 172 215 261 329 393
#     4  12  22  42  67  95 134 178 216 264 331 389
#     4  10  21  39  63 100 137 176 210 265 328 393
#     4  10  22  37  68  99 136 171 213 270 326 388
#     4  12  23  44  70  99 130 174 221 267 329 393
#     4  11  24  47  71  93 131 174 220 279 323 382
#     4  11  25  44  65 100 137 170 216 272 323 392
#
# _framework density 23.137096
#
# number of rings (size 3 to 8) (size 9 to 14) (size 15 to 20)
#    0.000    1.000    3.750    2.250    5.250    3.000 
#    0.000    0.625    0.000    0.000    0.000    0.000 
#    0.000    0.000    0.000    0.000    0.000    0.000 
#
# Total GULP energy -198483.270459 kJ/mol
# GULP energy per Si atom -12405.204404 kJ/mol
# Density = 2.308443 g / cm^3
# Si number density = 23.137096 Si / 1000 Ang^3
#
#
#
# Elastic Constant Matrix: (Units=GPa)
#
#
# Indices 1 2 3 4 5 6 
#
# 1 62.8603 6.3658 40.2021 6.6187 -3.5377 1.5852
# 2 6.3658 87.2121 37.6727 20.5382 -11.0845 -3.4681
# 3 40.2021 37.6727 136.5333 17.1531 -7.0665 1.4586
# 4 6.6187 20.5382 17.1531 57.0750 3.3010 6.2908
# 5 -3.5377 -11.0845 -7.0665 3.3010 35.4813 -1.1724
# 6 1.5852 -3.4681 1.4586 6.2908 -1.1724 31.7957
#
#
#
# Elastic Compliance Matrix: (Units=1/GPa)
#
#
# Indices 1 2 3 4 5 6 
#
# 1 0.019825 0.001594 -0.006066 -0.001099 0.001360 -0.000269
# 2 0.001594 0.014834 -0.003728 -0.004985 0.004609 0.002866
# 3 -0.006066 -0.003728 0.010291 -0.001029 0.000364 -0.000359
# 4 -0.001099 -0.004985 -0.001029 0.020490 -0.003931 -0.004641
# 5 0.001360 0.004609 0.000364 -0.003931 0.030274 0.002312
# 6 -0.000269 0.002866 -0.000359 -0.004641 0.002312 0.032797
#
#
# Mechanical properties :
#
#
# Convention : Reuss Voigt Hill
#
# Bulk Modulus (GPa) = 35.02614 50.56521 42.79567
# Shear Modulus (GPa) = 32.37736 38.36139 35.36938
#
# Velocity S-wave (km/s) = 3.74487 4.07628 3.91408
# Velocity P-wave (km/s) = 5.81981 6.63753 6.24207
#
# Compressibility (1/GPa) = 0.02855011
#
# Stress axis : x y z
#
# Youngs Moduli (GPa) = 50.44018 67.41213 97.17137
#
# Poissons Ratio (x) = -0.10747 0.58946
# Poissons Ratio (y) = -0.08041 0.36228
# Poissons Ratio (z) = 0.30598 0.25133
#
# Static dielectric constant tensor:
#      x y z
#    x 4.122390 -0.172180 0.232190 
#    y -0.172180 4.442270 -0.067530 
#    z 0.232190 -0.067530 4.364650 
# 
# 
# High freq. dielectric constant tensor:
#      x y z
#    x 1.907420 -0.008790 0.018570 
#    y -0.008790 1.923980 0.000590 
#    z 0.018570 0.000590 1.930120 
# 
# From -- ./inp_files/186420.got.cif
#   From: 2010.06.25/outbox.cif.g09.slc.cpg/sg2_94_cif.got.tgz:186420.got - 2010.06.27 13:26:56.
