data_PCOD8011391
_publ_section_title
;
Structure prediction by ZEFSAII (Michael W. Deem and Ramdas Pophale) SiO2 
 PCOD8011391
Probable space group: P -1
;
_chemical_formula_sum "Si O2"
_cell_formula_units_Z 16
_cell_length_a 5.253766
_cell_length_b 18.922807
_cell_length_c 12.486063
_cell_angle_alpha 47.755830
_cell_angle_beta 89.696557
_cell_angle_gamma 61.709721
_cell_volume 709.564064
_symmetry_space_group_name_H-M "P -1"
_symmetry_group_IT_number 2
_symmetry_cell_setting 'triclinic'
loop_
_space_group_symop_operation_xyz
x,y,z
-x,-y,-z
loop_
_atom_site_type_symbol
_atom_site_label
_atom_site_fract_x
_atom_site_fract_y
_atom_site_fract_z
Si Si1 0.819220 0.471996 0.888342
Si Si2 0.754591 0.132669 0.807371
Si Si3 0.495680 0.997449 0.632069
Si Si4 0.172564 0.186475 0.617892
Si Si5 0.607067 0.450236 0.382937
Si Si6 0.845455 0.096639 0.306910
Si Si7 0.506236 0.363595 0.080192
Si Si8 0.620027 0.609074 0.362298
O O1 0.695251 0.514832 0.724170
O O2 0.575471 0.585360 0.852265
O O3 0.777861 0.369318 0.021817
O O4 0.180985 0.431652 0.936896
O O5 0.507417 0.130459 0.736962
O O6 0.521122 0.248565 0.774861
O O7 0.969959 0.152511 0.714285
O O8 0.000000 0.000000 0.000000
O O9 0.256484 0.130363 0.554527
O O10 0.500000 0.000000 0.500000
O O11 0.387437 0.916452 0.750473
O O12 0.867030 0.928347 0.743287
O O13 0.958444 0.334419 0.449337
O O14 0.573740 0.572564 0.280964
O O15 0.604229 0.396603 0.549833
O O16 0.644737 0.226100 0.233578
O O17 0.000000 0.000000 0.500000
O O18 0.000000 0.500000 0.500000
#
# Coordination Sequence:
#
# PCOD8011391 Si02
#       8
#     2   2   2   2   2   2   2   2
#     4  10  23  40  65  92 124 174 204 270 323 383
#     4  11  24  45  69  97 138 174 210 277 343 393
#     4  10  22  39  60  96 127 167 211 267 322 366
#     4  11  23  43  68  98 126 171 230 264 322 409
#     4  10  23  40  70  95 124 169 225 273 327 390
#     4  10  21  39  61  86 124 175 209 262 315 370
#     4  10  22  43  59  91 136 160 219 259 320 387
#     4  10  21  44  66  98 130 163 222 284 323 390
#
# _framework density 22.549056
#
# number of rings (size 3 to 8) (size 9 to 14) (size 15 to 20)
#    0.000    1.750    1.250    1.875    5.250    0.000 
#   13.500    0.000    0.000    0.000    0.000    0.000 
#    0.000    0.000    0.000    0.000    0.000    0.000 
#
# Total GULP energy -198231.570106 kJ/mol
# GULP energy per Si atom -12389.473132 kJ/mol
# Density = 2.249773 g / cm^3
# Si number density = 22.549056 Si / 1000 Ang^3
#
#
#
# Elastic Constant Matrix: (Units=GPa)
#
#
# Indices 1 2 3 4 5 6 
#
# 1 145.5482 41.4892 2.2285 -2.7924 4.3510 13.8131
# 2 41.4892 174.2265 54.3993 -23.2162 2.1320 18.6464
# 3 2.2285 54.3993 63.0489 -19.8084 9.6066 9.3017
# 4 -2.7924 -23.2162 -19.8084 38.2216 5.4473 1.4413
# 5 4.3510 2.1320 9.6066 5.4473 25.6811 -0.2596
# 6 13.8131 18.6464 9.3017 1.4413 -0.2596 34.3459
#
#
#
# Elastic Compliance Matrix: (Units=1/GPa)
#
#
# Indices 1 2 3 4 5 6 
#
# 1 0.007829 -0.002270 0.002805 0.001099 -0.002448 -0.002740
# 2 -0.002270 0.008890 -0.007203 0.001284 0.002049 -0.002001
# 3 0.002805 -0.007203 0.028956 0.012978 -0.013519 -0.005706
# 4 0.001099 0.001284 0.012978 0.035810 -0.012806 -0.006253
# 5 -0.002448 0.002049 -0.013519 -0.012806 0.047002 0.004426
# 6 -0.002740 -0.002001 -0.005706 -0.006253 0.004426 0.033145
#
#
# Mechanical properties :
#
#
# Convention : Reuss Voigt Hill
#
# Bulk Modulus (GPa) = 30.92528 64.33972 47.63250
# Shear Modulus (GPa) = 26.91814 38.63018 32.77416
#
# Velocity S-wave (km/s) = 3.45883 4.14353 3.81656
# Velocity P-wave (km/s) = 5.44938 7.17544 6.37113
#
# Compressibility (1/GPa) = 0.03233601
#
# Stress axis : x y z
#
# Youngs Moduli (GPa) = 127.72773 112.49084 34.53558
#
# Poissons Ratio (x) = 0.25541 -0.09686
# Poissons Ratio (y) = 0.29000 0.24877
# Poissons Ratio (z) = -0.35823 0.81031
#
# Static dielectric constant tensor:
#      x y z
#    x 3.471200 0.206030 0.200280 
#    y 0.206030 4.488330 -0.281630 
#    z 0.200280 -0.281630 3.547260 
# 
# 
# High freq. dielectric constant tensor:
#      x y z
#    x 1.912990 0.010000 0.004120 
#    y 0.010000 1.904890 -0.017160 
#    z 0.004120 -0.017160 1.843040 
# 
# From -- ./inp_files/369362.got.cif
#   From: 2010.06.25/outbox.cif.g09.slc.cpg/sg2_185_cif.got.tgz:369362.got - 2010.06.27 13:26:56.
