data_PCOD8011058
_publ_section_title
;
Structure prediction by ZEFSAII (Michael W. Deem and Ramdas Pophale) SiO2 
 PCOD8011058
Probable space group: P -1
;
_chemical_formula_sum "Si O2"
_cell_formula_units_Z 16
_cell_length_a 18.171399
_cell_length_b 13.589131
_cell_length_c 20.999990
_cell_angle_alpha 159.665097
_cell_angle_beta 157.502558
_cell_angle_gamma 31.143092
_cell_volume 687.405624
_symmetry_space_group_name_H-M "P -1"
_symmetry_group_IT_number 2
_symmetry_cell_setting 'triclinic'
loop_
_space_group_symop_operation_xyz
x,y,z
-x,-y,-z
loop_
_atom_site_type_symbol
_atom_site_label
_atom_site_fract_x
_atom_site_fract_y
_atom_site_fract_z
Si Si1 0.128184 0.242893 0.333247
Si Si2 0.408313 0.357760 0.526881
Si Si3 0.704768 0.330807 0.852468
Si Si4 0.670049 0.849493 0.980677
Si Si5 0.728609 0.029131 0.927036
Si Si6 0.727256 0.540299 0.718801
Si Si7 0.031965 0.183665 0.699650
Si Si8 0.590014 0.343864 0.121957
O O1 0.193533 0.374858 0.396199
O O2 0.225411 0.432146 0.582964
O O3 0.196652 0.927534 0.195365
O O4 0.897805 0.225889 0.147126
O O5 0.534416 0.227201 0.604298
O O6 0.488172 0.679496 0.767769
O O7 0.409221 0.141745 0.337634
O O8 0.611011 0.510818 0.943208
O O9 0.863839 0.514815 0.051676
O O10 0.764893 0.624863 0.873641
O O11 0.836056 0.964954 0.233168
O O12 0.589962 0.102366 0.029931
O O13 0.819423 0.798446 0.905194
O O14 0.599573 0.224130 0.985470
O O15 0.500000 0.500000 0.500000
O O16 0.825572 0.250059 0.605217
O O17 0.000000 0.000000 0.500000
#
# Coordination Sequence:
#
# PCOD8011058 Si02
#       8
#     2   2   2   2   2   2   2   2
#     4  11  22  44  63  89 130 173 213 257 318 377
#     4  10  21  38  66  93 126 166 208 260 316 380
#     4  10  23  43  63  90 129 172 210 257 325 375
#     4  10  23  42  65  98 128 170 214 260 329 371
#     4  11  22  39  66  96 122 164 222 257 314 375
#     4  11  22  42  67  92 132 167 205 264 324 389
#     4  11  25  40  66  97 132 163 215 273 310 384
#     4  10  23  40  69  92 129 170 211 265 312 381
#
# _framework density 23.275921
#
# number of rings (size 3 to 8) (size 9 to 14) (size 15 to 20)
#    0.000    1.500    2.500    2.625    3.500    6.500 
#    2.250    2.500    0.000    0.000    0.000    0.000 
#    0.000    0.000    0.000    0.000    0.000    0.000 
#
# Total GULP energy -198394.488154 kJ/mol
# GULP energy per Si atom -12399.655510 kJ/mol
# Density = 2.322294 g / cm^3
# Si number density = 23.275921 Si / 1000 Ang^3
#
#
#
# Elastic Constant Matrix: (Units=GPa)
#
#
# Indices 1 2 3 4 5 6 
#
# 1 135.0565 37.0831 33.8814 -10.5137 -11.4825 -9.5349
# 2 37.0831 62.6443 13.7521 2.4478 1.4788 -18.4564
# 3 33.8814 13.7521 72.2180 -8.6774 -4.4726 -2.8779
# 4 -10.5137 2.4478 -8.6774 24.8755 0.3694 -1.0525
# 5 -11.4825 1.4788 -4.4726 0.3694 48.8891 0.4563
# 6 -9.5349 -18.4564 -2.8779 -1.0525 0.4563 27.5381
#
#
#
# Elastic Compliance Matrix: (Units=1/GPa)
#
#
# Indices 1 2 3 4 5 6 
#
# 1 0.010201 -0.005700 -0.003134 0.003724 0.002258 -0.000511
# 2 -0.005700 0.024118 -0.002101 -0.004896 -0.002353 0.013823
# 3 -0.003134 -0.002101 0.016285 0.004525 0.000789 -0.000632
# 4 0.003724 -0.004896 0.004525 0.043824 0.001104 0.000138
# 5 0.002258 -0.002353 0.000789 0.001104 0.021129 -0.001020
# 6 -0.000511 0.013823 -0.000632 0.000138 -0.001020 0.045357
#
#
# Mechanical properties :
#
#
# Convention : Reuss Voigt Hill
#
# Bulk Modulus (GPa) = 34.80252 48.81687 41.80970
# Shear Modulus (GPa) = 25.99252 32.60735 29.29993
#
# Velocity S-wave (km/s) = 3.34535 3.74693 3.55182
# Velocity P-wave (km/s) = 5.46868 6.30380 5.90103
#
# Compressibility (1/GPa) = 0.02873355
#
# Stress axis : x y z
#
# Youngs Moduli (GPa) = 98.02523 41.46243 61.40767
#
# Poissons Ratio (x) = 0.23635 0.19242
# Poissons Ratio (y) = 0.55877 0.12905
# Poissons Ratio (z) = 0.30717 0.08713
#
# Static dielectric constant tensor:
#      x y z
#    x 4.633090 -0.112040 0.197910 
#    y -0.112040 3.820940 0.034100 
#    z 0.197910 0.034100 4.474630 
# 
# 
# High freq. dielectric constant tensor:
#      x y z
#    x 1.936570 -0.009690 0.003110 
#    y -0.009690 1.885180 0.009780 
#    z 0.003110 0.009780 1.925720 
# 
# From -- ./inp_files/613818.got.cif
#   From: 2010.06.25/outbox.cif.g09.slc.cpg/sg2_307_cif.got.tgz:613818.got - 2010.06.27 13:26:56.
