data_PCOD8011978
_publ_section_title
;
Structure prediction by ZEFSAII (Michael W. Deem and Ramdas Pophale) SiO2 
 PCOD8011978
Probable space group: P -1
;
_chemical_formula_sum "Si O2"
_cell_formula_units_Z 12
_cell_length_a 17.554283
_cell_length_b 5.057509
_cell_length_c 7.581242
_cell_angle_alpha 119.410031
_cell_angle_beta 107.014817
_cell_angle_gamma 75.834373
_cell_volume 556.526441
_symmetry_space_group_name_H-M "P -1"
_symmetry_group_IT_number 2
_symmetry_cell_setting 'triclinic'
loop_
_space_group_symop_operation_xyz
x,y,z
-x,-y,-z
loop_
_atom_site_type_symbol
_atom_site_label
_atom_site_fract_x
_atom_site_fract_y
_atom_site_fract_z
Si Si1 0.457925 0.588662 0.729112
Si Si2 0.082427 0.107284 0.653942
Si Si3 0.693205 0.662098 0.605351
Si Si4 0.917644 0.179256 0.069086
Si Si5 0.445268 0.947887 0.197163
Si Si6 0.798713 0.098208 0.646212
O O1 0.369922 0.517687 0.598306
O O2 0.518656 0.287077 0.708148
O O3 0.500181 0.771831 0.666738
O O4 0.445531 0.801676 0.959606
O O5 0.069897 0.470673 0.781069
O O6 0.109342 0.959010 0.811001
O O7 0.149719 0.994555 0.521541
O O8 0.000000 0.000000 0.500000
O O9 0.747383 0.424510 0.686766
O O10 0.646551 0.927018 0.781406
O O11 0.745120 0.824702 0.552131
O O12 0.850599 0.137725 0.866959
O O13 0.000000 0.000000 0.000000
#
# Coordination Sequence:
#
# PCOD8011978 Si02
#       6
#     2   2   2   2   2   2
#     4  10  21  39  65  93 126 175 226 269 325 396
#     4  12  26  46  75  99 133 177 232 287 336 407
#     4  12  24  41  64  96 142 172 218 280 340 401
#     4  12  26  46  75  99 133 177 232 287 336 407
#     4  10  21  39  65  93 126 175 226 269 325 396
#     4  12  28  43  66 104 138 180 224 278 352 401
#
# _framework density 21.56232
#
# number of rings (size 3 to 8) (size 9 to 14) (size 15 to 20)
#    0.000    0.667    1.667    6.000    2.333    4.000 
#    0.000    0.000    0.000    0.000    0.000    0.000 
#    0.000    0.000    0.000    0.000    0.000    0.000 
#
# Total GULP energy -148872.512158 kJ/mol
# GULP energy per Si atom -12406.042680 kJ/mol
# Density = 2.151324 g / cm^3
# Si number density = 21.562320 Si / 1000 Ang^3
#
#
#
# Elastic Constant Matrix: (Units=GPa)
#
#
# Indices 1 2 3 4 5 6 
#
# 1 227.7422 84.4854 106.0661 18.7372 -9.0285 75.5089
# 2 84.4854 180.4392 72.9003 1.9016 -10.2933 -2.9597
# 3 106.0661 72.9003 121.6802 12.1339 -17.7315 37.2420
# 4 18.7372 1.9016 12.1339 52.5585 3.5652 32.1857
# 5 -9.0285 -10.2933 -17.7315 3.5652 22.9758 -18.4778
# 6 75.5089 -2.9597 37.2420 32.1857 -18.4778 122.3694
#
#
#
# Elastic Compliance Matrix: (Units=1/GPa)
#
#
# Indices 1 2 3 4 5 6 
#
# 1 0.009837 -0.002474 -0.006602 0.002152 -0.007331 -0.005793
# 2 -0.002474 0.008285 -0.003314 -0.000988 0.003123 0.003467
# 3 -0.006602 -0.003314 0.017490 -0.002945 0.010733 0.001066
# 4 0.002152 -0.000988 -0.002945 0.025468 -0.013175 -0.009143
# 5 -0.007331 0.003123 0.010733 -0.013175 0.064001 0.014462
# 6 -0.005793 0.003467 0.001066 -0.009143 0.014462 0.016095
#
#
# Mechanical properties :
#
#
# Convention : Reuss Voigt Hill
#
# Bulk Modulus (GPa) = 92.32972 117.41835 104.87403
# Shear Modulus (GPa) = 29.48680 57.34138 43.41409
#
# Velocity S-wave (km/s) = 3.70201 5.16247 4.49199
# Velocity P-wave (km/s) = 7.82215 9.49254 8.69754
#
# Compressibility (1/GPa) = 0.01083075
#
# Stress axis : x y z
#
# Youngs Moduli (GPa) = 101.66089 120.69750 57.17548
#
# Poissons Ratio (x) = 0.29866 0.37745
# Poissons Ratio (y) = 0.25156 0.18950
# Poissons Ratio (z) = 0.67113 0.40004
#
# Static dielectric constant tensor:
#      x y z
#    x 4.054260 0.139830 -0.081380 
#    y 0.139830 4.255020 0.008010 
#    z -0.081380 0.008010 4.195320 
# 
# 
# High freq. dielectric constant tensor:
#      x y z
#    x 1.856810 0.006120 -0.006230 
#    y 0.006120 1.870070 0.004930 
#    z -0.006230 0.004930 1.864330 
# 
# From -- ./inp_files/289289.got.cif
#   From: 2010.06.25/outbox.cif.g09.slc.cpg/sg2_145_cif.got.tgz:289289.got - 2010.06.27 13:26:56.
