data_PCOD8011117
_publ_section_title
;
Structure prediction by ZEFSAII (Michael W. Deem and Ramdas Pophale) SiO2 
 PCOD8011117
Probable space group: P -1
;
_chemical_formula_sum "Si O2"
_cell_formula_units_Z 16
_cell_length_a 12.334374
_cell_length_b 14.655757
_cell_length_c 9.227740
_cell_angle_alpha 48.528020
_cell_angle_beta 57.068497
_cell_angle_gamma 36.958316
_cell_volume 751.077329
_symmetry_space_group_name_H-M "P -1"
_symmetry_group_IT_number 2
_symmetry_cell_setting 'triclinic'
loop_
_space_group_symop_operation_xyz
x,y,z
-x,-y,-z
loop_
_atom_site_type_symbol
_atom_site_label
_atom_site_fract_x
_atom_site_fract_y
_atom_site_fract_z
Si Si1 0.479244 0.997111 0.848116
Si Si2 0.255331 0.760347 0.169279
Si Si3 0.437932 0.803540 0.525803
Si Si4 0.366295 0.356131 0.951056
Si Si5 0.874598 0.022007 0.230103
Si Si6 0.129388 0.230537 0.675624
Si Si7 0.609682 0.535248 0.454207
Si Si8 0.780381 0.566287 0.716633
O O1 0.565210 0.050957 0.641996
O O2 0.271065 0.121621 0.819359
O O3 0.500000 0.000000 0.000000
O O4 0.604711 0.805515 0.907371
O O5 0.436673 0.712231 0.122688
O O6 0.268934 0.606452 0.359024
O O7 0.082367 0.919375 0.222956
O O8 0.204239 0.816605 0.980715
O O9 0.473070 0.720319 0.431931
O O10 0.590092 0.662768 0.677611
O O11 0.240216 0.896654 0.625979
O O12 0.274459 0.470130 0.749537
O O13 0.243038 0.461440 0.069787
O O14 0.862893 0.897521 0.290402
O O15 0.174090 0.319753 0.450504
O O16 0.934504 0.380322 0.731657
O O17 0.500000 0.500000 0.500000
#
# Coordination Sequence:
#
# PCOD8011117 Si02
#       8
#     2   2   2   2   2   2   2   2
#     4  11  21  38  65  89 124 160 194 254 308 365
#     4  10  22  40  60  87 124 163 199 254 298 350
#     4  11  21  39  67  92 115 163 208 248 309 362
#     4  11  20  43  62  91 126 162 203 245 309 365
#     4  11  21  39  64  94 121 157 206 261 296 354
#     4  10  21  39  62  94 128 149 204 261 302 354
#     4  10  23  41  57  84 128 164 200 246 296 366
#     4  10  21  38  67  94 119 160 201 256 307 359
#
# _framework density 21.302734000000001
#
# number of rings (size 3 to 8) (size 9 to 14) (size 15 to 20)
#    0.000    1.500    3.750    1.500    0.000    2.500 
#   11.250    3.125    0.000    0.000    0.000    0.000 
#    0.000    0.000    0.000    0.000    0.000    0.000 
#
# Total GULP energy -198261.303391 kJ/mol
# GULP energy per Si atom -12391.331462 kJ/mol
# Density = 2.125425 g / cm^3
# Si number density = 21.302734 Si / 1000 Ang^3
#
#
#
# Elastic Constant Matrix: (Units=GPa)
#
#
# Indices 1 2 3 4 5 6 
#
# 1 39.5168 17.3728 19.4879 8.9027 -2.7343 -0.3664
# 2 17.3728 78.1237 59.1165 12.5627 -0.4706 5.4065
# 3 19.4879 59.1165 139.4263 9.8892 2.5718 5.4414
# 4 8.9027 12.5627 9.8892 50.1983 -0.7139 -4.1048
# 5 -2.7343 -0.4706 2.5718 -0.7139 19.0113 5.4281
# 6 -0.3664 5.4065 5.4414 -4.1048 5.4281 28.5643
#
#
#
# Elastic Compliance Matrix: (Units=1/GPa)
#
#
# Indices 1 2 3 4 5 6 
#
# 1 0.029360 -0.004363 -0.002085 -0.003622 0.004179 0.000285
# 2 -0.004363 0.020312 -0.007694 -0.003031 0.001715 -0.003196
# 3 -0.002085 -0.007694 0.010761 0.000129 -0.001871 -0.000246
# 4 -0.003622 -0.003031 0.000129 0.021592 -0.000880 0.003773
# 5 0.004179 0.001715 -0.001871 -0.000880 0.056544 -0.010786
# 6 0.000285 -0.003196 -0.000246 0.003773 -0.010786 0.038256
#
#
# Mechanical properties :
#
#
# Convention : Reuss Voigt Hill
#
# Bulk Modulus (GPa) = 31.10670 49.89125 40.49898
# Shear Modulus (GPa) = 23.16690 30.29409 26.73049
#
# Velocity S-wave (km/s) = 3.30132 3.77513 3.54615
# Velocity P-wave (km/s) = 5.40051 6.51714 5.98492
#
# Compressibility (1/GPa) = 0.03214741
#
# Stress axis : x y z
#
# Youngs Moduli (GPa) = 34.06004 49.23311 92.92855
#
# Poissons Ratio (x) = 0.21483 0.19375
# Poissons Ratio (y) = 0.14862 0.71500
# Poissons Ratio (z) = 0.07101 0.37881
#
# Static dielectric constant tensor:
#      x y z
#    x 3.876860 -0.419390 0.417870 
#    y -0.419390 4.769800 -1.242710 
#    z 0.417870 -1.242710 5.496170 
# 
# 
# High freq. dielectric constant tensor:
#      x y z
#    x 1.813180 0.001320 -0.008010 
#    y 0.001320 1.831210 -0.011580 
#    z -0.008010 -0.011580 1.855010 
# 
# From -- ./inp_files/205571.got.cif
#   From: 2010.06.25/outbox.cif.g09.slc.cpg/sg2_103_cif.got.tgz:205571.got - 2010.06.27 13:26:56.
