data_PCOD8011225
_publ_section_title
;
Structure prediction by ZEFSAII (Michael W. Deem and Ramdas Pophale) SiO2 
 PCOD8011225
Probable space group: P -1
;
_chemical_formula_sum "Si O2"
_cell_formula_units_Z 16
_cell_length_a 15.139294
_cell_length_b 9.278060
_cell_length_c 8.924525
_cell_angle_alpha 106.513871
_cell_angle_beta 101.666606
_cell_angle_gamma 36.442110
_cell_volume 713.146648
_symmetry_space_group_name_H-M "P -1"
_symmetry_group_IT_number 2
_symmetry_cell_setting 'triclinic'
loop_
_space_group_symop_operation_xyz
x,y,z
-x,-y,-z
loop_
_atom_site_type_symbol
_atom_site_label
_atom_site_fract_x
_atom_site_fract_y
_atom_site_fract_z
Si Si1 0.700356 0.197413 0.019328
Si Si2 0.755096 0.159517 0.498440
Si Si3 0.500992 0.273589 0.439659
Si Si4 0.918337 0.468772 0.037630
Si Si5 0.953286 0.921702 0.226349
Si Si6 0.915586 0.950326 0.789889
Si Si7 0.593205 0.889559 0.148410
Si Si8 0.499807 0.719536 0.208781
O O1 0.646948 0.111670 0.895884
O O2 0.784210 0.190499 0.922107
O O3 0.574878 0.456122 0.140599
O O4 0.822504 0.997315 0.126038
O O5 0.635072 0.201247 0.404578
O O6 0.663337 0.438388 0.562434
O O7 0.905822 0.982946 0.400769
O O8 0.825671 0.008203 0.632556
O O9 0.530432 0.206880 0.606258
O O10 0.510015 0.108376 0.301796
O O11 0.756739 0.731457 0.117979
O O12 0.003528 0.290978 0.162550
O O13 0.000000 0.500000 0.000000
O O14 0.902720 0.363108 0.866314
O O15 0.967830 0.074436 0.222121
O O16 0.602537 0.714396 0.177807
O O17 0.500000 0.000000 0.000000
#
# Coordination Sequence:
#
# PCOD8011225 Si02
#       8
#     2   2   2   2   2   2   2   2
#     4  10  21  38  72  98 132 177 234 287 339 403
#     4  11  24  42  71 107 133 182 233 297 351 408
#     4  11  25  44  67  99 146 179 230 290 351 417
#     4  11  26  47  70 101 139 185 233 288 351 425
#     4  11  22  42  70 101 141 173 238 293 343 411
#     4  11  23  43  70 101 137 180 236 287 349 409
#     4  12  29  44  71  99 142 187 233 283 354 427
#     4  11  22  42  67 101 138 184 229 281 353 418
#
# _framework density 22.435780000000001
#
# number of rings (size 3 to 8) (size 9 to 14) (size 15 to 20)
#    0.000    1.000    2.500    4.500    8.750    0.000 
#    0.000    2.500    0.000    0.000    0.000    0.000 
#    0.000    0.000    0.000    0.000    0.000    0.000 
#
# Total GULP energy -198211.009738 kJ/mol
# GULP energy per Si atom -12388.188109 kJ/mol
# Density = 2.238471 g / cm^3
# Si number density = 22.435780 Si / 1000 Ang^3
#
#
#
# Elastic Constant Matrix: (Units=GPa)
#
#
# Indices 1 2 3 4 5 6 
#
# 1 103.3392 23.3117 33.0221 -2.6581 -13.3509 7.3059
# 2 23.3117 74.2767 46.3906 2.7891 -0.2610 2.0653
# 3 33.0221 46.3906 134.5907 8.4079 -1.0085 -1.7172
# 4 -2.6581 2.7891 8.4079 33.3535 -3.8305 -1.1963
# 5 -13.3509 -0.2610 -1.0085 -3.8305 38.1994 1.4317
# 6 7.3059 2.0653 -1.7172 -1.1963 1.4317 33.1322
#
#
#
# Elastic Compliance Matrix: (Units=1/GPa)
#
#
# Indices 1 2 3 4 5 6 
#
# 1 0.011699 -0.002276 -0.002218 0.002083 0.004324 -0.002665
# 2 -0.002276 0.017662 -0.005522 -0.000392 -0.000827 -0.000864
# 3 -0.002218 -0.005522 0.010031 -0.002292 -0.000827 0.001306
# 4 0.002083 -0.000392 -0.002292 0.031207 0.003779 0.000410
# 5 0.004324 -0.000827 -0.000827 0.003779 0.028117 -0.002023
# 6 -0.002665 -0.000864 0.001306 0.000410 -0.002023 0.030993
#
#
# Mechanical properties :
#
#
# Convention : Reuss Voigt Hill
#
# Bulk Modulus (GPa) = 51.64892 57.51727 54.58310
# Shear Modulus (GPa) = 32.01124 34.90250 33.45687
#
# Velocity S-wave (km/s) = 3.78139 3.94847 3.86583
# Velocity P-wave (km/s) = 6.49122 6.81757 6.65640
#
# Compressibility (1/GPa) = 0.01936149
#
# Stress axis : x y z
#
# Youngs Moduli (GPa) = 85.47403 56.61818 99.68989
#
# Poissons Ratio (x) = 0.12884 0.22110
# Poissons Ratio (y) = 0.19450 0.55051
# Poissons Ratio (z) = 0.18957 0.31266
#
# Static dielectric constant tensor:
#      x y z
#    x 4.243370 -0.361520 -0.152100 
#    y -0.361520 4.142120 0.113160 
#    z -0.152100 0.113160 4.205950 
# 
# 
# High freq. dielectric constant tensor:
#      x y z
#    x 1.892950 -0.013980 -0.012710 
#    y -0.013980 1.861910 -0.000350 
#    z -0.012710 -0.000350 1.894410 
# 
# From -- ./inp_files/299296.got.cif
#   From: 2010.06.25/outbox.cif.g09.slc.cpg/sg2_150_cif.got.tgz:299296.got - 2010.06.27 13:26:56.
