data_PCOD8011582
_publ_section_title
;
Structure prediction by ZEFSAII (Michael W. Deem and Ramdas Pophale) SiO2 
 PCOD8011582
Probable space group: P -1
;
_chemical_formula_sum "Si O2"
_cell_formula_units_Z 16
_cell_length_a 9.358192
_cell_length_b 10.951998
_cell_length_c 15.527876
_cell_angle_alpha 122.077538
_cell_angle_beta 57.666010
_cell_angle_gamma 75.219892
_cell_volume 749.670732
_symmetry_space_group_name_H-M "P -1"
_symmetry_group_IT_number 2
_symmetry_cell_setting 'triclinic'
loop_
_space_group_symop_operation_xyz
x,y,z
-x,-y,-z
loop_
_atom_site_type_symbol
_atom_site_label
_atom_site_fract_x
_atom_site_fract_y
_atom_site_fract_z
Si Si1 0.385482 0.674007 0.781362
Si Si2 0.742568 0.045994 0.686735
Si Si3 0.061752 0.578834 0.438876
Si Si4 0.862568 0.980066 0.151090
Si Si5 0.931076 0.594528 0.295514
Si Si6 0.444317 0.732805 0.490039
Si Si7 0.927233 0.915408 0.389759
Si Si8 0.175350 0.322576 0.952332
O O1 0.653276 0.540661 0.688970
O O2 0.292154 0.864557 0.823398
O O3 0.416279 0.510517 0.652691
O O4 0.170208 0.788210 0.967106
O O5 0.902878 0.929491 0.504502
O O6 0.849247 0.838561 0.626102
O O7 0.440698 0.239806 0.840411
O O8 0.826022 0.145025 0.740464
O O9 0.056400 0.516434 0.320608
O O10 0.000000 0.500000 0.500000
O O11 0.786139 0.125335 0.312801
O O12 0.771760 0.876669 0.161462
O O13 0.639443 0.732338 0.456706
O O14 0.957758 0.728426 0.284380
O O15 0.055204 0.401578 0.116727
O O16 0.329793 0.850735 0.479128
O O17 0.000000 0.500000 0.000000
#
# Coordination Sequence:
#
# PCOD8011582 Si02
#       8
#     2   2   2   2   2   2   2   2
#     4  11  24  45  69  96 136 173 225 276 335 397
#     4  10  22  39  64  91 135 172 218 275 331 396
#     4  11  23  45  67  95 134 180 219 275 339 396
#     4  11  25  42  68 101 132 172 228 282 323 404
#     4  11  24  39  67  97 135 175 224 279 330 401
#     4  12  21  43  70  97 132 177 223 272 348 392
#     4  10  21  39  62  96 124 174 223 269 334 398
#     4  12  24  42  65 100 139 176 222 280 336 396
#
# _framework density 21.342704000000001
#
# number of rings (size 3 to 8) (size 9 to 14) (size 15 to 20)
#    0.000    1.000    2.500    5.250    0.000    1.500 
#    0.000    1.250    0.000    0.000    0.000    0.000 
#    0.000    0.000    0.000    0.000    0.000    0.000 
#
# Total GULP energy -198389.115374 kJ/mol
# GULP energy per Si atom -12399.319711 kJ/mol
# Density = 2.129413 g / cm^3
# Si number density = 21.342704 Si / 1000 Ang^3
#
#
#
# Elastic Constant Matrix: (Units=GPa)
#
#
# Indices 1 2 3 4 5 6 
#
# 1 125.2144 52.4199 51.8968 3.7672 -27.2671 0.8782
# 2 52.4199 114.3999 33.2144 7.5627 -6.1047 5.2260
# 3 51.8968 33.2144 125.2677 1.7906 -6.4959 2.8597
# 4 3.7672 7.5627 1.7906 29.7914 -6.6334 -2.6227
# 5 -27.2671 -6.1047 -6.4959 -6.6334 41.3283 3.2320
# 6 0.8782 5.2260 2.8597 -2.6227 3.2320 31.1791
#
#
#
# Elastic Compliance Matrix: (Units=1/GPa)
#
#
# Indices 1 2 3 4 5 6 
#
# 1 0.013107 -0.004584 -0.003844 0.001435 0.007590 0.000086
# 2 -0.004584 0.011332 -0.001122 -0.002790 -0.001841 -0.001711
# 3 -0.003844 -0.001122 0.009827 -0.000117 -0.001137 -0.000497
# 4 0.001435 -0.002790 -0.000117 0.035690 0.006024 0.002816
# 5 0.007590 -0.001841 -0.001137 0.006024 0.029908 -0.002394
# 6 0.000086 -0.001711 -0.000497 0.002816 -0.002394 0.032888
#
#
# Mechanical properties :
#
#
# Convention : Reuss Voigt Hill
#
# Bulk Modulus (GPa) = 65.93304 71.10490 68.51897
# Shear Modulus (GPa) = 31.86611 35.61650 33.74131
#
# Velocity S-wave (km/s) = 3.86822 4.08952 3.98040
# Velocity P-wave (km/s) = 7.13515 7.46237 7.30059
#
# Compressibility (1/GPa) = 0.01516690
#
# Stress axis : x y z
#
# Youngs Moduli (GPa) = 76.29249 88.24715 101.76165
#
# Poissons Ratio (x) = 0.40451 0.39114
# Poissons Ratio (y) = 0.34971 0.11419
# Poissons Ratio (z) = 0.29325 0.09902
#
# Static dielectric constant tensor:
#      x y z
#    x 4.117710 0.290510 -0.047850 
#    y 0.290510 3.983550 0.062390 
#    z -0.047850 0.062390 3.734640 
# 
# 
# High freq. dielectric constant tensor:
#      x y z
#    x 1.846510 0.007950 -0.007760 
#    y 0.007950 1.844440 0.002990 
#    z -0.007760 0.002990 1.828260 
# 
# From -- ./inp_files/239537.got.cif
#   From: 2010.06.25/outbox.cif.g09.slc.cpg/sg2_120_cif.got.tgz:239537.got - 2010.06.27 13:26:56.
