data_PCOD8011065
_publ_section_title
;
Structure prediction by ZEFSAII (Michael W. Deem and Ramdas Pophale) SiO2 
 PCOD8011065
Probable space group: P -1
;
_chemical_formula_sum "Si O2"
_cell_formula_units_Z 14
_cell_length_a 11.267220
_cell_length_b 11.497814
_cell_length_c 11.594116
_cell_angle_alpha 142.149309
_cell_angle_beta 130.023123
_cell_angle_gamma 42.290308
_cell_volume 613.795968
_symmetry_space_group_name_H-M "P -1"
_symmetry_group_IT_number 2
_symmetry_cell_setting 'triclinic'
loop_
_space_group_symop_operation_xyz
x,y,z
-x,-y,-z
loop_
_atom_site_type_symbol
_atom_site_label
_atom_site_fract_x
_atom_site_fract_y
_atom_site_fract_z
Si Si1 0.484271 0.348559 0.533611
Si Si2 0.917693 0.603424 0.183759
Si Si3 0.182423 0.156828 0.900954
Si Si4 0.044367 0.594070 0.714151
Si Si5 0.666154 0.941667 0.844461
Si Si6 0.788382 0.274406 0.494967
Si Si7 0.393373 0.600226 0.897213
O O1 0.465518 0.132756 0.351917
O O2 0.660545 0.305736 0.545665
O O3 0.307269 0.541220 0.516544
O O4 0.496599 0.410944 0.720426
O O5 0.760854 0.769977 0.127388
O O6 0.865664 0.594309 0.277071
O O7 0.049382 0.703825 0.337595
O O8 0.000772 0.362317 0.993809
O O9 0.143136 0.958577 0.704148
O O10 0.334193 0.090516 0.041697
O O11 0.186143 0.669712 0.830637
O O12 0.000000 0.500000 0.500000
O O13 0.866183 0.800039 0.809950
O O14 0.589401 0.191650 0.962119
O O15 0.500000 0.500000 0.000000
#
# Coordination Sequence:
#
# PCOD8011065 Si02
#       7
#     2   2   2   2   2   2   2
#     4  11  24  41  65  97 129 176 218 271 335 399
#     4  10  22  40  64 102 128 166 225 273 327 395
#     4  10  21  38  66  94 130 166 217 274 331 388
#     4  11  22  46  72  92 137 182 222 270 326 402
#     4  11  23  45  70  94 132 180 226 269 341 396
#     4  11  21  40  64  96 135 167 212 276 336 391
#     4  12  27  47  68  99 135 177 228 276 326 401
#
# _framework density 22.808881
#
# number of rings (size 3 to 8) (size 9 to 14) (size 15 to 20)
#    0.000    1.143    5.714    0.857    0.000    6.857 
#    2.571    0.000    0.000    0.000    0.000    0.000 
#    0.000    0.000    0.000    0.000    0.000    0.000 
#
# Total GULP energy -173592.860120 kJ/mol
# GULP energy per Si atom -12399.490009 kJ/mol
# Density = 2.275697 g / cm^3
# Si number density = 22.808881 Si / 1000 Ang^3
#
#
#
# Elastic Constant Matrix: (Units=GPa)
#
#
# Indices 1 2 3 4 5 6 
#
# 1 84.1918 17.2852 53.7820 -5.5712 -2.9035 27.1023
# 2 17.2852 80.8623 57.7838 -5.1022 -9.7826 40.6474
# 3 53.7820 57.7838 171.6961 5.6877 -8.6325 27.9221
# 4 -5.5712 -5.1022 5.6877 32.2794 15.0975 -4.1101
# 5 -2.9035 -9.7826 -8.6325 15.0975 37.7383 -3.2259
# 6 27.1023 40.6474 27.9221 -4.1101 -3.2259 35.3572
#
#
#
# Elastic Compliance Matrix: (Units=1/GPa)
#
#
# Indices 1 2 3 4 5 6 
#
# 1 0.023419 0.015550 -0.008001 0.004308 -0.000202 -0.029027
# 2 0.015550 0.044756 -0.011020 0.002684 0.004593 -0.053939
# 3 -0.008001 -0.011020 0.010637 -0.004472 0.001607 0.010028
# 4 0.004308 0.002684 -0.004472 0.040555 -0.016188 0.000381
# 5 -0.000202 0.004593 0.001607 -0.016188 0.034075 -0.005167
# 6 -0.029027 -0.053939 0.010028 0.000381 -0.005167 0.104195
#
#
# Mechanical properties :
#
#
# Convention : Reuss Voigt Hill
#
# Bulk Modulus (GPa) = 13.91400 66.05025 39.98212
# Shear Modulus (GPa) = 17.32888 34.93492 26.13190
#
# Velocity S-wave (km/s) = 2.75933 3.91786 3.38848
# Velocity P-wave (km/s) = 4.03304 7.03471 5.73378
#
# Compressibility (1/GPa) = 0.07187006
#
# Stress axis : x y z
#
# Youngs Moduli (GPa) = 42.70116 22.34347 94.00824
#
# Poissons Ratio (x) = -0.34744 0.75220
# Poissons Ratio (y) = -0.66401 1.03593
# Poissons Ratio (z) = 0.34167 0.24621
#
# Static dielectric constant tensor:
#      x y z
#    x 4.559090 0.242590 -0.193260 
#    y 0.242590 4.159200 -0.026020 
#    z -0.193260 -0.026020 4.427670 
# 
# 
# High freq. dielectric constant tensor:
#      x y z
#    x 1.890090 0.019420 -0.004440 
#    y 0.019420 1.895300 -0.001780 
#    z -0.004440 -0.001780 1.919610 
# 
# From -- ./inp_files/402213.got.cif
#   From: 2010.06.25/outbox.cif.g09.slc.cpg/sg2_202_cif.got.tgz:402213.got - 2010.06.27 13:26:56.
