data_PCOD8011156
_publ_section_title
;
Structure prediction by ZEFSAII (Michael W. Deem and Ramdas Pophale) SiO2 
 PCOD8011156
Probable space group: P -1
;
_chemical_formula_sum "Si O2"
_cell_formula_units_Z 16
_cell_length_a 21.456212
_cell_length_b 5.204758
_cell_length_c 9.305309
_cell_angle_alpha 68.675765
_cell_angle_beta 50.273378
_cell_angle_gamma 66.328886
_cell_volume 723.480053
_symmetry_space_group_name_H-M "P -1"
_symmetry_group_IT_number 2
_symmetry_cell_setting 'triclinic'
loop_
_space_group_symop_operation_xyz
x,y,z
-x,-y,-z
loop_
_atom_site_type_symbol
_atom_site_label
_atom_site_fract_x
_atom_site_fract_y
_atom_site_fract_z
Si Si1 0.833534 0.366463 0.200772
Si Si2 0.294484 0.623816 0.371387
Si Si3 0.920605 0.668628 0.500467
Si Si4 0.620278 0.913409 0.962609
Si Si5 0.767997 0.459611 0.816339
Si Si6 0.153639 0.037731 0.007877
Si Si7 0.958235 0.253228 0.276482
Si Si8 0.458786 0.257112 0.166211
O O1 0.766816 0.281849 0.424116
O O2 0.804574 0.697568 0.132935
O O3 0.925297 0.323593 0.147731
O O4 0.838459 0.165452 0.099153
O O5 0.244856 0.500497 0.345028
O O6 0.378251 0.398523 0.354299
O O7 0.319717 0.875987 0.195560
O O8 0.840278 0.621856 0.714020
O O9 0.925278 0.538742 0.359205
O O10 0.000000 0.500000 0.500000
O O11 0.916568 0.002061 0.443468
O O12 0.539395 0.031071 0.164181
O O13 0.680103 0.618357 0.990385
O O14 0.579369 0.890323 0.874530
O O15 0.796020 0.138632 0.898250
O O16 0.057024 0.150606 0.165704
O O17 0.500000 0.500000 0.000000
#
# Coordination Sequence:
#
# PCOD8011156 Si02
#       8
#     2   2   2   2   2   2   2   2
#     4  12  26  44  62  91 125 174 215 265 316 382
#     4  10  21  38  68  92 127 161 218 259 313 378
#     4  12  24  39  68  95 126 161 222 278 323 365
#     4   9  18  34  65  95 129 154 208 258 320 370
#     4  11  24  39  63  94 124 169 209 272 319 378
#     4  12  28  42  62  88 132 169 215 265 328 375
#     4  12  24  44  64  87 120 174 222 268 319 381
#     4   8  16  33  59 104 123 156 194 269 310 373
#
# _framework density 22.115331000000001
#
# number of rings (size 3 to 8) (size 9 to 14) (size 15 to 20)
#    0.000    1.250    2.500    3.375    5.250    0.000 
#    0.000    0.000    0.000    1.500    0.000    0.000 
#    0.000    0.000    0.000    0.000    0.000    0.000 
#
# Total GULP energy -198235.495747 kJ/mol
# GULP energy per Si atom -12389.718484 kJ/mol
# Density = 2.206500 g / cm^3
# Si number density = 22.115331 Si / 1000 Ang^3
#
#
#
# Elastic Constant Matrix: (Units=GPa)
#
#
# Indices 1 2 3 4 5 6 
#
# 1 65.1825 20.0798 22.0896 10.5672 -17.5856 -21.8911
# 2 20.0798 79.1599 11.4686 6.6619 -4.7449 -20.1184
# 3 22.0896 11.4686 44.8851 4.1324 -4.2120 -19.0746
# 4 10.5672 6.6619 4.1324 39.0869 -2.3276 -8.2999
# 5 -17.5856 -4.7449 -4.2120 -2.3276 27.4893 6.5274
# 6 -21.8911 -20.1184 -19.0746 -8.2999 6.5274 52.8783
#
#
#
# Elastic Compliance Matrix: (Units=1/GPa)
#
#
# Indices 1 2 3 4 5 6 
#
# 1 0.024247 -0.002938 -0.008008 -0.003630 0.012540 0.003913
# 2 -0.002938 0.014522 -0.000512 -0.000793 -0.000483 0.004059
# 3 -0.008008 -0.000512 0.029223 0.000594 -0.002447 0.007427
# 4 -0.003630 -0.000793 0.000594 0.027182 -0.000723 0.002765
# 5 0.012540 -0.000483 -0.002447 -0.000723 0.044224 -0.001447
# 6 0.003913 0.004059 0.007427 0.002765 -0.001447 0.025368
#
#
# Mechanical properties :
#
#
# Convention : Reuss Voigt Hill
#
# Bulk Modulus (GPa) = 22.18518 32.94482 27.56500
# Shear Modulus (GPa) = 24.66633 32.93019 28.79826
#
# Velocity S-wave (km/s) = 3.34331 3.86297 3.61250
# Velocity P-wave (km/s) = 4.99570 5.90135 5.46731
#
# Compressibility (1/GPa) = 0.04507513
#
# Stress axis : x y z
#
# Youngs Moduli (GPa) = 41.24303 68.86302 34.22002
#
# Poissons Ratio (x) = 0.20235 0.27403
# Poissons Ratio (y) = 0.12119 0.01751
# Poissons Ratio (z) = 0.33026 0.03523
#
# Static dielectric constant tensor:
#      x y z
#    x 4.142800 -0.340550 -0.336300 
#    y -0.340550 4.701500 0.210590 
#    z -0.336300 0.210590 3.757090 
# 
# 
# High freq. dielectric constant tensor:
#      x y z
#    x 1.874300 -0.003320 -0.034670 
#    y -0.003320 1.896180 0.009420 
#    z -0.034670 0.009420 1.822880 
# 
# From -- ./inp_files/51961.got.cif
#   From: 2010.06.25/outbox.cif.g09.slc.cpg/sg2_26_cif.got.tgz:51961.got - 2010.06.27 13:26:56.
