data_PCOD8011730
_publ_section_title
;
Structure prediction by ZEFSAII (Michael W. Deem and Ramdas Pophale) SiO2 
 PCOD8011730
Probable space group: P -1
;
_chemical_formula_sum "Si O2"
_cell_formula_units_Z 14
_cell_length_a 5.576024
_cell_length_b 13.869144
_cell_length_c 14.313424
_cell_angle_alpha 145.307037
_cell_angle_beta 102.697937
_cell_angle_gamma 76.022006
_cell_volume 610.930333
_symmetry_space_group_name_H-M "P -1"
_symmetry_group_IT_number 2
_symmetry_cell_setting 'triclinic'
loop_
_space_group_symop_operation_xyz
x,y,z
-x,-y,-z
loop_
_atom_site_type_symbol
_atom_site_label
_atom_site_fract_x
_atom_site_fract_y
_atom_site_fract_z
Si Si1 0.206609 0.644934 0.581129
Si Si2 0.659791 0.101549 0.350777
Si Si3 0.271747 0.903171 0.437990
Si Si4 0.955922 0.799139 0.033735
Si Si5 0.334751 0.302095 0.234146
Si Si6 0.222776 0.596961 0.054760
Si Si7 0.793358 0.932524 0.817418
O O1 0.343890 0.726890 0.572414
O O2 0.156732 0.453392 0.393238
O O3 0.386397 0.646455 0.688927
O O4 0.954907 0.759790 0.665921
O O5 0.665612 0.162516 0.505444
O O6 0.404895 0.024757 0.247446
O O7 0.869960 0.947698 0.219318
O O8 0.251120 0.751628 0.246615
O O9 0.500000 0.000000 0.500000
O O10 0.000000 0.000000 0.500000
O O11 0.140918 0.658318 0.991575
O O12 0.737595 0.709619 0.891327
O O13 0.076201 0.893250 0.030742
O O14 0.322303 0.113394 0.129313
O O15 0.500000 0.500000 0.000000
O O16 0.000000 0.500000 0.000000
#
# Coordination Sequence:
#
# PCOD8011730 Si02
#       7
#     2   2   2   2   2   2   2
#     4   9  21  39  60  95 134 172 221 276 347 428
#     4  10  23  40  66  94 131 180 230 281 347 428
#     4  12  25  47  77 102 141 191 246 299 357 433
#     4  11  24  41  66  94 136 176 232 284 359 415
#     4  10  21  39  63  95 136 171 218 283 352 417
#     4  12  29  50  72 110 149 185 245 311 367 423
#     4  10  21  39  64  97 128 174 230 275 343 431
#
# _framework density 22.915869000000001
#
# number of rings (size 3 to 8) (size 9 to 14) (size 15 to 20)
#    0.000    1.429    1.429    2.571    6.000    7.429 
#    0.000    0.000    0.000    0.000    0.000    0.000 
#    0.000    0.000    0.000    0.000    0.000    0.000 
#
# Total GULP energy -173436.164585 kJ/mol
# GULP energy per Si atom -12388.297470 kJ/mol
# Density = 2.286371 g / cm^3
# Si number density = 22.915869 Si / 1000 Ang^3
#
#
#
# Elastic Constant Matrix: (Units=GPa)
#
#
# Indices 1 2 3 4 5 6 
#
# 1 121.0045 42.6610 33.8399 10.9549 9.7843 -13.4891
# 2 42.6610 133.8864 54.3972 -11.9942 12.4205 -19.2927
# 3 33.8399 54.3972 114.0657 -12.7598 15.2940 4.3952
# 4 10.9549 -11.9942 -12.7598 45.1505 -5.5349 5.0093
# 5 9.7843 12.4205 15.2940 -5.5349 36.0463 7.8088
# 6 -13.4891 -19.2927 4.3952 5.0093 7.8088 34.2340
#
#
#
# Elastic Compliance Matrix: (Units=1/GPa)
#
#
# Indices 1 2 3 4 5 6 
#
# 1 0.010893 -0.001803 -0.002699 -0.004811 -0.003015 0.005014
# 2 -0.001803 0.011213 -0.004589 0.001048 -0.002710 0.006663
# 3 -0.002699 -0.004589 0.012522 0.003423 -0.001290 -0.005464
# 4 -0.004811 0.001048 0.003423 0.025901 0.004911 -0.006655
# 5 -0.003015 -0.002710 -0.001290 0.004911 0.033142 -0.010828
# 6 0.005014 0.006663 -0.005464 -0.006655 -0.010828 0.039086
#
#
# Mechanical properties :
#
#
# Convention : Reuss Voigt Hill
#
# Bulk Modulus (GPa) = 60.80062 70.08363 65.44213
# Shear Modulus (GPa) = 31.96498 38.95673 35.46085
#
# Velocity S-wave (km/s) = 3.73887 4.12757 3.93801
# Velocity P-wave (km/s) = 6.72522 7.30514 7.02117
#
# Compressibility (1/GPa) = 0.01644720
#
# Stress axis : x y z
#
# Youngs Moduli (GPa) = 91.80334 89.17987 79.85775
#
# Poissons Ratio (x) = 0.16080 0.21552
# Poissons Ratio (y) = 0.16553 0.36645
# Poissons Ratio (z) = 0.24775 0.40923
#
# Static dielectric constant tensor:
#      x y z
#    x 4.260090 -0.015990 0.321220 
#    y -0.015990 4.284530 0.033390 
#    z 0.321220 0.033390 4.007690 
# 
# 
# High freq. dielectric constant tensor:
#      x y z
#    x 1.910960 -0.012100 0.013090 
#    y -0.012100 1.908440 -0.000800 
#    z 0.013090 -0.000800 1.902100 
# 
# From -- ./inp_files/31997.got.cif
#   From: 2010.06.25/outbox.cif.g09.slc.cpg/sg2_16_cif.got.tgz:31997.got - 2010.06.27 13:26:56.
