data_PCOD8011218
_publ_section_title
;
Structure prediction by ZEFSAII (Michael W. Deem and Ramdas Pophale) SiO2 
 PCOD8011218
Probable space group: P -1
;
_chemical_formula_sum "Si O2"
_cell_formula_units_Z 16
_cell_length_a 11.484696
_cell_length_b 11.763257
_cell_length_c 8.465023
_cell_angle_alpha 56.578540
_cell_angle_beta 49.880515
_cell_angle_gamma 78.222624
_cell_volume 709.238112
_symmetry_space_group_name_H-M "P -1"
_symmetry_group_IT_number 2
_symmetry_cell_setting 'triclinic'
loop_
_space_group_symop_operation_xyz
x,y,z
-x,-y,-z
loop_
_atom_site_type_symbol
_atom_site_label
_atom_site_fract_x
_atom_site_fract_y
_atom_site_fract_z
Si Si1 0.047902 0.649495 0.652285
Si Si2 0.359152 0.712536 0.499599
Si Si3 0.283091 0.509309 0.986325
Si Si4 0.102293 0.136468 0.232180
Si Si5 0.583930 0.752631 0.991612
Si Si6 0.597690 0.004264 0.571429
Si Si7 0.940470 0.108628 0.075829
Si Si8 0.131660 0.639864 0.252797
O O1 0.170838 0.662283 0.677662
O O2 0.156490 0.698645 0.364693
O O3 0.933623 0.748667 0.709164
O O4 0.906998 0.508302 0.869023
O O5 0.390007 0.603883 0.687809
O O6 0.418521 0.870462 0.392256
O O7 0.441642 0.688854 0.282311
O O8 0.352233 0.372236 0.052737
O O9 0.289996 0.600070 0.074712
O O10 0.286605 0.148816 0.083355
O O11 0.068705 0.159315 0.061209
O O12 0.000000 0.000000 0.500000
O O13 0.534878 0.853653 0.825964
O O14 0.779097 0.024710 0.357215
O O15 0.500000 0.000000 0.500000
O O16 0.922465 0.244570 0.893664
O O17 0.000000 0.000000 0.000000
O O18 0.000000 0.500000 0.500000
#
# Coordination Sequence:
#
# PCOD8011218 Si02
#       8
#     2   2   2   2   2   2   2   2
#     4  10  21  38  71  95 134 174 224 270 336 396
#     4  12  23  45  67  98 135 182 223 273 342 399
#     4  10  22  44  68 100 137 171 226 280 333 399
#     4  11  20  42  66 100 130 172 225 284 322 393
#     4  11  26  42  69 100 135 178 228 274 335 401
#     4  12  28  47  66  95 141 179 223 278 341 401
#     4  12  25  41  72  99 133 173 229 276 336 392
#     4  10  22  40  66 103 135 172 216 278 337 391
#
# _framework density 22.559418999999998
#
# number of rings (size 3 to 8) (size 9 to 14) (size 15 to 20)
#    0.000    1.000    3.750    1.875    7.000    3.000 
#    0.000    3.750    0.000    0.000    0.000    0.000 
#    0.000    0.000    0.000    0.000    0.000    0.000 
#
# Total GULP energy -198232.666545 kJ/mol
# GULP energy per Si atom -12389.541659 kJ/mol
# Density = 2.250807 g / cm^3
# Si number density = 22.559419 Si / 1000 Ang^3
#
#
#
# Elastic Constant Matrix: (Units=GPa)
#
#
# Indices 1 2 3 4 5 6 
#
# 1 74.6815 21.9229 11.5274 7.2302 16.8495 -2.7716
# 2 21.9229 131.4308 42.7597 10.7872 27.5525 -6.4223
# 3 11.5274 42.7597 129.0961 2.2147 30.0777 -10.5972
# 4 7.2302 10.7872 2.2147 38.6075 -5.1705 9.4488
# 5 16.8495 27.5525 30.0777 -5.1705 40.0651 2.6581
# 6 -2.7716 -6.4223 -10.5972 9.4488 2.6581 24.6691
#
#
#
# Elastic Compliance Matrix: (Units=1/GPa)
#
#
# Indices 1 2 3 4 5 6 
#
# 1 0.015922 -0.000672 0.001192 -0.005170 -0.008126 0.004982
# 2 -0.000672 0.010124 -0.001314 -0.004603 -0.006584 0.004468
# 3 0.001192 -0.001314 0.010621 -0.003177 -0.008411 0.006477
# 4 -0.005170 -0.004603 -0.003177 0.034481 0.013355 -0.017790
# 5 -0.008126 -0.006584 -0.008411 0.013355 0.041996 -0.015880
# 6 0.004982 0.004468 0.006477 -0.017790 -0.015880 0.053567
#
#
# Mechanical properties :
#
#
# Convention : Reuss Voigt Hill
#
# Bulk Modulus (GPa) = 28.50676 54.18094 41.34385
# Shear Modulus (GPa) = 27.77891 37.93490 32.85690
#
# Velocity S-wave (km/s) = 3.51289 4.10512 3.82050
# Velocity P-wave (km/s) = 5.39607 6.82192 6.15045
#
# Compressibility (1/GPa) = 0.03507940
#
# Stress axis : x y z
#
# Youngs Moduli (GPa) = 62.80437 98.77047 94.15586
#
# Poissons Ratio (x) = 0.06641 -0.11223
# Poissons Ratio (y) = 0.04223 0.12369
# Poissons Ratio (z) = -0.07486 0.12975
#
# Static dielectric constant tensor:
#      x y z
#    x 5.842400 0.162720 0.644640 
#    y 0.162720 4.134750 0.222450 
#    z 0.644640 0.222450 4.331020 
# 
# 
# High freq. dielectric constant tensor:
#      x y z
#    x 1.877130 0.009160 0.006410 
#    y 0.009160 1.900500 0.004740 
#    z 0.006410 0.004740 1.897770 
# 
# From -- ./inp_files/243738.got.cif
#   From: 2010.06.25/outbox.cif.g09.slc.cpg/sg2_122_cif.got.tgz:243738.got - 2010.06.27 13:26:56.
