data_PCOD8011889
_publ_section_title
;
Structure prediction by ZEFSAII (Michael W. Deem and Ramdas Pophale) SiO2 
 PCOD8011889
Probable space group: P -1
;
_chemical_formula_sum "Si O2"
_cell_formula_units_Z 16
_cell_length_a 6.620689
_cell_length_b 12.958035
_cell_length_c 23.133934
_cell_angle_alpha 147.528785
_cell_angle_beta 53.939058
_cell_angle_gamma 105.746677
_cell_volume 736.292420
_symmetry_space_group_name_H-M "P -1"
_symmetry_group_IT_number 2
_symmetry_cell_setting 'triclinic'
loop_
_space_group_symop_operation_xyz
x,y,z
-x,-y,-z
loop_
_atom_site_type_symbol
_atom_site_label
_atom_site_fract_x
_atom_site_fract_y
_atom_site_fract_z
Si Si1 0.192054 0.231149 0.665316
Si Si2 0.560466 0.764180 0.720391
Si Si3 0.749680 0.413238 0.105555
Si Si4 0.121500 0.010583 0.368428
Si Si5 0.488903 0.797387 0.878379
Si Si6 0.116876 0.623615 0.325324
Si Si7 0.858545 0.259854 0.413303
Si Si8 0.714610 0.962934 0.217054
O O1 0.178208 0.411366 0.796535
O O2 0.937698 0.191888 0.712527
O O3 0.120877 0.343842 0.666726
O O4 0.500000 0.000000 0.500000
O O5 0.413864 0.838328 0.842807
O O6 0.610849 0.522007 0.580755
O O7 0.858763 0.765491 0.677358
O O8 0.353586 0.937356 0.788782
O O9 0.764806 0.233396 0.065101
O O10 0.414002 0.559360 0.209056
O O11 0.977626 0.274627 0.950176
O O12 0.465033 0.916416 0.258671
O O13 0.003969 0.144758 0.511209
O O14 0.933271 0.171032 0.423693
O O15 0.807713 0.573426 0.733537
O O16 0.500000 0.000000 0.000000
O O17 0.733843 0.130171 0.337508
#
# Coordination Sequence:
#
# PCOD8011889 Si02
#       8
#     2   2   2   2   2   2   2   2
#     4  12  25  45  75  96 128 173 230 289 332 386
#     4  10  21  39  64  98 136 180 229 266 324 404
#     4  10  25  44  62 104 132 173 220 270 337 401
#     4  11  24  43  69  97 127 177 229 279 325 400
#     4  10  21  42  68  97 140 174 212 275 334 393
#     4  10  24  44  68  99 132 168 225 275 330 399
#     4  10  21  42  61  96 138 176 228 270 330 395
#     4  11  25  40  66  98 140 176 221 275 336 395
#
# _framework density 21.730495999999999
#
# number of rings (size 3 to 8) (size 9 to 14) (size 15 to 20)
#    0.750    0.750    2.500    1.500    3.500    2.000 
#    4.500    1.250    0.000    0.000    0.000    0.000 
#    0.000    0.000    0.000    0.000    0.000    0.000 
#
# Total GULP energy -198342.963562 kJ/mol
# GULP energy per Si atom -12396.435223 kJ/mol
# Density = 2.168104 g / cm^3
# Si number density = 21.730496 Si / 1000 Ang^3
#
#
#
# Elastic Constant Matrix: (Units=GPa)
#
#
# Indices 1 2 3 4 5 6 
#
# 1 90.7371 17.7010 42.3763 -0.3358 9.9067 5.1262
# 2 17.7010 61.3440 21.9308 -2.4388 0.1315 13.4322
# 3 42.3763 21.9308 117.5246 -8.2960 6.7187 14.4102
# 4 -0.3358 -2.4388 -8.2960 25.7322 10.8260 4.9147
# 5 9.9067 0.1315 6.7187 10.8260 34.7097 9.8122
# 6 5.1262 13.4322 14.4102 4.9147 9.8122 36.2479
#
#
#
# Elastic Compliance Matrix: (Units=1/GPa)
#
#
# Indices 1 2 3 4 5 6 
#
# 1 0.013983 -0.002823 -0.004580 -0.000457 -0.003487 0.001895
# 2 -0.002823 0.019328 -0.001781 0.001460 0.002587 -0.006953
# 3 -0.004580 -0.001781 0.011322 0.004650 -0.001350 -0.003458
# 4 -0.000457 0.001460 0.004650 0.047393 -0.014168 -0.004916
# 5 -0.003487 0.002587 -0.001350 -0.014168 0.036723 -0.007949
# 6 0.001895 -0.006953 -0.003458 -0.004916 -0.007949 0.034089
#
#
# Mechanical properties :
#
#
# Convention : Reuss Voigt Hill
#
# Bulk Modulus (GPa) = 38.07476 48.18020 43.12748
# Shear Modulus (GPa) = 26.32111 31.84448 29.08279
#
# Velocity S-wave (km/s) = 3.48408 3.83224 3.66230
# Velocity P-wave (km/s) = 5.80900 6.46539 6.14596
#
# Compressibility (1/GPa) = 0.02626412
#
# Stress axis : x y z
#
# Youngs Moduli (GPa) = 71.51764 51.73877 88.32177
#
# Poissons Ratio (x) = 0.14606 0.40454
# Poissons Ratio (y) = 0.20189 0.15731
# Poissons Ratio (z) = 0.32757 0.09215
#
# Static dielectric constant tensor:
#      x y z
#    x 3.846960 0.044950 -0.036480 
#    y 0.044950 3.930560 0.044440 
#    z -0.036480 0.044440 3.796150 
# 
# 
# High freq. dielectric constant tensor:
#      x y z
#    x 1.853580 0.002470 0.003670 
#    y 0.002470 1.852090 0.002830 
#    z 0.003670 0.002830 1.849360 
# 
# From -- ./inp_files/604754.got.cif
#   From: 2010.06.25/outbox.cif.g09.slc.cpg/sg2_303_cif.got.tgz:604754.got - 2010.06.27 13:26:56.
