data_PCOD8011168
_publ_section_title
;
Structure prediction by ZEFSAII (Michael W. Deem and Ramdas Pophale) SiO2 
 PCOD8011168
Probable space group: P -1
;
_chemical_formula_sum "Si O2"
_cell_formula_units_Z 16
_cell_length_a 13.951291
_cell_length_b 9.161051
_cell_length_c 11.426122
_cell_angle_alpha 82.083426
_cell_angle_beta 149.834169
_cell_angle_gamma 108.755605
_cell_volume 663.993379
_symmetry_space_group_name_H-M "P -1"
_symmetry_group_IT_number 2
_symmetry_cell_setting 'triclinic'
loop_
_space_group_symop_operation_xyz
x,y,z
-x,-y,-z
loop_
_atom_site_type_symbol
_atom_site_label
_atom_site_fract_x
_atom_site_fract_y
_atom_site_fract_z
Si Si1 0.767988 0.708331 0.001638
Si Si2 0.986368 0.965916 0.656881
Si Si3 0.294439 0.338138 0.315950
Si Si4 0.983157 0.520787 0.341322
Si Si5 0.414531 0.783573 0.697085
Si Si6 0.339778 0.074388 0.849461
Si Si7 0.500586 0.903499 0.394098
Si Si8 0.047424 0.707174 0.870474
O O1 0.773830 0.548774 0.087442
O O2 0.833306 0.712879 0.934937
O O3 0.534993 0.706907 0.747729
O O4 0.939440 0.851704 0.241474
O O5 0.744754 0.883545 0.366332
O O6 0.017743 0.872839 0.810791
O O7 0.132115 0.948155 0.707828
O O8 0.500000 0.500000 0.500000
O O9 0.339207 0.184041 0.425332
O O10 0.141812 0.390332 0.230731
O O11 0.173437 0.675779 0.471905
O O12 0.000000 0.500000 0.500000
O O13 0.977656 0.370042 0.276991
O O14 0.445662 0.964179 0.669320
O O15 0.535002 0.780298 0.946514
O O16 0.500000 0.000000 0.000000
O O17 0.500000 0.000000 0.500000
O O18 0.276464 0.753113 0.159321
#
# Coordination Sequence:
#
# PCOD8011168 Si02
#       8
#     2   2   2   2   2   2   2   2
#     4  11  24  49  73 105 147 193 249 305 374 443
#     4  10  23  42  69 106 137 182 248 304 354 437
#     4  12  28  48  76 111 155 198 243 312 383 448
#     4  12  31  49  75 106 156 201 247 308 390 440
#     4  11  25  47  73 110 145 194 254 306 365 454
#     4  10  21  38  68  97 142 182 236 300 358 418
#     4  12  26  48  81 112 150 197 258 303 374 448
#     4  12  28  48  73 112 148 194 252 310 375 444
#
# _framework density 24.096627000000002
#
# number of rings (size 3 to 8) (size 9 to 14) (size 15 to 20)
#    0.000    0.750    3.750    2.250   12.250    2.500 
#    2.250    0.000    0.000    0.000    0.000    0.000 
#    0.000    0.000    0.000    0.000    0.000    0.000 
#
# Total GULP energy -198236.951837 kJ/mol
# GULP energy per Si atom -12389.809490 kJ/mol
# Density = 2.404178 g / cm^3
# Si number density = 24.096627 Si / 1000 Ang^3
#
#
#
# Elastic Constant Matrix: (Units=GPa)
#
#
# Indices 1 2 3 4 5 6 
#
# 1 123.4572 36.4638 40.7287 3.4550 -11.6142 -18.9091
# 2 36.4638 88.9130 29.9257 -14.1324 5.2635 -4.4411
# 3 40.7287 29.9257 118.5604 -6.9582 -12.2965 -3.1545
# 4 3.4550 -14.1324 -6.9582 48.1417 0.0172 1.6090
# 5 -11.6142 5.2635 -12.2965 0.0172 43.3219 2.8283
# 6 -18.9091 -4.4411 -3.1545 1.6090 2.8283 31.9739
#
#
#
# Elastic Compliance Matrix: (Units=1/GPa)
#
#
# Indices 1 2 3 4 5 6 
#
# 1 0.011345 -0.004030 -0.002627 -0.002572 0.002407 0.005807
# 2 -0.004030 0.014570 -0.002422 0.004234 -0.003507 -0.000501
# 3 -0.002627 -0.002422 0.010243 0.000996 0.002572 -0.001157
# 4 -0.002572 0.004234 0.000996 0.022407 -0.000807 -0.001891
# 5 0.002407 -0.003507 0.002572 -0.000807 0.024949 -0.000976
# 6 0.005807 -0.000501 -0.001157 -0.001891 -0.000976 0.034707
#
#
# Mechanical properties :
#
#
# Convention : Reuss Voigt Hill
#
# Bulk Modulus (GPa) = 55.55307 60.57413 58.06360
# Shear Modulus (GPa) = 35.11797 39.60834 37.36315
#
# Velocity S-wave (km/s) = 3.82171 4.05869 3.94198
# Velocity P-wave (km/s) = 6.52520 6.86706 6.69831
#
# Compressibility (1/GPa) = 0.01800080
#
# Stress axis : x y z
#
# Youngs Moduli (GPa) = 88.14834 68.63294 97.63074
#
# Poissons Ratio (x) = 0.27656 0.25646
# Poissons Ratio (y) = 0.35520 0.23646
# Poissons Ratio (z) = 0.23155 0.16622
#
# Static dielectric constant tensor:
#      x y z
#    x 3.864360 0.167970 0.405580 
#    y 0.167970 4.015810 -0.334310 
#    z 0.405580 -0.334310 4.304950 
# 
# 
# High freq. dielectric constant tensor:
#      x y z
#    x 1.968170 -0.017180 -0.004520 
#    y -0.017180 1.935580 -0.013810 
#    z -0.004520 -0.013810 1.968840 
# 
# From -- ./inp_files/447423.got.cif
#   From: 2010.06.25/outbox.cif.g09.slc.cpg/sg2_224_cif.got.tgz:447423.got - 2010.06.27 13:26:56.
