data_PCOD8011679
_publ_section_title
;
Structure prediction by ZEFSAII (Michael W. Deem and Ramdas Pophale) SiO2 
 PCOD8011679
Probable space group: P -1
;
_chemical_formula_sum "Si O2"
_cell_formula_units_Z 16
_cell_length_a 11.802341
_cell_length_b 9.519012
_cell_length_c 9.340229
_cell_angle_alpha 75.277505
_cell_angle_beta 60.120747
_cell_angle_gamma 59.747176
_cell_volume 785.941187
_symmetry_space_group_name_H-M "P -1"
_symmetry_group_IT_number 2
_symmetry_cell_setting 'triclinic'
loop_
_space_group_symop_operation_xyz
x,y,z
-x,-y,-z
loop_
_atom_site_type_symbol
_atom_site_label
_atom_site_fract_x
_atom_site_fract_y
_atom_site_fract_z
Si Si1 0.747015 0.126497 0.626488
Si Si2 0.402290 0.298853 0.298852
Si Si3 0.159081 0.608103 0.463197
Si Si4 0.597443 0.330666 0.407970
Si Si5 0.402554 0.928108 0.005419
Si Si6 0.831656 0.729582 0.964233
Si Si7 0.168342 0.561231 0.795895
Si Si8 0.159081 0.232801 0.377731
O O1 0.847655 0.215682 0.563250
O O2 0.648145 0.193129 0.531568
O O3 0.847663 0.936676 0.589070
O O4 0.648151 0.158717 0.820276
O O5 0.289205 0.492021 0.304478
O O6 0.507221 0.274255 0.372419
O O7 0.507225 0.218533 0.120344
O O8 0.289211 0.218762 0.406316
O O9 0.188449 0.523588 0.623161
O O10 0.999997 0.638235 0.496642
O O11 0.500000 0.500000 0.500000
O O12 0.732165 0.350011 0.242016
O O13 0.500000 0.000000 0.000000
O O14 0.267834 0.082173 0.974183
O O15 0.811545 0.712066 0.811604
O O16 0.000001 0.682771 0.908215
O O17 0.780119 0.609944 0.109934
#
# Coordination Sequence:
#
# PCOD8011679 Si02
#       8
#     2   2   2   2   2   2   2   2
#     4  10  21  42  64  88 123 164 202 248 313 354
#     4  12  23  40  61  94 122 166 200 256 303 362
#     4  10  21  39  63  92 122 157 207 253 303 362
#     4  11  23  40  61  91 127 159 202 252 305 366
#     4  11  23  40  61  91 127 159 202 252 305 366
#     4   9  19  39  65  86 118 164 204 247 301 362
#     4   9  19  39  65  86 118 164 204 247 301 362
#     4  10  21  39  63  92 122 157 207 253 303 362
#
# _framework density 20.357756999999999
#
# number of rings (size 3 to 8) (size 9 to 14) (size 15 to 20)
#    0.000    1.750    5.000    0.750    1.750    2.000 
#    4.500    0.625    0.000    0.000    0.000    0.000 
#    0.000    0.000    0.000    0.000    0.000    0.000 
#
# Total GULP energy -198272.559800 kJ/mol
# GULP energy per Si atom -12392.034987 kJ/mol
# Density = 2.031142 g / cm^3
# Si number density = 20.357757 Si / 1000 Ang^3
#
#
#
# Elastic Constant Matrix: (Units=GPa)
#
#
# Indices 1 2 3 4 5 6 
#
# 1 124.5191 60.1252 59.9553 12.1962 -10.6625 -4.0047
# 2 60.1252 111.8061 69.6616 -1.0419 -5.0279 2.0267
# 3 59.9553 69.6616 97.1662 -12.2240 -2.2372 -9.5876
# 4 12.1962 -1.0419 -12.2240 40.7404 0.9751 -1.6649
# 5 -10.6625 -5.0279 -2.2372 0.9751 17.7177 8.8041
# 6 -4.0047 2.0267 -9.5876 -1.6649 8.8041 28.6661
#
#
#
# Elastic Compliance Matrix: (Units=1/GPa)
#
#
# Indices 1 2 3 4 5 6 
#
# 1 0.014595 -0.001999 -0.008690 -0.007424 0.009561 -0.004094
# 2 -0.001999 0.018714 -0.013276 -0.003408 0.006750 -0.008314
# 3 -0.008690 -0.013276 0.027654 0.011424 -0.012890 0.013596
# 4 -0.007424 -0.003408 0.011424 0.030652 -0.009520 0.007728
# 5 0.009561 0.006750 -0.012890 -0.009520 0.076703 -0.027563
# 6 -0.004094 -0.008314 0.013596 0.007728 -0.027563 0.048362
#
#
# Mechanical properties :
#
#
# Convention : Reuss Voigt Hill
#
# Bulk Modulus (GPa) = 76.74011 79.21950 77.97981
# Shear Modulus (GPa) = 18.59058 27.00814 22.79936
#
# Velocity S-wave (km/s) = 3.02519 3.64631 3.35017
# Velocity P-wave (km/s) = 7.06965 7.53164 7.30430
#
# Compressibility (1/GPa) = 0.01303099
#
# Stress axis : x y z
#
# Youngs Moduli (GPa) = 68.51887 53.43715 36.16124
#
# Poissons Ratio (x) = 0.10682 0.31424
# Poissons Ratio (y) = 0.13697 0.48009
# Poissons Ratio (z) = 0.59543 0.70946
#
# Static dielectric constant tensor:
#      x y z
#    x 4.246100 -0.345540 -0.416130 
#    y -0.345540 3.861320 0.230170 
#    z -0.416130 0.230170 3.588120 
# 
# 
# High freq. dielectric constant tensor:
#      x y z
#    x 1.802330 -0.013520 -0.021990 
#    y -0.013520 1.796500 0.001890 
#    z -0.021990 0.001890 1.776470 
# 
# From -- ./inp_files/242885.got.cif
#   From: 2010.06.25/outbox.cif.g09.slc.cpg/sg2_122_cif.got.tgz:242885.got - 2010.06.27 13:26:56.
