data_PCOD8011654
_publ_section_title
;
Structure prediction by ZEFSAII (Michael W. Deem and Ramdas Pophale) SiO2 
 PCOD8011654
Probable space group: P -1
;
_chemical_formula_sum "Si O2"
_cell_formula_units_Z 10
_cell_length_a 8.817616
_cell_length_b 6.938914
_cell_length_c 11.279826
_cell_angle_alpha 128.750255
_cell_angle_beta 90.550266
_cell_angle_gamma 121.595209
_cell_volume 394.860045
_symmetry_space_group_name_H-M "P -1"
_symmetry_group_IT_number 2
_symmetry_cell_setting 'triclinic'
loop_
_space_group_symop_operation_xyz
x,y,z
-x,-y,-z
loop_
_atom_site_type_symbol
_atom_site_label
_atom_site_fract_x
_atom_site_fract_y
_atom_site_fract_z
Si Si1 0.186359 0.052064 0.574578
Si Si2 0.000534 0.536454 0.809370
Si Si3 0.474550 0.662669 0.666333
Si Si4 0.756546 0.400757 0.971005
Si Si5 0.307235 0.991976 0.795383
O O1 0.191000 0.020683 0.704539
O O2 0.167822 0.763579 0.398490
O O3 0.400583 0.425169 0.687855
O O4 0.000000 0.000000 0.500000
O O5 0.175365 0.884227 0.872898
O O6 0.885114 0.587902 0.922850
O O7 0.107869 0.424201 0.840538
O O8 0.500000 0.500000 0.500000
O O9 0.307553 0.698046 0.649360
O O10 0.693206 0.037523 0.836145
O O11 0.550588 0.344062 0.949696
#
# Coordination Sequence:
#
# PCOD8011654 Si02
#       5
#     2   2   2   2   2
#     4  12  22  39  65  94 117 167 217 248 300 375
#     4  11  20  39  66  91 125 162 205 256 310 364
#     4  10  21  39  63  91 122 161 207 251 304 373
#     4   9  22  40  63  92 125 165 199 257 312 365
#     4  10  23  40  65  88 131 163 199 258 316 354
#
# _framework density 25.325430000000001
#
# number of rings (size 3 to 8) (size 9 to 14) (size 15 to 20)
#    1.200    0.400    4.000    1.200    0.000    3.200 
#    0.000    4.000    0.000    6.000    0.000    0.000 
#    0.000    0.000    0.000    0.000    0.000    0.000 
#
# Total GULP energy -123891.365583 kJ/mol
# GULP energy per Si atom -12389.136558 kJ/mol
# Density = 2.526779 g / cm^3
# Si number density = 25.325430 Si / 1000 Ang^3
#
#
#
# Elastic Constant Matrix: (Units=GPa)
#
#
# Indices 1 2 3 4 5 6 
#
# 1 84.9891 75.0402 23.5254 -16.2064 8.3749 15.8622
# 2 75.0402 94.8688 28.0388 -57.0485 9.0059 42.3687
# 3 23.5254 28.0388 93.1809 -35.4491 17.1805 12.2814
# 4 -16.2064 -57.0485 -35.4491 47.0109 3.7723 -4.1231
# 5 8.3749 9.0059 17.1805 3.7723 27.2064 -6.2009
# 6 15.8622 42.3687 12.2814 -4.1231 -6.2009 47.8398
#
#
#
# Elastic Compliance Matrix: (Units=1/GPa)
#
#
# Indices 1 2 3 4 5 6 
#
# 1 0.010216 0.008039 0.006398 0.018223 -0.015234 -0.012554
# 2 0.008039 -0.015866 -0.012183 -0.025786 0.017360 0.014541
# 3 0.006398 -0.012183 0.011668 -0.003047 -0.003760 0.004923
# 4 0.018223 -0.025786 -0.003047 -0.005206 0.009765 0.018394
# 5 -0.015234 0.017360 -0.003760 0.009765 0.035837 -0.003872
# 6 -0.012554 0.014541 0.004923 0.018394 -0.003872 0.012007
#
#
# Mechanical properties :
#
#
# Convention : Reuss Voigt Hill
#
# Bulk Modulus (GPa) = 95.00155 58.47193 76.73674
# Shear Modulus (GPa) = 104.91583 34.17370 69.54476
#
# Velocity S-wave (km/s) = 6.44337 3.67738 5.24596
# Velocity P-wave (km/s) = 9.64105 6.41632 8.18898
#
# Compressibility (1/GPa) = 0.01052614
#
# Stress axis : x y z
#
# Youngs Moduli (GPa) = 97.88166 -63.02888 85.70606
#
# Poissons Ratio (x) = 0.50669 -0.54833
# Poissons Ratio (y) = -0.78687 1.04415
# Poissons Ratio (z) = -0.62622 -0.76787
#
# Static dielectric constant tensor:
#      x y z
#    x 4.289360 0.433130 0.074790 
#    y 0.433130 5.147890 0.385580 
#    z 0.074790 0.385580 4.698460 
# 
# 
# High freq. dielectric constant tensor:
#      x y z
#    x 1.988310 0.014360 -0.008530 
#    y 0.014360 2.017400 0.002170 
#    z -0.008530 0.002170 2.006820 
# 
# From -- ./inp_files/20989.got.cif
#   From: 2010.06.25/outbox.cif.g09.slc.cpg/sg2_11_cif.got.tgz:20989.got - 2010.06.27 13:26:56.
