data_PCOD8011370
_publ_section_title
;
Structure prediction by ZEFSAII (Michael W. Deem and Ramdas Pophale) SiO2 
 PCOD8011370
Probable space group: P -1
;
_chemical_formula_sum "Si O2"
_cell_formula_units_Z 14
_cell_length_a 14.310398
_cell_length_b 11.264772
_cell_length_c 11.602180
_cell_angle_alpha 145.935678
_cell_angle_beta 128.903057
_cell_angle_gamma 38.358077
_cell_volume 648.860929
_symmetry_space_group_name_H-M "P -1"
_symmetry_group_IT_number 2
_symmetry_cell_setting 'triclinic'
loop_
_space_group_symop_operation_xyz
x,y,z
-x,-y,-z
loop_
_atom_site_type_symbol
_atom_site_label
_atom_site_fract_x
_atom_site_fract_y
_atom_site_fract_z
Si Si1 0.884101 0.447427 0.900679
Si Si2 0.661188 0.034650 0.164549
Si Si3 0.167641 0.710942 0.499888
Si Si4 0.441175 0.126476 0.237157
Si Si5 0.992619 0.022891 0.823139
Si Si6 0.755941 0.201880 0.973952
Si Si7 0.520060 0.819822 0.267832
O O1 0.889569 0.266440 0.656677
O O2 0.922684 0.310307 0.944708
O O3 0.000000 0.500000 0.000000
O O4 0.726021 0.737243 0.018510
O O5 0.775492 0.106707 0.304400
O O6 0.527622 0.212540 0.296400
O O7 0.597179 0.052622 0.002770
O O8 0.291733 0.407117 0.389123
O O9 0.039168 0.824309 0.590552
O O10 0.543303 0.945784 0.277290
O O11 0.862789 0.054804 0.826247
O O12 0.140393 0.919311 0.929564
O O13 0.633888 0.147420 0.839590
O O14 0.668572 0.518811 0.157056
O O15 0.500000 0.000000 0.500000
#
# Coordination Sequence:
#
# PCOD8011370 Si02
#       7
#     2   2   2   2   2   2   2
#     4  11  23  38  61  93 125 161 199 255 313 369
#     4  10  21  39  60  93 125 163 199 249 319 369
#     4  11  22  38  63  94 125 162 202 251 320 374
#     4  10  22  38  63  90 124 159 206 258 300 373
#     4  11  22  44  64  93 128 165 206 259 314 369
#     4  10  25  44  65  89 127 167 211 261 305 363
#     4  11  23  44  64  91 120 168 215 255 308 361
#
# _framework density 21.576273
#
# number of rings (size 3 to 8) (size 9 to 14) (size 15 to 20)
#    0.000    1.429    1.429    3.429    2.000    2.286 
#    2.571    2.143    0.000    0.000    0.000    0.000 
#    0.000    0.000    0.000    0.000    0.000    0.000 
#
# Total GULP energy -173553.240882 kJ/mol
# GULP energy per Si atom -12396.660063 kJ/mol
# Density = 2.152716 g / cm^3
# Si number density = 21.576273 Si / 1000 Ang^3
#
#
#
# Elastic Constant Matrix: (Units=GPa)
#
#
# Indices 1 2 3 4 5 6 
#
# 1 80.6457 20.2794 36.0127 -6.1175 -17.9244 2.2726
# 2 20.2794 114.9672 32.3006 -13.4808 -13.5867 22.1041
# 3 36.0127 32.3006 106.6024 -4.4151 -11.2498 6.8851
# 4 -6.1175 -13.4808 -4.4151 28.6571 -2.4685 -3.1561
# 5 -17.9244 -13.5867 -11.2498 -2.4685 30.6487 -0.1430
# 6 2.2726 22.1041 6.8851 -3.1561 -0.1430 39.1471
#
#
#
# Elastic Compliance Matrix: (Units=1/GPa)
#
#
# Indices 1 2 3 4 5 6 
#
# 1 0.016564 -0.000357 -0.004508 0.003413 0.008151 0.000338
# 2 -0.000357 0.011607 -0.002362 0.004772 0.004427 -0.005717
# 3 -0.004508 -0.002362 0.011701 -0.000273 0.000587 -0.000482
# 4 0.003413 0.004772 -0.000273 0.038470 0.007111 0.000283
# 5 0.008151 0.004427 0.000587 0.007111 0.040134 -0.002356
# 6 0.000338 -0.005717 -0.000482 0.000283 -0.002356 0.028852
#
#
# Mechanical properties :
#
#
# Convention : Reuss Voigt Hill
#
# Bulk Modulus (GPa) = 39.34278 53.26675 46.30477
# Shear Modulus (GPa) = 29.36798 33.93208 31.65003
#
# Velocity S-wave (km/s) = 3.69334 3.96998 3.83416
# Velocity P-wave (km/s) = 6.03834 6.76428 6.41160
#
# Compressibility (1/GPa) = 0.02541762
#
# Stress axis : x y z
#
# Youngs Moduli (GPa) = 60.37367 86.15845 85.46249
#
# Poissons Ratio (x) = 0.03073 0.38525
# Poissons Ratio (y) = 0.02154 0.20188
# Poissons Ratio (z) = 0.27215 0.20353
#
# Static dielectric constant tensor:
#      x y z
#    x 3.796790 -0.294710 -0.370500 
#    y -0.294710 4.784610 0.801200 
#    z -0.370500 0.801200 4.452060 
# 
# 
# High freq. dielectric constant tensor:
#      x y z
#    x 1.845010 -0.002830 -0.016990 
#    y -0.002830 1.865840 0.005640 
#    z -0.016990 0.005640 1.841780 
# 
# From -- ./inp_files/108812.got.cif
#   From: 2010.06.25/outbox.cif.g09.slc.cpg/sg2_55_cif.got.tgz:108812.got - 2010.06.27 13:26:56.
