data_PCOD8011374
_publ_section_title
;
Structure prediction by ZEFSAII (Michael W. Deem and Ramdas Pophale) SiO2 
 PCOD8011374
Probable space group: P -1
;
_chemical_formula_sum "Si O2"
_cell_formula_units_Z 16
_cell_length_a 9.052437
_cell_length_b 13.971571
_cell_length_c 19.139156
_cell_angle_alpha 158.332640
_cell_angle_beta 118.646023
_cell_angle_gamma 62.152951
_cell_volume 782.609864
_symmetry_space_group_name_H-M "P -1"
_symmetry_group_IT_number 2
_symmetry_cell_setting 'triclinic'
loop_
_space_group_symop_operation_xyz
x,y,z
-x,-y,-z
loop_
_atom_site_type_symbol
_atom_site_label
_atom_site_fract_x
_atom_site_fract_y
_atom_site_fract_z
Si Si1 0.206236 0.897625 0.736650
Si Si2 0.305979 0.020095 0.486663
Si Si3 0.729888 0.881589 0.306088
Si Si4 0.012595 0.799745 0.208164
Si Si5 0.819183 0.698244 0.712891
Si Si6 0.766790 0.447993 0.124303
Si Si7 0.919149 0.938121 0.036667
Si Si8 0.481102 0.967393 0.186877
O O1 0.180134 0.609852 0.506274
O O2 0.378281 0.013013 0.827625
O O3 0.202785 0.935934 0.845302
O O4 0.046258 0.074275 0.792440
O O5 0.277621 0.932199 0.501246
O O6 0.500000 0.000000 0.500000
O O7 0.209353 0.839245 0.290405
O O8 0.223973 0.314759 0.657694
O O9 0.898532 0.925748 0.330746
O O10 0.566679 0.975712 0.287798
O O11 0.729849 0.578359 0.127216
O O12 0.000000 0.500000 0.000000
O O13 0.660083 0.800041 0.699071
O O14 0.804497 0.795353 0.856593
O O15 0.993075 0.812246 0.804580
O O16 0.939892 0.271314 0.043255
O O17 0.609596 0.300215 0.017548
#
# Coordination Sequence:
#
# PCOD8011374 Si02
#       8
#     2   2   2   2   2   2   2   2
#     4  11  23  39  65  92 124 162 218 256 320 374
#     4  10  23  37  60  90 129 164 206 255 316 376
#     4   9  21  38  62  85 128 162 203 249 317 370
#     4  11  23  39  62  94 126 163 211 256 317 384
#     4  10  22  41  64  87 128 159 218 258 318 369
#     4   9  20  38  61  88 130 160 207 250 321 371
#     4  10  21  41  65  92 115 171 208 267 311 377
#     4  10  21  39  60  94 123 171 200 264 314 374
#
# _framework density 20.444412
#
# number of rings (size 3 to 8) (size 9 to 14) (size 15 to 20)
#    0.750    1.250    0.000    3.000    3.500    2.500 
#    4.500    3.750    0.000    0.000    0.000    0.000 
#    0.000    0.000    0.000    0.000    0.000    0.000 
#
# Total GULP energy -198253.851609 kJ/mol
# GULP energy per Si atom -12390.865726 kJ/mol
# Density = 2.039788 g / cm^3
# Si number density = 20.444412 Si / 1000 Ang^3
#
#
#
# Elastic Constant Matrix: (Units=GPa)
#
#
# Indices 1 2 3 4 5 6 
#
# 1 70.9730 16.5298 19.8065 -7.3281 9.6723 1.1387
# 2 16.5298 96.2087 33.3806 5.7095 8.6320 -5.7577
# 3 19.8065 33.3806 98.5938 -0.0863 9.9589 -3.2791
# 4 -7.3281 5.7095 -0.0863 26.5835 2.6434 0.5741
# 5 9.6723 8.6320 9.9589 2.6434 26.3448 -7.4401
# 6 1.1387 -5.7577 -3.2791 0.5741 -7.4401 37.0921
#
#
#
# Elastic Compliance Matrix: (Units=1/GPa)
#
#
# Indices 1 2 3 4 5 6 
#
# 1 0.016570 -0.002062 -0.002114 0.005631 -0.005815 -0.002269
# 2 -0.002062 0.012384 -0.003611 -0.003152 -0.001203 0.001474
# 3 -0.002114 -0.003611 0.012058 0.000494 -0.002639 0.000033
# 4 0.005631 -0.003152 0.000494 0.040495 -0.005974 -0.002444
# 5 -0.005815 -0.001203 -0.002639 -0.005974 0.044567 0.008790
# 6 -0.002269 0.001474 0.000033 -0.002444 0.008790 0.029062
#
#
# Mechanical properties :
#
#
# Convention : Reuss Voigt Hill
#
# Bulk Modulus (GPa) = 39.30925 45.02323 42.16624
# Shear Modulus (GPa) = 27.90336 31.07466 29.48901
#
# Velocity S-wave (km/s) = 3.69838 3.90289 3.80201
# Velocity P-wave (km/s) = 6.12425 6.51001 6.32007
#
# Compressibility (1/GPa) = 0.02543931
#
# Stress axis : x y z
#
# Youngs Moduli (GPa) = 60.34908 80.74676 82.93285
#
# Poissons Ratio (x) = 0.16648 0.17532
# Poissons Ratio (y) = 0.12443 0.29947
# Poissons Ratio (z) = 0.12757 0.29157
#
# Static dielectric constant tensor:
#      x y z
#    x 15.664060 -1.740970 3.704520 
#    y -1.740970 4.126730 -0.506140 
#    z 3.704520 -0.506140 4.659320 
# 
# 
# High freq. dielectric constant tensor:
#      x y z
#    x 1.795660 0.001660 0.007520 
#    y 0.001660 1.802770 0.003970 
#    z 0.007520 0.003970 1.789200 
# 
# From -- ./inp_files/590370.got.cif
#   From: 2010.06.25/outbox.cif.g09.slc.cpg/sg2_296_cif.got.tgz:590370.got - 2010.06.27 13:26:56.
