data_PCOD8011146
_publ_section_title
;
Structure prediction by ZEFSAII (Michael W. Deem and Ramdas Pophale) SiO2 
 PCOD8011146
Probable space group: P -1
;
_chemical_formula_sum "Si O2"
_cell_formula_units_Z 10
_cell_length_a 15.674804
_cell_length_b 11.259642
_cell_length_c 14.307812
_cell_angle_alpha 28.794230
_cell_angle_beta 162.094359
_cell_angle_gamma 145.427414
_cell_volume 373.014622
_symmetry_space_group_name_H-M "P -1"
_symmetry_group_IT_number 2
_symmetry_cell_setting 'triclinic'
loop_
_space_group_symop_operation_xyz
x,y,z
-x,-y,-z
loop_
_atom_site_type_symbol
_atom_site_label
_atom_site_fract_x
_atom_site_fract_y
_atom_site_fract_z
Si Si1 0.253003 0.440808 0.115204
Si Si2 0.196461 0.328889 0.736287
Si Si3 0.196164 0.354124 0.379776
Si Si4 0.561393 0.713632 0.783118
Si Si5 0.709822 0.024663 0.408828
O O1 0.523874 0.511598 0.404885
O O2 0.302176 0.428183 0.065576
O O3 0.172254 0.177293 0.253440
O O4 0.989462 0.641640 0.721418
O O5 0.223789 0.330788 0.876384
O O6 0.395879 0.109671 0.050170
O O7 0.271540 0.593838 0.589530
O O8 0.884457 0.265999 0.430420
O O9 0.279193 0.080627 0.613602
O O10 0.000000 0.500000 0.000000
O O11 0.500000 0.000000 0.500000
#
# Coordination Sequence:
#
# PCOD8011146 Si02
#       5
#     2   2   2   2   2
#     4  11  22  40  68 102 130 181 223 266 333 405
#     4  11  26  45  68 103 134 177 220 284 333 390
#     4  10  21  38  68 102 134 173 222 272 335 396
#     4  11  26  47  69  99 138 177 228 275 335 399
#     4  11  21  44  69  99 139 172 223 279 333 394
#
# _framework density 26.808599999999998
#
# number of rings (size 3 to 8) (size 9 to 14) (size 15 to 20)
#    0.000    1.200    2.000    6.000    0.000    7.200 
#    0.000    6.000    0.000    0.000    0.000    0.000 
#    0.000    0.000    0.000    0.000    0.000    0.000 
#
# Total GULP energy -124027.698941 kJ/mol
# GULP energy per Si atom -12402.769894 kJ/mol
# Density = 2.674758 g / cm^3
# Si number density = 26.808600 Si / 1000 Ang^3
#
#
#
# Elastic Constant Matrix: (Units=GPa)
#
#
# Indices 1 2 3 4 5 6 
#
# 1 180.4898 70.7933 29.2647 -18.8382 28.6893 -9.2929
# 2 70.7933 159.1462 26.6292 10.8962 -10.3395 -4.3925
# 3 29.2647 26.6292 48.8577 5.2215 12.7693 -4.9604
# 4 -18.8382 10.8962 5.2215 39.4810 6.8949 6.3789
# 5 28.6893 -10.3395 12.7693 6.8949 41.9747 -11.3615
# 6 -9.2929 -4.3925 -4.9604 6.3789 -11.3615 47.2222
#
#
#
# Elastic Compliance Matrix: (Units=1/GPa)
#
#
# Indices 1 2 3 4 5 6 
#
# 1 0.010488 -0.005716 -0.001704 0.008951 -0.010151 -0.002298
# 2 -0.005716 0.010676 -0.003858 -0.007299 0.009660 0.002773
# 3 -0.001704 -0.003858 0.025725 -0.001996 -0.007132 0.000562
# 4 0.008951 -0.007299 -0.001996 0.035774 -0.015250 -0.007628
# 5 -0.010151 0.009660 -0.007132 -0.015250 0.040512 0.009959
# 6 -0.002298 0.002773 0.000562 -0.007628 0.009959 0.024468
#
#
# Mechanical properties :
#
#
# Convention : Reuss Voigt Hill
#
# Bulk Modulus (GPa) = 41.09571 71.31868 56.20720
# Shear Modulus (GPa) = 28.04133 43.18935 35.61534
#
# Velocity S-wave (km/s) = 3.23767 4.01811 3.64882
# Velocity P-wave (km/s) = 5.41658 6.94173 6.22603
#
# Compressibility (1/GPa) = 0.02433344
#
# Stress axis : x y z
#
# Youngs Moduli (GPa) = 95.34498 93.67156 38.87279
#
# Poissons Ratio (x) = 0.53545 0.06623
# Poissons Ratio (y) = 0.54501 0.14996
# Poissons Ratio (z) = 0.16244 0.36136
#
# Static dielectric constant tensor:
#      x y z
#    x 5.676410 -0.268210 0.638840 
#    y -0.268210 4.860930 -0.078850 
#    z 0.638840 -0.078850 4.704820 
# 
# 
# High freq. dielectric constant tensor:
#      x y z
#    x 2.102360 -0.010010 0.023990 
#    y -0.010010 2.079580 -0.004000 
#    z 0.023990 -0.004000 2.077850 
# 
# From -- ./inp_files/64953.got.cif
#   From: 2010.06.25/outbox.cif.g09.slc.cpg/sg2_33_cif.got.tgz:64953.got - 2010.06.27 13:26:56.
