data_PCOD8011290
_publ_section_title
;
Structure prediction by ZEFSAII (Michael W. Deem and Ramdas Pophale) SiO2 
 PCOD8011290
Probable space group: P -1
;
_chemical_formula_sum "Si O2"
_cell_formula_units_Z 14
_cell_length_a 9.001571
_cell_length_b 27.171970
_cell_length_c 22.099502
_cell_angle_alpha 169.232902
_cell_angle_beta 40.539803
_cell_angle_gamma 141.193910
_cell_volume 632.109490
_symmetry_space_group_name_H-M "P -1"
_symmetry_group_IT_number 2
_symmetry_cell_setting 'triclinic'
loop_
_space_group_symop_operation_xyz
x,y,z
-x,-y,-z
loop_
_atom_site_type_symbol
_atom_site_label
_atom_site_fract_x
_atom_site_fract_y
_atom_site_fract_z
Si Si1 0.800907 0.951548 0.679898
Si Si2 0.645970 0.824077 0.440881
Si Si3 0.555596 0.174588 0.133909
Si Si4 0.169083 0.654732 0.208810
Si Si5 0.774493 0.549346 0.828541
Si Si6 0.460844 0.878309 0.275617
Si Si7 0.886268 0.721900 0.665720
O O1 0.663410 0.922730 0.624399
O O2 0.904952 0.690582 0.347316
O O3 0.634237 0.004113 0.849187
O O4 0.029872 0.204247 0.904985
O O5 0.394059 0.592016 0.234975
O O6 0.644374 0.075929 0.701922
O O7 0.843458 0.668382 0.171721
O O8 0.762312 0.454616 0.422116
O O9 0.312028 0.246279 0.281267
O O10 0.500000 0.000000 0.000000
O O11 0.371334 0.831746 0.403926
O O12 0.761559 0.241135 0.755556
O O13 0.888932 0.327515 0.496993
O O14 0.619537 0.660502 0.960094
O O15 0.000000 0.000000 0.000000
#
# Coordination Sequence:
#
# PCOD8011290 Si02
#       7
#     2   2   2   2   2   2   2
#     4  10  21  39  59  85 122 157 198 251 303 362
#     4  11  20  36  62  88 118 159 199 241 298 362
#     4  10  23  43  64  91 125 162 208 261 313 369
#     4   9  19  36  55  86 125 155 195 245 294 360
#     4   9  21  39  57  84 120 154 195 248 302 362
#     4   9  19  36  58  85 120 158 198 242 293 361
#     4  10  21  41  64  89 121 158 206 261 312 367
#
# _framework density 22.148060000000001
#
# number of rings (size 3 to 8) (size 9 to 14) (size 15 to 20)
#    0.000    2.286    0.000    2.571    0.000    4.571 
#    0.000   24.286    0.000    0.000    0.000    0.000 
#    0.000    0.000    0.000    0.000    0.000    0.000 
#
# Total GULP energy -173541.753077 kJ/mol
# GULP energy per Si atom -12395.839506 kJ/mol
# Density = 2.209765 g / cm^3
# Si number density = 22.148060 Si / 1000 Ang^3
#
#
#
# Elastic Constant Matrix: (Units=GPa)
#
#
# Indices 1 2 3 4 5 6 
#
# 1 85.0587 46.7901 45.4909 -6.6376 -18.7213 -15.9629
# 2 46.7901 79.2893 45.3680 -14.0225 -18.2210 -4.7254
# 3 45.4909 45.3680 127.1962 -29.5675 -21.1256 -6.9714
# 4 -6.6376 -14.0225 -29.5675 36.5598 1.9592 -7.4060
# 5 -18.7213 -18.2210 -21.1256 1.9592 33.0056 -0.0860
# 6 -15.9629 -4.7254 -6.9714 -7.4060 -0.0860 30.7815
#
#
#
# Elastic Compliance Matrix: (Units=1/GPa)
#
#
# Indices 1 2 3 4 5 6 
#
# 1 0.021146 -0.009129 -0.003173 -0.000737 0.004990 0.008682
# 2 -0.009129 0.021206 -0.002725 0.003791 0.004557 -0.001171
# 3 -0.003173 -0.002725 0.013062 0.009339 0.004510 0.003154
# 4 -0.000737 0.003791 0.009339 0.038273 0.005411 0.011538
# 5 0.004990 0.004557 0.004510 0.005411 0.038224 0.005717
# 6 0.008682 -0.001171 0.003154 0.011538 0.005717 0.040316
#
#
# Mechanical properties :
#
#
# Convention : Reuss Voigt Hill
#
# Bulk Modulus (GPa) = 39.43400 62.98247 51.20823
# Shear Modulus (GPa) = 23.72656 30.32907 27.02782
#
# Velocity S-wave (km/s) = 3.27658 3.70453 3.49710
# Velocity P-wave (km/s) = 5.67080 6.84082 6.28310
#
# Compressibility (1/GPa) = 0.02535883
#
# Stress axis : x y z
#
# Youngs Moduli (GPa) = 47.29119 47.15591 76.56036
#
# Poissons Ratio (x) = 0.43049 0.24295
# Poissons Ratio (y) = 0.43172 0.20863
# Poissons Ratio (z) = 0.15007 0.12850
#
# Static dielectric constant tensor:
#      x y z
#    x 3.831420 0.518090 -0.222470 
#    y 0.518090 4.608330 -0.452350 
#    z -0.222470 -0.452350 4.530520 
# 
# 
# High freq. dielectric constant tensor:
#      x y z
#    x 1.857610 0.029440 -0.005980 
#    y 0.029440 1.862540 0.002000 
#    z -0.005980 0.002000 1.885860 
# 
# From -- ./inp_files/608848.got.cif
#   From: 2010.06.25/outbox.cif.g09.slc.cpg/sg2_305_cif.got.tgz:608848.got - 2010.06.27 13:26:56.
