data_PCOD8011892
_publ_section_title
;
Structure prediction by ZEFSAII (Michael W. Deem and Ramdas Pophale) SiO2 
 PCOD8011892
Probable space group: P -1
;
_chemical_formula_sum "Si O2"
_cell_formula_units_Z 14
_cell_length_a 15.161764
_cell_length_b 8.917882
_cell_length_c 12.509974
_cell_angle_alpha 129.095853
_cell_angle_beta 149.227239
_cell_angle_gamma 61.552613
_cell_volume 662.451719
_symmetry_space_group_name_H-M "P -1"
_symmetry_group_IT_number 2
_symmetry_cell_setting 'triclinic'
loop_
_space_group_symop_operation_xyz
x,y,z
-x,-y,-z
loop_
_atom_site_type_symbol
_atom_site_label
_atom_site_fract_x
_atom_site_fract_y
_atom_site_fract_z
Si Si1 0.704234 0.489389 0.455766
Si Si2 0.024400 0.634134 0.482292
Si Si3 0.312900 0.377553 0.012049
Si Si4 0.852221 0.922178 0.137116
Si Si5 0.293031 0.104432 0.258834
Si Si6 0.308442 0.790163 0.290946
Si Si7 0.124507 0.686393 0.259962
O O1 0.849775 0.455287 0.507552
O O2 0.731224 0.721194 0.608075
O O3 0.727084 0.382106 0.543204
O O4 0.505770 0.410698 0.173845
O O5 0.000000 0.500000 0.500000
O O6 0.833347 0.645851 0.242233
O O7 0.119177 0.849701 0.707484
O O8 0.294333 0.186273 0.983003
O O9 0.290894 0.560961 0.145730
O O10 0.023927 0.822579 0.291300
O O11 0.809682 0.881890 0.950780
O O12 0.493797 0.107858 0.439168
O O13 0.222872 0.900795 0.156034
O O14 0.211025 0.818748 0.312360
O O15 0.000000 0.500000 0.000000
#
# Coordination Sequence:
#
# PCOD8011892 Si02
#       7
#     2   2   2   2   2   2   2
#     4  11  24  44  70  93 128 174 215 261 321 378
#     4  12  28  47  63  94 133 169 214 268 320 387
#     4  11  23  45  68  94 130 170 217 264 315 383
#     4  12  24  41  66  96 131 167 215 264 319 376
#     4  10  22  40  66  97 126 168 211 264 319 378
#     4  10  21  39  64  99 131 159 214 268 316 374
#     4  12  21  38  66  98 129 165 213 265 319 374
#
# _framework density 21.133614000000001
#
# number of rings (size 3 to 8) (size 9 to 14) (size 15 to 20)
#    0.000    0.857    4.286    2.143    2.000    4.000 
#    2.571    0.000    0.000    0.000    0.000    0.000 
#    0.000    0.000    0.000    0.000    0.000    0.000 
#
# Total GULP energy -173654.494580 kJ/mol
# GULP energy per Si atom -12403.892470 kJ/mol
# Density = 2.108551 g / cm^3
# Si number density = 21.133614 Si / 1000 Ang^3
#
#
#
# Elastic Constant Matrix: (Units=GPa)
#
#
# Indices 1 2 3 4 5 6 
#
# 1 106.2963 39.3173 47.4219 -6.9252 5.7876 15.1179
# 2 39.3173 100.9194 47.0482 -2.4673 8.6200 17.8890
# 3 47.4219 47.0482 101.1395 -0.1179 4.6816 6.1183
# 4 -6.9252 -2.4673 -0.1179 32.3931 1.4592 -0.5778
# 5 5.7876 8.6200 4.6816 1.4592 20.0773 -3.0830
# 6 15.1179 17.8890 6.1183 -0.5778 -3.0830 43.0617
#
#
#
# Elastic Compliance Matrix: (Units=1/GPa)
#
#
# Indices 1 2 3 4 5 6 
#
# 1 0.013094 -0.001961 -0.004914 0.002686 -0.002477 -0.003225
# 2 -0.001961 0.014473 -0.005271 0.000812 -0.005237 -0.004939
# 3 -0.004914 -0.005271 0.014496 -0.001397 0.000691 0.001886
# 4 0.002686 0.000812 -0.001397 0.031631 -0.003232 -0.000889
# 5 -0.002477 -0.005237 0.000691 -0.003232 0.053882 0.006761
# 6 -0.003225 -0.004939 0.001886 -0.000889 0.006761 0.026611
#
#
# Mechanical properties :
#
#
# Convention : Reuss Voigt Hill
#
# Bulk Modulus (GPa) = 56.27483 63.99223 60.13353
# Shear Modulus (GPa) = 27.11455 30.74429 28.92942
#
# Velocity S-wave (km/s) = 3.58579 3.81827 3.70385
# Velocity P-wave (km/s) = 6.62041 7.05581 6.84157
#
# Compressibility (1/GPa) = 0.01776993
#
# Stress axis : x y z
#
# Youngs Moduli (GPa) = 76.37031 69.09477 68.98624
#
# Poissons Ratio (x) = 0.13552 0.33901
# Poissons Ratio (y) = 0.14979 0.36361
# Poissons Ratio (z) = 0.37530 0.36418
#
# Static dielectric constant tensor:
#      x y z
#    x 3.833260 0.108620 0.152640 
#    y 0.108620 4.053980 -0.099140 
#    z 0.152640 -0.099140 3.848880 
# 
# 
# High freq. dielectric constant tensor:
#      x y z
#    x 1.827270 0.009170 0.009560 
#    y 0.009170 1.841780 -0.004940 
#    z 0.009560 -0.004940 1.822920 
# 
# From -- ./inp_files/153726.got.cif
#   From: 2010.06.25/outbox.cif.g09.slc.cpg/sg2_77_cif.got.tgz:153726.got - 2010.06.27 13:26:56.
