data_PCOD8011180
_publ_section_title
;
Structure prediction by ZEFSAII (Michael W. Deem and Ramdas Pophale) SiO2 
 PCOD8011180
Probable space group: P -1
;
_chemical_formula_sum "Si O2"
_cell_formula_units_Z 12
_cell_length_a 7.121599
_cell_length_b 15.130644
_cell_length_c 9.005439
_cell_angle_alpha 38.521584
_cell_angle_beta 117.338294
_cell_angle_gamma 107.896955
_cell_volume 534.482378
_symmetry_space_group_name_H-M "P -1"
_symmetry_group_IT_number 2
_symmetry_cell_setting 'triclinic'
loop_
_space_group_symop_operation_xyz
x,y,z
-x,-y,-z
loop_
_atom_site_type_symbol
_atom_site_label
_atom_site_fract_x
_atom_site_fract_y
_atom_site_fract_z
Si Si1 0.011064 0.490789 0.267069
Si Si2 0.109628 0.684732 0.798893
Si Si3 0.861182 0.702866 0.175933
Si Si4 0.714605 0.154890 0.885456
Si Si5 0.681991 0.875568 0.388465
Si Si6 0.418569 0.857704 0.831076
O O1 0.165507 0.396385 0.559512
O O2 0.864323 0.388136 0.257555
O O3 0.863697 0.606520 0.155790
O O4 0.153278 0.565552 0.099820
O O5 0.277672 0.801876 0.720138
O O6 0.870170 0.755340 0.645082
O O7 0.073610 0.780736 0.173659
O O8 0.665675 0.821915 0.933910
O O9 0.528403 0.196671 0.643446
O O10 0.645595 0.218561 0.938617
O O11 0.748645 0.981252 0.140508
O O12 0.368344 0.029459 0.604592
#
# Coordination Sequence:
#
# PCOD8011180 Si02
#       6
#     2   2   2   2   2   2
#     4  10  24  41  62  89 130 170 202 255 297 376
#     4  11  21  44  62  93 131 162 203 254 319 363
#     4  11  22  44  63  96 120 163 222 240 307 375
#     4   9  20  41  65  94 119 165 205 259 303 367
#     4   9  20  41  66  92 122 166 203 254 320 360
#     4  10  21  38  69  91 122 163 199 266 312 353
#
# _framework density 22.451629000000001
#
# number of rings (size 3 to 8) (size 9 to 14) (size 15 to 20)
#    1.000    1.000    1.667    1.500    0.000    2.000 
#   15.000    1.667    0.000    0.000    0.000    0.000 
#    0.000    0.000    0.000    0.000    0.000    0.000 
#
# Total GULP energy -148743.505418 kJ/mol
# GULP energy per Si atom -12395.292118 kJ/mol
# Density = 2.240053 g / cm^3
# Si number density = 22.451629 Si / 1000 Ang^3
#
#
#
# Elastic Constant Matrix: (Units=GPa)
#
#
# Indices 1 2 3 4 5 6 
#
# 1 85.6502 44.5036 40.0779 2.9281 28.6053 8.2327
# 2 44.5036 147.5785 34.7037 22.9967 17.7792 7.8111
# 3 40.0779 34.7037 60.4786 3.8965 11.1903 6.5407
# 4 2.9281 22.9967 3.8965 34.8736 -0.8521 5.2719
# 5 28.6053 17.7792 11.1903 -0.8521 34.4027 14.7783
# 6 8.2327 7.8111 6.5407 5.2719 14.7783 26.8105
#
#
#
# Elastic Compliance Matrix: (Units=1/GPa)
#
#
# Indices 1 2 3 4 5 6 
#
# 1 0.023574 -0.002605 -0.011595 -0.000249 -0.016958 0.005745
# 2 -0.002605 0.009407 -0.002982 -0.005905 -0.002423 0.001283
# 3 -0.011595 -0.002982 0.025464 0.000923 0.004935 -0.004685
# 4 -0.000249 -0.005905 0.000923 0.034111 0.007874 -0.009476
# 5 -0.016958 -0.002423 0.004935 0.007874 0.054574 -0.026921
# 6 0.005745 0.001283 -0.004685 -0.009476 -0.026921 0.053006
#
#
# Mechanical properties :
#
#
# Convention : Reuss Voigt Hill
#
# Bulk Modulus (GPa) = 41.52531 59.14198 50.33364
# Shear Modulus (GPa) = 20.61625 30.84550 25.73088
#
# Velocity S-wave (km/s) = 3.03355 3.71059 3.38902
# Velocity P-wave (km/s) = 5.55027 6.69007 6.14665
#
# Compressibility (1/GPa) = 0.02408170
#
# Stress axis : x y z
#
# Youngs Moduli (GPa) = 42.41884 106.30625 39.27157
#
# Poissons Ratio (x) = 0.27689 0.45536
# Poissons Ratio (y) = 0.11049 0.11710
# Poissons Ratio (z) = 0.49186 0.31698
#
# Static dielectric constant tensor:
#      x y z
#    x 3.479180 -0.085110 -0.057250 
#    y -0.085110 4.226520 0.115560 
#    z -0.057250 0.115560 3.792290 
# 
# 
# High freq. dielectric constant tensor:
#      x y z
#    x 1.847110 -0.001680 -0.000050 
#    y -0.001680 1.900960 0.009040 
#    z -0.000050 0.009040 1.871200 
# 
# From -- ./inp_files/138611.got.cif
#   From: 2010.06.25/outbox.cif.g09.slc.cpg/sg2_70_cif.got.tgz:138611.got - 2010.06.27 13:26:56.
