data_PCOD8011971
_publ_section_title
;
Structure prediction by ZEFSAII (Michael W. Deem and Ramdas Pophale) SiO2 
 PCOD8011971
Probable space group: P -1
;
_chemical_formula_sum "Si O2"
_cell_formula_units_Z 16
_cell_length_a 11.051210
_cell_length_b 13.823542
_cell_length_c 16.685086
_cell_angle_alpha 53.492167
_cell_angle_beta 54.910089
_cell_angle_gamma 21.135207
_cell_volume 736.971676
_symmetry_space_group_name_H-M "P -1"
_symmetry_group_IT_number 2
_symmetry_cell_setting 'triclinic'
loop_
_space_group_symop_operation_xyz
x,y,z
-x,-y,-z
loop_
_atom_site_type_symbol
_atom_site_label
_atom_site_fract_x
_atom_site_fract_y
_atom_site_fract_z
Si Si1 0.227676 0.778018 0.919828
Si Si2 0.693180 0.362674 0.375427
Si Si3 0.878043 0.641203 0.253554
Si Si4 0.480049 0.262744 0.973534
Si Si5 0.476123 0.133753 0.888454
Si Si6 0.536262 0.275152 0.594469
Si Si7 0.444897 0.876603 0.824850
Si Si8 0.201977 0.698180 0.812096
O O1 0.216339 0.922950 0.886084
O O2 0.256060 0.772856 0.813629
O O3 0.500000 0.500000 0.000000
O O4 0.882318 0.958146 0.974257
O O5 0.494929 0.398947 0.476145
O O6 0.565598 0.582077 0.354119
O O7 0.598763 0.430109 0.284072
O O8 0.091493 0.052331 0.385578
O O9 0.751627 0.728053 0.168057
O O10 0.720065 0.647000 0.361545
O O11 0.280935 0.329363 0.249628
O O12 0.781950 0.837552 0.235939
O O13 0.320804 0.341374 0.909299
O O14 0.366956 0.481719 0.917009
O O15 0.357568 0.270788 0.091467
O O16 0.822109 0.935892 0.819736
O O17 0.500000 0.000000 0.000000
#
# Coordination Sequence:
#
# PCOD8011971 Si02
#       8
#     2   2   2   2   2   2   2   2
#     4  11  24  42  58  85 122 165 222 255 286 346
#     4  10  21  39  65  93 121 159 199 250 312 359
#     4  12  24  38  61  88 126 161 195 250 311 378
#     4  11  23  37  60  83 121 165 204 257 293 354
#     4  11  22  34  52  88 127 155 191 237 309 372
#     4  10  21  40  63  92 127 154 196 253 307 380
#     4  12  25  39  59  85 121 170 206 241 305 358
#     4  11  23  37  62  87 120 163 201 261 293 360
#
# _framework density 21.710467000000001
#
# number of rings (size 3 to 8) (size 9 to 14) (size 15 to 20)
#    0.000    1.000    3.750    3.375    5.250    1.000 
#    0.000    0.000    0.000    1.500    0.000    0.000 
#    0.000    0.000    0.000    0.000    0.000    0.000 
#
# Total GULP energy -198267.706500 kJ/mol
# GULP energy per Si atom -12391.731656 kJ/mol
# Density = 2.166105 g / cm^3
# Si number density = 21.710467 Si / 1000 Ang^3
#
#
#
# Elastic Constant Matrix: (Units=GPa)
#
#
# Indices 1 2 3 4 5 6 
#
# 1 94.2962 20.1343 22.4014 6.4460 -7.7812 23.5998
# 2 20.1343 92.9236 7.4548 7.3543 -4.3663 23.1316
# 3 22.4014 7.4548 82.2094 18.7110 -8.1848 16.5885
# 4 6.4460 7.3543 18.7110 25.7614 7.7652 1.5696
# 5 -7.7812 -4.3663 -8.1848 7.7652 34.8131 -0.6974
# 6 23.5998 23.1316 16.5885 1.5696 -0.6974 32.0944
#
#
#
# Elastic Compliance Matrix: (Units=1/GPa)
#
#
# Indices 1 2 3 4 5 6 
#
# 1 0.013649 -0.000162 -0.000739 -0.003291 0.003404 -0.009303
# 2 -0.000162 0.013992 0.002818 -0.006411 0.003590 -0.011031
# 3 -0.000739 0.002818 0.018545 -0.015847 0.007880 -0.010126
# 4 -0.003291 -0.006411 -0.015847 0.057639 -0.017881 0.012024
# 5 0.003404 0.003590 0.007880 -0.017881 0.035627 -0.007515
# 6 -0.009303 -0.011031 -0.010126 0.012024 -0.007515 0.050431
#
#
# Mechanical properties :
#
#
# Convention : Reuss Voigt Hill
#
# Bulk Modulus (GPa) = 19.99244 41.04556 30.51900
# Shear Modulus (GPa) = 24.66416 33.16302 28.91359
#
# Velocity S-wave (km/s) = 3.37419 3.91258 3.65332
# Velocity P-wave (km/s) = 4.94053 6.27359 5.64654
#
# Compressibility (1/GPa) = 0.05001890
#
# Stress axis : x y z
#
# Youngs Moduli (GPa) = 73.26388 71.46686 53.92413
#
# Poissons Ratio (x) = 0.01157 0.03987
# Poissons Ratio (y) = 0.01186 -0.15193
# Poissons Ratio (z) = 0.05417 -0.20136
#
# Static dielectric constant tensor:
#      x y z
#    x 4.429890 0.462390 0.096050 
#    y 0.462390 4.028810 0.282500 
#    z 0.096050 0.282500 4.020560 
# 
# 
# High freq. dielectric constant tensor:
#      x y z
#    x 1.845500 0.027280 -0.008330 
#    y 0.027280 1.856120 0.016950 
#    z -0.008330 0.016950 1.833890 
# 
# From -- ./inp_files/74146.got.cif
#   From: 2010.06.25/outbox.cif.g09.slc.cpg/sg2_38_cif.got.tgz:74146.got - 2010.06.27 13:26:56.
