data_PCOD8011454
_publ_section_title
;
Structure prediction by ZEFSAII (Michael W. Deem and Ramdas Pophale) SiO2 
 PCOD8011454
Probable space group: P -1
;
_chemical_formula_sum "Si O2"
_cell_formula_units_Z 16
_cell_length_a 7.852271
_cell_length_b 14.616863
_cell_length_c 15.400851
_cell_angle_alpha 147.881786
_cell_angle_beta 94.035577
_cell_angle_gamma 105.033120
_cell_volume 748.948062
_symmetry_space_group_name_H-M "P -1"
_symmetry_group_IT_number 2
_symmetry_cell_setting 'triclinic'
loop_
_space_group_symop_operation_xyz
x,y,z
-x,-y,-z
loop_
_atom_site_type_symbol
_atom_site_label
_atom_site_fract_x
_atom_site_fract_y
_atom_site_fract_z
Si Si1 0.196401 0.025309 0.567395
Si Si2 0.415533 0.266852 0.453412
Si Si3 0.790380 0.857244 0.143988
Si Si4 0.027191 0.267140 0.382665
Si Si5 0.525225 0.387710 0.746776
Si Si6 0.908066 0.570740 0.673229
Si Si7 0.879423 0.197724 0.958129
Si Si8 0.065079 0.564850 0.153159
O O1 0.207710 0.044549 0.685697
O O2 0.403169 0.241711 0.708656
O O3 0.165456 0.810003 0.368205
O O4 0.000000 0.000000 0.500000
O O5 0.255975 0.321303 0.459572
O O6 0.409692 0.260782 0.553019
O O7 0.653131 0.439111 0.564835
O O8 0.349789 0.035924 0.231137
O O9 0.991748 0.851659 0.141724
O O10 0.563620 0.618704 0.933396
O O11 0.826876 0.023598 0.205028
O O12 0.014524 0.284985 0.293830
O O13 0.992458 0.426122 0.559209
O O14 0.760880 0.458047 0.820702
O O15 0.014797 0.732276 0.887376
O O16 0.864831 0.379820 0.058019
O O17 0.000000 0.500000 0.000000
#
# Coordination Sequence:
#
# PCOD8011454 Si02
#       8
#     2   2   2   2   2   2   2   2
#     4  12  23  38  62  92 130 172 217 273 328 393
#     4  11  22  44  69  99 133 180 223 270 339 396
#     4  10  21  39  61  92 130 169 215 273 333 378
#     4  10  24  43  69 101 132 175 225 279 329 405
#     4  11  23  43  62  95 130 172 225 266 332 406
#     4  11  22  47  68  98 140 173 222 280 337 389
#     4  10  22  42  66  96 134 174 221 274 332 402
#     4  11  22  41  64  91 131 172 217 275 329 392
#
# _framework density 21.363295999999998
#
# number of rings (size 3 to 8) (size 9 to 14) (size 15 to 20)
#    0.000    1.250    2.500    5.625    0.000    2.000 
#    6.750    1.250    0.000    0.000    0.000    0.000 
#    0.000    0.000    0.000    0.000    0.000    0.000 
#
# Total GULP energy -198284.474990 kJ/mol
# GULP energy per Si atom -12392.779687 kJ/mol
# Density = 2.131467 g / cm^3
# Si number density = 21.363296 Si / 1000 Ang^3
#
#
#
# Elastic Constant Matrix: (Units=GPa)
#
#
# Indices 1 2 3 4 5 6 
#
# 1 63.2996 30.1769 34.7449 0.0138 -4.3310 -8.2020
# 2 30.1769 154.7469 87.8462 10.6449 -8.7440 -4.4226
# 3 34.7449 87.8462 178.2999 8.1243 7.0629 1.8551
# 4 0.0138 10.6449 8.1243 42.5671 -4.3514 -1.2852
# 5 -4.3310 -8.7440 7.0629 -4.3514 13.8374 -7.9141
# 6 -8.2020 -4.4226 1.8551 -1.2852 -7.9141 30.4944
#
#
#
# Elastic Compliance Matrix: (Units=1/GPa)
#
#
# Indices 1 2 3 4 5 6 
#
# 1 0.020914 -0.000481 -0.004674 0.002857 0.015190 0.009902
# 2 -0.000481 0.010611 -0.005660 -0.000178 0.012197 0.004912
# 3 -0.004674 -0.005660 0.010056 -0.002196 -0.014625 -0.006578
# 4 0.002857 -0.000178 -0.002196 0.025438 0.012937 0.005306
# 5 0.015190 0.012197 -0.014625 0.012937 0.117938 0.037897
# 6 0.009902 0.004912 -0.006578 0.005306 0.037897 0.046628
#
#
# Mechanical properties :
#
#
# Convention : Reuss Voigt Hill
#
# Bulk Modulus (GPa) = 50.12083 77.98694 64.05388
# Shear Modulus (GPa) = 19.24083 33.61834 26.42959
#
# Velocity S-wave (km/s) = 3.00434 3.97123 3.52113
# Velocity P-wave (km/s) = 5.96212 7.59025 6.82491
#
# Compressibility (1/GPa) = 0.01995179
#
# Stress axis : x y z
#
# Youngs Moduli (GPa) = 47.81465 94.24159 99.44363
#
# Poissons Ratio (x) = 0.04528 0.46477
# Poissons Ratio (y) = 0.02298 0.56290
# Poissons Ratio (z) = 0.22347 0.53345
#
# Static dielectric constant tensor:
#      x y z
#    x 3.672790 -0.055960 -0.008310 
#    y -0.055960 3.776570 0.170480 
#    z -0.008310 0.170480 3.953950 
# 
# 
# High freq. dielectric constant tensor:
#      x y z
#    x 1.816050 -0.000450 -0.002850 
#    y -0.000450 1.854970 0.012410 
#    z -0.002850 0.012410 1.856200 
# 
# From -- ./inp_files/217751.got.cif
#   From: 2010.06.25/outbox.cif.g09.slc.cpg/sg2_109_cif.got.tgz:217751.got - 2010.06.27 13:26:56.
