data_PCOD8011055
_publ_section_title
;
Structure prediction by ZEFSAII (Michael W. Deem and Ramdas Pophale) SiO2 
 PCOD8011055
Probable space group: P -1
;
_chemical_formula_sum "Si O2"
_cell_formula_units_Z 16
_cell_length_a 14.989557
_cell_length_b 9.917731
_cell_length_c 9.380320
_cell_angle_alpha 58.638756
_cell_angle_beta 85.830010
_cell_angle_gamma 46.870147
_cell_volume 774.197627
_symmetry_space_group_name_H-M "P -1"
_symmetry_group_IT_number 2
_symmetry_cell_setting 'triclinic'
loop_
_space_group_symop_operation_xyz
x,y,z
-x,-y,-z
loop_
_atom_site_type_symbol
_atom_site_label
_atom_site_fract_x
_atom_site_fract_y
_atom_site_fract_z
Si Si1 0.015336 0.199519 0.853115
Si Si2 0.644125 0.192794 0.298346
Si Si3 0.052767 0.282647 0.520427
Si Si4 0.604341 0.903991 0.915859
Si Si5 0.599636 0.569723 0.976342
Si Si6 0.516708 0.646459 0.490742
Si Si7 0.916995 0.578643 0.114081
Si Si8 0.228368 0.664136 0.189888
O O1 0.036556 0.157272 0.701122
O O2 0.062717 0.300166 0.854516
O O3 0.851517 0.395052 0.790392
O O4 0.105943 0.952977 0.065074
O O5 0.560811 0.245560 0.139164
O O6 0.576039 0.219994 0.433281
O O7 0.788299 0.913232 0.427878
O O8 0.648422 0.380486 0.197025
O O9 0.000000 0.500000 0.500000
O O10 0.977890 0.359023 0.332263
O O11 0.626132 0.716465 0.925902
O O12 0.529680 0.146937 0.713726
O O13 0.756193 0.760596 0.015880
O O14 0.500000 0.000000 0.000000
O O15 0.682586 0.409713 0.915088
O O16 0.500000 0.500000 0.500000
O O17 0.676398 0.461445 0.612141
O O18 0.000000 0.500000 0.000000
#
# Coordination Sequence:
#
# PCOD8011055 Si02
#       8
#     2   2   2   2   2   2   2   2
#     4  10  21  39  65  92 130 164 221 268 324 393
#     4  10  21  41  68  94 127 174 214 270 325 398
#     4  10  22  37  66  92 124 166 220 263 317 390
#     4  12  27  40  63  96 135 170 217 277 329 393
#     4  10  22  40  66  94 133 163 218 266 334 388
#     4  11  24  42  66  95 133 172 219 266 340 399
#     4  11  24  42  63  90 132 177 216 266 334 392
#     4  10  21  38  66  93 121 169 213 272 321 389
#
# _framework density 20.666557999999998
#
# number of rings (size 3 to 8) (size 9 to 14) (size 15 to 20)
#    0.000    1.500    1.250    3.000    5.250    4.000 
#    0.000    0.625    0.000    0.000    0.000    0.000 
#    0.000    0.000    0.000    0.000    0.000    0.000 
#
# Total GULP energy -198242.772053 kJ/mol
# GULP energy per Si atom -12390.173253 kJ/mol
# Density = 2.061952 g / cm^3
# Si number density = 20.666558 Si / 1000 Ang^3
#
#
#
# Elastic Constant Matrix: (Units=GPa)
#
#
# Indices 1 2 3 4 5 6 
#
# 1 138.5568 39.3400 72.7970 -10.5677 13.8311 -7.0032
# 2 39.3400 76.0327 49.7411 -6.9266 7.2288 -11.7258
# 3 72.7970 49.7411 172.4915 -10.9805 4.9748 -14.1499
# 4 -10.5677 -6.9266 -10.9805 31.6998 -7.6888 -1.6878
# 5 13.8311 7.2288 4.9748 -7.6888 39.4093 -5.9387
# 6 -7.0032 -11.7258 -14.1499 -1.6878 -5.9387 45.6183
#
#
#
# Elastic Compliance Matrix: (Units=1/GPa)
#
#
# Indices 1 2 3 4 5 6 
#
# 1 0.010062 -0.002762 -0.003358 0.000958 -0.002489 -0.000495
# 2 -0.002762 0.017591 -0.003535 0.001597 -0.001059 0.002922
# 3 -0.003358 -0.003535 0.008401 0.001396 0.001249 0.001396
# 4 0.000958 0.001597 0.001396 0.034408 0.006374 0.003093
# 5 -0.002489 -0.001059 0.001249 0.006374 0.028074 0.003624
# 6 -0.000495 0.002922 0.001396 0.003093 0.003624 0.023615
#
#
# Mechanical properties :
#
#
# Convention : Reuss Voigt Hill
#
# Bulk Modulus (GPa) = 59.72195 78.98191 69.35193
# Shear Modulus (GPa) = 34.00350 38.35902 36.18126
#
# Velocity S-wave (km/s) = 4.06068 4.31291 4.18869
# Velocity P-wave (km/s) = 7.13765 7.94367 7.55142
#
# Compressibility (1/GPa) = 0.01674426
#
# Stress axis : x y z
#
# Youngs Moduli (GPa) = 99.38225 56.84775 119.02932
#
# Poissons Ratio (x) = 0.15701 0.39970
# Poissons Ratio (y) = 0.27449 0.42078
# Poissons Ratio (z) = 0.33372 0.20096
#
# Static dielectric constant tensor:
#      x y z
#    x 5.538580 -0.400760 -2.980270 
#    y -0.400760 3.622810 0.414950 
#    z -2.980270 0.414950 9.558470 
# 
# 
# High freq. dielectric constant tensor:
#      x y z
#    x 1.814690 -0.018180 -0.005850 
#    y -0.018180 1.797860 -0.007380 
#    z -0.005850 -0.007380 1.825730 
# 
# From -- ./inp_files/297916.got.cif
#   From: 2010.06.25/outbox.cif.g09.slc.cpg/sg2_149_cif.got.tgz:297916.got - 2010.06.27 13:26:56.
