data_PCOD8011552
_publ_section_title
;
Structure prediction by ZEFSAII (Michael W. Deem and Ramdas Pophale) SiO2 
 PCOD8011552
Probable space group: P -1
;
_chemical_formula_sum "Si O2"
_cell_formula_units_Z 14
_cell_length_a 6.273000
_cell_length_b 10.172420
_cell_length_c 12.193504
_cell_angle_alpha 122.470277
_cell_angle_beta 65.757135
_cell_angle_gamma 89.883665
_cell_volume 572.982236
_symmetry_space_group_name_H-M "P -1"
_symmetry_group_IT_number 2
_symmetry_cell_setting 'triclinic'
loop_
_space_group_symop_operation_xyz
x,y,z
-x,-y,-z
loop_
_atom_site_type_symbol
_atom_site_label
_atom_site_fract_x
_atom_site_fract_y
_atom_site_fract_z
Si Si1 0.218321 0.303326 0.477188
Si Si2 0.541836 0.669386 0.100617
Si Si3 0.283281 0.896251 0.808856
Si Si4 0.002574 0.333701 0.312770
Si Si5 0.053031 0.830075 0.354105
Si Si6 0.522680 0.246024 0.079536
Si Si7 0.980467 0.767914 0.092603
O O1 0.496383 0.191096 0.358559
O O2 0.055389 0.265345 0.394858
O O3 0.205373 0.493709 0.564055
O O4 0.107817 0.271358 0.601193
O O5 0.344088 0.746737 0.270299
O O6 0.816104 0.643220 0.074772
O O7 0.500000 0.500000 0.000000
O O8 0.506976 0.797345 0.061278
O O9 0.384267 0.898411 0.914475
O O10 0.086725 0.792877 0.798727
O O11 0.149873 0.078617 0.886631
O O12 0.258525 0.360881 0.225393
O O13 0.995658 0.839722 0.241894
O O14 0.000000 0.000000 0.500000
O O15 0.751617 0.326196 0.056923
#
# Coordination Sequence:
#
# PCOD8011552 Si02
#       7
#     2   2   2   2   2   2   2
#     4  10  22  38  59  90 124 165 212 259 314 379
#     4  11  25  44  65  93 130 170 217 270 322 381
#     4  11  22  38  63  91 125 164 210 262 319 382
#     4  10  21  39  62  91 126 164 209 263 319 378
#     4  11  24  42  65  94 131 173 216 264 320 385
#     4  10  23  40  63  90 122 162 208 262 317 375
#     4  11  25  41  64  95 128 170 216 263 321 383
#
# _framework density 24.43357
#
# number of rings (size 3 to 8) (size 9 to 14) (size 15 to 20)
#    0.000    1.429    0.000    4.286    0.000   11.429 
#    0.000    0.000    0.000    0.000    0.000    0.000 
#    0.000    0.000    0.000    0.000    0.000    0.000 
#
# Total GULP energy -173438.023953 kJ/mol
# GULP energy per Si atom -12388.430282 kJ/mol
# Density = 2.437796 g / cm^3
# Si number density = 24.433570 Si / 1000 Ang^3
#
#
#
# Elastic Constant Matrix: (Units=GPa)
#
#
# Indices 1 2 3 4 5 6 
#
# 1 127.9340 20.1708 41.2402 0.7756 -20.7353 12.3232
# 2 20.1708 57.2847 20.3428 -13.9478 -2.7389 -1.0090
# 3 41.2402 20.3428 115.9025 -13.0942 -28.1768 3.8944
# 4 0.7756 -13.9478 -13.0942 40.6961 -0.9240 -0.0509
# 5 -20.7353 -2.7389 -28.1768 -0.9240 53.8806 -3.8252
# 6 12.3232 -1.0090 3.8944 -0.0509 -3.8252 27.9500
#
#
#
# Elastic Compliance Matrix: (Units=1/GPa)
#
#
# Indices 1 2 3 4 5 6 
#
# 1 0.009823 -0.003002 -0.002588 -0.002009 0.001969 -0.003813
# 2 -0.003002 0.020858 -0.002168 0.006489 -0.000957 0.002259
# 3 -0.002588 -0.002168 0.011483 0.003114 0.004962 0.000148
# 4 -0.002009 0.006489 0.003114 0.027877 0.001732 0.000974
# 5 0.001969 -0.000957 0.004962 0.001732 0.021994 0.001419
# 6 -0.003813 0.002259 0.000148 0.000974 0.001419 0.037716
#
#
# Mechanical properties :
#
#
# Convention : Reuss Voigt Hill
#
# Bulk Modulus (GPa) = 37.52871 51.62541 44.57706
# Shear Modulus (GPa) = 32.43603 39.12982 35.78292
#
# Velocity S-wave (km/s) = 3.64747 4.00619 3.83103
# Velocity P-wave (km/s) = 5.75600 6.52489 6.15247
#
# Compressibility (1/GPa) = 0.02664627
#
# Stress axis : x y z
#
# Youngs Moduli (GPa) = 101.80454 47.94400 87.08716
#
# Poissons Ratio (x) = 0.14391 0.22542
# Poissons Ratio (y) = 0.30558 0.18883
# Poissons Ratio (z) = 0.26352 0.10396
#
# Static dielectric constant tensor:
#      x y z
#    x 4.777970 -0.293190 -0.280750 
#    y -0.293190 4.486970 -0.379040 
#    z -0.280750 -0.379040 4.328100 
# 
# 
# High freq. dielectric constant tensor:
#      x y z
#    x 1.982360 -0.008600 -0.020320 
#    y -0.008600 1.960610 -0.019300 
#    z -0.020320 -0.019300 1.971000 
# 
# From -- ./inp_files/83454.got.cif
#   From: 2010.06.25/outbox.cif.g09.slc.cpg/sg2_42_cif.got.tgz:83454.got - 2010.06.27 13:26:56.
