data_PCOD8011158
_publ_section_title
;
Structure prediction by ZEFSAII (Michael W. Deem and Ramdas Pophale) SiO2 
 PCOD8011158
Probable space group: P -1
;
_chemical_formula_sum "Si O2"
_cell_formula_units_Z 16
_cell_length_a 9.055619
_cell_length_b 13.589940
_cell_length_c 8.339062
_cell_angle_alpha 104.905046
_cell_angle_beta 131.522938
_cell_angle_gamma 74.116267
_cell_volume 734.902894
_symmetry_space_group_name_H-M "P -1"
_symmetry_group_IT_number 2
_symmetry_cell_setting 'triclinic'
loop_
_space_group_symop_operation_xyz
x,y,z
-x,-y,-z
loop_
_atom_site_type_symbol
_atom_site_label
_atom_site_fract_x
_atom_site_fract_y
_atom_site_fract_z
Si Si1 0.625943 0.120107 0.950618
Si Si2 0.713344 0.954983 0.695294
Si Si3 0.454139 0.680365 0.219532
Si Si4 0.949514 0.000641 0.281701
Si Si5 0.244854 0.190239 0.895523
Si Si6 0.305812 0.267572 0.303023
Si Si7 0.929531 0.404733 0.198833
Si Si8 0.880827 0.632032 0.350386
O O1 0.641186 0.209344 0.872509
O O2 0.405553 0.126637 0.865560
O O3 0.717951 0.008991 0.893077
O O4 0.789101 0.106944 0.203214
O O5 0.741433 0.832025 0.674354
O O6 0.500000 0.000000 0.500000
O O7 0.868686 0.990320 0.699771
O O8 0.510662 0.690077 0.453391
O O9 0.654627 0.634823 0.251839
O O10 0.284564 0.608859 0.037035
O O11 0.883917 0.888752 0.150624
O O12 0.000000 0.000000 0.500000
O O13 0.107416 0.275988 0.727632
O O14 0.357700 0.242731 0.143426
O O15 0.106506 0.350242 0.191872
O O16 0.943080 0.525594 0.257762
O O17 0.965673 0.360393 0.388284
#
# Coordination Sequence:
#
# PCOD8011158 Si02
#       8
#     2   2   2   2   2   2   2   2
#     4  11  23  41  63  89 133 174 214 267 317 382
#     4  12  24  42  62  89 132 175 214 258 318 390
#     4  10  21  38  68  93 123 171 223 258 324 399
#     4  12  27  37  64  97 130 172 222 265 324 390
#     4  11  25  43  61  97 136 169 217 276 327 378
#     4  11  24  39  64  93 131 172 220 264 328 383
#     4  10  21  42  69  93 123 171 219 271 326 392
#     4   9  22  43  66  94 129 165 215 277 328 384
#
# _framework density 21.771585000000002
#
# number of rings (size 3 to 8) (size 9 to 14) (size 15 to 20)
#    0.000    1.250    2.500    2.625    8.750    0.500 
#    0.000    0.625    0.000    0.000    0.000    0.000 
#    0.000    0.000    0.000    0.000    0.000    0.000 
#
# Total GULP energy -198298.395050 kJ/mol
# GULP energy per Si atom -12393.649691 kJ/mol
# Density = 2.172203 g / cm^3
# Si number density = 21.771585 Si / 1000 Ang^3
#
#
#
# Elastic Constant Matrix: (Units=GPa)
#
#
# Indices 1 2 3 4 5 6 
#
# 1 82.3503 34.9303 27.7759 0.2579 -1.2789 -3.0437
# 2 34.9303 104.6370 23.1112 -12.2984 -1.1956 -16.7032
# 3 27.7759 23.1112 111.2516 -1.9991 -5.7929 -0.6393
# 4 0.2579 -12.2984 -1.9991 38.2756 -2.2705 -3.5917
# 5 -1.2789 -1.1956 -5.7929 -2.2705 33.4116 -1.1528
# 6 -3.0437 -16.7032 -0.6393 -3.5917 -1.1528 26.5582
#
#
#
# Elastic Compliance Matrix: (Units=1/GPa)
#
#
# Indices 1 2 3 4 5 6 
#
# 1 0.015127 -0.004945 -0.002810 -0.002017 -0.000282 -0.001729
# 2 -0.004945 0.013505 -0.001392 0.005150 0.000700 0.008620
# 3 -0.002810 -0.001392 0.010058 0.000108 0.001564 -0.000873
# 4 -0.002017 0.005150 0.000108 0.028592 0.002310 0.006978
# 5 -0.000282 0.000700 0.001564 0.002310 0.030444 0.002079
# 6 -0.001729 0.008620 -0.000873 0.006978 0.002079 0.043889
#
#
# Mechanical properties :
#
#
# Convention : Reuss Voigt Hill
#
# Bulk Modulus (GPa) = 49.03464 52.20818 50.62141
# Shear Modulus (GPa) = 29.99270 33.81052 31.90161
#
# Velocity S-wave (km/s) = 3.71564 3.94504 3.83206
# Velocity P-wave (km/s) = 6.40150 6.69202 6.54837
#
# Compressibility (1/GPa) = 0.02039375
#
# Stress axis : x y z
#
# Youngs Moduli (GPa) = 66.10813 74.04933 99.42534
#
# Poissons Ratio (x) = 0.36619 0.27940
# Poissons Ratio (y) = 0.32692 0.13842
# Poissons Ratio (z) = 0.18578 0.10309
#
# Static dielectric constant tensor:
#      x y z
#    x 3.612790 -0.138840 -0.073600 
#    y -0.138840 4.284120 0.007270 
#    z -0.073600 0.007270 4.251540 
# 
# 
# High freq. dielectric constant tensor:
#      x y z
#    x 1.825010 -0.016090 -0.010710 
#    y -0.016090 1.862970 -0.013780 
#    z -0.010710 -0.013780 1.877660 
# 
# From -- ./inp_files/203367.got.cif
#   From: 2010.06.25/outbox.cif.g09.slc.cpg/sg2_102_cif.got.tgz:203367.got - 2010.06.27 13:26:56.
