data_PCOD8011229
_publ_section_title
;
Structure prediction by ZEFSAII (Michael W. Deem and Ramdas Pophale) SiO2 
 PCOD8011229
Probable space group: P -1
;
_chemical_formula_sum "Si O2"
_cell_formula_units_Z 16
_cell_length_a 19.730186
_cell_length_b 11.203450
_cell_length_c 14.421150
_cell_angle_alpha 31.742117
_cell_angle_beta 135.264254
_cell_angle_gamma 150.901078
_cell_volume 808.887160
_symmetry_space_group_name_H-M "P -1"
_symmetry_group_IT_number 2
_symmetry_cell_setting 'triclinic'
loop_
_space_group_symop_operation_xyz
x,y,z
-x,-y,-z
loop_
_atom_site_type_symbol
_atom_site_label
_atom_site_fract_x
_atom_site_fract_y
_atom_site_fract_z
Si Si1 0.602848 0.871172 0.322718
Si Si2 0.328073 0.601764 0.223272
Si Si3 0.799700 0.048384 0.543203
Si Si4 0.142482 0.117724 0.753660
Si Si5 0.914514 0.286129 0.875588
Si Si6 0.892974 0.698354 0.666268
Si Si7 0.228112 0.888017 0.852541
Si Si8 0.117115 0.587576 0.434237
O O1 0.500000 0.500000 0.500000
O O2 0.498209 0.910857 0.194095
O O3 0.730240 0.108787 0.363222
O O4 0.654824 0.899133 0.253040
O O5 0.244239 0.388156 0.379555
O O6 0.285751 0.335761 0.283051
O O7 0.266366 0.739857 0.050144
O O8 0.790754 0.140226 0.575843
O O9 0.959122 0.270697 0.523194
O O10 0.184069 0.455092 0.562715
O O11 0.235672 0.126360 0.767175
O O12 0.980607 0.799327 0.778404
O O13 0.150517 0.046270 0.916246
O O14 0.834408 0.366155 0.786349
O O15 0.883047 0.235048 0.768883
O O16 0.079327 0.601990 0.846319
O O17 0.000000 0.000000 0.500000
#
# Coordination Sequence:
#
# PCOD8011229 Si02
#       8
#     2   2   2   2   2   2   2   2
#     4  10  23  36  59  81 114 154 193 234 287 346
#     4  11  20  38  59  84 119 148 190 243 286 339
#     4  10  21  39  52  86 116 156 197 221 287 356
#     4  11  21  34  58  91 117 143 191 242 294 343
#     4  11  19  34  57  89 118 145 187 242 294 337
#     4  11  18  30  57  88 115 142 181 245 292 323
#     4  11  20  36  56  90 115 140 196 245 290 336
#     4  11  21  36  60  80 125 156 183 241 286 341
#
# _framework density 19.780263000000001
#
# number of rings (size 3 to 8) (size 9 to 14) (size 15 to 20)
#    0.000    1.250    6.250    1.125    5.250    0.000 
#    2.250    1.875    0.000    7.500    0.000    0.000 
#    0.000    0.000    0.000    0.000    0.000    0.000 
#
# Total GULP energy -198233.226778 kJ/mol
# GULP energy per Si atom -12389.576674 kJ/mol
# Density = 1.973524 g / cm^3
# Si number density = 19.780263 Si / 1000 Ang^3
#
#
#
# Elastic Constant Matrix: (Units=GPa)
#
#
# Indices 1 2 3 4 5 6 
#
# 1 139.6796 46.4708 48.4357 14.0980 -2.2237 5.9244
# 2 46.4708 56.5608 21.3902 13.7161 7.6010 -3.8761
# 3 48.4357 21.3902 92.0672 18.8554 -5.6702 -2.3269
# 4 14.0980 13.7161 18.8554 19.3785 1.4960 -5.9639
# 5 -2.2237 7.6010 -5.6702 1.4960 41.0085 1.9119
# 6 5.9244 -3.8761 -2.3269 -5.9639 1.9119 29.0769
#
#
#
# Elastic Compliance Matrix: (Units=1/GPa)
#
#
# Indices 1 2 3 4 5 6 
#
# 1 0.011613 -0.008552 -0.004178 0.000332 0.001806 -0.003891
# 2 -0.008552 0.028703 0.000214 -0.012866 -0.005439 0.003305
# 3 -0.004178 0.000214 0.015773 -0.012846 0.002414 -0.000651
# 4 0.000332 -0.012866 -0.012846 0.077252 -0.002808 0.013219
# 5 0.001806 -0.005439 0.002414 -0.002808 0.026076 -0.003190
# 6 -0.003891 0.003305 -0.000651 0.013219 -0.003190 0.038494
#
#
# Mechanical properties :
#
#
# Convention : Reuss Voigt Hill
#
# Bulk Modulus (GPa) = 32.19852 57.87791 45.03822
# Shear Modulus (GPa) = 21.43207 29.36019 25.39613
#
# Velocity S-wave (km/s) = 3.29524 3.85686 3.58706
# Velocity P-wave (km/s) = 5.54902 7.01126 6.32255
#
# Compressibility (1/GPa) = 0.03105733
#
# Stress axis : x y z
#
# Youngs Moduli (GPa) = 86.10766 34.84007 63.39946
#
# Poissons Ratio (x) = 0.29794 0.26488
# Poissons Ratio (y) = 0.73636 -0.01355
# Poissons Ratio (z) = 0.35976 -0.00745
#
# Static dielectric constant tensor:
#      x y z
#    x 6.503480 2.637880 0.888720 
#    y 2.637880 5.830260 1.217270 
#    z 0.888720 1.217270 4.129320 
# 
# 
# High freq. dielectric constant tensor:
#      x y z
#    x 1.782830 0.007290 -0.002950 
#    y 0.007290 1.716120 0.022940 
#    z -0.002950 0.022940 1.776920 
# 
# From -- ./inp_files/303412.got.cif
#   From: 2010.06.25/outbox.cif.g09.slc.cpg/sg2_152_cif.got.tgz:303412.got - 2010.06.27 13:26:56.
