data_PCOD8011880
_publ_section_title
;
Structure prediction by ZEFSAII (Michael W. Deem and Ramdas Pophale) SiO2 
 PCOD8011880
Probable space group: P -1
;
_chemical_formula_sum "Si O2"
_cell_formula_units_Z 16
_cell_length_a 11.281801
_cell_length_b 7.489429
_cell_length_c 8.415200
_cell_angle_alpha 102.662049
_cell_angle_beta 93.465570
_cell_angle_gamma 99.236363
_cell_volume 681.364330
_symmetry_space_group_name_H-M "P -1"
_symmetry_group_IT_number 2
_symmetry_cell_setting 'triclinic'
loop_
_space_group_symop_operation_xyz
x,y,z
-x,-y,-z
loop_
_atom_site_type_symbol
_atom_site_label
_atom_site_fract_x
_atom_site_fract_y
_atom_site_fract_z
Si Si1 0.662343 0.687669 0.631420
Si Si2 0.437390 0.791778 0.150863
Si Si3 0.970701 0.716736 0.935399
Si Si4 0.416977 0.727176 0.489305
Si Si5 0.227231 0.965226 0.485952
Si Si6 0.354887 0.122847 0.036664
Si Si7 0.824675 0.346217 0.843551
Si Si8 0.123667 0.014385 0.811685
O O1 0.520521 0.707846 0.618955
O O2 0.674650 0.472918 0.564469
O O3 0.705902 0.743239 0.825878
O O4 0.736037 0.826273 0.537219
O O5 0.479935 0.789107 0.336627
O O6 0.310400 0.648551 0.102585
O O7 0.415733 0.995026 0.136930
O O8 0.544704 0.746350 0.038639
O O9 0.096791 0.669451 0.996945
O O10 0.902238 0.784636 0.096566
O O11 0.885058 0.543287 0.809091
O O12 0.006684 0.869967 0.832134
O O13 0.338514 0.884117 0.560318
O O14 0.173812 0.823372 0.313127
O O15 0.129729 0.985103 0.617523
O O16 0.252299 0.995958 0.898279
#
# Coordination Sequence:
#
# PCOD8011880 Si02
#       8
#     2   2   2   2   2   2   2   2
#     4  11  22  40  62  93 136 175 217 260 324 396
#     4  10  21  39  64  96 127 170 210 265 324 388
#     4  10  23  44  68  90 130 170 223 275 314 389
#     4  10  23  39  60  94 132 177 213 264 323 389
#     4  11  23  42  67  94 131 171 214 275 327 386
#     4  11  22  37  67  97 131 171 214 263 324 394
#     4  10  21  45  66  94 128 174 217 269 331 373
#     4  11  24  42  66  99 128 173 219 267 330 384
#
# _framework density 23.482298
#
# number of rings (size 3 to 8) (size 9 to 14) (size 15 to 20)
#    0.000    1.500    3.750    1.125    7.000    1.500 
#    9.000    0.000    0.000    0.000    0.000    0.000 
#    0.000    0.000    0.000    0.000    0.000    0.000 
#
# Total GULP energy -198301.557200 kJ/mol
# GULP energy per Si atom -12393.847325 kJ/mol
# Density = 2.342885 g / cm^3
# Si number density = 23.482298 Si / 1000 Ang^3
#
#
#
# Elastic Constant Matrix: (Units=GPa)
#
#
# Indices 1 2 3 4 5 6 
#
# 1 57.0850 24.7379 20.6757 -4.1356 -16.6958 22.6706
# 2 24.7379 139.0643 43.3179 6.7545 -20.7376 27.6008
# 3 20.6757 43.3179 73.6866 0.4185 -20.6010 24.1819
# 4 -4.1356 6.7545 0.4185 26.1163 8.9728 4.9054
# 5 -16.6958 -20.7376 -20.6010 8.9728 38.4423 -3.5173
# 6 22.6706 27.6008 24.1819 4.9054 -3.5173 36.3059
#
#
#
# Elastic Compliance Matrix: (Units=1/GPa)
#
#
# Indices 1 2 3 4 5 6 
#
# 1 0.027190 -0.000575 0.000806 0.004368 0.009378 -0.016759
# 2 -0.000575 0.009816 -0.003184 -0.003046 0.003665 -0.004216
# 3 0.000806 -0.003184 0.021577 -0.000408 0.009238 -0.011504
# 4 0.004368 -0.003046 -0.000408 0.044970 -0.011129 -0.007294
# 5 0.009378 0.003665 0.009238 -0.011129 0.038738 -0.009538
# 6 -0.016759 -0.004216 -0.011504 -0.007294 -0.009538 0.048938
#
#
# Mechanical properties :
#
#
# Convention : Reuss Voigt Hill
#
# Bulk Modulus (GPa) = 18.98368 49.69987 34.34177
# Shear Modulus (GPa) = 23.28895 32.24655 27.76775
#
# Velocity S-wave (km/s) = 3.15265 3.70973 3.44248
# Velocity P-wave (km/s) = 4.62105 6.28969 5.51880
#
# Compressibility (1/GPa) = 0.05267684
#
# Stress axis : x y z
#
# Youngs Moduli (GPa) = 36.77821 101.87258 46.34578
#
# Poissons Ratio (x) = 0.05860 -0.03735
# Poissons Ratio (y) = 0.02116 0.14755
# Poissons Ratio (z) = -0.02964 0.32434
#
# Static dielectric constant tensor:
#      x y z
#    x 4.166080 0.119840 0.086810 
#    y 0.119840 4.379420 -0.008920 
#    z 0.086810 -0.008920 4.032960 
# 
# 
# High freq. dielectric constant tensor:
#      x y z
#    x 1.921760 0.006890 0.018460 
#    y 0.006890 1.934290 0.000460 
#    z 0.018460 0.000460 1.910930 
# 
# From -- ./inp_files/245068.got.cif
#   From: 2010.06.25/outbox.cif.g09.slc.cpg/sg2_123_cif.got.tgz:245068.got - 2010.06.27 13:26:56.
