data_PCOD8011291
_publ_section_title
;
Structure prediction by ZEFSAII (Michael W. Deem and Ramdas Pophale) SiO2 
 PCOD8011291
Probable space group: P -1
;
_chemical_formula_sum "Si O2"
_cell_formula_units_Z 16
_cell_length_a 9.479191
_cell_length_b 9.223606
_cell_length_c 13.978602
_cell_angle_alpha 66.591883
_cell_angle_beta 79.737487
_cell_angle_gamma 43.955180
_cell_volume 767.256279
_symmetry_space_group_name_H-M "P -1"
_symmetry_group_IT_number 2
_symmetry_cell_setting 'triclinic'
loop_
_space_group_symop_operation_xyz
x,y,z
-x,-y,-z
loop_
_atom_site_type_symbol
_atom_site_label
_atom_site_fract_x
_atom_site_fract_y
_atom_site_fract_z
Si Si1 0.933506 0.645846 0.564000
Si Si2 0.630215 0.789931 0.731493
Si Si3 0.932425 0.980218 0.413795
Si Si4 0.504642 0.783441 0.103482
Si Si5 0.774348 0.731855 0.937155
Si Si6 0.636035 0.729418 0.299098
Si Si7 0.545178 0.393120 0.250034
Si Si8 0.623686 0.362004 0.614312
O O1 0.769303 0.694675 0.643125
O O2 0.833744 0.888521 0.475852
O O3 0.000000 0.500000 0.500000
O O4 0.147754 0.511621 0.628500
O O5 0.765207 0.724702 0.825170
O O6 0.535184 0.689528 0.781481
O O7 0.432086 0.064924 0.683632
O O8 0.135338 0.807177 0.372928
O O9 0.784784 0.195822 0.304585
O O10 0.000000 0.000000 0.500000
O O11 0.653326 0.742449 0.179078
O O12 0.491624 0.602741 0.152018
O O13 0.279915 0.046087 0.077696
O O14 0.603504 0.750775 0.998661
O O15 0.000000 0.500000 0.000000
O O16 0.444853 0.758868 0.317462
O O17 0.430779 0.465916 0.345337
O O18 0.500000 0.500000 0.500000
#
# Coordination Sequence:
#
# PCOD8011291 Si02
#       8
#     2   2   2   2   2   2   2   2
#     4  12  24  36  55  85 125 168 204 239 294 350
#     4  11  25  39  60  89 123 163 200 253 306 357
#     4  12  22  35  59  85 114 168 209 243 285 349
#     4   9  21  41  65  89 117 150 193 256 311 356
#     4  10  21  43  71  90 111 152 203 249 311 375
#     4  10  21  39  59  85 122 158 204 253 294 358
#     4  11  24  39  56  90 128 154 201 250 299 357
#     4  11  20  37  57  80 117 161 208 249 289 336
#
# _framework density 20.853528000000001
#
# number of rings (size 3 to 8) (size 9 to 14) (size 15 to 20)
#    0.000    1.250    2.500    3.750    0.000    4.500 
#    0.000    0.625    0.000    0.000    0.000    0.000 
#    0.000    0.000    0.000    0.000    0.000    0.000 
#
# Total GULP energy -198244.143845 kJ/mol
# GULP energy per Si atom -12390.258990 kJ/mol
# Density = 2.080606 g / cm^3
# Si number density = 20.853528 Si / 1000 Ang^3
#
#
#
# Elastic Constant Matrix: (Units=GPa)
#
#
# Indices 1 2 3 4 5 6 
#
# 1 80.9735 33.4619 13.4312 -8.7363 -13.4802 12.6671
# 2 33.4619 112.3820 28.8908 -12.6364 -6.2379 0.4767
# 3 13.4312 28.8908 70.4553 -4.5738 -11.6875 -0.5471
# 4 -8.7363 -12.6364 -4.5738 48.0096 1.7552 0.2896
# 5 -13.4802 -6.2379 -11.6875 1.7552 27.2126 -6.0351
# 6 12.6671 0.4767 -0.5471 0.2896 -6.0351 42.4050
#
#
#
# Elastic Compliance Matrix: (Units=1/GPa)
#
#
# Indices 1 2 3 4 5 6 
#
# 1 0.015849 -0.004127 -0.000291 0.001581 0.005819 -0.003874
# 2 -0.004127 0.011274 -0.003882 0.001880 -0.001050 0.000894
# 3 -0.000291 -0.003882 0.016949 0.000294 0.006509 0.001274
# 4 0.001581 0.001880 0.000294 0.021651 -0.000204 -0.000666
# 5 0.005819 -0.001050 0.006509 -0.000204 0.043198 0.004507
# 6 -0.003874 0.000894 0.001274 -0.000666 0.004507 0.025392
#
#
# Mechanical properties :
#
#
# Convention : Reuss Voigt Hill
#
# Bulk Modulus (GPa) = 36.39976 46.15315 41.27646
# Shear Modulus (GPa) = 31.23636 36.06057 33.64847
#
# Velocity S-wave (km/s) = 3.87446 4.16291 4.02127
# Velocity P-wave (km/s) = 6.12439 6.72953 6.43408
#
# Compressibility (1/GPa) = 0.02747271
#
# Stress axis : x y z
#
# Youngs Moduli (GPa) = 63.09634 88.69834 58.99932
#
# Poissons Ratio (x) = 0.36606 0.01718
# Poissons Ratio (y) = 0.26040 0.22901
# Poissons Ratio (z) = 0.01838 0.34429
#
# Static dielectric constant tensor:
#      x y z
#    x 3.242160 0.279080 0.131990 
#    y 0.279080 3.997600 -0.230550 
#    z 0.131990 -0.230550 3.725810 
# 
# 
# High freq. dielectric constant tensor:
#      x y z
#    x 1.793690 0.007130 -0.006320 
#    y 0.007130 1.833600 -0.001810 
#    z -0.006320 -0.001810 1.819130 
# 
# From -- ./inp_files/315059.got.cif
#   From: 2010.06.25/outbox.cif.g09.slc.cpg/sg2_158_cif.got.tgz:315059.got - 2010.06.27 13:26:56.
