data_PCOD8011802
_publ_section_title
;
Structure prediction by ZEFSAII (Michael W. Deem and Ramdas Pophale) SiO2 
 PCOD8011802
Probable space group: P -1
;
_chemical_formula_sum "Si O2"
_cell_formula_units_Z 16
_cell_length_a 8.402538
_cell_length_b 19.277275
_cell_length_c 11.366175
_cell_angle_alpha 53.966131
_cell_angle_beta 59.289583
_cell_angle_gamma 32.173256
_cell_volume 792.418795
_symmetry_space_group_name_H-M "P -1"
_symmetry_group_IT_number 2
_symmetry_cell_setting 'triclinic'
loop_
_space_group_symop_operation_xyz
x,y,z
-x,-y,-z
loop_
_atom_site_type_symbol
_atom_site_label
_atom_site_fract_x
_atom_site_fract_y
_atom_site_fract_z
Si Si1 0.954843 0.145965 0.324387
Si Si2 0.711008 0.126791 0.647493
Si Si3 0.989156 0.935036 0.170649
Si Si4 0.510341 0.559777 0.828372
Si Si5 0.806611 0.384490 0.341969
Si Si6 0.262122 0.661507 0.343652
Si Si7 0.387160 0.105974 0.337313
Si Si8 0.981525 0.606255 0.366916
O O1 0.821489 0.157910 0.484019
O O2 0.669665 0.288527 0.218081
O O3 0.213819 0.118332 0.288758
O O4 0.106798 0.024841 0.299669
O O5 0.358266 0.239145 0.663110
O O6 0.772182 0.130131 0.754681
O O7 0.077169 0.808491 0.213647
O O8 0.659456 0.057095 0.226401
O O9 0.000000 0.000000 0.000000
O O10 0.311758 0.601641 0.752479
O O11 0.853089 0.447135 0.769444
O O12 0.500000 0.500000 0.000000
O O13 0.616687 0.538688 0.295669
O O14 0.752064 0.331788 0.515971
O O15 0.168012 0.259944 0.321178
O O16 0.140977 0.613319 0.391065
O O17 0.500000 0.000000 0.500000
O O18 0.000000 0.500000 0.500000
#
# Coordination Sequence:
#
# PCOD8011802 Si02
#       8
#     2   2   2   2   2   2   2   2
#     4  10  21  39  64  91 123 160 209 261 307 358
#     4  11  23  38  61  98 123 156 214 261 297 372
#     4  12  26  42  61  92 133 166 204 257 310 371
#     4  10  21  40  62  90 129 163 199 254 317 369
#     4   9  20  35  69  90 115 161 215 250 302 369
#     4  10  21  41  66  93 126 162 207 259 312 359
#     4  11  19  39  66  89 119 165 213 250 308 369
#     4  11  23  39  68  98 121 160 212 260 309 369
#
# _framework density 20.191344000000001
#
# number of rings (size 3 to 8) (size 9 to 14) (size 15 to 20)
#    0.000    1.500    3.750    1.500    3.500    4.000 
#    0.000    2.500    0.000    0.000    0.000    0.000 
#    0.000    0.000    0.000    0.000    0.000    0.000 
#
# Total GULP energy -198248.780935 kJ/mol
# GULP energy per Si atom -12390.548808 kJ/mol
# Density = 2.014539 g / cm^3
# Si number density = 20.191344 Si / 1000 Ang^3
#
#
#
# Elastic Constant Matrix: (Units=GPa)
#
#
# Indices 1 2 3 4 5 6 
#
# 1 61.8624 27.1326 35.4274 -2.6095 2.7517 3.0126
# 2 27.1326 195.4120 73.7711 -7.9145 -5.2878 -9.8807
# 3 35.4274 73.7711 144.7461 -0.9709 -5.2307 4.7699
# 4 -2.6095 -7.9145 -0.9709 32.9736 -1.5966 -6.9075
# 5 2.7517 -5.2878 -5.2307 -1.5966 11.5873 -3.5808
# 6 3.0126 -9.8807 4.7699 -6.9075 -3.5808 30.1356
#
#
#
# Elastic Compliance Matrix: (Units=1/GPa)
#
#
# Indices 1 2 3 4 5 6 
#
# 1 0.019768 -0.001479 -0.004288 0.000120 -0.008129 -0.002721
# 2 -0.001479 0.006900 -0.003136 0.002439 0.003625 0.003896
# 3 -0.004288 -0.003136 0.009731 -0.001070 0.003214 -0.002003
# 4 0.000120 0.002439 -0.001070 0.033286 0.008140 0.009554
# 5 -0.008129 0.003625 0.003214 0.008140 0.097060 0.014891
# 6 -0.002721 0.003896 -0.002003 0.009554 0.014891 0.039009
#
#
# Mechanical properties :
#
#
# Convention : Reuss Voigt Hill
#
# Bulk Modulus (GPa) = 53.77891 74.96473 64.37182
# Shear Modulus (GPa) = 21.76191 32.65193 27.20692
#
# Velocity S-wave (km/s) = 3.28652 4.02571 3.67475
# Velocity P-wave (km/s) = 6.41047 7.66917 7.06790
#
# Compressibility (1/GPa) = 0.01859465
#
# Stress axis : x y z
#
# Youngs Moduli (GPa) = 50.58604 144.91787 102.75962
#
# Poissons Ratio (x) = 0.21429 0.44064
# Poissons Ratio (y) = 0.07480 0.32226
# Poissons Ratio (z) = 0.21692 0.45447
#
# Static dielectric constant tensor:
#      x y z
#    x 3.583980 0.200450 -0.053030 
#    y 0.200450 5.035210 -0.342110 
#    z -0.053030 -0.342110 3.478690 
# 
# 
# High freq. dielectric constant tensor:
#      x y z
#    x 1.766320 0.000070 0.009680 
#    y 0.000070 1.828570 -0.009600 
#    z 0.009680 -0.009600 1.759240 
# 
# From -- ./inp_files/333722.got.cif
#   From: 2010.06.25/outbox.cif.g09.slc.cpg/sg2_167_cif.got.tgz:333722.got - 2010.06.27 13:26:56.
