data_PCOD8011578
_publ_section_title
;
Structure prediction by ZEFSAII (Michael W. Deem and Ramdas Pophale) SiO2 
 PCOD8011578
Probable space group: P -1
;
_chemical_formula_sum "Si O2"
_cell_formula_units_Z 14
_cell_length_a 15.054933
_cell_length_b 26.907290
_cell_length_c 14.367114
_cell_angle_alpha 20.413058
_cell_angle_beta 158.432492
_cell_angle_gamma 161.376510
_cell_volume 600.734658
_symmetry_space_group_name_H-M "P -1"
_symmetry_group_IT_number 2
_symmetry_cell_setting 'triclinic'
loop_
_space_group_symop_operation_xyz
x,y,z
-x,-y,-z
loop_
_atom_site_type_symbol
_atom_site_label
_atom_site_fract_x
_atom_site_fract_y
_atom_site_fract_z
Si Si1 0.317059 0.867626 0.136566
Si Si2 0.564448 0.227185 0.239858
Si Si3 0.236551 0.909909 0.186493
Si Si4 0.670837 0.788691 0.148238
Si Si5 0.620583 0.562164 0.235468
Si Si6 0.816059 0.546966 0.646662
Si Si7 0.622459 0.670794 0.760518
O O1 0.389977 0.962052 0.142917
O O2 0.425630 0.741542 0.470004
O O3 0.975902 0.794203 0.909298
O O4 0.500000 0.000000 0.000000
O O5 0.550123 0.072310 0.552632
O O6 0.864527 0.376993 0.216373
O O7 0.313940 0.139472 0.067992
O O8 0.521782 0.330679 0.096531
O O9 0.957312 0.702221 0.277597
O O10 0.161551 0.045825 0.906699
O O11 0.834672 0.692854 0.475617
O O12 0.325327 0.637443 0.112149
O O13 0.600085 0.504534 0.422932
O O14 0.435080 0.383136 0.309276
O O15 0.500000 0.500000 0.000000
#
# Coordination Sequence:
#
# PCOD8011578 Si02
#       7
#     2   2   2   2   2   2   2
#     4  12  29  49  72 112 147 187 244 306 367 421
#     4  10  21  39  62  97 125 174 229 276 340 432
#     4  11  24  40  64  94 137 173 232 285 355 412
#     4  10  21  39  62  94 133 173 215 287 348 414
#     4  10  23  39  66  95 129 180 230 279 348 424
#     4   9  21  39  61  94 132 170 226 270 351 427
#     4  12  25  48  78 101 145 192 244 298 355 436
#
# _framework density 23.304798000000002
#
# number of rings (size 3 to 8) (size 9 to 14) (size 15 to 20)
#    0.000    1.429    1.429    2.571    6.000    6.286 
#    0.000    0.000    0.000    0.000    0.000    0.000 
#    0.000    0.000    0.000    0.000    0.000    0.000 
#
# Total GULP energy -173480.042166 kJ/mol
# GULP energy per Si atom -12391.431583 kJ/mol
# Density = 2.325175 g / cm^3
# Si number density = 23.304798 Si / 1000 Ang^3
#
#
#
# Elastic Constant Matrix: (Units=GPa)
#
#
# Indices 1 2 3 4 5 6 
#
# 1 148.2330 26.7783 43.0766 -10.3870 -0.4555 -17.4410
# 2 26.7783 57.8948 16.4961 2.7567 -1.8109 -15.4376
# 3 43.0766 16.4961 105.4756 0.1573 3.5256 -17.5094
# 4 -10.3870 2.7567 0.1573 27.9758 6.5884 8.9428
# 5 -0.4555 -1.8109 3.5256 6.5884 44.5158 -11.2224
# 6 -17.4410 -15.4376 -17.5094 8.9428 -11.2224 41.1098
#
#
#
# Elastic Compliance Matrix: (Units=1/GPa)
#
#
# Indices 1 2 3 4 5 6 
#
# 1 0.008435 -0.003149 -0.002889 0.003394 -0.000223 0.000366
# 2 -0.003149 0.021923 -0.000720 -0.007354 0.004370 0.009383
# 3 -0.002889 -0.000720 0.011430 -0.002447 0.000411 0.004016
# 4 0.003394 -0.007354 -0.002447 0.045027 -0.010524 -0.015032
# 5 -0.000223 0.004370 0.000411 -0.010524 0.027036 0.011391
# 6 0.000366 0.009383 0.004016 -0.015032 0.011391 0.036094
#
#
# Mechanical properties :
#
#
# Convention : Reuss Voigt Hill
#
# Bulk Modulus (GPa) = 35.37141 53.81170 44.59156
# Shear Modulus (GPa) = 28.92071 37.73709 33.32890
#
# Velocity S-wave (km/s) = 3.52657 4.02840 3.78581
# Velocity P-wave (km/s) = 5.63852 6.69163 6.18752
#
# Compressibility (1/GPa) = 0.02827142
#
# Stress axis : x y z
#
# Youngs Moduli (GPa) = 118.55628 45.61371 87.48843
#
# Poissons Ratio (x) = 0.14364 0.25276
# Poissons Ratio (y) = 0.37334 0.06301
# Poissons Ratio (z) = 0.34252 0.03285
#
# Static dielectric constant tensor:
#      x y z
#    x 38.524540 19.544670 44.984580 
#    y 19.544670 14.944360 26.013040 
#    z 44.984580 26.013040 64.173400 
# 
# 
# High freq. dielectric constant tensor:
#      x y z
#    x 1.940360 0.002660 0.000570 
#    y 0.002660 1.894640 0.003620 
#    z 0.000570 0.003620 1.927440 
# 
# From -- ./inp_files/41031.got.cif
#   From: 2010.06.25/outbox.cif.g09.slc.cpg/sg2_21_cif.got.tgz:41031.got - 2010.06.27 13:26:56.
