data_PCOD8011384
_publ_section_title
;
Structure prediction by ZEFSAII (Michael W. Deem and Ramdas Pophale) SiO2 
 PCOD8011384
Probable space group: P -1
;
_chemical_formula_sum "Si O2"
_cell_formula_units_Z 14
_cell_length_a 6.775583
_cell_length_b 16.766176
_cell_length_c 8.516753
_cell_angle_alpha 94.650337
_cell_angle_beta 90.077401
_cell_angle_gamma 42.214410
_cell_volume 645.442084
_symmetry_space_group_name_H-M "P -1"
_symmetry_group_IT_number 2
_symmetry_cell_setting 'triclinic'
loop_
_space_group_symop_operation_xyz
x,y,z
-x,-y,-z
loop_
_atom_site_type_symbol
_atom_site_label
_atom_site_fract_x
_atom_site_fract_y
_atom_site_fract_z
Si Si1 0.823423 0.175505 0.347975
Si Si2 0.128220 0.406978 0.717859
Si Si3 0.153854 0.990846 0.848152
Si Si4 0.795448 0.224879 0.704202
Si Si5 0.806912 0.378714 0.910659
Si Si6 0.850815 0.636226 0.635271
Si Si7 0.168724 0.199178 0.165184
O O1 0.862697 0.068663 0.303066
O O2 0.926503 0.170167 0.521595
O O3 0.479910 0.299988 0.342573
O O4 0.021893 0.161612 0.218540
O O5 0.470435 0.285697 0.724353
O O6 0.022702 0.408326 0.547250
O O7 0.955916 0.414308 0.855138
O O8 0.049607 0.525330 0.740660
O O9 0.484538 0.916865 0.883045
O O10 0.994385 0.119745 0.815005
O O11 0.000000 0.000000 0.000000
O O12 0.775415 0.325083 0.759251
O O13 0.500000 0.500000 0.000000
O O14 0.013689 0.273882 0.019422
O O15 0.877181 0.720751 0.688886
#
# Coordination Sequence:
#
# PCOD8011384 Si02
#       7
#     2   2   2   2   2   2   2
#     4  10  22  41  64  89 117 154 201 245 292 350
#     4  10  21  39  61  85 120 156 196 245 294 347
#     4  11  24  41  62  89 120 156 198 243 296 352
#     4  11  24  41  62  88 119 158 201 243 290 351
#     4  12  25  38  60  92 122 156 197 242 297 354
#     4   9  20  39  62  87 115 156 198 242 295 350
#     4  11  23  39  61  87 121 156 194 245 297 347
#
# _framework density 21.690560999999999
#
# number of rings (size 3 to 8) (size 9 to 14) (size 15 to 20)
#    0.000    1.429    0.000    4.714    0.000    8.571 
#    0.000    5.714    0.000    0.000    0.000    0.000 
#    0.000    0.000    0.000    0.000    0.000    0.000 
#
# Total GULP energy -173654.247039 kJ/mol
# GULP energy per Si atom -12403.874789 kJ/mol
# Density = 2.164119 g / cm^3
# Si number density = 21.690561 Si / 1000 Ang^3
#
#
#
# Elastic Constant Matrix: (Units=GPa)
#
#
# Indices 1 2 3 4 5 6 
#
# 1 85.6817 27.7928 20.3524 -7.7452 -15.8029 -7.7689
# 2 27.7928 118.3952 25.6501 -10.6982 -4.2289 -8.5515
# 3 20.3524 25.6501 70.2660 -9.6383 -7.4933 -12.7372
# 4 -7.7452 -10.6982 -9.6383 36.4471 5.0153 2.4119
# 5 -15.8029 -4.2289 -7.4933 5.0153 41.2841 5.8495
# 6 -7.7689 -8.5515 -12.7372 2.4119 5.8495 32.6469
#
#
#
# Elastic Compliance Matrix: (Units=1/GPa)
#
#
# Indices 1 2 3 4 5 6 
#
# 1 0.014026 -0.002464 -0.002397 0.000953 0.004439 0.000891
# 2 -0.002464 0.009770 -0.002516 0.001716 -0.000749 0.000999
# 3 -0.002397 -0.002516 0.017261 0.002855 0.000883 0.005136
# 4 0.000953 0.001716 0.002855 0.029238 -0.002504 0.000079
# 5 0.004439 -0.000749 0.000883 -0.002504 0.026793 -0.003411
# 6 0.000891 0.000999 0.005136 0.000079 -0.003411 0.033713
#
#
# Mechanical properties :
#
#
# Convention : Reuss Voigt Hill
#
# Bulk Modulus (GPa) = 38.02020 46.88152 42.45086
# Shear Modulus (GPa) = 32.39946 35.44547 33.92246
#
# Velocity S-wave (km/s) = 3.86905 4.04684 3.95894
# Velocity P-wave (km/s) = 6.12584 6.59519 6.36484
#
# Compressibility (1/GPa) = 0.02630181
#
# Stress axis : x y z
#
# Youngs Moduli (GPa) = 71.29855 102.35123 57.93272
#
# Poissons Ratio (x) = 0.25219 0.13888
# Poissons Ratio (y) = 0.17568 0.14578
# Poissons Ratio (z) = 0.17092 0.25756
#
# Static dielectric constant tensor:
#      x y z
#    x 3.851370 0.024500 0.144180 
#    y 0.024500 4.021020 0.101470 
#    z 0.144180 0.101470 3.933040 
# 
# 
# High freq. dielectric constant tensor:
#      x y z
#    x 1.849550 0.001190 0.005450 
#    y 0.001190 1.861660 0.007580 
#    z 0.005450 0.007580 1.856720 
# 
# From -- ./inp_files/27677.got.cif
#   From: 2010.06.25/outbox.cif.g09.slc.cpg/sg2_14_cif.got.tgz:27677.got - 2010.06.27 13:26:56.
