data_PCOD8011153
_publ_section_title
;
Structure prediction by ZEFSAII (Michael W. Deem and Ramdas Pophale) SiO2 
 PCOD8011153
Probable space group: P -1
;
_chemical_formula_sum "Si O2"
_cell_formula_units_Z 16
_cell_length_a 15.791890
_cell_length_b 9.694974
_cell_length_c 9.615669
_cell_angle_alpha 114.645129
_cell_angle_beta 144.320514
_cell_angle_gamma 75.172276
_cell_volume 770.851676
_symmetry_space_group_name_H-M "P -1"
_symmetry_group_IT_number 2
_symmetry_cell_setting 'triclinic'
loop_
_space_group_symop_operation_xyz
x,y,z
-x,-y,-z
loop_
_atom_site_type_symbol
_atom_site_label
_atom_site_fract_x
_atom_site_fract_y
_atom_site_fract_z
Si Si1 0.945452 0.647676 0.919348
Si Si2 0.492472 0.828938 0.477771
Si Si3 0.734433 0.614081 0.366518
Si Si4 0.176154 0.839930 0.797475
Si Si5 0.817273 0.280481 0.947067
Si Si6 0.113553 0.371579 0.709820
Si Si7 0.204251 0.178977 0.977020
Si Si8 0.451454 0.707701 0.082578
O O1 0.810664 0.608556 0.615753
O O2 0.900844 0.754763 0.025945
O O3 0.000000 0.500000 0.000000
O O4 0.078056 0.746669 0.052169
O O5 0.348055 0.769764 0.353913
O O6 0.632510 0.814859 0.748789
O O7 0.500000 0.000000 0.500000
O O8 0.477895 0.705586 0.282038
O O9 0.855456 0.646845 0.420504
O O10 0.635363 0.452509 0.147748
O O11 0.617679 0.737496 0.253024
O O12 0.340823 0.830153 0.953065
O O13 0.056154 0.702787 0.517752
O O14 0.172423 0.832696 0.957237
O O15 0.134781 0.004703 0.771861
O O16 0.859587 0.453816 0.132519
O O17 0.218846 0.279455 0.899162
#
# Coordination Sequence:
#
# PCOD8011153 Si02
#       8
#     2   2   2   2   2   2   2   2
#     4  12  25  43  65 103 132 167 222 283 322 381
#     4  11  21  44  67  96 132 174 219 270 332 390
#     4  11  22  41  67  95 127 169 222 266 317 393
#     4  11  22  43  68  94 131 176 217 263 332 398
#     4  11  22  41  70  92 129 177 220 261 329 386
#     4  12  23  43  66  99 129 175 221 267 323 399
#     4  12  26  42  67  97 137 171 216 276 335 381
#     4  10  21  38  68  91 123 175 217 257 324 388
#
# _framework density 20.756263000000001
#
# number of rings (size 3 to 8) (size 9 to 14) (size 15 to 20)
#    0.000    0.750    8.750    1.500    0.000    1.000 
#    6.750    0.625    0.000    0.000    0.000    0.000 
#    0.000    0.000    0.000    0.000    0.000    0.000 
#
# Total GULP energy -198275.484422 kJ/mol
# GULP energy per Si atom -12392.217776 kJ/mol
# Density = 2.070902 g / cm^3
# Si number density = 20.756263 Si / 1000 Ang^3
#
#
#
# Elastic Constant Matrix: (Units=GPa)
#
#
# Indices 1 2 3 4 5 6 
#
# 1 73.3364 32.2991 31.6605 -1.6431 11.7225 -11.8212
# 2 32.2991 90.4873 33.3043 -9.1932 -4.9274 -14.6827
# 3 31.6605 33.3043 99.8344 -8.2222 22.6350 -5.5090
# 4 -1.6431 -9.1932 -8.2222 34.3716 4.2800 2.8922
# 5 11.7225 -4.9274 22.6350 4.2800 27.8751 -8.4832
# 6 -11.8212 -14.6827 -5.5090 2.8922 -8.4832 23.3982
#
#
#
# Elastic Compliance Matrix: (Units=1/GPa)
#
#
# Indices 1 2 3 4 5 6 
#
# 1 0.018625 -0.005446 -0.002750 -0.000851 -0.005364 0.003505
# 2 -0.005446 0.018562 -0.007238 -0.000009 0.015331 0.012752
# 3 -0.002750 -0.007238 0.017205 0.004980 -0.017554 -0.008861
# 4 -0.000851 -0.000009 0.004980 0.032190 -0.010809 -0.007161
# 5 -0.005364 0.015331 -0.017554 -0.010809 0.065200 0.027752
# 6 0.003505 0.012752 -0.008861 -0.007161 0.027752 0.061372
#
#
# Mechanical properties :
#
#
# Convention : Reuss Voigt Hill
#
# Bulk Modulus (GPa) = 42.51101 50.90951 46.71026
# Shear Modulus (GPa) = 19.85199 28.22192 24.03695
#
# Velocity S-wave (km/s) = 3.09598 3.69139 3.40672
# Velocity P-wave (km/s) = 5.77110 6.53827 6.16663
#
# Compressibility (1/GPa) = 0.02352332
#
# Stress axis : x y z
#
# Youngs Moduli (GPa) = 53.69136 53.87274 58.12374
#
# Poissons Ratio (x) = 0.29337 0.15986
# Poissons Ratio (y) = 0.29238 0.42072
# Poissons Ratio (z) = 0.14767 0.38995
#
# Static dielectric constant tensor:
#      x y z
#    x 4.183280 -0.275490 0.233490 
#    y -0.275490 3.910560 -0.147160 
#    z 0.233490 -0.147160 4.091390 
# 
# 
# High freq. dielectric constant tensor:
#      x y z
#    x 1.801760 -0.018620 0.014160 
#    y -0.018620 1.798500 -0.003870 
#    z 0.014160 -0.003870 1.831150 
# 
# From -- ./inp_files/277793.got.cif
#   From: 2010.06.25/outbox.cif.g09.slc.cpg/sg2_139_cif.got.tgz:277793.got - 2010.06.27 13:26:56.
