data_PCOD8011876
_publ_section_title
;
Structure prediction by ZEFSAII (Michael W. Deem and Ramdas Pophale) SiO2 
 PCOD8011876
Probable space group: P -1
;
_chemical_formula_sum "Si O2"
_cell_formula_units_Z 16
_cell_length_a 12.887695
_cell_length_b 8.742018
_cell_length_c 8.600266
_cell_angle_alpha 60.712864
_cell_angle_beta 113.458483
_cell_angle_gamma 119.106069
_cell_volume 721.889334
_symmetry_space_group_name_H-M "P -1"
_symmetry_group_IT_number 2
_symmetry_cell_setting 'triclinic'
loop_
_space_group_symop_operation_xyz
x,y,z
-x,-y,-z
loop_
_atom_site_type_symbol
_atom_site_label
_atom_site_fract_x
_atom_site_fract_y
_atom_site_fract_z
Si Si1 0.784018 0.459672 0.660024
Si Si2 0.925816 0.865674 0.658298
Si Si3 0.682720 0.249196 0.428509
Si Si4 0.536641 0.281769 0.774221
Si Si5 0.338420 0.900779 0.830779
Si Si6 0.525631 0.602419 0.801498
Si Si7 0.757460 0.942594 0.756261
Si Si8 0.138960 0.840479 0.992674
O O1 0.833197 0.678426 0.616964
O O2 0.781719 0.430061 0.485311
O O3 0.643708 0.355994 0.677017
O O4 0.866325 0.360529 0.844557
O O5 0.850371 0.968714 0.655958
O O6 0.000000 0.000000 0.500000
O O7 0.008942 0.810314 0.858264
O O8 0.727839 0.224515 0.294719
O O9 0.551560 0.265380 0.333359
O O10 0.676003 0.069470 0.617783
O O11 0.494731 0.451599 0.717593
O O12 0.422545 0.111304 0.718213
O O13 0.579196 0.202764 0.992608
O O14 0.239291 0.919580 0.879549
O O15 0.668787 0.726251 0.822509
O O16 0.500000 0.500000 0.000000
O O17 0.830726 0.004051 0.930575
#
# Coordination Sequence:
#
# PCOD8011876 Si02
#       8
#     2   2   2   2   2   2   2   2
#     4  10  24  44  65  99 129 177 225 274 334 396
#     4  12  25  47  69  97 132 177 229 283 331 387
#     4  11  25  40  66  99 139 178 214 275 336 401
#     4  10  21  39  64  95 138 173 215 272 330 402
#     4  10  21  40  66 101 136 173 216 269 338 394
#     4  12  23  39  65 102 135 175 217 268 333 404
#     4  11  25  44  66  99 134 175 226 273 337 392
#     4  10  23  45  71  94 132 180 225 275 330 396
#
# _framework density 22.164065000000001
#
# number of rings (size 3 to 8) (size 9 to 14) (size 15 to 20)
#    0.000    1.250    2.500    2.625    7.000    3.500 
#    0.000    6.875    0.000    0.000    0.000    0.000 
#    0.000    0.000    0.000    0.000    0.000    0.000 
#
# Total GULP energy -198442.593011 kJ/mol
# GULP energy per Si atom -12402.662063 kJ/mol
# Density = 2.211362 g / cm^3
# Si number density = 22.164065 Si / 1000 Ang^3
#
#
#
# Elastic Constant Matrix: (Units=GPa)
#
#
# Indices 1 2 3 4 5 6 
#
# 1 110.7016 54.5050 40.0301 2.1656 -8.2936 -12.8574
# 2 54.5050 141.1254 45.7159 18.5362 -20.5414 -16.7388
# 3 40.0301 45.7159 84.0522 21.7908 -10.4027 -4.8918
# 4 2.1656 18.5362 21.7908 36.7977 -4.3449 -7.5109
# 5 -8.2936 -20.5414 -10.4027 -4.3449 34.7224 1.9854
# 6 -12.8574 -16.7388 -4.8918 -7.5109 1.9854 33.2752
#
#
#
# Elastic Compliance Matrix: (Units=1/GPa)
#
#
# Indices 1 2 3 4 5 6 
#
# 1 0.013020 -0.003537 -0.005361 0.004900 -0.000180 0.003580
# 2 -0.003537 0.010600 -0.002778 -0.002435 0.004131 0.002761
# 3 -0.005361 -0.002778 0.018486 -0.009664 0.001578 -0.003027
# 4 0.004900 -0.002435 -0.009664 0.035405 0.000854 0.007188
# 5 -0.000180 0.004131 0.001578 0.000854 0.031750 0.000539
# 6 0.003580 0.002761 -0.003027 0.007188 0.000539 0.033970
#
#
# Mechanical properties :
#
#
# Convention : Reuss Voigt Hill
#
# Bulk Modulus (GPa) = 53.32035 68.48679 60.90357
# Shear Modulus (GPa) = 28.92947 34.00094 31.46520
#
# Velocity S-wave (km/s) = 3.61673 3.92095 3.77191
# Velocity P-wave (km/s) = 6.44596 7.17395 6.81967
#
# Compressibility (1/GPa) = 0.01875457
#
# Stress axis : x y z
#
# Youngs Moduli (GPa) = 76.80590 94.33561 54.09495
#
# Poissons Ratio (x) = 0.33366 0.29002
# Poissons Ratio (y) = 0.27166 0.15026
# Poissons Ratio (z) = 0.41177 0.26204
#
# Static dielectric constant tensor:
#      x y z
#    x 3.884650 -0.267540 0.057520 
#    y -0.267540 4.090460 0.178890 
#    z 0.057520 0.178890 4.071240 
# 
# 
# High freq. dielectric constant tensor:
#      x y z
#    x 1.862970 -0.021670 0.002380 
#    y -0.021670 1.875660 0.012820 
#    z 0.002380 0.012820 1.877670 
# 
# From -- ./inp_files/242648.got.cif
#   From: 2010.06.25/outbox.cif.g09.slc.cpg/sg2_122_cif.got.tgz:242648.got - 2010.06.27 13:26:56.
