data_PCOD8011754
_publ_section_title
;
Structure prediction by ZEFSAII (Michael W. Deem and Ramdas Pophale) SiO2 
 PCOD8011754
Probable space group: P -1
;
_chemical_formula_sum "Si O2"
_cell_formula_units_Z 16
_cell_length_a 11.112123
_cell_length_b 15.998447
_cell_length_c 11.290970
_cell_angle_alpha 131.756486
_cell_angle_beta 152.395570
_cell_angle_gamma 40.692906
_cell_volume 606.311205
_symmetry_space_group_name_H-M "P -1"
_symmetry_group_IT_number 2
_symmetry_cell_setting 'triclinic'
loop_
_space_group_symop_operation_xyz
x,y,z
-x,-y,-z
loop_
_atom_site_type_symbol
_atom_site_label
_atom_site_fract_x
_atom_site_fract_y
_atom_site_fract_z
Si Si1 0.597218 0.654556 0.719422
Si Si2 0.237577 0.577409 0.186069
Si Si3 0.625595 0.505164 0.239479
Si Si4 0.726192 0.872507 0.849983
Si Si5 0.209677 0.286533 0.457629
Si Si6 0.817261 0.189951 0.292713
Si Si7 0.580647 0.841454 0.251319
Si Si8 0.102451 0.929820 0.397722
O O1 0.373116 0.668186 0.430737
O O2 0.722548 0.517529 0.762127
O O3 0.392118 0.768465 0.735685
O O4 0.885538 0.662234 0.929037
O O5 0.421630 0.494809 0.155022
O O6 0.631930 0.637771 0.387496
O O7 0.949861 0.381658 0.409359
O O8 0.500000 0.500000 0.000000
O O9 0.899998 0.769976 0.799601
O O10 0.461147 0.844957 0.638200
O O11 0.579841 0.014067 0.799887
O O12 0.941634 0.851236 0.131054
O O13 0.433483 0.169158 0.627890
O O14 0.065774 0.236354 0.551428
O O15 0.016786 0.036541 0.322567
O O16 0.595033 0.229569 0.023119
O O17 0.000000 0.000000 0.500000
#
# Coordination Sequence:
#
# PCOD8011754 Si02
#       8
#     2   2   2   2   2   2   2   2
#     4  10  21  39  67  95 122 173 217 285 328 388
#     4  10  23  41  63  91 131 164 229 278 331 392
#     4  11  28  46  64  97 141 188 231 279 350 415
#     4  10  23  43  69 103 130 173 233 278 334 411
#     4  11  26  44  68  97 134 189 226 284 344 400
#     4  10  21  39  64 101 130 172 221 275 345 405
#     4  10  22  40  71  99 138 171 226 285 336 407
#     4  10  22  42  65  97 138 172 211 277 347 411
#
# _framework density 26.389088000000001
#
# number of rings (size 3 to 8) (size 9 to 14) (size 15 to 20)
#    0.000    1.750    0.000    2.250    8.750    2.000 
#    0.000    3.750    0.000    0.000    0.000    0.000 
#    0.000    0.000    0.000    0.000    0.000    0.000 
#
# Total GULP energy -198317.109178 kJ/mol
# GULP energy per Si atom -12394.819324 kJ/mol
# Density = 2.632903 g / cm^3
# Si number density = 26.389088 Si / 1000 Ang^3
#
#
#
# Elastic Constant Matrix: (Units=GPa)
#
#
# Indices 1 2 3 4 5 6 
#
# 1 108.3906 28.1522 68.4530 2.6145 -3.5051 -26.5200
# 2 28.1522 51.3853 62.1513 7.5953 7.8949 -11.8178
# 3 68.4530 62.1513 249.5851 4.9476 -0.8332 -13.8335
# 4 2.6145 7.5953 4.9476 35.0461 -14.9012 -6.1887
# 5 -3.5051 7.8949 -0.8332 -14.9012 46.0396 3.4199
# 6 -26.5200 -11.8178 -13.8335 -6.1887 3.4199 34.5985
#
#
#
# Elastic Compliance Matrix: (Units=1/GPa)
#
#
# Indices 1 2 3 4 5 6 
#
# 1 0.013770 -0.002963 -0.002592 0.002192 0.001570 0.008743
# 2 -0.002963 0.033885 -0.007157 -0.009161 -0.009558 0.005748
# 3 -0.002592 -0.007157 0.006380 0.001236 0.001681 -0.001826
# 4 0.002192 -0.009161 0.001236 0.036584 0.013284 0.004276
# 5 0.001570 -0.009558 0.001681 0.013284 0.027941 -0.001775
# 6 0.008743 0.005748 -0.001826 0.004276 -0.001775 0.037778
#
#
# Mechanical properties :
#
#
# Convention : Reuss Voigt Hill
#
# Bulk Modulus (GPa) = 34.95287 80.76379 57.85833
# Shear Modulus (GPa) = 26.13708 39.84378 32.99043
#
# Velocity S-wave (km/s) = 3.15056 3.88991 3.53959
# Velocity P-wave (km/s) = 5.14865 7.13068 6.21913
#
# Compressibility (1/GPa) = 0.02860996
#
# Stress axis : x y z
#
# Youngs Moduli (GPa) = 72.62346 29.51142 156.74382
#
# Poissons Ratio (x) = 0.08744 0.40634
# Poissons Ratio (y) = 0.21517 1.12185
# Poissons Ratio (z) = 0.18827 0.21122
#
# Static dielectric constant tensor:
#      x y z
#    x 5.271100 -0.274810 0.623720 
#    y -0.274810 5.090260 -0.416930 
#    z 0.623720 -0.416930 5.750250 
# 
# 
# High freq. dielectric constant tensor:
#      x y z
#    x 2.050150 0.022900 -0.001790 
#    y 0.022900 2.071380 -0.010900 
#    z -0.001790 -0.010900 2.077920 
# 
# From -- ./inp_files/436925.got.cif
#   From: 2010.06.25/outbox.cif.g09.slc.cpg/sg2_219_cif.got.tgz:436925.got - 2010.06.27 13:26:56.
