data_PCOD8011017
_publ_section_title
;
Structure prediction by ZEFSAII (Michael W. Deem and Ramdas Pophale) SiO2 
 PCOD8011017
Probable space group: P -1
;
_chemical_formula_sum "Si O2"
_cell_formula_units_Z 16
_cell_length_a 12.328821
_cell_length_b 16.761896
_cell_length_c 8.525206
_cell_angle_alpha 100.202563
_cell_angle_beta 84.584468
_cell_angle_gamma 26.408786
_cell_volume 629.314149
_symmetry_space_group_name_H-M "P -1"
_symmetry_group_IT_number 2
_symmetry_cell_setting 'triclinic'
loop_
_space_group_symop_operation_xyz
x,y,z
-x,-y,-z
loop_
_atom_site_type_symbol
_atom_site_label
_atom_site_fract_x
_atom_site_fract_y
_atom_site_fract_z
Si Si1 0.314581 0.370870 0.450321
Si Si2 0.990007 0.546650 0.266801
Si Si3 0.385194 0.503929 0.115568
Si Si4 0.310589 0.189306 0.899398
Si Si5 0.753510 0.292947 0.277104
Si Si6 0.884203 0.960590 0.389052
Si Si7 0.748416 0.141931 0.756920
Si Si8 0.931064 0.763024 0.810012
O O1 0.211291 0.448295 0.309696
O O2 0.214707 0.357563 0.545949
O O3 0.203501 0.525010 0.615402
O O4 0.675962 0.117762 0.319982
O O5 0.784854 0.742449 0.246667
O O6 0.191831 0.348023 0.067248
O O7 0.590355 0.354294 0.188125
O O8 0.038499 0.764144 0.297874
O O9 0.500000 0.500000 0.000000
O O10 0.437214 0.381895 0.972915
O O11 0.669189 0.944446 0.778233
O O12 0.187833 0.191900 0.994897
O O13 0.500000 0.500000 0.500000
O O14 0.943884 0.235887 0.162066
O O15 0.985378 0.070927 0.243582
O O16 0.146060 0.845953 0.329174
O O17 0.681186 0.117622 0.629103
#
# Coordination Sequence:
#
# PCOD8011017 Si02
#       8
#     2   2   2   2   2   2   2   2
#     4  10  21  38  65  98 131 171 218 274 342 398
#     4   9  20  40  67  93 129 169 219 283 332 402
#     4  10  23  41  63  95 131 176 223 272 326 408
#     4   9  20  43  65  93 131 169 225 276 337 397
#     4  12  23  41  65  95 136 176 223 278 337 403
#     4  10  21  41  65  94 136 177 214 278 337 396
#     4  10  22  40  66  91 136 177 221 273 326 404
#     4  10  23  39  66  94 130 179 218 274 334 402
#
# _framework density 25.424503000000001
#
# number of rings (size 3 to 8) (size 9 to 14) (size 15 to 20)
#    0.000    2.000    1.250    1.125    5.250    2.500 
#    0.000    3.750    0.000    0.000    0.000    0.000 
#    0.000    0.000    0.000    0.000    0.000    0.000 
#
# Total GULP energy -198351.448042 kJ/mol
# GULP energy per Si atom -12396.965503 kJ/mol
# Density = 2.536664 g / cm^3
# Si number density = 25.424503 Si / 1000 Ang^3
#
#
#
# Elastic Constant Matrix: (Units=GPa)
#
#
# Indices 1 2 3 4 5 6 
#
# 1 56.0766 16.9558 26.5386 7.9604 13.2946 1.7438
# 2 16.9558 183.0604 52.2500 1.5515 19.1224 4.9614
# 3 26.5386 52.2500 104.3812 9.9722 31.9597 5.7043
# 4 7.9604 1.5515 9.9722 52.5136 9.1447 6.2437
# 5 13.2946 19.1224 31.9597 9.1447 29.2855 0.3673
# 6 1.7438 4.9614 5.7043 6.2437 0.3673 34.5881
#
#
#
# Elastic Compliance Matrix: (Units=1/GPa)
#
#
# Indices 1 2 3 4 5 6 
#
# 1 0.021008 -0.000427 -0.003437 -0.001640 -0.004994 -0.000082
# 2 -0.000427 0.006429 -0.002787 0.000672 -0.001166 -0.000550
# 3 -0.003437 -0.002787 0.016396 0.000268 -0.014571 -0.002025
# 4 -0.001640 0.000672 0.000268 0.020785 -0.006431 -0.003742
# 5 -0.004994 -0.001166 -0.014571 -0.006431 0.055042 0.003398
# 6 -0.000082 -0.000550 -0.002025 -0.003742 0.003398 0.029968
#
#
# Mechanical properties :
#
#
# Convention : Reuss Voigt Hill
#
# Bulk Modulus (GPa) = 32.75454 59.44522 46.09988
# Shear Modulus (GPa) = 28.88411 39.79569 34.33990
#
# Velocity S-wave (km/s) = 3.37423 3.96062 3.67912
# Velocity P-wave (km/s) = 5.30015 6.65936 6.01825
#
# Compressibility (1/GPa) = 0.03053012
#
# Stress axis : x y z
#
# Youngs Moduli (GPa) = 47.60129 155.55520 60.99214
#
# Poissons Ratio (x) = 0.06642 0.20965
# Poissons Ratio (y) = 0.02032 0.16996
# Poissons Ratio (z) = 0.16362 0.43348
#
# Static dielectric constant tensor:
#      x y z
#    x 4.430300 0.100860 0.251780 
#    y 0.100860 4.600490 0.010860 
#    z 0.251780 0.010860 4.929800 
# 
# 
# High freq. dielectric constant tensor:
#      x y z
#    x 1.991320 0.007690 0.010670 
#    y 0.007690 2.031460 0.001930 
#    z 0.010670 0.001930 2.007120 
# 
# From -- ./inp_files/319017.got.cif
#   From: 2010.06.25/outbox.cif.g09.slc.cpg/sg2_160_cif.got.tgz:319017.got - 2010.06.27 13:26:56.
