data_PCOD8011318
_publ_section_title
;
Structure prediction by ZEFSAII (Michael W. Deem and Ramdas Pophale) SiO2 
 PCOD8011318
Probable space group: P -1
;
_chemical_formula_sum "Si O2"
_cell_formula_units_Z 16
_cell_length_a 8.966511
_cell_length_b 9.316895
_cell_length_c 8.547931
_cell_angle_alpha 95.042320
_cell_angle_beta 81.408968
_cell_angle_gamma 89.218006
_cell_volume 703.089738
_symmetry_space_group_name_H-M "P -1"
_symmetry_group_IT_number 2
_symmetry_cell_setting 'triclinic'
loop_
_space_group_symop_operation_xyz
x,y,z
-x,-y,-z
loop_
_atom_site_type_symbol
_atom_site_label
_atom_site_fract_x
_atom_site_fract_y
_atom_site_fract_z
Si Si1 0.456565 0.829131 0.812202
Si Si2 0.150742 0.701137 0.847974
Si Si3 0.295573 0.432490 0.663183
Si Si4 0.936012 0.916994 0.736826
Si Si5 0.817172 0.327972 0.791239
Si Si6 0.902678 0.816932 0.384639
Si Si7 0.638572 0.076037 0.832219
Si Si8 0.393216 0.463929 0.305716
O O1 0.294195 0.787866 0.767013
O O2 0.579301 0.703660 0.747394
O O3 0.522896 0.976717 0.742914
O O4 0.449035 0.854166 0.001054
O O5 0.164272 0.536871 0.768688
O O6 0.002370 0.783792 0.814822
O O7 0.145243 0.698341 0.035630
O O8 0.246763 0.265145 0.658500
O O9 0.324499 0.489475 0.489814
O O10 0.452110 0.448611 0.735224
O O11 0.884022 0.862474 0.570767
O O12 0.786582 0.979025 0.853923
O O13 0.058846 0.043947 0.713487
O O14 0.701459 0.207060 0.732723
O O15 0.734191 0.481662 0.792370
O O16 0.965847 0.307012 0.661640
#
# Coordination Sequence:
#
# PCOD8011318 Si02
#       8
#     2   2   2   2   2   2   2   2
#     4   9  19  35  56  82 111 147 188 228 276 331
#     4  10  22  38  57  86 119 148 185 233 282 336
#     4  10  22  39  60  85 112 149 193 233 280 336
#     4  10  21  39  60  83 115 150 187 235 283 331
#     4  10  22  38  57  86 119 148 185 233 282 336
#     4  10  22  39  60  85 112 149 193 233 280 336
#     4   9  19  35  56  82 111 147 188 228 276 331
#     4  10  21  39  60  83 115 150 187 235 283 331
#
# _framework density 22.756696999999999
#
# number of rings (size 3 to 8) (size 9 to 14) (size 15 to 20)
#    0.000    2.250    0.000    1.500    0.000   13.500 
#    0.000    5.000    0.000    9.000    0.000    0.000 
#    0.000    0.000    0.000    0.000    0.000    0.000 
#
# Total GULP energy -198305.056250 kJ/mol
# GULP energy per Si atom -12394.066016 kJ/mol
# Density = 2.270490 g / cm^3
# Si number density = 22.756697 Si / 1000 Ang^3
#
#
#
# Elastic Constant Matrix: (Units=GPa)
#
#
# Indices 1 2 3 4 5 6 
#
# 1 25.3330 10.3990 9.1363 7.3580 -8.3529 -5.9829
# 2 10.3990 72.4465 17.7081 28.4683 3.0483 8.0290
# 3 9.1363 17.7081 60.5664 12.6839 -5.3898 -13.5409
# 4 7.3580 28.4683 12.6839 30.6619 -5.7144 2.8294
# 5 -8.3529 3.0483 -5.3898 -5.7144 24.0813 3.4718
# 6 -5.9829 8.0290 -13.5409 2.8294 3.4718 59.9556
#
#
#
# Elastic Compliance Matrix: (Units=1/GPa)
#
#
# Indices 1 2 3 4 5 6 
#
# 1 0.050438 -0.007134 -0.002679 -0.001663 0.016756 0.004492
# 2 -0.007134 0.025116 -0.003356 -0.022011 -0.011174 -0.003147
# 3 -0.002679 -0.003356 0.020134 -0.004602 0.002215 0.004818
# 4 -0.001663 -0.022011 -0.004602 0.058381 0.015307 -0.001899
# 5 0.016756 -0.011174 0.002215 0.015307 0.052897 -0.000117
# 6 0.004492 -0.003147 0.004818 -0.001899 -0.000117 0.018733
#
#
# Mechanical properties :
#
#
# Convention : Reuss Voigt Hill
#
# Bulk Modulus (GPa) = 14.41952 25.87029 20.14490
# Shear Modulus (GPa) = 18.17165 31.01326 24.59245
#
# Velocity S-wave (km/s) = 2.82887 3.69564 3.29092
# Velocity P-wave (km/s) = 4.12555 5.44089 4.82822
#
# Compressibility (1/GPa) = 0.06935044
#
# Stress axis : x y z
#
# Youngs Moduli (GPa) = 19.82643 39.81533 49.66681
#
# Poissons Ratio (x) = 0.28405 0.13305
# Poissons Ratio (y) = 0.14145 0.16666
# Poissons Ratio (z) = 0.05311 0.13360
#
# Static dielectric constant tensor:
#      x y z
#    x 4.226980 0.266630 -0.245150 
#    y 0.266630 4.266410 0.322420 
#    z -0.245150 0.322420 3.661680 
# 
# 
# High freq. dielectric constant tensor:
#      x y z
#    x 1.895730 0.009880 -0.025200 
#    y 0.009880 1.905500 0.030070 
#    z -0.025200 0.030070 1.865690 
# 
# From -- ./inp_files/158733.got.cif
#   From: 2010.06.25/outbox.cif.g09.slc.cpg/sg2_80_cif.got.tgz:158733.got - 2010.06.27 13:26:56.
