data_PCOD8011864
_publ_section_title
;
Structure prediction by ZEFSAII (Michael W. Deem and Ramdas Pophale) SiO2 
 PCOD8011864
Probable space group: P -1
;
_chemical_formula_sum "Si O2"
_cell_formula_units_Z 14
_cell_length_a 8.726189
_cell_length_b 5.291230
_cell_length_c 18.315341
_cell_angle_alpha 56.251716
_cell_angle_beta 116.798805
_cell_angle_gamma 97.644635
_cell_volume 619.725242
_symmetry_space_group_name_H-M "P -1"
_symmetry_group_IT_number 2
_symmetry_cell_setting 'triclinic'
loop_
_space_group_symop_operation_xyz
x,y,z
-x,-y,-z
loop_
_atom_site_type_symbol
_atom_site_label
_atom_site_fract_x
_atom_site_fract_y
_atom_site_fract_z
Si Si1 0.181144 0.897934 0.284667
Si Si2 0.742666 0.322546 0.992822
Si Si3 0.967263 0.439543 0.900443
Si Si4 0.865383 0.723642 0.184256
Si Si5 0.607855 0.251200 0.511560
Si Si6 0.482261 0.322194 0.694237
Si Si7 0.428401 0.626724 0.790261
O O1 0.232270 0.917660 0.378125
O O2 0.330033 0.689607 0.302121
O O3 0.997178 0.767994 0.270997
O O4 0.151936 0.225781 0.185105
O O5 0.855308 0.228393 0.957713
O O6 0.550701 0.489922 0.905352
O O7 0.846807 0.551766 0.022629
O O8 0.725650 0.029150 0.087488
O O9 0.000422 0.313037 0.847654
O O10 0.766003 0.438987 0.224104
O O11 0.500000 0.500000 0.500000
O O12 0.658057 0.437929 0.420750
O O13 0.500000 0.000000 0.500000
O O14 0.494191 0.456811 0.756402
O O15 0.418807 0.992330 0.729298
#
# Coordination Sequence:
#
# PCOD8011864 Si02
#       7
#     2   2   2   2   2   2   2
#     4  10  22  41  68  95 126 167 217 275 319 380
#     4  10  22  39  62  94 124 175 221 269 313 379
#     4  10  21  39  64  95 125 167 222 268 321 376
#     4  11  25  39  63  95 133 174 217 262 330 383
#     4  10  22  40  70 102 124 161 219 274 318 377
#     4  11  24  44  67  97 128 170 220 266 324 383
#     4  12  26  42  66  94 138 175 211 267 322 391
#
# _framework density 22.590655999999999
#
# number of rings (size 3 to 8) (size 9 to 14) (size 15 to 20)
#    0.000    1.429    1.429    3.429   10.000    0.571 
#    0.000    1.429    0.000    0.000    0.000    0.000 
#    0.000    0.000    0.000    0.000    0.000    0.000 
#
# Total GULP energy -173526.257222 kJ/mol
# GULP energy per Si atom -12394.732659 kJ/mol
# Density = 2.253924 g / cm^3
# Si number density = 22.590656 Si / 1000 Ang^3
#
#
#
# Elastic Constant Matrix: (Units=GPa)
#
#
# Indices 1 2 3 4 5 6 
#
# 1 39.8513 17.6152 33.2130 -0.1916 7.4306 19.3035
# 2 17.6152 131.2356 60.9771 0.8903 4.1478 18.5965
# 3 33.2130 60.9771 153.2138 17.4816 10.4348 25.0564
# 4 -0.1916 0.8903 17.4816 33.7079 10.0001 -6.1651
# 5 7.4306 4.1478 10.4348 10.0001 14.6472 4.9407
# 6 19.3035 18.5965 25.0564 -6.1651 4.9407 37.8659
#
#
#
# Elastic Compliance Matrix: (Units=1/GPa)
#
#
# Indices 1 2 3 4 5 6 
#
# 1 0.039269 -0.000250 -0.005833 0.005216 -0.014784 -0.013258
# 2 -0.000250 0.009592 -0.003574 0.001323 -0.000284 -0.001966
# 3 -0.005833 -0.003574 0.010394 -0.006660 0.002305 -0.003535
# 4 0.005216 0.001323 -0.006660 0.045459 -0.033661 0.012891
# 5 -0.014784 -0.000284 0.002305 -0.033661 0.101430 -0.012564
# 6 -0.013258 -0.001966 -0.003535 0.012891 -0.012564 0.040210
#
#
# Mechanical properties :
#
#
# Convention : Reuss Voigt Hill
#
# Bulk Modulus (GPa) = 25.03606 60.87904 42.95755
# Shear Modulus (GPa) = 17.92222 31.41056 24.66639
#
# Velocity S-wave (km/s) = 2.81970 3.73288 3.30795
# Velocity P-wave (km/s) = 4.65913 6.75178 5.80060
#
# Compressibility (1/GPa) = 0.03994238
#
# Stress axis : x y z
#
# Youngs Moduli (GPa) = 25.46546 104.24822 96.20507
#
# Poissons Ratio (x) = 0.02607 0.56118
# Poissons Ratio (y) = 0.00637 0.34379
# Poissons Ratio (z) = 0.14854 0.37253
#
# Static dielectric constant tensor:
#      x y z
#    x 3.649070 0.025880 0.011510 
#    y 0.025880 4.127500 0.103030 
#    z 0.011510 0.103030 4.957050 
# 
# 
# High freq. dielectric constant tensor:
#      x y z
#    x 1.850550 0.003750 0.001900 
#    y 0.003750 1.898930 0.006390 
#    z 0.001900 0.006390 1.907130 
# 
# From -- ./inp_files/34346.got.cif
#   From: 2010.06.25/outbox.cif.g09.slc.cpg/sg2_18_cif.got.tgz:34346.got - 2010.06.27 13:26:56.
