data_PCOD8011043
_publ_section_title
;
Structure prediction by ZEFSAII (Michael W. Deem and Ramdas Pophale) SiO2 
 PCOD8011043
Probable space group: P -1
;
_chemical_formula_sum "Si O2"
_cell_formula_units_Z 12
_cell_length_a 13.142842
_cell_length_b 8.393386
_cell_length_c 15.740955
_cell_angle_alpha 71.100819
_cell_angle_beta 162.538843
_cell_angle_gamma 114.650736
_cell_volume 455.800380
_symmetry_space_group_name_H-M "P -1"
_symmetry_group_IT_number 2
_symmetry_cell_setting 'triclinic'
loop_
_space_group_symop_operation_xyz
x,y,z
-x,-y,-z
loop_
_atom_site_type_symbol
_atom_site_label
_atom_site_fract_x
_atom_site_fract_y
_atom_site_fract_z
Si Si1 0.241786 0.796491 0.228205
Si Si2 0.446555 0.781560 0.577079
Si Si3 0.019373 0.087870 0.589655
Si Si4 0.681954 0.401417 0.001652
Si Si5 0.691249 0.346103 0.331306
Si Si6 0.323285 0.284751 0.553620
O O1 0.230033 0.715293 0.327507
O O2 0.399229 0.686767 0.308186
O O3 0.493802 0.010076 0.392109
O O4 0.833449 0.760211 0.879394
O O5 0.217964 0.659091 0.495019
O O6 0.412830 0.257350 0.881198
O O7 0.675409 0.154910 0.312673
O O8 0.000000 0.000000 0.500000
O O9 0.964655 0.926892 0.641405
O O10 0.669153 0.603055 0.973846
O O11 0.547034 0.335017 0.810577
O O12 0.097357 0.415326 0.340716
O O13 0.000000 0.500000 0.500000
#
# Coordination Sequence:
#
# PCOD8011043 Si02
#       6
#     2   2   2   2   2   2
#     4  10  21  38  66  90 126 161 218 259 300 367
#     4  10  21  40  61  97 120 166 210 261 310 367
#     4   9  19  39  64  92 121 165 213 261 305 371
#     4  10  23  37  61  92 131 161 206 255 322 371
#     4  10  21  43  65  95 132 167 204 264 324 379
#     4  11  20  41  61  93 122 169 211 257 303 370
#
# _framework density 26.327314000000001
#
# number of rings (size 3 to 8) (size 9 to 14) (size 15 to 20)
#    0.000    2.000    1.667    1.500    0.000    1.333 
#    0.000   29.167    0.000    0.000    0.000    0.000 
#    0.000    0.000    0.000    0.000    0.000    0.000 
#
# Total GULP energy -148716.422257 kJ/mol
# GULP energy per Si atom -12393.035188 kJ/mol
# Density = 2.626739 g / cm^3
# Si number density = 26.327314 Si / 1000 Ang^3
#
#
#
# Elastic Constant Matrix: (Units=GPa)
#
#
# Indices 1 2 3 4 5 6 
#
# 1 151.5804 54.4855 53.1443 -23.9000 21.4722 6.1682
# 2 54.4855 97.8100 40.0805 -38.2908 17.3804 -7.1462
# 3 53.1443 40.0805 127.1867 -30.4277 1.6603 -19.4290
# 4 -23.9000 -38.2908 -30.4277 51.3778 -9.3410 10.5001
# 5 21.4722 17.3804 1.6603 -9.3410 39.3528 -13.2152
# 6 6.1682 -7.1462 -19.4290 10.5001 -13.2152 50.0536
#
#
#
# Elastic Compliance Matrix: (Units=1/GPa)
#
#
# Indices 1 2 3 4 5 6 
#
# 1 0.010120 -0.003547 -0.003797 -0.000225 -0.005394 -0.004605
# 2 -0.003547 0.017285 -0.001705 0.009725 -0.003567 -0.000739
# 3 -0.003797 -0.001705 0.011603 0.003662 0.004976 0.005274
# 4 -0.000225 0.009725 0.003662 0.029691 0.001735 -0.002933
# 5 -0.005394 -0.003567 0.004976 0.001735 0.033698 0.010620
# 6 -0.004605 -0.000739 0.005274 -0.002933 0.010620 0.025907
#
#
# Mechanical properties :
#
#
# Convention : Reuss Voigt Hill
#
# Bulk Modulus (GPa) = 47.82384 74.66642 61.24513
# Shear Modulus (GPa) = 32.60057 43.41463 38.00760
#
# Velocity S-wave (km/s) = 3.52274 4.06524 3.80367
# Velocity P-wave (km/s) = 5.89498 7.10333 6.52717
#
# Compressibility (1/GPa) = 0.02091007
#
# Stress axis : x y z
#
# Youngs Moduli (GPa) = 98.81859 57.85234 86.18413
#
# Poissons Ratio (x) = 0.20519 0.32728
# Poissons Ratio (y) = 0.35049 0.14692
# Poissons Ratio (z) = 0.37525 0.09862
#
# Static dielectric constant tensor:
#      x y z
#    x 5.273950 0.205890 0.571050 
#    y 0.205890 5.918470 -0.410870 
#    z 0.571050 -0.410870 4.742550 
# 
# 
# High freq. dielectric constant tensor:
#      x y z
#    x 2.067160 0.007990 0.021100 
#    y 0.007990 2.078970 -0.019200 
#    z 0.021100 -0.019200 2.035740 
# 
# From -- ./inp_files/24241.got.cif
#   From: 2010.06.25/outbox.cif.g09.slc.cpg/sg2_13_cif.got.tgz:24241.got - 2010.06.27 13:26:56.
