data_PCOD8011351
_publ_section_title
;
Structure prediction by ZEFSAII (Michael W. Deem and Ramdas Pophale) SiO2 
 PCOD8011351
Probable space group: P -1
;
_chemical_formula_sum "Si O2"
_cell_formula_units_Z 14
_cell_length_a 5.266015
_cell_length_b 14.601656
_cell_length_c 13.026877
_cell_angle_alpha 136.384354
_cell_angle_beta 78.020087
_cell_angle_gamma 86.302761
_cell_volume 640.774237
_symmetry_space_group_name_H-M "P -1"
_symmetry_group_IT_number 2
_symmetry_cell_setting 'triclinic'
loop_
_space_group_symop_operation_xyz
x,y,z
-x,-y,-z
loop_
_atom_site_type_symbol
_atom_site_label
_atom_site_fract_x
_atom_site_fract_y
_atom_site_fract_z
Si Si1 0.952338 0.210713 0.530730
Si Si2 0.205833 0.729681 0.002484
Si Si3 0.560747 0.841328 0.407681
Si Si4 0.411152 0.123325 0.794913
Si Si5 0.615963 0.901855 0.752814
Si Si6 0.493564 0.443538 0.840989
Si Si7 0.742367 0.113092 0.063511
O O1 0.734626 0.124446 0.481520
O O2 0.798955 0.371761 0.708342
O O3 0.199355 0.135240 0.524996
O O4 0.089968 0.198752 0.395106
O O5 0.363998 0.809670 0.126565
O O6 0.890614 0.767393 0.090791
O O7 0.336950 0.564501 0.873463
O O8 0.205741 0.763004 0.907204
O O9 0.524195 0.925954 0.370121
O O10 0.655795 0.675052 0.235300
O O11 0.425027 0.980834 0.738175
O O12 0.467907 0.816024 0.767812
O O13 0.620765 0.031668 0.926425
O O14 0.500000 0.500000 0.000000
O O15 0.000000 0.000000 0.000000
#
# Coordination Sequence:
#
# PCOD8011351 Si02
#       7
#     2   2   2   2   2   2   2
#     4  10  24  38  58  89 124 165 185 250 292 359
#     4  11  22  35  63  90 118 151 209 240 301 339
#     4  10  22  37  56  90 123 160 195 229 306 344
#     4  11  21  36  60  90 116 162 191 252 288 362
#     4  10  23  40  61  87 123 148 209 245 310 341
#     4  10  21  39  60  88 125 161 195 241 284 365
#     4  10  21  41  64  88 110 161 198 263 290 355
#
# _framework density 21.848569000000001
#
# number of rings (size 3 to 8) (size 9 to 14) (size 15 to 20)
#    0.857    0.857    2.857    1.714    4.000    2.286 
#    0.000    0.714    0.000    1.714    0.000    0.000 
#    0.000    0.000    0.000    0.000    0.000    0.000 
#
# Total GULP energy -173457.668958 kJ/mol
# GULP energy per Si atom -12389.833497 kJ/mol
# Density = 2.179884 g / cm^3
# Si number density = 21.848569 Si / 1000 Ang^3
#
#
#
# Elastic Constant Matrix: (Units=GPa)
#
#
# Indices 1 2 3 4 5 6 
#
# 1 117.3299 32.0107 32.8151 -10.0349 -18.9217 -12.9017
# 2 32.0107 136.1896 51.2126 -13.2611 -20.9319 -15.8620
# 3 32.8151 51.2126 120.0739 -17.4790 -36.8091 0.8754
# 4 -10.0349 -13.2611 -17.4790 35.6380 5.5419 -8.1819
# 5 -18.9217 -20.9319 -36.8091 5.5419 47.8472 -1.9571
# 6 -12.9017 -15.8620 0.8754 -8.1819 -1.9571 29.9626
#
#
#
# Elastic Compliance Matrix: (Units=1/GPa)
#
#
# Indices 1 2 3 4 5 6 
#
# 1 0.010295 -0.000646 -0.001373 0.002737 0.002622 0.005050
# 2 -0.000646 0.009928 -0.003183 0.003095 0.001527 0.006016
# 3 -0.001373 -0.003183 0.012852 0.003272 0.007521 -0.001267
# 4 0.002737 0.003095 0.003272 0.034142 0.001496 0.012142
# 5 0.002622 0.001527 0.007521 0.001496 0.028380 0.003980
# 6 0.005050 0.006016 -0.001267 0.012142 0.003980 0.042347
#
#
# Mechanical properties :
#
#
# Convention : Reuss Voigt Hill
#
# Bulk Modulus (GPa) = 44.10741 67.29669 55.70205
# Shear Modulus (GPa) = 32.07064 39.85989 35.96527
#
# Velocity S-wave (km/s) = 3.83542 4.27590 4.06164
# Velocity P-wave (km/s) = 6.31233 7.43277 6.89535
#
# Compressibility (1/GPa) = 0.02267193
#
# Stress axis : x y z
#
# Youngs Moduli (GPa) = 97.13067 100.72321 77.80799
#
# Poissons Ratio (x) = 0.06507 0.10680
# Poissons Ratio (y) = 0.06275 0.24769
# Poissons Ratio (z) = 0.13332 0.32063
#
# Static dielectric constant tensor:
#      x y z
#    x 3.587110 0.620690 -1.009740 
#    y 0.620690 3.525410 1.064270 
#    z -1.009740 1.064270 1.811950 
# 
# 
# High freq. dielectric constant tensor:
#      x y z
#    x 1.861980 -0.008140 -0.008550 
#    y -0.008140 1.853220 -0.016920 
#    z -0.008550 -0.016920 1.860270 
# 
# From -- ./inp_files/66730.got.cif
#   From: 2010.06.25/outbox.cif.g09.slc.cpg/sg2_34_cif.got.tgz:66730.got - 2010.06.27 13:26:56.
