data_PCOD8011689
_publ_section_title
;
Structure prediction by ZEFSAII (Michael W. Deem and Ramdas Pophale) SiO2 
 PCOD8011689
Probable space group: P -1
;
_chemical_formula_sum "Si O2"
_cell_formula_units_Z 16
_cell_length_a 13.926013
_cell_length_b 9.560836
_cell_length_c 13.676998
_cell_angle_alpha 81.960031
_cell_angle_beta 146.760546
_cell_angle_gamma 75.010850
_cell_volume 713.436876
_symmetry_space_group_name_H-M "P -1"
_symmetry_group_IT_number 2
_symmetry_cell_setting 'triclinic'
loop_
_space_group_symop_operation_xyz
x,y,z
-x,-y,-z
loop_
_atom_site_type_symbol
_atom_site_label
_atom_site_fract_x
_atom_site_fract_y
_atom_site_fract_z
Si Si1 0.186587 0.473218 0.592806
Si Si2 0.917597 0.855311 0.031210
Si Si3 0.591027 0.927529 0.476934
Si Si4 0.833144 0.194430 0.461723
Si Si5 0.714263 0.232276 0.134221
Si Si6 0.324335 0.502167 0.062769
Si Si7 0.982182 0.133358 0.109424
Si Si8 0.906941 0.522073 0.703880
O O1 0.088035 0.687282 0.481792
O O2 0.185802 0.404498 0.491965
O O3 0.000000 0.500000 0.500000
O O4 0.458887 0.304750 0.881075
O O5 0.092957 0.641771 0.249549
O O6 0.953010 0.981351 0.107812
O O7 0.982561 0.839210 0.974964
O O8 0.644445 0.947190 0.805351
O O9 0.724192 0.702247 0.604176
O O10 0.787052 0.942697 0.620377
O O11 0.500000 0.000000 0.500000
O O12 0.746050 0.198088 0.279529
O O13 0.606251 0.299980 0.332255
O O14 0.063631 0.971480 0.712410
O O15 0.715683 0.395798 0.085981
O O16 0.258666 0.653723 0.076210
O O17 0.171499 0.445101 0.947166
#
# Coordination Sequence:
#
# PCOD8011689 Si02
#       8
#     2   2   2   2   2   2   2   2
#     4  11  23  40  63  94 134 163 210 273 317 377
#     4  10  22  43  64  93 134 166 222 268 325 393
#     4   9  21  41  62  93 132 172 213 271 324 378
#     4  10  22  40  66  91 121 178 212 258 325 390
#     4  10  22  41  63  90 130 167 218 258 323 389
#     4  10  21  39  63  92 128 166 214 266 320 379
#     4   9  21  41  66  93 131 173 209 277 328 378
#     4  11  24  39  66  97 125 172 219 262 329 388
#
# _framework density 22.426652000000001
#
# number of rings (size 3 to 8) (size 9 to 14) (size 15 to 20)
#    0.000    2.000    0.000    3.000    5.250    7.000 
#    2.250    6.875    0.000    0.000    0.000    0.000 
#    0.000    0.000    0.000    0.000    0.000    0.000 
#
# Total GULP energy -198375.922759 kJ/mol
# GULP energy per Si atom -12398.495172 kJ/mol
# Density = 2.237561 g / cm^3
# Si number density = 22.426652 Si / 1000 Ang^3
#
#
#
# Elastic Constant Matrix: (Units=GPa)
#
#
# Indices 1 2 3 4 5 6 
#
# 1 70.4286 40.8527 32.7287 -3.0487 18.3079 -6.5962
# 2 40.8527 143.8256 61.4936 -1.5079 13.6084 -8.5282
# 3 32.7287 61.4936 99.6684 -12.7518 20.9798 -7.4170
# 4 -3.0487 -1.5079 -12.7518 36.9009 -7.2795 1.7171
# 5 18.3079 13.6084 20.9798 -7.2795 31.6806 -8.9934
# 6 -6.5962 -8.5282 -7.4170 1.7171 -8.9934 29.3666
#
#
#
# Elastic Compliance Matrix: (Units=1/GPa)
#
#
# Indices 1 2 3 4 5 6 
#
# 1 0.019656 -0.003712 -0.002543 -0.001046 -0.008256 0.000228
# 2 -0.003712 0.010303 -0.005537 -0.001585 0.001384 0.001276
# 3 -0.002543 -0.005537 0.016019 0.003943 -0.005903 -0.000172
# 4 -0.001046 -0.001585 0.003943 0.029384 0.005502 0.000267
# 5 -0.008256 0.001384 -0.005903 0.005502 0.043795 0.010147
# 6 0.000228 0.001276 -0.000172 0.000267 0.010147 0.037523
#
#
# Mechanical properties :
#
#
# Convention : Reuss Voigt Hill
#
# Bulk Modulus (GPa) = 44.65685 64.89696 54.77690
# Shear Modulus (GPa) = 26.63431 31.51281 29.07356
#
# Velocity S-wave (km/s) = 3.44992 3.75260 3.60444
# Velocity P-wave (km/s) = 5.98539 6.91204 6.46534
#
# Compressibility (1/GPa) = 0.02239298
#
# Stress axis : x y z
#
# Youngs Moduli (GPa) = 50.87484 97.06245 62.42688
#
# Poissons Ratio (x) = 0.36030 0.15877
# Poissons Ratio (y) = 0.18885 0.34565
# Poissons Ratio (z) = 0.12939 0.53742
#
# Static dielectric constant tensor:
#      x y z
#    x 4.088010 -0.198560 0.381970 
#    y -0.198560 4.203260 0.056210 
#    z 0.381970 0.056210 4.260060 
# 
# 
# High freq. dielectric constant tensor:
#      x y z
#    x 1.881210 -0.013120 0.015550 
#    y -0.013120 1.891280 0.002680 
#    z 0.015550 0.002680 1.880310 
# 
# From -- ./inp_files/529703.got.cif
#   From: 2010.06.25/outbox.cif.g09.slc.cpg/sg2_265_cif.got.tgz:529703.got - 2010.06.27 13:26:56.
