data_PCOD8011262
_publ_section_title
;
Structure prediction by ZEFSAII (Michael W. Deem and Ramdas Pophale) SiO2 
 PCOD8011262
Probable space group: P -1
;
_chemical_formula_sum "Si O2"
_cell_formula_units_Z 16
_cell_length_a 15.167053
_cell_length_b 8.899021
_cell_length_c 12.148331
_cell_angle_alpha 142.239115
_cell_angle_beta 58.666190
_cell_angle_gamma 106.399820
_cell_volume 831.244770
_symmetry_space_group_name_H-M "P -1"
_symmetry_group_IT_number 2
_symmetry_cell_setting 'triclinic'
loop_
_space_group_symop_operation_xyz
x,y,z
-x,-y,-z
loop_
_atom_site_type_symbol
_atom_site_label
_atom_site_fract_x
_atom_site_fract_y
_atom_site_fract_z
Si Si1 0.520051 0.263403 0.602487
Si Si2 0.566227 0.114384 0.247558
Si Si3 0.124583 0.940023 0.899819
Si Si4 0.261910 0.612556 0.789643
Si Si5 0.250380 0.347367 0.084263
Si Si6 0.272631 0.580422 0.426891
Si Si7 0.654033 0.829195 0.676279
Si Si8 0.307308 0.636412 0.014099
O O1 0.518488 0.284607 0.482925
O O2 0.634394 0.281763 0.584797
O O3 0.500000 0.000000 0.500000
O O4 0.430836 0.491596 0.842378
O O5 0.641053 0.256382 0.216116
O O6 0.472867 0.080548 0.208171
O O7 0.632923 0.841885 0.088942
O O8 0.155692 0.785474 0.903572
O O9 0.181871 0.772453 0.664320
O O10 0.159997 0.201332 0.033055
O O11 0.000000 0.000000 0.000000
O O12 0.288832 0.334216 0.558440
O O13 0.244406 0.590741 0.918352
O O14 0.219851 0.507198 0.308298
O O15 0.250313 0.538549 0.095688
O O16 0.324131 0.327896 0.316147
O O17 0.703975 0.067562 0.790998
#
# Coordination Sequence:
#
# PCOD8011262 Si02
#       8
#     2   2   2   2   2   2   2   2
#     4  12  21  35  58  86 127 167 200 234 279 337
#     4  11  19  37  55  81 122 164 203 235 272 340
#     4  10  22  45  71  86 105 147 200 256 305 346
#     4  10  21  39  58  84 116 150 199 248 286 345
#     4  11  24  39  57  89 122 154 198 239 290 352
#     4  11  23  40  61  87 121 155 198 244 288 349
#     4  11  21  34  55  85 117 162 195 230 283 338
#     4  12  24  34  58  89 126 162 189 230 286 351
#
# _framework density 19.248241
#
# number of rings (size 3 to 8) (size 9 to 14) (size 15 to 20)
#    0.000    1.000    6.250    3.375    1.750    4.000 
#    0.000    0.625    0.000    3.750    0.000    0.000 
#    0.000    0.000    0.000    0.000    0.000    0.000 
#
# Total GULP energy -198486.706833 kJ/mol
# GULP energy per Si atom -12405.419177 kJ/mol
# Density = 1.920443 g / cm^3
# Si number density = 19.248241 Si / 1000 Ang^3
#
#
#
# Elastic Constant Matrix: (Units=GPa)
#
#
# Indices 1 2 3 4 5 6 
#
# 1 126.4346 66.7698 64.6164 -7.3952 -2.9602 -1.5530
# 2 66.7698 110.5106 53.0407 6.3628 13.2831 -5.1428
# 3 64.6164 53.0407 86.8682 5.5945 16.7280 3.8544
# 4 -7.3952 6.3628 5.5945 29.2944 -4.0717 11.4158
# 5 -2.9602 13.2831 16.7280 -4.0717 36.7285 -5.1425
# 6 -1.5530 -5.1428 3.8544 11.4158 -5.1425 25.3962
#
#
#
# Elastic Compliance Matrix: (Units=1/GPa)
#
#
# Indices 1 2 3 4 5 6 
#
# 1 0.019091 -0.007621 -0.012296 0.010789 0.010931 -0.001146
# 2 -0.007621 0.016531 -0.003173 -0.007919 -0.005204 0.005869
# 3 -0.012296 -0.003173 0.025788 -0.007342 -0.013054 -0.004652
# 4 0.010789 -0.007919 -0.007342 0.049101 0.009730 -0.019931
# 5 0.010931 -0.005204 -0.013054 0.009730 0.037694 0.004855
# 6 -0.001146 0.005869 -0.004652 -0.019931 0.004855 0.051142
#
#
# Mechanical properties :
#
#
# Convention : Reuss Voigt Hill
#
# Bulk Modulus (GPa) = 65.66090 76.96300 71.31195
# Shear Modulus (GPa) = 19.95165 27.57626 23.76395
#
# Velocity S-wave (km/s) = 3.22303 3.78916 3.51751
# Velocity P-wave (km/s) = 6.93090 7.69512 7.32298
#
# Compressibility (1/GPa) = 0.01522976
#
# Stress axis : x y z
#
# Youngs Moduli (GPa) = 52.38019 60.49179 38.77701
#
# Poissons Ratio (x) = 0.46104 0.47681
# Poissons Ratio (y) = 0.39921 0.12303
# Poissons Ratio (z) = 0.64408 0.19193
#
# Static dielectric constant tensor:
#      x y z
#    x 3.360100 -0.193340 0.264140 
#    y -0.193340 3.551080 0.092750 
#    z 0.264140 0.092750 3.582530 
# 
# 
# High freq. dielectric constant tensor:
#      x y z
#    x 1.727270 -0.013490 0.028360 
#    y -0.013490 1.748240 0.011530 
#    z 0.028360 0.011530 1.747000 
# 
# From -- ./inp_files/226354.got.cif
#   From: 2010.06.25/outbox.cif.g09.slc.cpg/sg2_114_cif.got.tgz:226354.got - 2010.06.27 13:26:56.
