data_PCOD8011356
_publ_section_title
;
Structure prediction by ZEFSAII (Michael W. Deem and Ramdas Pophale) SiO2 
 PCOD8011356
Probable space group: P -1
;
_chemical_formula_sum "Si O2"
_cell_formula_units_Z 14
_cell_length_a 9.262596
_cell_length_b 16.039250
_cell_length_c 9.863103
_cell_angle_alpha 53.946668
_cell_angle_beta 44.659095
_cell_angle_gamma 45.145790
_cell_volume 718.957662
_symmetry_space_group_name_H-M "P -1"
_symmetry_group_IT_number 2
_symmetry_cell_setting 'triclinic'
loop_
_space_group_symop_operation_xyz
x,y,z
-x,-y,-z
loop_
_atom_site_type_symbol
_atom_site_label
_atom_site_fract_x
_atom_site_fract_y
_atom_site_fract_z
Si Si1 0.578964 0.866485 0.539499
Si Si2 0.697728 0.244520 0.241109
Si Si3 0.061243 0.721423 0.214635
Si Si4 0.464799 0.634432 0.239876
Si Si5 0.271272 0.636725 0.642760
Si Si6 0.206871 0.329742 0.188646
Si Si7 0.291808 0.473945 0.203637
O O1 0.346192 0.867631 0.629452
O O2 0.660454 0.789485 0.696512
O O3 0.790738 0.818212 0.334417
O O4 0.500000 0.000000 0.500000
O O5 0.813784 0.257652 0.289925
O O6 0.423819 0.355195 0.319876
O O7 0.856420 0.239901 0.012519
O O8 0.223973 0.711923 0.241802
O O9 0.083884 0.591049 0.304983
O O10 0.422483 0.656731 0.407127
O O11 0.573411 0.493611 0.267794
O O12 0.641429 0.682247 0.035235
O O13 0.048301 0.643805 0.710037
O O14 0.177796 0.445088 0.178449
O O15 0.500000 0.500000 0.000000
#
# Coordination Sequence:
#
# PCOD8011356 Si02
#       7
#     2   2   2   2   2   2   2
#     4  11  25  41  62  87 110 158 220 250 281 342
#     4  10  21  39  60  89 123 147 198 250 291 357
#     4  11  19  38  64  85 120 160 193 244 300 347
#     4  11  20  35  58  94 128 157 183 229 307 370
#     4  11  23  34  58  96 129 152 185 232 307 372
#     4  11  21  38  59  87 129 157 187 246 295 351
#     4   9  16  32  58  86 118 148 187 232 292 356
#
# _framework density 19.472635
#
# number of rings (size 3 to 8) (size 9 to 14) (size 15 to 20)
#    0.000    1.429    7.143    1.286    0.000    6.286 
#    0.000    0.714    0.000    1.714    0.000    0.000 
#    0.000    0.000    0.000    0.000    0.000    0.000 
#
# Total GULP energy -173542.074128 kJ/mol
# GULP energy per Si atom -12395.862438 kJ/mol
# Density = 1.942831 g / cm^3
# Si number density = 19.472635 Si / 1000 Ang^3
#
#
#
# Elastic Constant Matrix: (Units=GPa)
#
#
# Indices 1 2 3 4 5 6 
#
# 1 83.3043 27.2784 26.7156 2.7483 -1.4076 17.9006
# 2 27.2784 97.1652 51.1061 5.0335 -5.7519 21.6585
# 3 26.7156 51.1061 127.1352 10.7904 3.6725 8.1856
# 4 2.7483 5.0335 10.7904 18.3568 1.8724 -5.1538
# 5 -1.4076 -5.7519 3.6725 1.8724 26.4830 -0.2187
# 6 17.9006 21.6585 8.1856 -5.1538 -0.2187 24.0455
#
#
#
# Elastic Compliance Matrix: (Units=1/GPa)
#
#
# Indices 1 2 3 4 5 6 
#
# 1 0.015376 -0.000468 -0.001989 -0.004287 0.001201 -0.011255
# 2 -0.000468 0.017113 -0.005486 -0.005933 0.004753 -0.014426
# 3 -0.001989 -0.005486 0.010752 -0.003717 -0.002509 0.001942
# 4 -0.004287 -0.005933 -0.003717 0.066210 -0.005484 0.023942
# 5 0.001201 0.004753 -0.002509 -0.005484 0.039550 -0.005137
# 6 -0.011255 -0.014426 0.001942 0.023942 -0.005137 0.067385
#
#
# Mechanical properties :
#
#
# Convention : Reuss Voigt Hill
#
# Bulk Modulus (GPa) = 36.55714 57.53388 47.04551
# Shear Modulus (GPa) = 20.71345 27.27735 23.99540
#
# Velocity S-wave (km/s) = 3.26501 3.74679 3.51417
# Velocity P-wave (km/s) = 5.74701 6.95184 6.37794
#
# Compressibility (1/GPa) = 0.02735443
#
# Stress axis : x y z
#
# Youngs Moduli (GPa) = 65.03762 58.43541 93.00974
#
# Poissons Ratio (x) = 0.02738 0.18498
# Poissons Ratio (y) = 0.03047 0.51021
# Poissons Ratio (z) = 0.12935 0.32055
#
# Static dielectric constant tensor:
#      x y z
#    x 3.547290 0.223520 -0.023980 
#    y 0.223520 3.411300 0.013970 
#    z -0.023980 0.013970 3.729350 
# 
# 
# High freq. dielectric constant tensor:
#      x y z
#    x 1.755070 0.013770 -0.006490 
#    y 0.013770 1.710090 0.005190 
#    z -0.006490 0.005190 1.771830 
# 
# From -- ./inp_files/200058.got.cif
#   From: 2010.06.25/outbox.cif.g09.slc.cpg/sg2_101_cif.got.tgz:200058.got - 2010.06.27 13:26:56.
