data_PCOD8011551
_publ_section_title
;
Structure prediction by ZEFSAII (Michael W. Deem and Ramdas Pophale) SiO2 
 PCOD8011551
Probable space group: P -1
;
_chemical_formula_sum "Si O2"
_cell_formula_units_Z 12
_cell_length_a 7.839904
_cell_length_b 10.707120
_cell_length_c 8.100122
_cell_angle_alpha 55.608219
_cell_angle_beta 119.926299
_cell_angle_gamma 101.224892
_cell_volume 482.654582
_symmetry_space_group_name_H-M "P -1"
_symmetry_group_IT_number 2
_symmetry_cell_setting 'triclinic'
loop_
_space_group_symop_operation_xyz
x,y,z
-x,-y,-z
loop_
_atom_site_type_symbol
_atom_site_label
_atom_site_fract_x
_atom_site_fract_y
_atom_site_fract_z
Si Si1 0.112540 0.795075 0.010560
Si Si2 0.561296 0.433131 0.792040
Si Si3 0.687910 0.982776 0.221067
Si Si4 0.839659 0.384150 0.526286
Si Si5 0.741372 0.727572 0.684740
Si Si6 0.400150 0.761036 0.744506
O O1 0.337425 0.714489 0.144594
O O2 0.069211 0.756790 0.207447
O O3 0.129965 0.972272 0.840664
O O4 0.953940 0.734610 0.860830
O O5 0.355454 0.518915 0.554604
O O6 0.723923 0.550665 0.784075
O O7 0.505640 0.376724 0.989728
O O8 0.672839 0.088876 0.298399
O O9 0.730926 0.811264 0.438594
O O10 0.500000 0.000000 0.000000
O O11 0.783271 0.304046 0.389842
O O12 0.000000 0.500000 0.500000
O O13 0.564349 0.802709 0.662266
#
# Coordination Sequence:
#
# PCOD8011551 Si02
#       6
#     2   2   2   2   2   2
#     4  11  23  39  60  93 126 163 207 254 308 369
#     4  10  21  39  62  91 126 164 206 258 304 358
#     4  11  24  43  63  87 124 169 209 255 310 365
#     4  11  21  38  65  97 125 161 205 255 311 370
#     4  11  21  40  64  92 126 165 207 255 307 370
#     4  10  22  41  63  92 125 160 206 259 307 364
#
# _framework density 24.862499
#
# number of rings (size 3 to 8) (size 9 to 14) (size 15 to 20)
#    0.000    1.333    0.000    8.000    0.000    2.667 
#    0.000   10.000    0.000    0.000    0.000    0.000 
#    0.000    0.000    0.000    0.000    0.000    0.000 
#
# Total GULP energy -148723.094279 kJ/mol
# GULP energy per Si atom -12393.591190 kJ/mol
# Density = 2.480591 g / cm^3
# Si number density = 24.862499 Si / 1000 Ang^3
#
#
#
# Elastic Constant Matrix: (Units=GPa)
#
#
# Indices 1 2 3 4 5 6 
#
# 1 52.2510 26.8070 19.1375 -3.0509 -9.2592 31.3487
# 2 26.8070 89.0653 15.8298 4.6088 -5.3787 26.3136
# 3 19.1375 15.8298 154.5295 -4.5003 -28.2714 30.9102
# 4 -3.0509 4.6088 -4.5003 47.5083 18.5216 -6.8138
# 5 -9.2592 -5.3787 -28.2714 18.5216 43.4470 -8.1895
# 6 31.3487 26.3136 30.9102 -6.8138 -8.1895 51.9866
#
#
#
# Elastic Compliance Matrix: (Units=1/GPa)
#
#
# Indices 1 2 3 4 5 6 
#
# 1 0.031999 -0.004397 0.000588 -0.001493 0.004095 -0.016970
# 2 -0.004397 0.014155 0.000200 -0.002808 0.001237 -0.004806
# 3 0.000588 0.000200 0.008281 -0.002028 0.005503 -0.004779
# 4 -0.001493 -0.002808 -0.002028 0.026579 -0.012362 0.005064
# 5 0.004095 0.001237 0.005503 -0.012362 0.032348 -0.002892
# 6 -0.016970 -0.004806 -0.004779 0.005064 -0.002892 0.034951
#
#
# Mechanical properties :
#
#
# Convention : Reuss Voigt Hill
#
# Bulk Modulus (GPa) = 21.17841 46.59938 33.88889
# Shear Modulus (GPa) = 29.19340 44.19315 36.69327
#
# Velocity S-wave (km/s) = 3.43037 4.22062 3.84584
# Velocity P-wave (km/s) = 4.92205 6.52189 5.77761
#
# Compressibility (1/GPa) = 0.04721790
#
# Stress axis : x y z
#
# Youngs Moduli (GPa) = 31.25073 70.64444 120.75116
#
# Poissons Ratio (x) = 0.31064 -0.07099
# Poissons Ratio (y) = 0.13742 -0.02418
# Poissons Ratio (z) = -0.01837 -0.01415
#
# Static dielectric constant tensor:
#      x y z
#    x 4.279490 0.359750 -0.403070 
#    y 0.359750 4.464820 -0.259540 
#    z -0.403070 -0.259540 4.856960 
# 
# 
# High freq. dielectric constant tensor:
#      x y z
#    x 1.969390 0.026530 -0.020150 
#    y 0.026530 1.991180 -0.005060 
#    z -0.020150 -0.005060 2.011200 
# 
# From -- ./inp_files/160150.got.cif
#   From: 2010.06.25/outbox.cif.g09.slc.cpg/sg2_81_cif.got.tgz:160150.got - 2010.06.27 13:26:56.
