data_PCOD8011092
_publ_section_title
;
Structure prediction by ZEFSAII (Michael W. Deem and Ramdas Pophale) SiO2 
 PCOD8011092
Probable space group: P -1
;
_chemical_formula_sum "Si O2"
_cell_formula_units_Z 16
_cell_length_a 11.636135
_cell_length_b 9.091964
_cell_length_c 12.664141
_cell_angle_alpha 101.700056
_cell_angle_beta 115.166958
_cell_angle_gamma 35.987407
_cell_volume 686.933692
_symmetry_space_group_name_H-M "P -1"
_symmetry_group_IT_number 2
_symmetry_cell_setting 'triclinic'
loop_
_space_group_symop_operation_xyz
x,y,z
-x,-y,-z
loop_
_atom_site_type_symbol
_atom_site_label
_atom_site_fract_x
_atom_site_fract_y
_atom_site_fract_z
Si Si1 0.872918 0.743151 0.417521
Si Si2 0.008280 0.569088 0.761321
Si Si3 0.487336 0.546608 0.174327
Si Si4 0.310912 0.885972 0.959392
Si Si5 0.042469 0.801573 0.643101
Si Si6 0.235674 0.293960 0.009676
Si Si7 0.158987 0.746648 0.246800
Si Si8 0.375496 0.236831 0.271463
O O1 0.917227 0.658178 0.300883
O O2 0.963676 0.819047 0.499510
O O3 0.000000 0.500000 0.500000
O O4 0.615076 0.984303 0.376812
O O5 0.189075 0.431591 0.903197
O O6 0.991691 0.726839 0.702108
O O7 0.769910 0.763887 0.746432
O O8 0.546943 0.335690 0.105906
O O9 0.316898 0.680027 0.218904
O O10 0.700327 0.413973 0.292141
O O11 0.382838 0.767929 0.086851
O O12 0.351771 0.024602 0.983820
O O13 0.054014 0.098584 0.879075
O O14 0.905373 0.082139 0.657500
O O15 0.385234 0.234029 0.145999
O O16 0.000000 0.500000 0.000000
O O17 0.277410 0.489849 0.308910
#
# Coordination Sequence:
#
# PCOD8011092 Si02
#       8
#     2   2   2   2   2   2   2   2
#     4  10  25  45  65  96 128 170 225 270 312 384
#     4  10  23  44  68  95 134 167 211 277 318 385
#     4  10  24  39  64  94 136 178 209 261 325 382
#     4  10  21  41  60  99 135 170 216 258 320 400
#     4  10  25  44  65  96 128 175 227 259 316 382
#     4  10  21  38  67 100 133 161 210 264 332 388
#     4  11  23  41  67  94 135 168 215 267 321 389
#     4  11  25  42  67 101 129 169 215 264 334 378
#
# _framework density 23.291913999999998
#
# number of rings (size 3 to 8) (size 9 to 14) (size 15 to 20)
#    0.000    1.750    2.500    0.375    8.750    7.000 
#    0.000    1.250    0.000    0.000    0.000    0.000 
#    0.000    0.000    0.000    0.000    0.000    0.000 
#
# Total GULP energy -198410.213568 kJ/mol
# GULP energy per Si atom -12400.638348 kJ/mol
# Density = 2.323890 g / cm^3
# Si number density = 23.291914 Si / 1000 Ang^3
#
#
#
# Elastic Constant Matrix: (Units=GPa)
#
#
# Indices 1 2 3 4 5 6 
#
# 1 48.5998 3.8230 9.8486 -5.4790 8.6466 -0.1444
# 2 3.8230 111.1354 43.6284 -12.2426 15.0029 6.4714
# 3 9.8486 43.6284 88.7005 1.5867 17.5935 -3.9317
# 4 -5.4790 -12.2426 1.5867 40.2909 1.1467 7.8140
# 5 8.6466 15.0029 17.5935 1.1467 29.7556 -0.5880
# 6 -0.1444 6.4714 -3.9317 7.8140 -0.5880 36.3489
#
#
#
# Elastic Compliance Matrix: (Units=1/GPa)
#
#
# Indices 1 2 3 4 5 6 
#
# 1 0.022433 0.001398 -0.002086 0.003994 -0.006171 -0.001344
# 2 0.001398 0.012535 -0.005892 0.005111 -0.003519 -0.004019
# 3 -0.002086 -0.005892 0.015703 -0.003182 -0.005519 0.003334
# 4 0.003994 0.005111 -0.003182 0.028570 -0.003104 -0.007430
# 5 -0.006171 -0.003519 -0.005519 -0.003104 0.040584 0.001329
# 6 -0.001344 -0.004019 0.003334 -0.007430 0.001329 0.030201
#
#
# Mechanical properties :
#
#
# Convention : Reuss Voigt Hill
#
# Bulk Modulus (GPa) = 26.65810 40.33731 33.49771
# Shear Modulus (GPa) = 28.45932 34.02148 31.24040
#
# Velocity S-wave (km/s) = 3.49930 3.82600 3.66629
# Velocity P-wave (km/s) = 5.27227 6.07235 5.68640
#
# Compressibility (1/GPa) = 0.03751205
#
# Stress axis : x y z
#
# Youngs Moduli (GPa) = 44.57710 79.77543 63.68152
#
# Poissons Ratio (x) = -0.11155 0.13281
# Poissons Ratio (y) = -0.06233 0.37524
# Poissons Ratio (z) = 0.09297 0.47007
#
# Static dielectric constant tensor:
#      x y z
#    x 3.908750 -0.010760 0.132980 
#    y -0.010760 4.583390 0.363500 
#    z 0.132980 0.363500 4.644970 
# 
# 
# High freq. dielectric constant tensor:
#      x y z
#    x 1.910280 -0.005660 0.009240 
#    y -0.005660 1.935570 0.000500 
#    z 0.009240 0.000500 1.920090 
# 
# From -- ./inp_files/514451.got.cif
#   From: 2010.06.25/outbox.cif.g09.slc.cpg/sg2_258_cif.got.tgz:514451.got - 2010.06.27 13:26:56.
