data_PCOD8011775
_publ_section_title
;
Structure prediction by ZEFSAII (Michael W. Deem and Ramdas Pophale) SiO2 
 PCOD8011775
Probable space group: P -1
;
_chemical_formula_sum "Si O2"
_cell_formula_units_Z 16
_cell_length_a 11.189034
_cell_length_b 15.099452
_cell_length_c 14.188495
_cell_angle_alpha 39.381246
_cell_angle_beta 38.260744
_cell_angle_gamma 31.918972
_cell_volume 742.175569
_symmetry_space_group_name_H-M "P -1"
_symmetry_group_IT_number 2
_symmetry_cell_setting 'triclinic'
loop_
_space_group_symop_operation_xyz
x,y,z
-x,-y,-z
loop_
_atom_site_type_symbol
_atom_site_label
_atom_site_fract_x
_atom_site_fract_y
_atom_site_fract_z
Si Si1 0.265829 0.861640 0.350530
Si Si2 0.383361 0.382887 0.911936
Si Si3 0.080113 0.808337 0.331579
Si Si4 0.892775 0.587195 0.596009
Si Si5 0.690072 0.792705 0.049977
Si Si6 0.668810 0.203531 0.247341
Si Si7 0.176273 0.762828 0.680829
Si Si8 0.851710 0.413070 0.935472
O O1 0.111553 0.828174 0.406067
O O2 0.546577 0.739482 0.244133
O O3 0.274371 0.799717 0.499945
O O4 0.120981 0.078406 0.258020
O O5 0.675298 0.265880 0.816988
O O6 0.277917 0.287766 0.008334
O O7 0.240594 0.571782 0.791840
O O8 0.329935 0.407072 0.038144
O O9 0.016167 0.675539 0.475891
O O10 0.862977 0.998925 0.264829
O O11 0.600615 0.732837 0.660001
O O12 0.000000 0.500000 0.500000
O O13 0.959249 0.440379 0.754204
O O14 0.939597 0.722762 0.005522
O O15 0.500000 0.000000 0.000000
O O16 0.676119 0.233306 0.328665
O O17 0.722628 0.324718 0.057901
#
# Coordination Sequence:
#
# PCOD8011775 Si02
#       8
#     2   2   2   2   2   2   2   2
#     4   9  20  35  61  91 128 159 204 257 327 374
#     4  10  21  39  64  88 130 163 207 255 320 386
#     4  10  22  41  65  92 124 168 212 266 316 374
#     4  12  26  43  66  94 124 165 225 270 308 369
#     4  11  22  37  59  95 134 165 207 253 321 387
#     4  10  22  45  63  87 133 167 212 263 318 376
#     4   9  18  36  62  90 122 165 203 256 318 370
#     4  11  24  41  65  93 125 171 214 257 323 377
#
# _framework density 21.558242
#
# number of rings (size 3 to 8) (size 9 to 14) (size 15 to 20)
#    0.000    1.750    0.000    5.625    5.250    1.000 
#    4.500    5.000    0.000    0.000    0.000    0.000 
#    0.000    0.000    0.000    0.000    0.000    0.000 
#
# Total GULP energy -198356.256490 kJ/mol
# GULP energy per Si atom -12397.266031 kJ/mol
# Density = 2.150917 g / cm^3
# Si number density = 21.558242 Si / 1000 Ang^3
#
#
#
# Elastic Constant Matrix: (Units=GPa)
#
#
# Indices 1 2 3 4 5 6 
#
# 1 55.8680 26.4763 26.5571 -1.0693 -6.6886 -2.6567
# 2 26.4763 108.7499 36.9460 0.7285 0.1823 4.5217
# 3 26.5571 36.9460 71.6364 -0.6546 13.0261 5.9088
# 4 -1.0693 0.7285 -0.6546 34.8941 -2.4709 -11.0860
# 5 -6.6886 0.1823 13.0261 -2.4709 38.5032 4.9058
# 6 -2.6567 4.5217 5.9088 -11.0860 4.9058 35.4309
#
#
#
# Elastic Compliance Matrix: (Units=1/GPa)
#
#
# Indices 1 2 3 4 5 6 
#
# 1 0.024778 -0.003097 -0.009151 0.002269 0.007114 0.003504
# 2 -0.003097 0.011709 -0.005013 -0.000759 0.001219 -0.001297
# 3 -0.009151 -0.005013 0.021733 -0.001295 -0.008634 -0.002880
# 4 0.002269 -0.000759 -0.001295 0.032107 0.001583 0.010310
# 5 0.007114 0.001219 -0.008634 0.001583 0.030467 -0.001906
# 6 0.003504 -0.001297 -0.002880 0.010310 -0.001906 0.032622
#
#
# Mechanical properties :
#
#
# Convention : Reuss Voigt Hill
#
# Bulk Modulus (GPa) = 42.19305 46.24591 44.21948
# Shear Modulus (GPa) = 25.53146 31.51731 28.52439
#
# Velocity S-wave (km/s) = 3.44510 3.82771 3.64143
# Velocity P-wave (km/s) = 5.95308 6.40573 6.18354
#
# Compressibility (1/GPa) = 0.02370059
#
# Stress axis : x y z
#
# Youngs Moduli (GPa) = 40.35768 85.40273 46.01352
#
# Poissons Ratio (x) = 0.26446 0.42106
# Poissons Ratio (y) = 0.12497 0.23065
# Poissons Ratio (z) = 0.36930 0.42809
#
# Static dielectric constant tensor:
#      x y z
#    x 3.818290 -0.057770 -0.175840 
#    y -0.057770 4.367150 0.354310 
#    z -0.175840 0.354310 4.212730 
# 
# 
# High freq. dielectric constant tensor:
#      x y z
#    x 1.836660 -0.000560 -0.010720 
#    y -0.000560 1.858970 0.009300 
#    z -0.010720 0.009300 1.849760 
# 
# From -- ./inp_files/521450.got.cif
#   From: 2010.06.25/outbox.cif.g09.slc.cpg/sg2_261_cif.got.tgz:521450.got - 2010.06.27 13:26:56.
