data_PCOD8011577
_publ_section_title
;
Structure prediction by ZEFSAII (Michael W. Deem and Ramdas Pophale) SiO2 
 PCOD8011577
Probable space group: P -1
;
_chemical_formula_sum "Si O2"
_cell_formula_units_Z 16
_cell_length_a 18.440175
_cell_length_b 26.565928
_cell_length_c 14.658286
_cell_angle_alpha 159.115266
_cell_angle_beta 159.462659
_cell_angle_gamma 18.792653
_cell_volume 735.445981
_symmetry_space_group_name_H-M "P -1"
_symmetry_group_IT_number 2
_symmetry_cell_setting 'triclinic'
loop_
_space_group_symop_operation_xyz
x,y,z
-x,-y,-z
loop_
_atom_site_type_symbol
_atom_site_label
_atom_site_fract_x
_atom_site_fract_y
_atom_site_fract_z
Si Si1 0.108413 0.700919 0.831603
Si Si2 0.806351 0.018218 0.634699
Si Si3 0.164507 0.126909 0.766090
Si Si4 0.588195 0.163827 0.299338
Si Si5 0.599016 0.317034 0.401209
Si Si6 0.396333 0.266719 0.707124
Si Si7 0.332810 0.703526 0.757077
Si Si8 0.374229 0.570729 0.104869
O O1 0.347275 0.527537 0.776147
O O2 0.853639 0.719883 0.538209
O O3 0.084307 0.866495 0.043129
O O4 0.153241 0.688614 0.971874
O O5 0.565115 0.105442 0.564481
O O6 0.726277 0.003090 0.412441
O O7 0.028991 0.831951 0.620305
O O8 0.874795 0.280291 0.672331
O O9 0.197114 0.022164 0.720096
O O10 0.319913 0.211408 0.100330
O O11 0.584490 0.177486 0.207252
O O12 0.640718 0.304339 0.625086
O O13 0.398490 0.513227 0.530127
O O14 0.556435 0.291490 0.202386
O O15 0.550971 0.238462 0.932882
O O16 0.314475 0.443094 0.861059
#
# Coordination Sequence:
#
# PCOD8011577 Si02
#       8
#     2   2   2   2   2   2   2   2
#     4  10  22  39  62  92 127 162 202 257 312 371
#     4  10  22  42  59  89 132 159 206 263 303 356
#     4  10  23  40  64  96 124 159 205 256 315 380
#     4  11  21  40  66  94 123 164 200 255 323 369
#     4  10  22  43  61  90 129 164 206 259 303 362
#     4  11  22  40  66  92 120 171 207 246 314 373
#     4  10  22  41  64  88 127 167 213 259 293 361
#     4  10  21  39  62  94 129 156 200 263 312 366
#
# _framework density 21.755507000000001
#
# number of rings (size 3 to 8) (size 9 to 14) (size 15 to 20)
#    0.000    1.750    2.500    1.125    1.750    2.500 
#    4.500   11.875    0.000    0.000    0.000    0.000 
#    0.000    0.000    0.000    0.000    0.000    0.000 
#
# Total GULP energy -198424.815902 kJ/mol
# GULP energy per Si atom -12401.550994 kJ/mol
# Density = 2.170599 g / cm^3
# Si number density = 21.755507 Si / 1000 Ang^3
#
#
#
# Elastic Constant Matrix: (Units=GPa)
#
#
# Indices 1 2 3 4 5 6 
#
# 1 85.7340 15.7881 7.5728 2.6250 -4.7231 22.6774
# 2 15.7881 89.9390 11.1287 0.5131 1.2047 11.9650
# 3 7.5728 11.1287 51.5403 -3.4292 4.0120 -0.0663
# 4 2.6250 0.5131 -3.4292 26.1994 -1.6786 -5.3305
# 5 -4.7231 1.2047 4.0120 -1.6786 23.7484 -3.4461
# 6 22.6774 11.9650 -0.0663 -5.3305 -3.4461 30.3247
#
#
#
# Elastic Compliance Matrix: (Units=1/GPa)
#
#
# Indices 1 2 3 4 5 6 
#
# 1 0.015342 -0.000825 -0.002484 -0.004130 0.001522 -0.011706
# 2 -0.000825 0.012212 -0.002533 -0.001496 -0.001129 -0.004598
# 3 -0.002484 -0.002533 0.020796 0.003458 -0.003177 0.003150
# 4 -0.004130 -0.001496 0.003458 0.041586 0.003259 0.011367
# 5 0.001522 -0.001129 -0.003177 0.003259 0.043941 0.004866
# 6 -0.011706 -0.004598 0.003150 0.011367 0.004866 0.046103
#
#
# Mechanical properties :
#
#
# Convention : Reuss Voigt Hill
#
# Bulk Modulus (GPa) = 27.27447 32.91027 30.09237
# Shear Modulus (GPa) = 24.52336 28.90276 26.71306
#
# Velocity S-wave (km/s) = 3.36106 3.64885 3.50791
# Velocity P-wave (km/s) = 5.25608 5.73692 5.50176
#
# Compressibility (1/GPa) = 0.03666432
#
# Stress axis : x y z
#
# Youngs Moduli (GPa) = 65.18035 81.88445 48.08675
#
# Poissons Ratio (x) = 0.06758 0.11946
# Poissons Ratio (y) = 0.05379 0.12182
# Poissons Ratio (z) = 0.16193 0.20743
#
# Static dielectric constant tensor:
#      x y z
#    x 4.056420 0.136770 -0.164200 
#    y 0.136770 3.902160 0.017610 
#    z -0.164200 0.017610 3.637300 
# 
# 
# High freq. dielectric constant tensor:
#      x y z
#    x 1.861350 0.010700 -0.008740 
#    y 0.010700 1.857110 -0.000870 
#    z -0.008740 -0.000870 1.837050 
# 
# From -- ./inp_files/450908.got.cif
#   From: 2010.06.25/outbox.cif.g09.slc.cpg/sg2_226_cif.got.tgz:450908.got - 2010.06.27 13:26:56.
