data_PCOD8011835
_publ_section_title
;
Structure prediction by ZEFSAII (Michael W. Deem and Ramdas Pophale) SiO2 
 PCOD8011835
Probable space group: P -1
;
_chemical_formula_sum "Si O2"
_cell_formula_units_Z 16
_cell_length_a 8.199975
_cell_length_b 9.576108
_cell_length_c 16.894752
_cell_angle_alpha 122.839695
_cell_angle_beta 42.503900
_cell_angle_gamma 103.493042
_cell_volume 719.982172
_symmetry_space_group_name_H-M "P -1"
_symmetry_group_IT_number 2
_symmetry_cell_setting 'triclinic'
loop_
_space_group_symop_operation_xyz
x,y,z
-x,-y,-z
loop_
_atom_site_type_symbol
_atom_site_label
_atom_site_fract_x
_atom_site_fract_y
_atom_site_fract_z
Si Si1 0.213190 0.640241 0.895417
Si Si2 0.206341 0.823933 0.356552
Si Si3 0.960844 0.551070 0.415707
Si Si4 0.324870 0.258031 0.287694
Si Si5 0.485940 0.902004 0.054271
Si Si6 0.749156 0.736982 0.191166
Si Si7 0.959916 0.602803 0.826193
Si Si8 0.126939 0.717310 0.177762
O O1 0.445675 0.718993 0.840762
O O2 0.270030 0.459181 0.866131
O O3 0.185593 0.621632 0.805349
O O4 0.953228 0.765222 0.063496
O O5 0.157657 0.665287 0.375316
O O6 0.472518 0.852154 0.297992
O O7 0.173688 0.802242 0.268451
O O8 0.000000 0.000000 0.500000
O O9 0.072466 0.370896 0.367827
O O10 0.903510 0.499573 0.331818
O O11 0.707313 0.668734 0.587684
O O12 0.358367 0.050847 0.211409
O O13 0.319578 0.766584 0.062342
O O14 0.770233 0.792452 0.938523
O O15 0.500000 0.000000 0.000000
O O16 0.844152 0.781474 0.258326
O O17 0.808347 0.489739 0.894780
#
# Coordination Sequence:
#
# PCOD8011835 Si02
#       8
#     2   2   2   2   2   2   2   2
#     4  10  21  39  64  93 127 168 214 276 322 389
#     4  11  22  41  67  94 131 172 224 273 322 389
#     4  10  22  40  61  89 124 178 211 256 327 405
#     4  11  22  39  63  88 131 170 212 260 333 392
#     4  12  22  37  62  97 129 170 217 268 327 391
#     4  10  21  39  64  98 126 167 224 271 329 383
#     4  10  22  40  64  93 126 170 221 269 324 387
#     4  10  23  40  65  93 130 174 217 272 325 384
#
# _framework density 22.222771999999999
#
# number of rings (size 3 to 8) (size 9 to 14) (size 15 to 20)
#    0.000    1.500    2.500    2.625    0.000    3.500 
#    0.000    2.500    0.000    0.000    0.000    0.000 
#    0.000    0.000    0.000    0.000    0.000    0.000 
#
# Total GULP energy -198254.926615 kJ/mol
# GULP energy per Si atom -12390.932913 kJ/mol
# Density = 2.217219 g / cm^3
# Si number density = 22.222772 Si / 1000 Ang^3
#
#
#
# Elastic Constant Matrix: (Units=GPa)
#
#
# Indices 1 2 3 4 5 6 
#
# 1 97.6361 14.8793 29.9143 -0.0333 -3.1466 -18.5607
# 2 14.8793 81.6972 29.7267 -4.6672 3.4258 -6.8904
# 3 29.9143 29.7267 111.7655 2.7571 -6.7170 -12.6735
# 4 -0.0333 -4.6672 2.7571 37.1978 1.7800 -1.2901
# 5 -3.1466 3.4258 -6.7170 1.7800 27.0275 -8.0391
# 6 -18.5607 -6.8904 -12.6735 -1.2901 -8.0391 24.4039
#
#
#
# Elastic Compliance Matrix: (Units=1/GPa)
#
#
# Indices 1 2 3 4 5 6 
#
# 1 0.012997 -0.001023 -0.001823 0.000167 0.004162 0.010029
# 2 -0.001023 0.014028 -0.003623 0.002179 -0.002793 0.000497
# 3 -0.001823 -0.003623 0.011261 -0.001341 0.004585 0.004877
# 4 0.000167 0.002179 -0.001341 0.027387 -0.002161 0.000782
# 5 0.004162 -0.002793 0.004585 -0.002161 0.044900 0.019434
# 6 0.010029 0.000497 0.004877 0.000782 0.019434 0.057722
#
#
# Mechanical properties :
#
#
# Convention : Reuss Voigt Hill
#
# Bulk Modulus (GPa) = 39.45024 48.90439 44.17731
# Shear Modulus (GPa) = 26.35986 32.16440 29.26213
#
# Velocity S-wave (km/s) = 3.44781 3.80855 3.63266
# Velocity P-wave (km/s) = 5.80005 6.43384 6.12515
#
# Compressibility (1/GPa) = 0.02534839
#
# Stress axis : x y z
#
# Youngs Moduli (GPa) = 76.93811 71.28481 88.80526
#
# Poissons Ratio (x) = 0.07291 0.16194
# Poissons Ratio (y) = 0.07869 0.32171
# Poissons Ratio (z) = 0.14030 0.25824
#
# Static dielectric constant tensor:
#      x y z
#    x 3.977850 -0.030860 0.017400 
#    y -0.030860 4.182710 0.024320 
#    z 0.017400 0.024320 3.983500 
# 
# 
# High freq. dielectric constant tensor:
#      x y z
#    x 1.870290 -0.009460 0.015970 
#    y -0.009460 1.876430 -0.008380 
#    z 0.015970 -0.008380 1.857860 
# 
# From -- ./inp_files/216441.got.cif
#   From: 2010.06.25/outbox.cif.g09.slc.cpg/sg2_109_cif.got.tgz:216441.got - 2010.06.27 13:26:56.
