data_PCOD8011541
_publ_section_title
;
Structure prediction by ZEFSAII (Michael W. Deem and Ramdas Pophale) SiO2 
 PCOD8011541
Probable space group: P -1
;
_chemical_formula_sum "Si O2"
_cell_formula_units_Z 16
_cell_length_a 11.213923
_cell_length_b 8.476257
_cell_length_c 12.043299
_cell_angle_alpha 85.447498
_cell_angle_beta 83.013483
_cell_angle_gamma 39.266157
_cell_volume 718.954157
_symmetry_space_group_name_H-M "P -1"
_symmetry_group_IT_number 2
_symmetry_cell_setting 'triclinic'
loop_
_space_group_symop_operation_xyz
x,y,z
-x,-y,-z
loop_
_atom_site_type_symbol
_atom_site_label
_atom_site_fract_x
_atom_site_fract_y
_atom_site_fract_z
Si Si1 0.484005 0.667288 0.816068
Si Si2 0.126585 0.937155 0.733585
Si Si3 0.785826 0.489541 0.646459
Si Si4 0.590360 0.247210 0.715064
Si Si5 0.351989 0.281870 0.036057
Si Si6 0.133533 0.315088 0.242705
Si Si7 0.200656 0.530167 0.806543
Si Si8 0.778290 0.246614 0.499228
O O1 0.257722 0.904515 0.804942
O O2 0.583967 0.685200 0.718264
O O3 0.563621 0.408321 0.803879
O O4 0.532260 0.683573 0.932130
O O5 0.076632 0.818386 0.799822
O O6 0.267574 0.749672 0.623031
O O7 0.935658 0.220698 0.707569
O O8 0.856903 0.598653 0.644753
O O9 0.752959 0.458288 0.526391
O O10 0.394923 0.347813 0.724347
O O11 0.650168 0.262765 0.589395
O O12 0.750566 0.964008 0.751361
O O13 0.205624 0.360971 0.137298
O O14 0.233413 0.460607 0.935170
O O15 0.500000 0.000000 0.000000
O O16 0.916094 0.493814 0.233987
O O17 0.000000 0.000000 0.500000
#
# Coordination Sequence:
#
# PCOD8011541 Si02
#       8
#     2   2   2   2   2   2   2   2
#     4   9  21  38  62  84 116 155 201 241 298 343
#     4  10  21  39  64  87 118 153 203 244 289 354
#     4   9  20  36  61  89 118 158 193 241 295 348
#     4  10  21  39  62  91 121 156 196 248 291 352
#     4  11  23  42  61  86 121 158 197 249 300 350
#     4  11  22  40  62  86 128 157 194 244 298 353
#     4  11  23  39  60  89 117 160 200 243 296 347
#     4   9  18  39  64  89 119 156 199 242 294 348
#
# _framework density 22.254546000000001
#
# number of rings (size 3 to 8) (size 9 to 14) (size 15 to 20)
#    0.000    2.000    1.250    2.625    1.750    6.500 
#    0.000    8.750    0.000    7.500    0.000    0.000 
#    0.000    0.000    0.000    0.000    0.000    0.000 
#
# Total GULP energy -198259.389724 kJ/mol
# GULP energy per Si atom -12391.211858 kJ/mol
# Density = 2.220389 g / cm^3
# Si number density = 22.254546 Si / 1000 Ang^3
#
#
#
# Elastic Constant Matrix: (Units=GPa)
#
#
# Indices 1 2 3 4 5 6 
#
# 1 160.8147 15.4474 35.9019 11.1508 13.7317 -2.4291
# 2 15.4474 55.7171 7.8421 0.6139 0.5085 11.9528
# 3 35.9019 7.8421 61.4735 -0.2126 -2.8038 11.7135
# 4 11.1508 0.6139 -0.2126 30.0051 1.4594 -2.3466
# 5 13.7317 0.5085 -2.8038 1.4594 30.5786 7.2984
# 6 -2.4291 11.9528 11.7135 -2.3466 7.2984 34.9589
#
#
#
# Elastic Compliance Matrix: (Units=1/GPa)
#
#
# Indices 1 2 3 4 5 6 
#
# 1 0.008375 -0.002350 -0.005628 -0.002530 -0.005112 0.004168
# 2 -0.002350 0.020188 0.000395 -0.000272 0.002622 -0.007764
# 3 -0.005628 0.000395 0.021530 0.001209 0.006594 -0.009036
# 4 -0.002530 -0.000272 0.001209 0.034481 -0.000874 0.002009
# 5 -0.005112 0.002622 0.006594 -0.000874 0.038352 -0.011526
# 6 0.004168 -0.007764 -0.009036 0.002009 -0.011526 0.037118
#
#
# Mechanical properties :
#
#
# Convention : Reuss Voigt Hill
#
# Bulk Modulus (GPa) = 28.62996 44.04312 36.33654
# Shear Modulus (GPa) = 26.75895 33.69613 30.22754
#
# Velocity S-wave (km/s) = 3.47133 3.89540 3.68946
# Velocity P-wave (km/s) = 5.38141 6.32975 5.87475
#
# Compressibility (1/GPa) = 0.03492844
#
# Stress axis : x y z
#
# Youngs Moduli (GPa) = 119.39803 49.53376 46.44641
#
# Poissons Ratio (x) = 0.11639 0.26139
# Poissons Ratio (y) = 0.28054 -0.01834
# Poissons Ratio (z) = 0.67195 -0.01956
#
# Static dielectric constant tensor:
#      x y z
#    x 4.482900 0.105190 0.274140 
#    y 0.105190 3.921700 0.189790 
#    z 0.274140 0.189790 4.350680 
# 
# 
# High freq. dielectric constant tensor:
#      x y z
#    x 1.896490 -0.007700 0.010300 
#    y -0.007700 1.866080 0.005390 
#    z 0.010300 0.005390 1.852900 
# 
# From -- ./inp_files/353358.got.cif
#   From: 2010.06.25/outbox.cif.g09.slc.cpg/sg2_177_cif.got.tgz:353358.got - 2010.06.27 13:26:56.
