data_PCOD8011435
_publ_section_title
;
Structure prediction by ZEFSAII (Michael W. Deem and Ramdas Pophale) SiO2 
 PCOD8011435
Probable space group: P -1
;
_chemical_formula_sum "Si O2"
_cell_formula_units_Z 16
_cell_length_a 18.639818
_cell_length_b 6.541758
_cell_length_c 8.913234
_cell_angle_alpha 59.510196
_cell_angle_beta 114.301841
_cell_angle_gamma 127.192326
_cell_volume 737.325408
_symmetry_space_group_name_H-M "P -1"
_symmetry_group_IT_number 2
_symmetry_cell_setting 'triclinic'
loop_
_space_group_symop_operation_xyz
x,y,z
-x,-y,-z
loop_
_atom_site_type_symbol
_atom_site_label
_atom_site_fract_x
_atom_site_fract_y
_atom_site_fract_z
Si Si1 0.268919 0.799855 0.077099
Si Si2 0.601730 0.147256 0.095676
Si Si3 0.560661 0.615584 0.367504
Si Si4 0.610295 0.656159 0.851830
Si Si5 0.959563 0.820838 0.383615
Si Si6 0.885266 0.225528 0.635203
Si Si7 0.091273 0.793180 0.986110
Si Si8 0.284098 0.320829 0.364434
O O1 0.240052 0.513757 0.242341
O O2 0.340833 0.041885 0.154974
O O3 0.320123 0.827242 0.958166
O O4 0.175414 0.800106 0.967806
O O5 0.599087 0.943799 0.295666
O O6 0.624338 0.451369 0.053170
O O7 0.500000 0.000000 0.000000
O O8 0.500000 0.500000 0.500000
O O9 0.499035 0.464620 0.223044
O O10 0.649660 0.582062 0.468101
O O11 0.653553 0.641086 0.738667
O O12 0.888446 0.512764 0.496113
O O13 0.032169 0.791008 0.359495
O O14 0.917273 0.958052 0.187161
O O15 0.000000 0.000000 0.500000
O O16 0.793791 0.992565 0.566909
O O17 0.883166 0.157820 0.835109
O O18 0.000000 0.500000 0.000000
#
# Coordination Sequence:
#
# PCOD8011435 Si02
#       8
#     2   2   2   2   2   2   2   2
#     4  11  23  39  64  95 125 173 223 270 329 409
#     4   9  20  39  61  90 128 163 215 279 323 398
#     4   9  19  37  61  88 122 168 206 267 334 391
#     4   9  19  39  62  88 123 163 217 261 329 389
#     4  11  25  44  68 103 134 174 231 279 339 413
#     4  11  24  45  69  97 137 182 218 287 342 398
#     4  12  24  45  71  97 139 184 227 279 347 402
#     4  10  21  39  61  90 128 163 215 268 325 397
#
# _framework density 21.700051999999999
#
# number of rings (size 3 to 8) (size 9 to 14) (size 15 to 20)
#    0.000    1.750    2.500    1.875    0.000    4.500 
#    0.000    2.500    0.000    0.000    0.000    0.000 
#    0.000    0.000    0.000    0.000    0.000    0.000 
#
# Total GULP energy -198215.789416 kJ/mol
# GULP energy per Si atom -12388.486838 kJ/mol
# Density = 2.165066 g / cm^3
# Si number density = 21.700052 Si / 1000 Ang^3
#
#
#
# Elastic Constant Matrix: (Units=GPa)
#
#
# Indices 1 2 3 4 5 6 
#
# 1 102.9077 34.3870 44.1454 -12.1031 15.5654 12.2303
# 2 34.3870 138.9716 51.3460 -26.3220 13.4080 14.6657
# 3 44.1454 51.3460 129.0655 -34.7612 16.5241 4.8321
# 4 -12.1031 -26.3220 -34.7612 39.5313 -1.5395 1.1797
# 5 15.5654 13.4080 16.5241 -1.5395 32.9611 2.9708
# 6 12.2303 14.6657 4.8321 1.1797 2.9708 33.1605
#
#
#
# Elastic Compliance Matrix: (Units=1/GPa)
#
#
# Indices 1 2 3 4 5 6 
#
# 1 0.012406 -0.001184 -0.003147 0.000205 -0.003493 -0.003288
# 2 -0.001184 0.009556 -0.001833 0.004419 -0.001886 -0.003510
# 3 -0.003147 -0.001833 0.012282 0.008472 -0.003548 0.000198
# 4 0.000205 0.004419 0.008472 0.035716 -0.004098 -0.004168
# 5 -0.003493 -0.001886 -0.003548 -0.004098 0.034369 -0.000294
# 6 -0.003288 -0.003510 0.000198 -0.004168 -0.000294 0.033067
#
#
# Mechanical properties :
#
#
# Convention : Reuss Voigt Hill
#
# Bulk Modulus (GPa) = 45.63038 70.07798 57.85418
# Shear Modulus (GPa) = 31.84093 37.20167 34.52130
#
# Velocity S-wave (km/s) = 3.83472 4.14497 3.99286
# Velocity P-wave (km/s) = 6.37810 7.43450 6.92647
#
# Compressibility (1/GPa) = 0.02191522
#
# Stress axis : x y z
#
# Youngs Moduli (GPa) = 80.60396 104.65128 81.41867
#
# Poissons Ratio (x) = 0.12395 0.25621
# Poissons Ratio (y) = 0.09547 0.14926
# Poissons Ratio (z) = 0.25364 0.19185
#
# Static dielectric constant tensor:
#      x y z
#    x 4.106440 0.405690 0.347070 
#    y 0.405690 5.254610 -0.197510 
#    z 0.347070 -0.197510 4.516160 
# 
# 
# High freq. dielectric constant tensor:
#      x y z
#    x 1.854890 0.013760 0.006900 
#    y 0.013760 1.850790 -0.027110 
#    z 0.006900 -0.027110 1.853980 
# 
# From -- ./inp_files/53227.got.cif
#   From: 2010.06.25/outbox.cif.g09.slc.cpg/sg2_27_cif.got.tgz:53227.got - 2010.06.27 13:26:56.
