data_PCOD8011232
_publ_section_title
;
Structure prediction by ZEFSAII (Michael W. Deem and Ramdas Pophale) SiO2 
 PCOD8011232
Probable space group: P -1
;
_chemical_formula_sum "Si O2"
_cell_formula_units_Z 14
_cell_length_a 7.110372
_cell_length_b 7.848417
_cell_length_c 22.912663
_cell_angle_alpha 71.714165
_cell_angle_beta 44.764662
_cell_angle_gamma 57.998957
_cell_volume 759.395203
_symmetry_space_group_name_H-M "P -1"
_symmetry_group_IT_number 2
_symmetry_cell_setting 'triclinic'
loop_
_space_group_symop_operation_xyz
x,y,z
-x,-y,-z
loop_
_atom_site_type_symbol
_atom_site_label
_atom_site_fract_x
_atom_site_fract_y
_atom_site_fract_z
Si Si1 0.738660 0.967524 0.533156
Si Si2 0.807143 0.463759 0.095122
Si Si3 0.974335 0.247078 0.194236
Si Si4 0.881518 0.748041 0.405699
Si Si5 0.722669 0.601075 0.792650
Si Si6 0.200964 0.794296 0.223787
Si Si7 0.331431 0.315218 0.333121
O O1 0.880132 0.820121 0.463641
O O2 0.609537 0.877841 0.621183
O O3 0.458249 0.173789 0.551488
O O4 0.000000 0.000000 0.500000
O O5 0.033067 0.319514 0.110552
O O6 0.619218 0.354296 0.120291
O O7 0.566862 0.677188 0.154439
O O8 0.000000 0.500000 0.000000
O O9 0.617461 0.358650 0.273029
O O10 0.141116 0.314216 0.198002
O O11 0.092346 0.006507 0.192511
O O12 0.072023 0.827240 0.314636
O O13 0.034211 0.506650 0.400773
O O14 0.913391 0.355823 0.767071
O O15 0.711645 0.718103 0.722172
#
# Coordination Sequence:
#
# PCOD8011232 Si02
#       7
#     2   2   2   2   2   2   2
#     4  11  24  35  58  86 114 155 193 244 294 337
#     4   9  21  42  59  92 126 142 196 251 282 355
#     4  11  19  39  65  81 119 161 186 247 297 335
#     4  10  21  40  53  83 119 146 202 241 284 348
#     4   8  21  37  58  91 113 155 200 232 290 359
#     4   9  20  40  58  89 116 153 201 237 282 365
#     4  10  21  39  55  83 118 151 198 244 285 344
#
# _framework density 18.435725999999999
#
# number of rings (size 3 to 8) (size 9 to 14) (size 15 to 20)
#    0.857    1.429    2.857    0.429    2.000    4.000 
#    5.143    0.714    0.000    0.000    0.000    0.000 
#    0.000    0.000    0.000    0.000    0.000    0.000 
#
# Total GULP energy -173479.427702 kJ/mol
# GULP energy per Si atom -12391.387693 kJ/mol
# Density = 1.839377 g / cm^3
# Si number density = 18.435726 Si / 1000 Ang^3
#
#
#
# Elastic Constant Matrix: (Units=GPa)
#
#
# Indices 1 2 3 4 5 6 
#
# 1 140.8377 28.2133 42.7860 -9.4137 4.2812 -3.1191
# 2 28.2133 75.9465 13.5413 -12.6444 7.6739 -9.4955
# 3 42.7860 13.5413 107.9101 -14.2083 7.2400 -2.0706
# 4 -9.4137 -12.6444 -14.2083 23.3485 -10.0084 0.4660
# 5 4.2812 7.6739 7.2400 -10.0084 16.8709 -2.6626
# 6 -3.1191 -9.4955 -2.0706 0.4660 -2.6626 19.9800
#
#
#
# Elastic Compliance Matrix: (Units=1/GPa)
#
#
# Indices 1 2 3 4 5 6 
#
# 1 0.008564 -0.002648 -0.003051 0.000402 0.000552 -0.000174
# 2 -0.002648 0.016329 0.000170 0.007088 -0.001519 0.006997
# 3 -0.003051 0.000170 0.011223 0.005298 -0.000894 0.000525
# 4 0.000402 0.007088 0.005298 0.064350 0.033674 0.006967
# 5 0.000552 -0.001519 -0.000894 0.033674 0.081664 0.009369
# 6 -0.000174 0.006997 0.000525 0.006967 0.009369 0.054489
#
#
# Mechanical properties :
#
#
# Convention : Reuss Voigt Hill
#
# Bulk Modulus (GPa) = 39.90569 54.86396 47.38483
# Shear Modulus (GPa) = 19.52917 28.05011 23.78964
#
# Velocity S-wave (km/s) = 3.25824 3.90488 3.59612
# Velocity P-wave (km/s) = 5.98729 7.08202 6.55754
#
# Compressibility (1/GPa) = 0.02505908
#
# Stress axis : x y z
#
# Youngs Moduli (GPa) = 116.76970 61.24105 89.10432
#
# Poissons Ratio (x) = 0.16216 0.27182
# Poissons Ratio (y) = 0.30920 -0.01517
# Poissons Ratio (z) = 0.35622 -0.01043
#
# Static dielectric constant tensor:
#      x y z
#    x 3.178070 -0.271440 0.048690 
#    y -0.271440 3.430230 -0.124380 
#    z 0.048690 -0.124380 3.666570 
# 
# 
# High freq. dielectric constant tensor:
#      x y z
#    x 1.696690 -0.020600 0.003320 
#    y -0.020600 1.711660 -0.006870 
#    z 0.003320 -0.006870 1.713300 
# 
# From -- ./inp_files/576889.got.cif
#   From: 2010.06.25/outbox.cif.g09.slc.cpg/sg2_289_cif.got.tgz:576889.got - 2010.06.27 13:26:56.
