data_PCOD8011686
_publ_section_title
;
Structure prediction by ZEFSAII (Michael W. Deem and Ramdas Pophale) SiO2 
 PCOD8011686
Probable space group: P -1
;
_chemical_formula_sum "Si O2"
_cell_formula_units_Z 16
_cell_length_a 8.343880
_cell_length_b 19.983349
_cell_length_c 19.446747
_cell_angle_alpha 159.744335
_cell_angle_beta 137.081256
_cell_angle_gamma 52.064540
_cell_volume 727.651053
_symmetry_space_group_name_H-M "P -1"
_symmetry_group_IT_number 2
_symmetry_cell_setting 'triclinic'
loop_
_space_group_symop_operation_xyz
x,y,z
-x,-y,-z
loop_
_atom_site_type_symbol
_atom_site_label
_atom_site_fract_x
_atom_site_fract_y
_atom_site_fract_z
Si Si1 0.353445 0.519915 0.875580
Si Si2 0.895148 0.577901 0.441293
Si Si3 0.671073 0.043057 0.027303
Si Si4 0.450300 0.245514 0.035092
Si Si5 0.427867 0.109495 0.518646
Si Si6 0.246204 0.346204 0.294817
Si Si7 0.995890 0.749164 0.017986
Si Si8 0.706336 0.924681 0.326019
O O1 0.201494 0.421489 0.665502
O O2 0.445082 0.342053 0.767138
O O3 0.168492 0.603207 0.944336
O O4 0.598648 0.706293 0.117962
O O5 0.049789 0.806370 0.730139
O O6 0.090296 0.454536 0.395431
O O7 0.660740 0.462421 0.302937
O O8 0.524541 0.109495 0.984604
O O9 0.500000 0.000000 0.000000
O O10 0.710133 0.829788 0.813744
O O11 0.383911 0.108033 0.813028
O O12 0.214460 0.309154 0.046718
O O13 0.500000 0.000000 0.500000
O O14 0.595421 0.090460 0.486803
O O15 0.143204 0.987194 0.298479
O O16 0.500000 0.500000 0.500000
O O17 0.098289 0.260439 0.097611
O O18 0.000000 0.000000 0.500000
#
# Coordination Sequence:
#
# PCOD8011686 Si02
#       8
#     2   2   2   2   2   2   2   2
#     4   9  22  41  69  93 125 174 217 266 325 382
#     4  10  22  41  61  92 134 167 219 271 317 386
#     4  12  22  38  66  94 128 178 217 265 323 382
#     4  11  23  41  65 100 134 172 216 273 334 381
#     4  11  23  43  69  96 125 166 222 271 321 395
#     4  11  21  38  61  90 126 172 219 262 310 385
#     4  10  21  39  63  92 127 169 220 263 315 387
#     4  10  23  45  65  95 136 168 211 275 329 390
#
# _framework density 21.988562000000002
#
# number of rings (size 3 to 8) (size 9 to 14) (size 15 to 20)
#    0.000    1.500    2.500    2.625    0.000    3.000 
#    0.000   12.500    0.000    0.000    0.000    0.000 
#    0.000    0.000    0.000    0.000    0.000    0.000 
#
# Total GULP energy -198338.419614 kJ/mol
# GULP energy per Si atom -12396.151226 kJ/mol
# Density = 2.193851 g / cm^3
# Si number density = 21.988562 Si / 1000 Ang^3
#
#
#
# Elastic Constant Matrix: (Units=GPa)
#
#
# Indices 1 2 3 4 5 6 
#
# 1 135.0221 38.7582 45.6510 10.8548 25.5074 -17.5016
# 2 38.7582 108.3491 43.1749 17.4317 9.1249 -4.6576
# 3 45.6510 43.1749 133.2575 8.1732 25.3244 -18.5521
# 4 10.8548 17.4317 8.1732 43.8200 -10.1122 -5.2953
# 5 25.5074 9.1249 25.3244 -10.1122 37.7214 -6.1891
# 6 -17.5016 -4.6576 -18.5521 -5.2953 -6.1891 34.8920
#
#
#
# Elastic Compliance Matrix: (Units=1/GPa)
#
#
# Indices 1 2 3 4 5 6 
#
# 1 0.010033 -0.002157 -0.001123 -0.002397 -0.005697 0.002774
# 2 -0.002157 0.011809 -0.002942 -0.004019 -0.000799 -0.001822
# 3 -0.001123 -0.002942 0.010408 -0.001300 -0.005301 0.003441
# 4 -0.002397 -0.004019 -0.001300 0.028445 0.011743 0.003970
# 5 -0.005697 -0.000799 -0.005301 0.011743 0.037703 0.002687
# 6 0.002774 -0.001822 0.003441 0.003970 0.002687 0.032716
#
#
# Mechanical properties :
#
#
# Convention : Reuss Voigt Hill
#
# Bulk Modulus (GPa) = 50.48790 70.19966 60.34378
# Shear Modulus (GPa) = 33.29732 39.88964 36.59348
#
# Velocity S-wave (km/s) = 3.89562 4.26386 4.08389
# Velocity P-wave (km/s) = 6.57612 7.49903 7.05269
#
# Compressibility (1/GPa) = 0.01980673
#
# Stress axis : x y z
#
# Youngs Moduli (GPa) = 99.66752 84.68024 96.07724
#
# Poissons Ratio (x) = 0.18266 0.10785
# Poissons Ratio (y) = 0.21499 0.28270
# Poissons Ratio (z) = 0.11188 0.24917
#
# Static dielectric constant tensor:
#      x y z
#    x 4.188030 -0.176460 -0.097930 
#    y -0.176460 3.974570 -0.002980 
#    z -0.097930 -0.002980 4.133040 
# 
# 
# High freq. dielectric constant tensor:
#      x y z
#    x 1.862740 -0.006490 0.003350 
#    y -0.006490 1.861710 -0.012300 
#    z 0.003350 -0.012300 1.877980 
# 
# From -- ./inp_files/591745.got.cif
#   From: 2010.06.25/outbox.cif.g09.slc.cpg/sg2_296_cif.got.tgz:591745.got - 2010.06.27 13:26:56.
