data_PCOD8011041
_publ_section_title
;
Structure prediction by ZEFSAII (Michael W. Deem and Ramdas Pophale) SiO2 
 PCOD8011041
Probable space group: P -1
;
_chemical_formula_sum "Si O2"
_cell_formula_units_Z 16
_cell_length_a 14.830881
_cell_length_b 11.774548
_cell_length_c 8.860453
_cell_angle_alpha 97.900134
_cell_angle_beta 31.069162
_cell_angle_gamma 108.220100
_cell_volume 731.155427
_symmetry_space_group_name_H-M "P -1"
_symmetry_group_IT_number 2
_symmetry_cell_setting 'triclinic'
loop_
_space_group_symop_operation_xyz
x,y,z
-x,-y,-z
loop_
_atom_site_type_symbol
_atom_site_label
_atom_site_fract_x
_atom_site_fract_y
_atom_site_fract_z
Si Si1 0.222284 0.972104 0.021157
Si Si2 0.375451 0.632717 0.638981
Si Si3 0.088471 0.181290 0.331833
Si Si4 0.995247 0.525797 0.336587
Si Si5 0.943105 0.271740 0.273114
Si Si6 0.319587 0.374277 0.249814
Si Si7 0.641190 0.133994 0.468708
Si Si8 0.688257 0.637907 0.409452
O O1 0.086106 0.869409 0.310536
O O2 0.132859 0.076577 0.157780
O O3 0.234801 0.914541 0.830164
O O4 0.438321 0.029480 0.781170
O O5 0.381493 0.743256 0.541370
O O6 0.564592 0.678725 0.476192
O O7 0.363592 0.510866 0.540426
O O8 0.206793 0.601409 0.993230
O O9 0.285536 0.269768 0.148911
O O10 0.020318 0.256696 0.322825
O O11 0.902288 0.396652 0.358112
O O12 0.873435 0.603847 0.481224
O O13 0.000000 0.500000 0.500000
O O14 0.751130 0.162271 0.475859
O O15 0.096374 0.286428 0.927522
O O16 0.337554 0.318710 0.377052
O O17 0.500000 0.500000 0.000000
#
# Coordination Sequence:
#
# PCOD8011041 Si02
#       8
#     2   2   2   2   2   2   2   2
#     4  10  25  45  66  88 125 175 224 270 316 369
#     4  10  21  38  66  89 135 163 214 261 308 393
#     4  11  24  45  64  94 134 167 214 273 320 380
#     4  11  21  37  58 100 132 167 202 253 332 389
#     4  11  23  38  69  93 130 167 207 270 319 390
#     4  12  25  39  66  96 135 170 205 260 328 394
#     4  11  23  43  67  93 120 175 224 268 316 373
#     4  10  22  38  61 101 126 172 204 250 332 388
#
# _framework density 21.883171999999998
#
# number of rings (size 3 to 8) (size 9 to 14) (size 15 to 20)
#    0.000    1.250    1.250    4.500    7.000    3.000 
#    0.000    5.000    0.000    0.000    0.000    0.000 
#    0.000    0.000    0.000    0.000    0.000    0.000 
#
# Total GULP energy -198370.569485 kJ/mol
# GULP energy per Si atom -12398.160593 kJ/mol
# Density = 2.183337 g / cm^3
# Si number density = 21.883172 Si / 1000 Ang^3
#
#
#
# Elastic Constant Matrix: (Units=GPa)
#
#
# Indices 1 2 3 4 5 6 
#
# 1 111.7636 23.6014 9.1968 -8.6842 -3.3562 19.3560
# 2 23.6014 76.1630 20.8653 -4.2894 -8.1254 6.1522
# 3 9.1968 20.8653 74.5882 -6.8203 1.5898 14.2525
# 4 -8.6842 -4.2894 -6.8203 37.8228 -2.7986 -9.1284
# 5 -3.3562 -8.1254 1.5898 -2.7986 26.5928 -6.8276
# 6 19.3560 6.1522 14.2525 -9.1284 -6.8276 27.6932
#
#
#
# Elastic Compliance Matrix: (Units=1/GPa)
#
#
# Indices 1 2 3 4 5 6 
#
# 1 0.010847 -0.003191 0.001097 0.000343 -0.001618 -0.007723
# 2 -0.003191 0.015811 -0.004579 0.001347 0.005587 0.002896
# 3 0.001097 -0.004579 0.016441 0.000107 -0.004624 -0.009316
# 4 0.000343 0.001347 0.000107 0.029762 0.006349 0.010782
# 5 -0.001618 0.005587 -0.004624 0.006349 0.043954 0.015199
# 6 -0.007723 0.002896 -0.009316 0.010782 0.015199 0.052960
#
#
# Mechanical properties :
#
#
# Convention : Reuss Voigt Hill
#
# Bulk Modulus (GPa) = 33.61080 41.09353 37.35216
# Shear Modulus (GPa) = 25.90166 32.34519 29.12342
#
# Velocity S-wave (km/s) = 3.44413 3.84876 3.65205
# Velocity P-wave (km/s) = 5.58646 6.21047 5.90671
#
# Compressibility (1/GPa) = 0.02975235
#
# Stress axis : x y z
#
# Youngs Moduli (GPa) = 92.19478 63.24710 60.82366
#
# Poissons Ratio (x) = 0.20183 -0.06671
# Poissons Ratio (y) = 0.29421 0.27850
# Poissons Ratio (z) = -0.10112 0.28959
#
# Static dielectric constant tensor:
#      x y z
#    x 9.565700 9.426410 -4.006320 
#    y 9.426410 19.227610 -6.433920 
#    z -4.006320 -6.433920 6.869690 
# 
# 
# High freq. dielectric constant tensor:
#      x y z
#    x 1.854140 0.011670 -0.003060 
#    y 0.011670 1.857590 0.001810 
#    z -0.003060 0.001810 1.871980 
# 
# From -- ./inp_files/179919.got.cif
#   From: 2010.06.25/outbox.cif.g09.slc.cpg/sg2_90_cif.got.tgz:179919.got - 2010.06.27 13:26:56.
