data_PCOD8011501
_publ_section_title
;
Structure prediction by ZEFSAII (Michael W. Deem and Ramdas Pophale) SiO2 
 PCOD8011501
Probable space group: P -1
;
_chemical_formula_sum "Si O2"
_cell_formula_units_Z 16
_cell_length_a 5.216775
_cell_length_b 29.069242
_cell_length_c 5.214503
_cell_angle_alpha 104.367416
_cell_angle_beta 60.898133
_cell_angle_gamma 115.561871
_cell_volume 622.573447
_symmetry_space_group_name_H-M "P -1"
_symmetry_group_IT_number 2
_symmetry_cell_setting 'triclinic'
loop_
_space_group_symop_operation_xyz
x,y,z
-x,-y,-z
loop_
_atom_site_type_symbol
_atom_site_label
_atom_site_fract_x
_atom_site_fract_y
_atom_site_fract_z
Si Si1 0.875894 0.019326 0.837437
Si Si2 0.388868 0.286719 0.796187
Si Si3 0.163406 0.139186 0.907843
Si Si4 0.324601 0.369494 0.568117
Si Si5 0.240324 0.612268 0.034069
Si Si6 0.086761 0.824368 0.414588
Si Si7 0.211283 0.518578 0.174526
Si Si8 0.953362 0.268431 0.397281
O O1 0.008804 0.079804 0.845553
O O2 0.000000 0.000000 0.500000
O O3 0.500000 0.000000 0.000000
O O4 0.000000 0.000000 0.000000
O O5 0.344465 0.328237 0.695626
O O6 0.627734 0.325831 0.942172
O O7 0.573126 0.251943 0.542499
O O8 0.077921 0.250317 0.051291
O O9 0.537614 0.154194 0.774241
O O10 0.083349 0.167863 0.745898
O O11 0.011105 0.150173 0.257960
O O12 0.101388 0.330285 0.406994
O O13 0.142224 0.405848 0.806929
O O14 0.645350 0.404516 0.314013
O O15 0.339602 0.581791 0.180078
O O16 0.965939 0.762123 0.440600
O O17 0.000000 0.500000 0.500000
O O18 0.500000 0.500000 0.000000
O O19 0.000000 0.500000 0.000000
#
# Coordination Sequence:
#
# PCOD8011501 Si02
#       8
#     2   2   2   2   2   2   2   2
#     4  12  24  44  74 104 139 182 234 298 347 411
#     4  10  21  39  62  88 123 162 226 274 330 397
#     4  12  26  47  68 106 139 188 233 283 356 413
#     4  10  21  39  63  89 123 163 223 274 330 397
#     4  10  23  39  63  93 125 170 217 280 335 394
#     4  12  26  44  69  96 144 183 227 285 340 427
#     4  12  28  47  73 105 141 183 229 281 349 429
#     4  10  23  37  58  92 118 174 219 271 333 394
#
# _framework density 25.699777999999998
#
# number of rings (size 3 to 8) (size 9 to 14) (size 15 to 20)
#    0.000    1.000    0.000    6.000    7.000    0.000 
#    0.000    0.000    0.000    0.000    0.000    0.000 
#    0.000    0.000    0.000    0.000    0.000    0.000 
#
# Total GULP energy -198293.534786 kJ/mol
# GULP energy per Si atom -12393.345924 kJ/mol
# Density = 2.564128 g / cm^3
# Si number density = 25.699778 Si / 1000 Ang^3
#
#
#
# Elastic Constant Matrix: (Units=GPa)
#
#
# Indices 1 2 3 4 5 6 
#
# 1 111.1293 20.0370 77.6412 2.5410 -8.1181 -32.4269
# 2 20.0370 132.8083 30.6277 1.8375 -6.7739 2.4898
# 3 77.6412 30.6277 213.8646 -27.1134 -41.6549 -28.7644
# 4 2.5410 1.8375 -27.1134 32.7370 -11.2554 5.9742
# 5 -8.1181 -6.7739 -41.6549 -11.2554 44.1853 5.1529
# 6 -32.4269 2.4898 -28.7644 5.9742 5.1529 53.0360
#
#
#
# Elastic Compliance Matrix: (Units=1/GPa)
#
#
# Indices 1 2 3 4 5 6 
#
# 1 0.017049 -0.001099 -0.008308 -0.012781 -0.009091 0.008293
# 2 -0.001099 0.007986 -0.001099 -0.001030 -0.000099 -0.001517
# 3 -0.008308 -0.001099 0.012537 0.016328 0.014455 -0.001472
# 4 -0.012781 -0.001030 0.016328 0.056254 0.028147 -0.007982
# 5 -0.009091 -0.000099 0.014455 0.028147 0.042326 -0.004997
# 6 0.008293 -0.001517 -0.001472 -0.007982 -0.004997 0.024583
#
#
# Mechanical properties :
#
#
# Convention : Reuss Voigt Hill
#
# Bulk Modulus (GPa) = 60.38040 79.37936 69.87988
# Shear Modulus (GPa) = 26.70008 47.95806 37.32907
#
# Velocity S-wave (km/s) = 3.22673 4.32451 3.81531
# Velocity P-wave (km/s) = 6.11783 7.47592 6.83071
#
# Compressibility (1/GPa) = 0.01656167
#
# Stress axis : x y z
#
# Youngs Moduli (GPa) = 58.65536 125.21211 79.76583
#
# Poissons Ratio (x) = 0.13756 0.66267
# Poissons Ratio (y) = 0.06444 0.08765
# Poissons Ratio (z) = 0.48729 0.13758
#
# Static dielectric constant tensor:
#      x y z
#    x 5.493990 1.287900 -0.434170 
#    y 1.287900 7.486210 0.639060 
#    z -0.434170 0.639060 6.352820 
# 
# 
# High freq. dielectric constant tensor:
#      x y z
#    x 2.043550 0.000710 -0.007030 
#    y 0.000710 2.037070 0.001920 
#    z -0.007030 0.001920 2.057070 
# 
# From -- ./inp_files/14595.got.cif
#   From: 2010.06.25/outbox.cif.g09.slc.cpg/sg2_8_cif.got.tgz:14595.got - 2010.06.27 13:26:56.
