data_PCOD8011277
_publ_section_title
;
Structure prediction by ZEFSAII (Michael W. Deem and Ramdas Pophale) SiO2 
 PCOD8011277
Probable space group: P -1
;
_chemical_formula_sum "Si O2"
_cell_formula_units_Z 16
_cell_length_a 14.370539
_cell_length_b 7.928364
_cell_length_c 10.932985
_cell_angle_alpha 133.896051
_cell_angle_beta 67.994929
_cell_angle_gamma 89.147427
_cell_volume 758.638160
_symmetry_space_group_name_H-M "P -1"
_symmetry_group_IT_number 2
_symmetry_cell_setting 'triclinic'
loop_
_space_group_symop_operation_xyz
x,y,z
-x,-y,-z
loop_
_atom_site_type_symbol
_atom_site_label
_atom_site_fract_x
_atom_site_fract_y
_atom_site_fract_z
Si Si1 0.476449 0.583843 0.353221
Si Si2 0.058672 0.244955 0.266673
Si Si3 0.920523 0.585948 0.908380
Si Si4 0.716995 0.284601 0.654243
Si Si5 0.273772 0.209995 0.056386
Si Si6 0.047727 0.094209 0.733332
Si Si7 0.506964 0.832071 0.687867
Si Si8 0.414153 0.729273 0.080192
O O1 0.369289 0.765685 0.418487
O O2 0.521147 0.763582 0.500636
O O3 0.436737 0.426761 0.391409
O O4 0.575289 0.379603 0.117992
O O5 0.019498 0.322890 0.183910
O O6 0.192236 0.148980 0.159323
O O7 0.000000 0.500000 0.500000
O O8 0.029078 0.017858 0.215921
O O9 0.795411 0.651940 0.961899
O O10 0.982262 0.279449 0.747214
O O11 0.914616 0.740092 0.111054
O O12 0.683492 0.588566 0.805637
O O13 0.702347 0.209375 0.764400
O O14 0.844087 0.135840 0.484705
O O15 0.376667 0.952607 0.841581
O O16 0.563375 0.016976 0.794388
O O17 0.500000 0.500000 0.000000
#
# Coordination Sequence:
#
# PCOD8011277 Si02
#       8
#     2   2   2   2   2   2   2   2
#     4  10  23  40  63  88 123 163 200 255 306 360
#     4  10  21  39  61  89 119 161 201 250 309 361
#     4   9  23  39  62  93 118 164 203 253 307 367
#     4  11  22  39  61  90 119 162 200 248 310 360
#     4  10  21  39  58  91 118 156 207 244 305 370
#     4  11  20  44  62  85 132 156 203 259 302 366
#     4  11  21  43  61  88 125 159 203 254 305 363
#     4  10  21  39  60  91 119 159 205 249 305 361
#
# _framework density 21.090423000000001
#
# number of rings (size 3 to 8) (size 9 to 14) (size 15 to 20)
#    0.750    1.000    3.750    1.500    0.000    4.000 
#    9.000    2.500    0.000    0.000    0.000    0.000 
#    0.000    0.000    0.000    0.000    0.000    0.000 
#
# Total GULP energy -198280.240608 kJ/mol
# GULP energy per Si atom -12392.515038 kJ/mol
# Density = 2.104242 g / cm^3
# Si number density = 21.090423 Si / 1000 Ang^3
#
#
#
# Elastic Constant Matrix: (Units=GPa)
#
#
# Indices 1 2 3 4 5 6 
#
# 1 44.6541 11.5113 25.3795 -11.8450 -10.3954 8.9346
# 2 11.5113 94.7743 20.9192 -8.2450 -14.0947 10.8241
# 3 25.3795 20.9192 107.0910 -12.6415 4.7956 10.7841
# 4 -11.8450 -8.2450 -12.6415 36.6867 0.8010 -2.3758
# 5 -10.3954 -14.0947 4.7956 0.8010 23.9650 -2.7135
# 6 8.9346 10.8241 10.7841 -2.3758 -2.7135 29.5256
#
#
#
# Elastic Compliance Matrix: (Units=1/GPa)
#
#
# Indices 1 2 3 4 5 6 
#
# 1 0.033047 0.001244 -0.007284 0.007727 0.015616 -0.005739
# 2 0.001244 0.012713 -0.002586 0.001984 0.008107 -0.003188
# 3 -0.007284 -0.002586 0.012247 0.001326 -0.007390 -0.001894
# 4 0.007727 0.001984 0.001326 0.030535 0.003142 -0.000804
# 5 0.015616 0.008107 -0.007390 0.003142 0.054675 0.000279
# 6 -0.005739 -0.003188 -0.001894 -0.000804 0.000279 0.037427
#
#
# Mechanical properties :
#
#
# Convention : Reuss Voigt Hill
#
# Bulk Modulus (GPa) = 24.53662 40.23772 32.38717
# Shear Modulus (GPa) = 23.64272 30.61608 27.12940
#
# Velocity S-wave (km/s) = 3.35179 3.81420 3.59045
# Velocity P-wave (km/s) = 5.16126 6.20625 5.70772
#
# Compressibility (1/GPa) = 0.04075541
#
# Stress axis : x y z
#
# Youngs Moduli (GPa) = 30.26006 78.65657 81.65000
#
# Poissons Ratio (x) = -0.09784 0.59474
# Poissons Ratio (y) = -0.03764 0.21115
# Poissons Ratio (z) = 0.22042 0.20341
#
# Static dielectric constant tensor:
#      x y z
#    x 3.623090 0.096890 0.048940 
#    y 0.096890 4.114400 -0.283980 
#    z 0.048940 -0.283980 4.007710 
# 
# 
# High freq. dielectric constant tensor:
#      x y z
#    x 1.804430 0.000890 0.008830 
#    y 0.000890 1.824710 -0.004070 
#    z 0.008830 -0.004070 1.833080 
# 
# From -- ./inp_files/448327.got.cif
#   From: 2010.06.25/outbox.cif.g09.slc.cpg/sg2_225_cif.got.tgz:448327.got - 2010.06.27 13:26:56.
