data_PCOD8011080
_publ_section_title
;
Structure prediction by ZEFSAII (Michael W. Deem and Ramdas Pophale) SiO2 
 PCOD8011080
Probable space group: P -1
;
_chemical_formula_sum "Si O2"
_cell_formula_units_Z 16
_cell_length_a 8.315618
_cell_length_b 11.708784
_cell_length_c 12.408087
_cell_angle_alpha 58.778022
_cell_angle_beta 48.667472
_cell_angle_gamma 55.193000
_cell_volume 725.009552
_symmetry_space_group_name_H-M "P -1"
_symmetry_group_IT_number 2
_symmetry_cell_setting 'triclinic'
loop_
_space_group_symop_operation_xyz
x,y,z
-x,-y,-z
loop_
_atom_site_type_symbol
_atom_site_label
_atom_site_fract_x
_atom_site_fract_y
_atom_site_fract_z
Si Si1 0.452309 0.934961 0.444091
Si Si2 0.195292 0.633775 0.892041
Si Si3 0.155835 0.642409 0.544735
Si Si4 0.463417 0.044926 0.162784
Si Si5 0.046692 0.943282 0.342093
Si Si6 0.825974 0.643214 0.872106
Si Si7 0.528280 0.626311 0.566364
Si Si8 0.043325 0.060195 0.064530
O O1 0.596532 0.766391 0.461155
O O2 0.500000 0.000000 0.500000
O O3 0.530645 0.011702 0.274427
O O4 0.180847 0.957641 0.542059
O O5 0.428026 0.615683 0.734054
O O6 0.997714 0.648746 0.886729
O O7 0.116375 0.774128 0.933236
O O8 0.243534 0.495639 0.014249
O O9 0.098932 0.780192 0.427731
O O10 0.348339 0.635928 0.548019
O O11 0.242533 0.508872 0.490120
O O12 0.932599 0.639772 0.707888
O O13 0.397737 0.213838 0.088954
O O14 0.253985 0.994532 0.253578
O O15 0.687294 0.957933 0.036353
O O16 0.991030 0.966187 0.228403
O O17 0.000000 0.000000 0.000000
#
# Coordination Sequence:
#
# PCOD8011080 Si02
#       8
#     2   2   2   2   2   2   2   2
#     4  12  24  42  67  96 135 172 207 269 335 380
#     4  10  22  39  64  90 137 167 209 266 328 377
#     4  10  21  38  66  98 125 163 218 274 309 377
#     4  12  24  40  71  97 125 171 224 269 309 380
#     4  12  22  44  68  95 127 166 230 269 307 382
#     4  10  21  39  62 100 125 164 217 270 312 378
#     4  10  21  39  63  95 131 167 210 264 329 376
#     4  12  27  44  63  96 136 172 212 266 334 387
#
# _framework density 22.068674000000001
#
# number of rings (size 3 to 8) (size 9 to 14) (size 15 to 20)
#    0.000    1.000    5.000    2.250    3.500    1.000 
#    0.000    2.500    0.000    0.000    0.000    0.000 
#    0.000    0.000    0.000    0.000    0.000    0.000 
#
# Total GULP energy -198454.120479 kJ/mol
# GULP energy per Si atom -12403.382530 kJ/mol
# Density = 2.201844 g / cm^3
# Si number density = 22.068674 Si / 1000 Ang^3
#
#
#
# Elastic Constant Matrix: (Units=GPa)
#
#
# Indices 1 2 3 4 5 6 
#
# 1 22.7090 24.5594 0.8187 -3.4304 3.7082 6.3435
# 2 24.5594 200.6232 76.7416 -12.9674 13.1046 11.1578
# 3 0.8187 76.7416 120.5657 -13.8013 13.2463 -4.3784
# 4 -3.4304 -12.9674 -13.8013 50.8622 -6.2877 5.2520
# 5 3.7082 13.1046 13.2463 -6.2877 24.7996 3.4660
# 6 6.3435 11.1578 -4.3784 5.2520 3.4660 22.1583
#
#
#
# Elastic Compliance Matrix: (Units=1/GPa)
#
#
# Indices 1 2 3 4 5 6 
#
# 1 0.056709 -0.007671 0.005014 0.003870 -0.004503 -0.011594
# 2 -0.007671 0.008091 -0.005173 0.000478 0.000181 -0.003042
# 3 0.005014 -0.005173 0.012390 0.001362 -0.004855 0.004054
# 4 0.003870 0.000478 0.001362 0.021747 0.004934 -0.007006
# 5 -0.004503 0.000181 -0.004855 0.004934 0.045878 -0.008107
# 6 -0.011594 -0.003042 0.004054 -0.007006 -0.008107 0.053710
#
#
# Mechanical properties :
#
#
# Convention : Reuss Voigt Hill
#
# Bulk Modulus (GPa) = 16.25242 60.90416 38.57829
# Shear Modulus (GPa) = 21.30426 35.68257 28.49341
#
# Velocity S-wave (km/s) = 3.11040 4.02542 3.59712
# Velocity P-wave (km/s) = 4.50332 7.01874 5.89672
#
# Compressibility (1/GPa) = 0.06152930
#
# Stress axis : x y z
#
# Youngs Moduli (GPa) = 17.63382 123.59930 80.71219
#
# Poissons Ratio (x) = 0.94814 -0.40472
# Poissons Ratio (y) = 0.13527 0.41756
# Poissons Ratio (z) = -0.08842 0.63943
#
# Static dielectric constant tensor:
#      x y z
#    x 3.641880 -0.198470 0.021000 
#    y -0.198470 4.660160 -0.157860 
#    z 0.021000 -0.157860 4.507240 
# 
# 
# High freq. dielectric constant tensor:
#      x y z
#    x 1.838930 -0.003890 0.007520 
#    y -0.003890 1.877050 -0.000400 
#    z 0.007520 -0.000400 1.884160 
# 
# From -- ./inp_files/190930.got.cif
#   From: 2010.06.25/outbox.cif.g09.slc.cpg/sg2_96_cif.got.tgz:190930.got - 2010.06.27 13:26:56.
