data_PCOD8011906
_publ_section_title
;
Structure prediction by ZEFSAII (Michael W. Deem and Ramdas Pophale) SiO2 
 PCOD8011906
Probable space group: P -1
;
_chemical_formula_sum "Si O2"
_cell_formula_units_Z 14
_cell_length_a 9.128050
_cell_length_b 12.232548
_cell_length_c 8.662396
_cell_angle_alpha 47.373947
_cell_angle_beta 65.854977
_cell_angle_gamma 74.091082
_cell_volume 649.413652
_symmetry_space_group_name_H-M "P -1"
_symmetry_group_IT_number 2
_symmetry_cell_setting 'triclinic'
loop_
_space_group_symop_operation_xyz
x,y,z
-x,-y,-z
loop_
_atom_site_type_symbol
_atom_site_label
_atom_site_fract_x
_atom_site_fract_y
_atom_site_fract_z
Si Si1 0.588790 0.648207 0.769794
Si Si2 0.588950 0.151818 0.853038
Si Si3 0.930498 0.593433 0.580042
Si Si4 0.686232 0.310261 0.358603
Si Si5 0.976388 0.322424 0.005636
Si Si6 0.324930 0.338963 0.947000
Si Si7 0.907033 0.152205 0.883727
O O1 0.739007 0.612849 0.627312
O O2 0.460434 0.744844 0.637026
O O3 0.500000 0.500000 0.000000
O O4 0.651624 0.724227 0.828154
O O5 0.682289 0.211594 0.606586
O O6 0.462695 0.275312 0.840117
O O7 0.719577 0.124106 0.957479
O O8 0.500000 0.000000 0.000000
O O9 0.000000 0.500000 0.500000
O O10 0.016410 0.753526 0.381981
O O11 0.967724 0.502578 0.809069
O O12 0.855406 0.278383 0.235270
O O13 0.664941 0.483753 0.239815
O O14 0.923133 0.238971 0.953962
O O15 0.154776 0.276572 0.020356
O O16 0.000000 0.000000 0.000000
#
# Coordination Sequence:
#
# PCOD8011906 Si02
#       7
#     2   2   2   2   2   2   2
#     4  10  21  39  65 101 135 163 212 271 328 378
#     4  12  28  46  64  97 132 177 222 268 326 394
#     4  10  22  37  71  97 132 167 222 265 329 381
#     4  11  24  42  70  99 135 167 218 274 329 384
#     4  11  22  44  68 104 129 169 217 275 327 388
#     4  11  23  41  71  99 135 164 220 271 330 388
#     4  11  26  46  68  92 136 179 219 264 329 392
#
# _framework density 21.55791
#
# number of rings (size 3 to 8) (size 9 to 14) (size 15 to 20)
#    0.000    1.143    2.857    3.429   14.000    0.000 
#    2.571    2.857    0.000    0.000    0.000    0.000 
#    0.000    0.000    0.000    0.000    0.000    0.000 
#
# Total GULP energy -173610.016448 kJ/mol
# GULP energy per Si atom -12400.715461 kJ/mol
# Density = 2.150884 g / cm^3
# Si number density = 21.557910 Si / 1000 Ang^3
#
#
#
# Elastic Constant Matrix: (Units=GPa)
#
#
# Indices 1 2 3 4 5 6 
#
# 1 189.1326 46.9279 50.5928 8.7512 -9.0013 1.9608
# 2 46.9279 84.6603 63.7832 0.7372 -9.1907 -1.3124
# 3 50.5928 63.7832 115.4367 16.4858 -12.7703 -7.0387
# 4 8.7512 0.7372 16.4858 33.5717 -4.6314 -3.8646
# 5 -9.0013 -9.1907 -12.7703 -4.6314 36.2368 8.5040
# 6 1.9608 -1.3124 -7.0387 -3.8646 8.5040 38.3365
#
#
#
# Elastic Compliance Matrix: (Units=1/GPa)
#
#
# Indices 1 2 3 4 5 6 
#
# 1 0.006324 -0.002530 -0.001218 -0.001015 0.000573 -0.000863
# 2 -0.002530 0.022395 -0.012010 0.006197 0.001869 -0.001099
# 3 -0.001218 -0.012010 0.017152 -0.007456 0.001331 0.001753
# 4 -0.001015 0.006197 -0.007456 0.034143 0.002645 0.001750
# 5 0.000573 0.001869 0.001331 0.002645 0.030478 -0.006215
# 6 -0.000863 -0.001099 0.001753 0.001750 -0.006215 0.027968
#
#
# Mechanical properties :
#
#
# Convention : Reuss Voigt Hill
#
# Bulk Modulus (GPa) = 69.66874 79.09306 74.38090
# Shear Modulus (GPa) = 28.61027 36.82405 32.71716
#
# Velocity S-wave (km/s) = 3.64694 4.13746 3.89992
# Velocity P-wave (km/s) = 7.07960 7.71965 7.40654
#
# Compressibility (1/GPa) = 0.01435364
#
# Stress axis : x y z
#
# Youngs Moduli (GPa) = 158.12583 44.65277 58.30326
#
# Poissons Ratio (x) = 0.11299 0.07100
# Poissons Ratio (y) = 0.40011 0.70025
# Poissons Ratio (z) = 0.19257 0.53630
#
# Static dielectric constant tensor:
#      x y z
#    x 4.507550 0.351520 -0.153050 
#    y 0.351520 -5.964780 9.389680 
#    z -0.153050 9.389680 -4.653580 
# 
# 
# High freq. dielectric constant tensor:
#      x y z
#    x 1.869330 -0.002560 -0.004690 
#    y -0.002560 1.825880 0.021270 
#    z -0.004690 0.021270 1.841380 
# 
# From -- ./inp_files/156740.got.cif
#   From: 2010.06.25/outbox.cif.g09.slc.cpg/sg2_79_cif.got.tgz:156740.got - 2010.06.27 13:26:56.
