data_PCOD8011478
_publ_section_title
;
Structure prediction by ZEFSAII (Michael W. Deem and Ramdas Pophale) SiO2 
 PCOD8011478
Probable space group: P -1
;
_chemical_formula_sum "Si O2"
_cell_formula_units_Z 16
_cell_length_a 6.232097
_cell_length_b 11.652472
_cell_length_c 14.326352
_cell_angle_alpha 54.761066
_cell_angle_beta 115.860773
_cell_angle_gamma 118.605797
_cell_volume 727.210205
_symmetry_space_group_name_H-M "P -1"
_symmetry_group_IT_number 2
_symmetry_cell_setting 'triclinic'
loop_
_space_group_symop_operation_xyz
x,y,z
-x,-y,-z
loop_
_atom_site_type_symbol
_atom_site_label
_atom_site_fract_x
_atom_site_fract_y
_atom_site_fract_z
Si Si1 0.653406 0.918025 0.175130
Si Si2 0.290452 0.090838 0.019544
Si Si3 0.432376 0.375511 0.407767
Si Si4 0.920586 0.255103 0.297156
Si Si5 0.526694 0.669840 0.906435
Si Si6 0.745556 0.657466 0.403414
Si Si7 0.138605 0.099205 0.271459
Si Si8 0.262498 0.826846 0.489837
O O1 0.602676 0.772780 0.294767
O O2 0.453195 0.994222 0.140618
O O3 0.598537 0.865937 0.082567
O O4 0.944964 0.018281 0.191629
O O5 0.343578 0.239094 0.020736
O O6 0.000000 0.000000 0.000000
O O7 0.672638 0.523094 0.376369
O O8 0.343843 0.386508 0.489682
O O9 0.497191 0.226666 0.461582
O O10 0.194884 0.378468 0.298777
O O11 0.752383 0.325576 0.168590
O O12 0.806181 0.197843 0.402891
O O13 0.963386 0.117234 0.314944
O O14 0.688626 0.744423 0.810796
O O15 0.500000 0.500000 0.000000
O O16 0.044557 0.729014 0.426377
O O17 0.310489 0.999141 0.388735
#
# Coordination Sequence:
#
# PCOD8011478 Si02
#       8
#     2   2   2   2   2   2   2   2
#     4  10  22  40  67  94 120 173 222 278 320 384
#     4  11  23  43  67  94 125 166 231 275 321 385
#     4  10  21  39  61  99 135 174 207 262 337 396
#     4  11  24  42  62  94 138 168 219 269 337 396
#     4  12  28  45  66  98 134 178 224 279 338 400
#     4   9  21  38  64  95 134 167 214 269 324 394
#     4  11  23  43  67  95 131 173 220 277 333 389
#     4  10  22  39  69  99 129 173 219 267 329 404
#
# _framework density 22.001892000000002
#
# number of rings (size 3 to 8) (size 9 to 14) (size 15 to 20)
#    0.000    1.500    2.500    1.500    1.750    6.500 
#    0.000    1.250    0.000    0.000    0.000    0.000 
#    0.000    0.000    0.000    0.000    0.000    0.000 
#
# Total GULP energy -198315.155499 kJ/mol
# GULP energy per Si atom -12394.697219 kJ/mol
# Density = 2.195181 g / cm^3
# Si number density = 22.001892 Si / 1000 Ang^3
#
#
#
# Elastic Constant Matrix: (Units=GPa)
#
#
# Indices 1 2 3 4 5 6 
#
# 1 79.9424 39.2098 22.9114 2.2941 24.3064 -5.4146
# 2 39.2098 137.0277 53.4403 -5.3758 8.5545 -7.1591
# 3 22.9114 53.4403 87.8348 0.7414 24.9646 2.4208
# 4 2.2941 -5.3758 0.7414 34.4734 -7.8510 -3.3073
# 5 24.3064 8.5545 24.9646 -7.8510 32.8714 0.3702
# 6 -5.4146 -7.1591 2.4208 -3.3073 0.3702 28.0236
#
#
#
# Elastic Compliance Matrix: (Units=1/GPa)
#
#
# Indices 1 2 3 4 5 6 
#
# 1 0.020121 -0.006191 0.003476 -0.006199 -0.017404 0.001504
# 2 -0.006191 0.012157 -0.008452 0.004825 0.008950 0.003091
# 3 0.003476 -0.008452 0.020794 -0.006380 -0.017644 -0.003804
# 4 -0.006199 0.004825 -0.006380 0.034460 0.016353 0.004437
# 5 -0.017404 0.008950 -0.017644 0.016353 0.058249 0.001608
# 6 0.001504 0.003091 -0.003804 0.004437 0.001608 0.037595
#
#
# Mechanical properties :
#
#
# Convention : Reuss Voigt Hill
#
# Bulk Modulus (GPa) = 32.53258 59.54756 46.04007
# Shear Modulus (GPa) = 23.15276 31.68992 27.42134
#
# Velocity S-wave (km/s) = 3.24745 3.79928 3.53415
# Velocity P-wave (km/s) = 5.37397 6.80952 6.13389
#
# Compressibility (1/GPa) = 0.03073842
#
# Stress axis : x y z
#
# Youngs Moduli (GPa) = 49.69944 82.25386 48.09095
#
# Poissons Ratio (x) = 0.50925 -0.16716
# Poissons Ratio (y) = 0.30770 0.40645
# Poissons Ratio (z) = -0.17275 0.69518
#
# Static dielectric constant tensor:
#      x y z
#    x 3.835750 0.074170 0.212190 
#    y 0.074170 4.414450 0.373620 
#    z 0.212190 0.373620 4.037920 
# 
# 
# High freq. dielectric constant tensor:
#      x y z
#    x 1.860640 -0.000520 0.013590 
#    y -0.000520 1.871300 0.026610 
#    z 0.013590 0.026610 1.865030 
# 
# From -- ./inp_files/482772.got.cif
#   From: 2010.06.25/outbox.cif.g09.slc.cpg/sg2_242_cif.got.tgz:482772.got - 2010.06.27 13:26:56.
