data_PCOD8011809
_publ_section_title
;
Structure prediction by ZEFSAII (Michael W. Deem and Ramdas Pophale) SiO2 
 PCOD8011809
Probable space group: P -1
;
_chemical_formula_sum "Si O2"
_cell_formula_units_Z 16
_cell_length_a 26.852313
_cell_length_b 8.698343
_cell_length_c 8.191913
_cell_angle_alpha 47.706817
_cell_angle_beta 44.363012
_cell_angle_gamma 34.910242
_cell_volume 747.472231
_symmetry_space_group_name_H-M "P -1"
_symmetry_group_IT_number 2
_symmetry_cell_setting 'triclinic'
loop_
_space_group_symop_operation_xyz
x,y,z
-x,-y,-z
loop_
_atom_site_type_symbol
_atom_site_label
_atom_site_fract_x
_atom_site_fract_y
_atom_site_fract_z
Si Si1 0.506740 0.578837 0.682970
Si Si2 0.070850 0.613099 0.966564
Si Si3 0.108937 0.749387 0.461896
Si Si4 0.742631 0.528273 0.949389
Si Si5 0.172292 0.032009 0.286352
Si Si6 0.873903 0.084944 0.193111
Si Si7 0.557389 0.700795 0.153435
Si Si8 0.353413 0.894251 0.073188
O O1 0.526068 0.715962 0.402957
O O2 0.456610 0.474264 0.797948
O O3 0.604460 0.325091 0.721620
O O4 0.436819 0.809268 0.817502
O O5 0.114533 0.561697 0.721325
O O6 0.104247 0.725660 0.931893
O O7 0.102567 0.333243 0.159468
O O8 0.957455 0.838032 0.059577
O O9 0.168034 0.558346 0.303522
O O10 0.163151 0.848728 0.326783
O O11 0.000000 0.000000 0.500000
O O12 0.696728 0.808848 0.949054
O O13 0.779487 0.284887 0.164492
O O14 0.666485 0.558266 0.993914
O O15 0.139202 0.051786 0.533394
O O16 0.280021 0.901680 0.132650
O O17 0.500000 0.000000 0.000000
#
# Coordination Sequence:
#
# PCOD8011809 Si02
#       8
#     2   2   2   2   2   2   2   2
#     4  10  24  46  68  94 138 164 218 268 329 389
#     4  10  21  41  64  90 125 174 215 266 319 376
#     4  11  25  44  62  92 137 172 215 272 320 383
#     4  12  23  43  67  97 133 174 219 265 331 381
#     4  11  23  41  66  95 124 172 221 264 323 381
#     4  10  21  39  64  91 129 164 221 270 311 378
#     4  11  23  44  68 100 130 172 208 270 333 388
#     4  11  23  44  68  99 126 175 218 271 319 394
#
# _framework density 21.405477999999999
#
# number of rings (size 3 to 8) (size 9 to 14) (size 15 to 20)
#    0.000    1.250    3.750    1.875    0.000    3.000 
#    6.750    0.000    0.000    0.000    0.000    0.000 
#    0.000    0.000    0.000    0.000    0.000    0.000 
#
# Total GULP energy -198450.988729 kJ/mol
# GULP energy per Si atom -12403.186796 kJ/mol
# Density = 2.135676 g / cm^3
# Si number density = 21.405478 Si / 1000 Ang^3
#
#
#
# Elastic Constant Matrix: (Units=GPa)
#
#
# Indices 1 2 3 4 5 6 
#
# 1 90.5563 44.8266 16.5195 -1.0234 4.6122 -23.1055
# 2 44.8266 136.8688 72.8830 1.4335 18.2286 -18.2471
# 3 16.5195 72.8830 126.9934 -9.1690 27.3180 -0.4181
# 4 -1.0234 1.4335 -9.1690 37.3703 -6.4044 7.4819
# 5 4.6122 18.2286 27.3180 -6.4044 37.4873 4.3087
# 6 -23.1055 -18.2471 -0.4181 7.4819 4.3087 34.3840
#
#
#
# Elastic Compliance Matrix: (Units=1/GPa)
#
#
# Indices 1 2 3 4 5 6 
#
# 1 0.015117 -0.003859 0.000521 -0.001301 -0.001574 0.008597
# 2 -0.003859 0.013328 -0.006921 -0.003802 -0.002245 0.005504
# 3 0.000521 -0.006921 0.013155 0.003227 -0.005368 -0.003192
# 4 -0.001301 -0.003802 0.003227 0.030771 0.006100 -0.010313
# 5 -0.001574 -0.002245 -0.005368 0.006100 0.033820 -0.007879
# 6 0.008597 0.005504 -0.003192 -0.010313 -0.007879 0.040974
#
#
# Mechanical properties :
#
#
# Convention : Reuss Voigt Hill
#
# Bulk Modulus (GPa) = 47.43031 69.20853 58.31942
# Shear Modulus (GPa) = 28.61875 36.52763 32.57319
#
# Velocity S-wave (km/s) = 3.66044 4.13542 3.90516
# Velocity P-wave (km/s) = 6.33019 7.42998 6.90202
#
# Compressibility (1/GPa) = 0.02108356
#
# Stress axis : x y z
#
# Youngs Moduli (GPa) = 66.14994 75.02964 76.01394
#
# Poissons Ratio (x) = 0.28957 -0.03963
# Poissons Ratio (y) = 0.25530 0.52606
# Poissons Ratio (z) = -0.03449 0.51924
#
# Static dielectric constant tensor:
#      x y z
#    x 4.065220 -0.165620 0.056630 
#    y -0.165620 3.734150 0.070480 
#    z 0.056630 0.070480 3.929450 
# 
# 
# High freq. dielectric constant tensor:
#      x y z
#    x 1.847730 -0.013850 0.008730 
#    y -0.013850 1.838050 0.003420 
#    z 0.008730 0.003420 1.844960 
# 
# From -- ./inp_files/57034.got.cif
#   From: 2010.06.25/outbox.cif.g09.slc.cpg/sg2_29_cif.got.tgz:57034.got - 2010.06.27 13:26:56.
