data_PCOD8011970
_publ_section_title
;
Structure prediction by ZEFSAII (Michael W. Deem and Ramdas Pophale) SiO2 
 PCOD8011970
Probable space group: P -1
;
_chemical_formula_sum "Si O2"
_cell_formula_units_Z 12
_cell_length_a 9.191769
_cell_length_b 12.521387
_cell_length_c 4.942002
_cell_angle_alpha 96.911663
_cell_angle_beta 79.496532
_cell_angle_gamma 85.046756
_cell_volume 551.771627
_symmetry_space_group_name_H-M "P -1"
_symmetry_group_IT_number 2
_symmetry_cell_setting 'triclinic'
loop_
_space_group_symop_operation_xyz
x,y,z
-x,-y,-z
loop_
_atom_site_type_symbol
_atom_site_label
_atom_site_fract_x
_atom_site_fract_y
_atom_site_fract_z
Si Si1 0.735626 0.614897 0.029722
Si Si2 0.830679 0.793105 0.725945
Si Si3 0.317899 0.625285 0.070927
Si Si4 0.006222 0.281095 0.867647
Si Si5 0.518739 0.304798 0.456939
Si Si6 0.451628 0.073040 0.288718
O O1 0.908166 0.612803 0.065914
O O2 0.638739 0.656979 0.336614
O O3 0.716130 0.702124 0.811940
O O4 0.702074 0.499073 0.901626
O O5 0.959422 0.755335 0.459509
O O6 0.727088 0.895999 0.674234
O O7 0.923549 0.813450 0.975407
O O8 0.355851 0.678690 0.356394
O O9 0.168867 0.690495 0.021276
O O10 0.449957 0.627290 0.804754
O O11 0.534913 0.179746 0.324668
O O12 0.500000 0.000000 0.500000
O O13 0.500000 0.000000 0.000000
#
# Coordination Sequence:
#
# PCOD8011970 Si02
#       6
#     2   2   2   2   2   2
#     4  10  23  39  66  92 135 178 214 238 298 384
#     4  10  21  39  65  93 120 161 228 250 297 362
#     4  12  25  38  63  98 141 172 197 253 318 374
#     4  10  22  39  64  89 139 172 215 235 298 387
#     4  12  25  41  61 100 129 159 215 274 319 356
#     4  12  23  43  71  91 114 160 222 275 316 375
#
# _framework density 21.74813
#
# number of rings (size 3 to 8) (size 9 to 14) (size 15 to 20)
#    1.000    0.000    1.667    6.500    2.333    0.667 
#    0.000    0.000    0.000   20.000    0.000    0.000 
#    0.000    0.000    0.000    0.000    0.000    0.000 
#
# Total GULP energy -148699.521167 kJ/mol
# GULP energy per Si atom -12391.626764 kJ/mol
# Density = 2.169863 g / cm^3
# Si number density = 21.748130 Si / 1000 Ang^3
#
#
#
# Elastic Constant Matrix: (Units=GPa)
#
#
# Indices 1 2 3 4 5 6 
#
# 1 48.2530 14.9243 5.1960 13.4213 -2.9727 -8.0367
# 2 14.9243 61.9076 34.6135 6.2817 14.8328 -20.3939
# 3 5.1960 34.6135 136.6504 4.0731 6.8704 -2.2618
# 4 13.4213 6.2817 4.0731 39.2669 3.7065 10.4605
# 5 -2.9727 14.8328 6.8704 3.7065 36.8509 5.5269
# 6 -8.0367 -20.3939 -2.2618 10.4605 5.5269 31.2883
#
#
#
# Elastic Compliance Matrix: (Units=1/GPa)
#
#
# Indices 1 2 3 4 5 6 
#
# 1 0.026275 -0.003929 0.000246 -0.010617 0.003656 0.007110
# 2 -0.003929 0.034808 -0.007134 -0.009177 -0.016136 0.027081
# 3 0.000246 -0.007134 0.008912 0.001205 0.001809 -0.004665
# 4 -0.010617 -0.009177 0.001205 0.035824 0.002156 -0.020979
# 5 0.003656 -0.016136 0.001809 0.002156 0.035847 -0.016500
# 6 0.007110 0.027081 -0.004665 -0.020979 -0.016500 0.061030
#
#
# Mechanical properties :
#
#
# Convention : Reuss Voigt Hill
#
# Bulk Modulus (GPa) = 20.67776 39.58651 30.13213
# Shear Modulus (GPa) = 20.79446 34.28637 27.54042
#
# Velocity S-wave (km/s) = 3.09552 3.97485 3.56242
# Velocity P-wave (km/s) = 4.72280 6.26958 5.55034
#
# Compressibility (1/GPa) = 0.04836115
#
# Stress axis : x y z
#
# Youngs Moduli (GPa) = 38.05879 28.72943 112.21272
#
# Poissons Ratio (x) = 0.11287 -0.02764
# Poissons Ratio (y) = 0.14952 0.80056
# Poissons Ratio (z) = -0.00937 0.20496
#
# Static dielectric constant tensor:
#      x y z
#    x 3.942180 -0.038740 0.113200 
#    y -0.038740 3.815280 -0.073750 
#    z 0.113200 -0.073750 3.967880 
# 
# 
# High freq. dielectric constant tensor:
#      x y z
#    x 1.862730 -0.014170 0.013780 
#    y -0.014170 1.820380 -0.010210 
#    z 0.013780 -0.010210 1.873940 
# 
# From -- ./inp_files/28093.got.cif
#   From: 2010.06.25/outbox.cif.g09.slc.cpg/sg2_15_cif.got.tgz:28093.got - 2010.06.27 13:26:56.
