data_PCOD8011695
_publ_section_title
;
Structure prediction by ZEFSAII (Michael W. Deem and Ramdas Pophale) SiO2 
 PCOD8011695
Probable space group: P -1
;
_chemical_formula_sum "Si O2"
_cell_formula_units_Z 14
_cell_length_a 7.995753
_cell_length_b 14.897076
_cell_length_c 11.801802
_cell_angle_alpha 71.527199
_cell_angle_beta 54.616670
_cell_angle_gamma 38.664256
_cell_volume 690.322052
_symmetry_space_group_name_H-M "P -1"
_symmetry_group_IT_number 2
_symmetry_cell_setting 'triclinic'
loop_
_space_group_symop_operation_xyz
x,y,z
-x,-y,-z
loop_
_atom_site_type_symbol
_atom_site_label
_atom_site_fract_x
_atom_site_fract_y
_atom_site_fract_z
Si Si1 0.356748 0.079760 0.201217
Si Si2 0.081179 0.011879 0.083097
Si Si3 0.774088 0.855415 0.524707
Si Si4 0.699508 0.222369 0.742573
Si Si5 0.791143 0.746738 0.156770
Si Si6 0.176536 0.624256 0.285793
Si Si7 0.805374 0.289629 0.168141
O O1 0.572739 0.059692 0.034080
O O2 0.357274 0.127022 0.307246
O O3 0.994693 0.211942 0.243511
O O4 0.492003 0.925218 0.219437
O O5 0.102564 0.924539 0.203668
O O6 0.000000 0.000000 0.000000
O O7 0.805484 0.186353 0.151458
O O8 0.065215 0.829461 0.432561
O O9 0.915335 0.714548 0.455717
O O10 0.500000 0.000000 0.500000
O O11 0.363580 0.300541 0.794795
O O12 0.648826 0.333636 0.798446
O O13 0.998550 0.666725 0.221182
O O14 0.031912 0.690870 0.985075
O O15 0.440375 0.449314 0.273774
#
# Coordination Sequence:
#
# PCOD8011695 Si02
#       7
#     2   2   2   2   2   2   2
#     4  11  20  39  64  86 126 164 202 254 308 368
#     4  11  20  38  64  94 118 159 214 255 301 362
#     4  10  21  41  62  88 124 171 206 246 303 380
#     4  10  21  39  63  93 112 166 218 238 300 375
#     4  11  19  40  64  90 121 164 211 248 305 371
#     4  10  24  40  61  93 130 162 202 255 319 357
#     4  11  22  39  61  93 131 155 198 269 316 351
#
# _framework density 20.280391000000002
#
# number of rings (size 3 to 8) (size 9 to 14) (size 15 to 20)
#    0.857    0.571    4.286    3.857    0.000    1.714 
#    2.571    0.000    0.000    4.286    0.000    0.000 
#    0.000    0.000    0.000    0.000    0.000    0.000 
#
# Total GULP energy -173515.153368 kJ/mol
# GULP energy per Si atom -12393.939526 kJ/mol
# Density = 2.023423 g / cm^3
# Si number density = 20.280391 Si / 1000 Ang^3
#
#
#
# Elastic Constant Matrix: (Units=GPa)
#
#
# Indices 1 2 3 4 5 6 
#
# 1 98.0890 29.2107 -11.8738 3.8381 13.5938 -1.1830
# 2 29.2107 138.4713 22.3708 21.2592 18.0493 -3.6434
# 3 -11.8738 22.3708 54.5665 9.5529 18.4350 7.4974
# 4 3.8381 21.2592 9.5529 27.4437 5.1407 3.8517
# 5 13.5938 18.0493 18.4350 5.1407 28.8432 -4.8250
# 6 -1.1830 -3.6434 7.4974 3.8517 -4.8250 30.3028
#
#
#
# Elastic Compliance Matrix: (Units=1/GPa)
#
#
# Indices 1 2 3 4 5 6 
#
# 1 0.013397 -0.002875 0.008021 -0.000046 -0.010206 -0.003426
# 2 -0.002875 0.009483 -0.003541 -0.005908 -0.000842 0.002521
# 3 0.008021 -0.003541 0.031371 -0.003464 -0.022849 -0.011072
# 4 -0.000046 -0.005908 -0.003464 0.043573 -0.002810 -0.005841
# 5 -0.010206 -0.000842 -0.022849 -0.002810 0.057567 0.014677
# 6 -0.003426 0.002521 -0.011072 -0.005841 0.014677 0.038988
#
#
# Mechanical properties :
#
#
# Convention : Reuss Voigt Hill
#
# Bulk Modulus (GPa) = 17.40326 41.17135 29.28730
# Shear Modulus (GPa) = 23.77295 34.07923 28.92609
#
# Velocity S-wave (km/s) = 3.42747 4.10372 3.78075
# Velocity P-wave (km/s) = 4.92579 6.54211 5.79062
#
# Compressibility (1/GPa) = 0.05746051
#
# Stress axis : x y z
#
# Youngs Moduli (GPa) = 74.64521 105.44935 31.87683
#
# Poissons Ratio (x) = 0.30312 -0.25567
# Poissons Ratio (y) = 0.21457 0.11288
# Poissons Ratio (z) = -0.59870 0.37342
#
# Static dielectric constant tensor:
#      x y z
#    x 3.813690 -0.031190 -0.019430 
#    y -0.031190 3.473740 0.119350 
#    z -0.019430 0.119350 3.620860 
# 
# 
# High freq. dielectric constant tensor:
#      x y z
#    x 1.792850 -0.009680 0.012550 
#    y -0.009680 1.779840 0.002780 
#    z 0.012550 0.002780 1.777490 
# 
# From -- ./inp_files/257935.got.cif
#   From: 2010.06.25/outbox.cif.g09.slc.cpg/sg2_129_cif.got.tgz:257935.got - 2010.06.27 13:26:56.
