data_PCOD8011215
_publ_section_title
;
Structure prediction by ZEFSAII (Michael W. Deem and Ramdas Pophale) SiO2 
 PCOD8011215
Probable space group: P -1
;
_chemical_formula_sum "Si O2"
_cell_formula_units_Z 16
_cell_length_a 9.772705
_cell_length_b 11.211760
_cell_length_c 13.705267
_cell_angle_alpha 124.091815
_cell_angle_beta 115.545143
_cell_angle_gamma 110.635480
_cell_volume 680.404191
_symmetry_space_group_name_H-M "P -1"
_symmetry_group_IT_number 2
_symmetry_cell_setting 'triclinic'
loop_
_space_group_symop_operation_xyz
x,y,z
-x,-y,-z
loop_
_atom_site_type_symbol
_atom_site_label
_atom_site_fract_x
_atom_site_fract_y
_atom_site_fract_z
Si Si1 0.815327 0.035848 0.888320
Si Si2 0.065251 0.193381 0.227633
Si Si3 0.007380 0.858562 0.597662
Si Si4 0.999025 0.343601 0.664591
Si Si5 0.535341 0.359763 0.925674
Si Si6 0.646021 0.331804 0.541501
Si Si7 0.749639 0.963383 0.559031
Si Si8 0.097787 0.414305 0.009007
O O1 0.041162 0.319786 0.059503
O O2 0.855954 0.912583 0.792293
O O3 0.547889 0.886057 0.696532
O O4 0.826045 0.029805 0.006181
O O5 0.993210 0.188418 0.311481
O O6 0.294874 0.461765 0.380945
O O7 0.906638 0.649601 0.406272
O O8 0.834513 0.863721 0.521324
O O9 0.290103 0.093021 0.758493
O O10 0.895363 0.425339 0.656628
O O11 0.234297 0.532601 0.894741
O O12 0.778871 0.075596 0.519422
O O13 0.500000 0.500000 0.000000
O O14 0.611671 0.387822 0.846945
O O15 0.531407 0.242695 0.576277
O O16 0.935861 0.175063 0.790884
O O17 0.000000 0.500000 0.000000
#
# Coordination Sequence:
#
# PCOD8011215 Si02
#       8
#     2   2   2   2   2   2   2   2
#     4  10  23  44  67 102 130 176 229 280 326 394
#     4  11  24  44  70  96 133 184 235 264 329 402
#     4  12  24  45  67  96 139 179 224 270 325 419
#     4  11  26  42  67 105 134 174 218 279 354 388
#     4  11  23  44  67  97 139 174 217 269 339 414
#     4  11  24  44  71  98 139 170 225 290 328 391
#     4  10  22  44  66 103 134 170 227 273 343 402
#     4  10  21  38  71 103 132 161 222 282 342 385
#
# _framework density 23.515435
#
# number of rings (size 3 to 8) (size 9 to 14) (size 15 to 20)
#    0.000    1.250    5.000    1.125    7.000    2.500 
#    2.250    1.250    0.000    0.000    0.000    0.000 
#    0.000    0.000    0.000    0.000    0.000    0.000 
#
# Total GULP energy -198417.402479 kJ/mol
# GULP energy per Si atom -12401.087655 kJ/mol
# Density = 2.346191 g / cm^3
# Si number density = 23.515435 Si / 1000 Ang^3
#
#
#
# Elastic Constant Matrix: (Units=GPa)
#
#
# Indices 1 2 3 4 5 6 
#
# 1 114.0094 24.7370 3.7684 -3.1420 0.5161 -9.6952
# 2 24.7370 110.0813 3.7129 -0.8612 -8.3065 1.6764
# 3 3.7684 3.7129 29.4872 3.5550 10.6847 -2.0266
# 4 -3.1420 -0.8612 3.5550 37.3693 2.3697 -2.0989
# 5 0.5161 -8.3065 10.6847 2.3697 37.0981 -10.5062
# 6 -9.6952 1.6764 -2.0266 -2.0989 -10.5062 35.4907
#
#
#
# Elastic Compliance Matrix: (Units=1/GPa)
#
#
# Indices 1 2 3 4 5 6 
#
# 1 0.009529 -0.002109 -0.001032 0.000982 0.000431 0.002829
# 2 -0.002109 0.009834 -0.001976 0.000046 0.002698 -0.000352
# 3 -0.001032 -0.001976 0.038871 -0.003170 -0.011896 -0.001678
# 4 0.000982 0.000046 -0.003170 0.027258 -0.000383 0.001584
# 5 0.000431 0.002698 -0.011896 -0.000383 0.033621 0.009241
# 6 0.002829 -0.000352 -0.001678 0.001584 0.009241 0.031699
#
#
# Mechanical properties :
#
#
# Convention : Reuss Voigt Hill
#
# Bulk Modulus (GPa) = 20.83386 35.33496 28.08441
# Shear Modulus (GPa) = 28.24088 36.74892 32.49490
#
# Velocity S-wave (km/s) = 3.46923 3.95746 3.72136
# Velocity P-wave (km/s) = 4.99263 5.99507 5.51667
#
# Compressibility (1/GPa) = 0.04799878
#
# Stress axis : x y z
#
# Youngs Moduli (GPa) = 104.94585 101.68673 25.72597
#
# Poissons Ratio (x) = 0.21449 0.02656
# Poissons Ratio (y) = 0.22136 0.05083
# Poissons Ratio (z) = 0.10834 0.20093
#
# Static dielectric constant tensor:
#      x y z
#    x 4.155700 0.333450 -0.138030 
#    y 0.333450 4.537930 -0.059120 
#    z -0.138030 -0.059120 4.401100 
# 
# 
# High freq. dielectric constant tensor:
#      x y z
#    x 1.920430 0.003980 -0.012630 
#    y 0.003980 1.932580 -0.009490 
#    z -0.012630 -0.009490 1.944230 
# 
# From -- ./inp_files/500874.got.cif
#   From: 2010.06.25/outbox.cif.g09.slc.cpg/sg2_251_cif.got.tgz:500874.got - 2010.06.27 13:26:56.
