data_PCOD8011240
_publ_section_title
;
Structure prediction by ZEFSAII (Michael W. Deem and Ramdas Pophale) SiO2 
 PCOD8011240
Probable space group: P -1
;
_chemical_formula_sum "Si O2"
_cell_formula_units_Z 16
_cell_length_a 22.774217
_cell_length_b 5.111870
_cell_length_c 6.353252
_cell_angle_alpha 110.672502
_cell_angle_beta 121.989057
_cell_angle_gamma 69.335678
_cell_volume 573.966604
_symmetry_space_group_name_H-M "P -1"
_symmetry_group_IT_number 2
_symmetry_cell_setting 'triclinic'
loop_
_space_group_symop_operation_xyz
x,y,z
-x,-y,-z
loop_
_atom_site_type_symbol
_atom_site_label
_atom_site_fract_x
_atom_site_fract_y
_atom_site_fract_z
Si Si1 0.208026 0.724508 0.184757
Si Si2 0.569565 0.800435 0.285877
Si Si3 0.131282 0.344936 0.194689
Si Si4 0.831204 0.206929 0.345131
Si Si5 0.956999 0.755128 0.357412
Si Si6 0.360901 0.659558 0.346690
Si Si7 0.675458 0.288402 0.186415
Si Si8 0.425147 0.101808 0.144708
O O1 0.187609 0.447148 0.173266
O O2 0.290819 0.729036 0.379825
O O3 0.160199 0.028551 0.255247
O O4 0.195380 0.697390 0.907040
O O5 0.628615 0.498962 0.337797
O O6 0.599720 0.079785 0.489159
O O7 0.491021 0.840212 0.255176
O O8 0.554184 0.773174 0.999834
O O9 0.119326 0.574792 0.425448
O O10 0.057461 0.355200 0.934928
O O11 0.761499 0.233091 0.374690
O O12 0.879580 0.888311 0.349016
O O13 0.000000 0.500000 0.500000
O O14 0.000000 0.000000 0.500000
O O15 0.413172 0.337905 0.385642
O O16 0.338524 0.599791 0.047224
O O17 0.649286 0.992882 0.063081
#
# Coordination Sequence:
#
# PCOD8011240 Si02
#       8
#     2   2   2   2   2   2   2   2
#     4  10  24  41  66 103 141 172 232 288 329 397
#     4  10  21  39  56  88 127 166 219 271 334 402
#     4  11  24  44  71 103 135 182 222 271 345 397
#     4  10  24  44  70 100 136 175 227 278 333 408
#     4  11  25  46  69 102 141 174 218 276 330 405
#     4  10  22  36  59  85 127 170 222 273 340 392
#     4  10  22  40  60  93 121 167 219 277 330 392
#     4  10  22  36  59  87 124 169 216 276 333 397
#
# _framework density 27.876187000000002
#
# number of rings (size 3 to 8) (size 9 to 14) (size 15 to 20)
#    0.000    1.750    0.000    3.000    7.000    5.500 
#    2.250    0.000    0.000    0.000    0.000    0.000 
#    0.000    0.000    0.000    0.000    0.000    0.000 
#
# Total GULP energy -198358.793367 kJ/mol
# GULP energy per Si atom -12397.424585 kJ/mol
# Density = 2.781274 g / cm^3
# Si number density = 27.876187 Si / 1000 Ang^3
#
#
#
# Elastic Constant Matrix: (Units=GPa)
#
#
# Indices 1 2 3 4 5 6 
#
# 1 77.2302 17.6150 14.0940 10.9456 0.6259 -13.0904
# 2 17.6150 143.7804 50.4564 2.0810 8.7330 -16.1144
# 3 14.0940 50.4564 142.9200 14.4850 16.3592 -19.7167
# 4 10.9456 2.0810 14.4850 56.8910 -4.4644 5.8321
# 5 0.6259 8.7330 16.3592 -4.4644 53.7795 14.4855
# 6 -13.0904 -16.1144 -19.7167 5.8321 14.4855 34.0459
#
#
#
# Elastic Compliance Matrix: (Units=1/GPa)
#
#
# Indices 1 2 3 4 5 6 
#
# 1 0.014885 -0.000999 0.000574 -0.003917 -0.002479 0.007309
# 2 -0.000999 0.008275 -0.002290 0.000079 -0.001377 0.002779
# 3 0.000574 -0.002290 0.009711 -0.003650 -0.004905 0.007473
# 4 -0.003917 0.000079 -0.003650 0.020646 0.005392 -0.009413
# 5 -0.002479 -0.001377 -0.004905 0.005392 0.025110 -0.016053
# 6 0.007309 0.002779 0.007473 -0.009413 -0.016053 0.046268
#
#
# Mechanical properties :
#
#
# Convention : Reuss Voigt Hill
#
# Bulk Modulus (GPa) = 36.44042 58.69570 47.56806
# Shear Modulus (GPa) = 35.84942 47.72762 41.78852
#
# Velocity S-wave (km/s) = 3.59001 4.14228 3.87599
# Velocity P-wave (km/s) = 5.50316 6.63170 6.09362
#
# Compressibility (1/GPa) = 0.02744206
#
# Stress axis : x y z
#
# Youngs Moduli (GPa) = 67.17948 120.84648 102.97609
#
# Poissons Ratio (x) = 0.12067 -0.05908
# Poissons Ratio (y) = 0.06708 0.23581
# Poissons Ratio (z) = -0.03854 0.27673
#
# Static dielectric constant tensor:
#      x y z
#    x 5.419210 -0.376800 -0.314240 
#    y -0.376800 5.156200 -0.370160 
#    z -0.314240 -0.370160 5.620340 
# 
# 
# High freq. dielectric constant tensor:
#      x y z
#    x 2.130760 -0.007000 -0.032250 
#    y -0.007000 2.134330 -0.023130 
#    z -0.032250 -0.023130 2.175450 
# 
# From -- ./inp_files/356079.got.cif
#   From: 2010.06.25/outbox.cif.g09.slc.cpg/sg2_179_cif.got.tgz:356079.got - 2010.06.27 13:26:56.
