data_PCOD8011741
_publ_section_title
;
Structure prediction by ZEFSAII (Michael W. Deem and Ramdas Pophale) SiO2 
 PCOD8011741
Probable space group: P -1
;
_chemical_formula_sum "Si O2"
_cell_formula_units_Z 16
_cell_length_a 13.712661
_cell_length_b 10.773089
_cell_length_c 12.602445
_cell_angle_alpha 155.994944
_cell_angle_beta 86.545879
_cell_angle_gamma 87.297976
_cell_volume 731.683179
_symmetry_space_group_name_H-M "P -1"
_symmetry_group_IT_number 2
_symmetry_cell_setting 'triclinic'
loop_
_space_group_symop_operation_xyz
x,y,z
-x,-y,-z
loop_
_atom_site_type_symbol
_atom_site_label
_atom_site_fract_x
_atom_site_fract_y
_atom_site_fract_z
Si Si1 0.856360 0.785945 0.468602
Si Si2 0.196105 0.156671 0.901501
Si Si3 0.446266 0.664699 0.800448
Si Si4 0.973717 0.671580 0.773847
Si Si5 0.366918 0.151518 0.026183
Si Si6 0.328484 0.198568 0.381816
Si Si7 0.109714 0.540935 0.009348
Si Si8 0.801917 0.510746 0.560471
O O1 0.740698 0.911033 0.611749
O O2 0.854769 0.568276 0.196527
O O3 0.925716 0.583265 0.397669
O O4 0.895036 0.094898 0.683684
O O5 0.107712 0.307330 0.109001
O O6 0.311990 0.162469 0.925755
O O7 0.181140 0.323459 0.919847
O O8 0.194857 0.795170 0.608433
O O9 0.564253 0.596331 0.774519
O O10 0.413721 0.337689 0.542016
O O11 0.437647 0.814369 0.797943
O O12 0.380387 0.898826 0.074115
O O13 0.916239 0.561279 0.589190
O O14 0.000000 0.000000 0.000000
O O15 0.273399 0.200704 0.151338
O O16 0.249247 0.487130 0.550188
O O17 0.000000 0.500000 0.000000
#
# Coordination Sequence:
#
# PCOD8011741 Si02
#       8
#     2   2   2   2   2   2   2   2
#     4  12  27  44  64  92 128 175 217 259 316 372
#     4  11  22  40  63  94 127 166 217 263 313 375
#     4  10  21  39  63  98 128 166 200 264 329 391
#     4  11  25  38  63  94 134 167 205 261 325 390
#     4   9  21  35  63  96 131 158 208 262 328 381
#     4  11  23  40  65  91 133 162 209 256 328 387
#     4  12  26  44  67  88 127 176 223 263 302 365
#     4  10  22  37  62  96 128 164 208 261 326 385
#
# _framework density 21.867387999999998
#
# number of rings (size 3 to 8) (size 9 to 14) (size 15 to 20)
#    0.000    1.250    2.500    2.625   10.500    2.500 
#    0.000    0.000    0.000    4.500    0.000    0.000 
#    0.000    0.000    0.000    0.000    0.000    0.000 
#
# Total GULP energy -198296.606575 kJ/mol
# GULP energy per Si atom -12393.537911 kJ/mol
# Density = 2.181762 g / cm^3
# Si number density = 21.867388 Si / 1000 Ang^3
#
#
#
# Elastic Constant Matrix: (Units=GPa)
#
#
# Indices 1 2 3 4 5 6 
#
# 1 129.6657 32.7559 9.5985 -1.2279 32.8638 -17.4372
# 2 32.7559 69.3731 11.6905 3.0900 8.7880 -15.0119
# 3 9.5985 11.6905 73.6225 8.7455 25.6224 -15.3561
# 4 -1.2279 3.0900 8.7455 32.8164 2.6951 1.4334
# 5 32.8638 8.7880 25.6224 2.6951 38.8440 -4.7982
# 6 -17.4372 -15.0119 -15.3561 1.4334 -4.7982 31.1921
#
#
#
# Elastic Compliance Matrix: (Units=1/GPa)
#
#
# Indices 1 2 3 4 5 6 
#
# 1 0.011906 -0.003798 0.003955 0.000452 -0.011233 0.005026
# 2 -0.003798 0.017683 -0.001120 -0.001841 0.000826 0.006047
# 3 0.003955 -0.001120 0.021293 -0.004576 -0.015589 0.009967
# 4 0.000452 -0.001841 -0.004576 0.032046 0.000296 -0.004313
# 5 -0.011233 0.000826 -0.015589 0.000296 0.044492 -0.006726
# 6 0.005026 0.006047 0.009967 -0.004313 -0.006726 0.041850
#
#
# Mechanical properties :
#
#
# Convention : Reuss Voigt Hill
#
# Bulk Modulus (GPa) = 20.42670 42.30570 31.36620
# Shear Modulus (GPa) = 26.66460 35.14493 30.90477
#
# Velocity S-wave (km/s) = 3.49575 4.01332 3.76344
# Velocity P-wave (km/s) = 5.06509 6.39251 5.76712
#
# Compressibility (1/GPa) = 0.04895553
#
# Stress axis : x y z
#
# Youngs Moduli (GPa) = 83.99166 56.55263 46.96406
#
# Poissons Ratio (x) = 0.21476 -0.18573
# Poissons Ratio (y) = 0.31897 0.05261
# Poissons Ratio (z) = -0.33217 0.06335
#
# Static dielectric constant tensor:
#      x y z
#    x 4.370340 -0.128450 0.089940 
#    y -0.128450 3.609570 -0.094380 
#    z 0.089940 -0.094380 3.785870 
# 
# 
# High freq. dielectric constant tensor:
#      x y z
#    x 1.881230 0.000940 0.009530 
#    y 0.000940 1.829570 -0.016860 
#    z 0.009530 -0.016860 1.853890 
# 
# From -- ./inp_files/93840.got.cif
#   From: 2010.06.25/outbox.cif.g09.slc.cpg/sg2_47_cif.got.tgz:93840.got - 2010.06.27 13:26:56.
