data_PCOD8011609
_publ_section_title
;
Structure prediction by ZEFSAII (Michael W. Deem and Ramdas Pophale) SiO2 
 PCOD8011609
Probable space group: P -1
;
_chemical_formula_sum "Si O2"
_cell_formula_units_Z 16
_cell_length_a 8.360081
_cell_length_b 18.199593
_cell_length_c 20.520773
_cell_angle_alpha 147.775336
_cell_angle_beta 150.871998
_cell_angle_gamma 42.033215
_cell_volume 810.326350
_symmetry_space_group_name_H-M "P -1"
_symmetry_group_IT_number 2
_symmetry_cell_setting 'triclinic'
loop_
_space_group_symop_operation_xyz
x,y,z
-x,-y,-z
loop_
_atom_site_type_symbol
_atom_site_label
_atom_site_fract_x
_atom_site_fract_y
_atom_site_fract_z
Si Si1 0.241767 0.631922 0.865927
Si Si2 0.560689 0.112589 0.053367
Si Si3 0.222982 0.375886 0.182034
Si Si4 0.049228 0.848108 0.377188
Si Si5 0.303215 0.167040 0.338059
Si Si6 0.535814 0.908293 0.141742
Si Si7 0.829402 0.543473 0.539004
Si Si8 0.242252 0.431311 0.905157
O O1 0.030447 0.651676 0.871141
O O2 0.085638 0.533569 0.682478
O O3 0.281138 0.783496 0.963511
O O4 0.592141 0.561563 0.958651
O O5 0.313505 0.238278 0.072781
O O6 0.937466 0.156577 0.227580
O O7 0.461489 0.049440 0.900944
O O8 0.500000 0.000000 0.000000
O O9 0.542996 0.439496 0.376794
O O10 0.088245 0.478190 0.153692
O O11 0.440858 0.816554 0.497723
O O12 0.897716 0.855728 0.255778
O O13 0.849614 0.731355 0.260203
O O14 0.000000 0.000000 0.500000
O O15 0.324587 0.303156 0.403709
O O16 0.400096 0.036461 0.230842
O O17 0.000000 0.500000 0.500000
O O18 0.500000 0.500000 0.000000
#
# Coordination Sequence:
#
# PCOD8011609 Si02
#       8
#     2   2   2   2   2   2   2   2
#     4  10  21  39  63  87 119 156 200 244 294 362
#     4  12  25  40  60  90 122 154 203 256 300 355
#     4  11  22  39  59  90 122 157 197 249 300 357
#     4   9  19  37  63  88 116 161 203 245 295 364
#     4  11  21  38  64  84 120 160 195 244 298 359
#     4  10  21  41  62  88 114 159 206 240 300 360
#     4  12  22  38  57  89 123 153 196 244 299 355
#     4   9  19  37  60  90 120 158 201 246 299 355
#
# _framework density 19.745132000000002
#
# number of rings (size 3 to 8) (size 9 to 14) (size 15 to 20)
#    0.000    1.500    3.750    1.500    1.750    1.000 
#    2.250    2.500    0.000    0.000    0.000    0.000 
#    0.000    0.000    0.000    0.000    0.000    0.000 
#
# Total GULP energy -198265.119470 kJ/mol
# GULP energy per Si atom -12391.569967 kJ/mol
# Density = 1.970019 g / cm^3
# Si number density = 19.745132 Si / 1000 Ang^3
#
#
#
# Elastic Constant Matrix: (Units=GPa)
#
#
# Indices 1 2 3 4 5 6 
#
# 1 76.9909 37.2880 30.9787 -8.1605 -6.3587 9.6491
# 2 37.2880 119.1220 53.3966 -3.8649 -9.9341 11.0923
# 3 30.9787 53.3966 105.4072 -14.2772 -4.2379 5.9103
# 4 -8.1605 -3.8649 -14.2772 42.5295 7.2845 1.3398
# 5 -6.3587 -9.9341 -4.2379 7.2845 22.3629 4.3594
# 6 9.6491 11.0923 5.9103 1.3398 4.3594 28.1328
#
#
#
# Elastic Compliance Matrix: (Units=1/GPa)
#
#
# Indices 1 2 3 4 5 6 
#
# 1 0.016624 -0.003309 -0.002619 0.001619 0.003091 -0.004403
# 2 -0.003309 0.012416 -0.005203 -0.001985 0.004884 -0.003329
# 3 -0.002619 -0.005203 0.013320 0.003800 -0.001818 0.000252
# 4 0.001619 -0.001985 0.003800 0.026336 -0.008171 -0.000559
# 5 0.003091 0.004884 -0.001818 -0.008171 0.052088 -0.010286
# 6 -0.004403 -0.003329 0.000252 -0.000559 -0.010286 0.039936
#
#
# Mechanical properties :
#
#
# Convention : Reuss Voigt Hill
#
# Bulk Modulus (GPa) = 49.75763 60.53851 55.14807
# Shear Modulus (GPa) = 26.36022 30.59551 28.47786
#
# Velocity S-wave (km/s) = 3.65776 3.94067 3.80185
# Velocity P-wave (km/s) = 6.56457 7.17159 6.87478
#
# Compressibility (1/GPa) = 0.02009742
#
# Stress axis : x y z
#
# Youngs Moduli (GPa) = 60.15487 80.54297 75.07742
#
# Poissons Ratio (x) = 0.26656 0.19660
# Poissons Ratio (y) = 0.19908 0.39060
# Poissons Ratio (z) = 0.15753 0.41904
#
# Static dielectric constant tensor:
#      x y z
#    x 3.241180 0.062670 0.165590 
#    y 0.062670 4.192360 -0.287730 
#    z 0.165590 -0.287730 4.143150 
# 
# 
# High freq. dielectric constant tensor:
#      x y z
#    x 1.729000 0.010880 0.010500 
#    y 0.010880 1.792020 -0.009840 
#    z 0.010500 -0.009840 1.789120 
# 
# From -- ./inp_files/338040.got.cif
#   From: 2010.06.25/outbox.cif.g09.slc.cpg/sg2_170_cif.got.tgz:338040.got - 2010.06.27 13:26:56.
