data_PCOD8011352
_publ_section_title
;
Structure prediction by ZEFSAII (Michael W. Deem and Ramdas Pophale) SiO2 
 PCOD8011352
Probable space group: P -1
;
_chemical_formula_sum "Si O2"
_cell_formula_units_Z 16
_cell_length_a 17.418633
_cell_length_b 8.697679
_cell_length_c 6.244949
_cell_angle_alpha 93.253232
_cell_angle_beta 79.556394
_cell_angle_gamma 53.351049
_cell_volume 730.009369
_symmetry_space_group_name_H-M "P -1"
_symmetry_group_IT_number 2
_symmetry_cell_setting 'triclinic'
loop_
_space_group_symop_operation_xyz
x,y,z
-x,-y,-z
loop_
_atom_site_type_symbol
_atom_site_label
_atom_site_fract_x
_atom_site_fract_y
_atom_site_fract_z
Si Si1 0.818411 0.384681 0.859301
Si Si2 0.181955 0.923709 0.365583
Si Si3 0.149501 0.418012 0.819577
Si Si4 0.032894 0.079970 0.805858
Si Si5 0.458749 0.950692 0.706994
Si Si6 0.067896 0.278384 0.140970
Si Si7 0.642478 0.784810 0.839100
Si Si8 0.686839 0.987508 0.514462
O O1 0.747355 0.568004 0.749616
O O2 0.935655 0.248091 0.731518
O O3 0.785677 0.244436 0.838872
O O4 0.808593 0.464619 0.114898
O O5 0.115103 0.920972 0.582043
O O6 0.118532 0.137501 0.306918
O O7 0.278037 0.886358 0.420561
O O8 0.225809 0.228945 0.629360
O O9 0.049404 0.557092 0.739224
O O10 0.123295 0.369740 0.060056
O O11 0.081873 0.164295 0.906499
O O12 0.000000 0.000000 0.000000
O O13 0.553474 0.784136 0.789738
O O14 0.500000 0.000000 0.500000
O O15 0.395254 0.889672 0.624043
O O16 0.381618 0.149257 0.896803
O O17 0.641515 0.951096 0.735417
#
# Coordination Sequence:
#
# PCOD8011352 Si02
#       8
#     2   2   2   2   2   2   2   2
#     4  11  23  38  61  92 123 168 211 252 300 370
#     4  12  25  38  62  90 131 173 208 246 317 359
#     4  10  21  39  60  88 126 162 217 259 299 352
#     4  11  23  41  57  85 132 175 209 250 299 360
#     4   9  20  42  67  93 120 154 199 262 323 374
#     4  10  22  40  56  85 126 172 211 260 294 363
#     4  10  21  40  69  94 120 154 210 258 313 378
#     4  11  22  38  65  95 121 162 205 260 312 370
#
# _framework density 21.917528000000001
#
# number of rings (size 3 to 8) (size 9 to 14) (size 15 to 20)
#    0.000    1.500    3.750    1.125    1.750    1.500 
#    0.000    0.625    0.000    6.750    0.000    0.000 
#    0.000    0.000    0.000    0.000    0.000    0.000 
#
# Total GULP energy -198227.420824 kJ/mol
# GULP energy per Si atom -12389.213802 kJ/mol
# Density = 2.186764 g / cm^3
# Si number density = 21.917528 Si / 1000 Ang^3
#
#
#
# Elastic Constant Matrix: (Units=GPa)
#
#
# Indices 1 2 3 4 5 6 
#
# 1 138.5739 36.4510 43.2781 4.1382 30.8975 -0.2090
# 2 36.4510 56.0373 17.6559 -5.4063 2.7305 -1.0376
# 3 43.2781 17.6559 78.6865 -1.0872 1.1954 4.0791
# 4 4.1382 -5.4063 -1.0872 33.3522 0.8899 10.1237
# 5 30.8975 2.7305 1.1954 0.8899 35.4929 1.5208
# 6 -0.2090 -1.0376 4.0791 10.1237 1.5208 31.9727
#
#
#
# Elastic Compliance Matrix: (Units=1/GPa)
#
#
# Indices 1 2 3 4 5 6 
#
# 1 0.013286 -0.006551 -0.005830 -0.003269 -0.010877 0.002171
# 2 -0.006551 0.022808 -0.001472 0.004586 0.003915 -0.000753
# 3 -0.005830 -0.001472 0.016352 0.001792 0.004720 -0.002964
# 4 -0.003269 0.004586 0.001792 0.034513 0.002044 -0.011126
# 5 -0.010877 0.003915 0.004720 0.002044 0.037259 -0.002966
# 6 0.002171 -0.000753 -0.002964 -0.011126 -0.002966 0.035309
#
#
# Mechanical properties :
#
#
# Convention : Reuss Voigt Hill
#
# Bulk Modulus (GPa) = 40.41870 52.00752 46.21311
# Shear Modulus (GPa) = 25.57810 31.89110 28.73460
#
# Velocity S-wave (km/s) = 3.41987 3.81865 3.62475
# Velocity P-wave (km/s) = 5.83740 6.57442 6.21684
#
# Compressibility (1/GPa) = 0.02474102
#
# Stress axis : x y z
#
# Youngs Moduli (GPa) = 75.26473 43.84460 61.15372
#
# Poissons Ratio (x) = 0.28722 0.35654
# Poissons Ratio (y) = 0.49304 0.09000
# Poissons Ratio (z) = 0.43881 0.06453
#
# Static dielectric constant tensor:
#      x y z
#    x 4.566530 -0.171100 0.344690 
#    y -0.171100 3.783340 0.011000 
#    z 0.344690 0.011000 3.821340 
# 
# 
# High freq. dielectric constant tensor:
#      x y z
#    x 1.873120 -0.010400 0.024120 
#    y -0.010400 1.823320 0.004270 
#    z 0.024120 0.004270 1.853790 
# 
# From -- ./inp_files/105138.got.cif
#   From: 2010.06.25/outbox.cif.g09.slc.cpg/sg2_53_cif.got.tgz:105138.got - 2010.06.27 13:26:56.
