data_PCOD8011845
_publ_section_title
;
Structure prediction by ZEFSAII (Michael W. Deem and Ramdas Pophale) SiO2 
 PCOD8011845
Probable space group: P -1
;
_chemical_formula_sum "Si O2"
_cell_formula_units_Z 14
_cell_length_a 8.125884
_cell_length_b 11.282479
_cell_length_c 14.611804
_cell_angle_alpha 32.034105
_cell_angle_beta 64.584175
_cell_angle_gamma 55.578602
_cell_volume 582.302222
_symmetry_space_group_name_H-M "P -1"
_symmetry_group_IT_number 2
_symmetry_cell_setting 'triclinic'
loop_
_space_group_symop_operation_xyz
x,y,z
-x,-y,-z
loop_
_atom_site_type_symbol
_atom_site_label
_atom_site_fract_x
_atom_site_fract_y
_atom_site_fract_z
Si Si1 0.367260 0.886270 0.467181
Si Si2 0.246947 0.572826 0.839142
Si Si3 0.242183 0.530320 0.387492
Si Si4 0.059936 0.299533 0.813051
Si Si5 0.146838 0.445830 0.132780
Si Si6 0.424653 0.844344 0.056906
Si Si7 0.277587 0.608133 0.520844
O O1 0.313159 0.778468 0.645230
O O2 0.607448 0.761057 0.467044
O O3 0.240138 0.843987 0.439138
O O4 0.310738 0.175495 0.301283
O O5 0.415790 0.291974 0.970706
O O6 0.042960 0.597465 0.826039
O O7 0.221014 0.586089 0.946943
O O8 0.409395 0.632635 0.260405
O O9 0.146581 0.643259 0.435548
O O10 0.054263 0.612361 0.312358
O O11 0.216744 0.421646 0.716142
O O12 0.902782 0.374691 0.884896
O O13 0.199328 0.006926 0.965317
O O14 0.500000 0.000000 0.000000
O O15 0.500000 0.500000 0.500000
#
# Coordination Sequence:
#
# PCOD8011845 Si02
#       7
#     2   2   2   2   2   2   2
#     4  10  21  42  64  94 127 167 225 262 320 386
#     4  10  22  39  62  99 121 165 225 271 314 378
#     4  10  24  39  64  95 129 169 210 269 331 382
#     4  12  23  41  61  98 134 162 214 265 332 389
#     4  11  23  38  67  94 130 169 210 276 321 384
#     4  11  21  41  65  91 125 169 220 271 311 379
#     4  10  21  39  64  94 121 166 217 268 311 380
#
# _framework density 24.042498999999999
#
# number of rings (size 3 to 8) (size 9 to 14) (size 15 to 20)
#    0.000    1.429    2.857    3.000    6.000    0.571 
#    0.000    2.857    0.000    0.000    0.000    0.000 
#    0.000    0.000    0.000    0.000    0.000    0.000 
#
# Total GULP energy -173465.874269 kJ/mol
# GULP energy per Si atom -12390.419591 kJ/mol
# Density = 2.398778 g / cm^3
# Si number density = 24.042499 Si / 1000 Ang^3
#
#
#
# Elastic Constant Matrix: (Units=GPa)
#
#
# Indices 1 2 3 4 5 6 
#
# 1 47.0068 23.7705 18.7032 -0.6058 18.4637 -6.3544
# 2 23.7705 116.3029 45.0670 6.7283 22.1241 0.8850
# 3 18.7032 45.0670 81.3880 5.6271 20.6785 -1.3639
# 4 -0.6058 6.7283 5.6271 44.7678 -8.2476 11.5356
# 5 18.4637 22.1241 20.6785 -8.2476 38.3861 2.7180
# 6 -6.3544 0.8850 -1.3639 11.5356 2.7180 29.0518
#
#
#
# Elastic Compliance Matrix: (Units=1/GPa)
#
#
# Indices 1 2 3 4 5 6 
#
# 1 0.029743 -0.002818 -0.001450 -0.003856 -0.013388 0.009307
# 2 -0.002818 0.011795 -0.004982 -0.001693 -0.003105 -0.000247
# 3 -0.001450 -0.004982 0.017353 -0.003355 -0.006684 0.002607
# 4 -0.003856 -0.001693 -0.003355 0.028572 0.011726 -0.013392
# 5 -0.013388 -0.003105 -0.006684 0.011726 0.041227 -0.011660
# 6 0.009307 -0.000247 0.002607 -0.013392 -0.011660 0.042995
#
#
# Mechanical properties :
#
#
# Convention : Reuss Voigt Hill
#
# Bulk Modulus (GPa) = 24.75828 46.64214 35.70021
# Shear Modulus (GPa) = 24.55212 32.91829 28.73520
#
# Velocity S-wave (km/s) = 3.19908 3.70425 3.46089
# Velocity P-wave (km/s) = 4.89547 6.14306 5.55440
#
# Compressibility (1/GPa) = 0.04039053
#
# Stress axis : x y z
#
# Youngs Moduli (GPa) = 33.62168 84.78028 57.62779
#
# Poissons Ratio (x) = 0.23889 0.08358
# Poissons Ratio (y) = 0.09474 0.28709
# Poissons Ratio (z) = 0.04876 0.42236
#
# Static dielectric constant tensor:
#      x y z
#    x 4.204510 -0.028820 0.220130 
#    y -0.028820 4.650680 0.337740 
#    z 0.220130 0.337740 4.287770 
# 
# 
# High freq. dielectric constant tensor:
#      x y z
#    x 1.941720 -0.010670 0.011050 
#    y -0.010670 1.956130 0.014600 
#    z 0.011050 0.014600 1.947240 
# 
# From -- ./inp_files/153718.got.cif
#   From: 2010.06.25/outbox.cif.g09.slc.cpg/sg2_77_cif.got.tgz:153718.got - 2010.06.27 13:26:56.
