data_PCOD8011969
_publ_section_title
;
Structure prediction by ZEFSAII (Michael W. Deem and Ramdas Pophale) SiO2 
 PCOD8011969
Probable space group: P -1
;
_chemical_formula_sum "Si O2"
_cell_formula_units_Z 14
_cell_length_a 10.260332
_cell_length_b 5.240452
_cell_length_c 19.422622
_cell_angle_alpha 99.062447
_cell_angle_beta 41.302223
_cell_angle_gamma 100.879915
_cell_volume 676.701417
_symmetry_space_group_name_H-M "P -1"
_symmetry_group_IT_number 2
_symmetry_cell_setting 'triclinic'
loop_
_space_group_symop_operation_xyz
x,y,z
-x,-y,-z
loop_
_atom_site_type_symbol
_atom_site_label
_atom_site_fract_x
_atom_site_fract_y
_atom_site_fract_z
Si Si1 0.993877 0.623530 0.325685
Si Si2 0.579609 0.429423 0.854542
Si Si3 0.185688 0.180543 0.461858
Si Si4 0.930112 0.056531 0.262577
Si Si5 0.334067 0.166818 0.046640
Si Si6 0.498102 0.415976 0.253438
Si Si7 0.581288 0.982640 0.293218
O O1 0.229571 0.716184 0.250378
O O2 0.959962 0.322632 0.304863
O O3 0.873968 0.645275 0.444274
O O4 0.911824 0.810453 0.309780
O O5 0.660553 0.583867 0.896230
O O6 0.515382 0.606012 0.824943
O O7 0.387477 0.239470 0.948670
O O8 0.276151 0.372816 0.372869
O O9 0.357554 0.003805 0.410469
O O10 0.000000 0.000000 0.500000
O O11 0.111329 0.024436 0.135785
O O12 0.728510 0.051848 0.300292
O O13 0.500000 0.000000 0.000000
O O14 0.627494 0.193389 0.221620
O O15 0.604882 0.698164 0.242837
#
# Coordination Sequence:
#
# PCOD8011969 Si02
#       7
#     2   2   2   2   2   2   2
#     4  11  24  37  67  93 125 169 205 257 310 360
#     4  10  22  39  63  96 123 158 208 262 314 359
#     4  10  25  40  64  96 125 165 210 251 306 373
#     4  11  24  43  63  91 131 162 212 254 310 366
#     4  10  21  39  65  93 119 160 209 262 309 366
#     4  10  24  42  64  89 131 162 207 254 309 368
#     4  10  24  43  62  90 131 169 202 255 304 370
#
# _framework density 20.688592
#
# number of rings (size 3 to 8) (size 9 to 14) (size 15 to 20)
#    0.857    0.857    1.429    1.714    8.000    2.286 
#    0.000    1.429    0.000    0.000    0.000    0.000 
#    0.000    0.000    0.000    0.000    0.000    0.000 
#
# Total GULP energy -173512.012061 kJ/mol
# GULP energy per Si atom -12393.715147 kJ/mol
# Density = 2.064150 g / cm^3
# Si number density = 20.688592 Si / 1000 Ang^3
#
#
#
# Elastic Constant Matrix: (Units=GPa)
#
#
# Indices 1 2 3 4 5 6 
#
# 1 92.6156 15.9743 26.4525 -8.8713 -2.2343 -8.1514
# 2 15.9743 84.1952 14.0465 -4.1680 2.0091 -14.3651
# 3 26.4525 14.0465 86.8008 -18.8574 7.9392 -4.2709
# 4 -8.8713 -4.1680 -18.8574 21.7152 -9.6881 2.4770
# 5 -2.2343 2.0091 7.9392 -9.6881 36.2458 -8.8105
# 6 -8.1514 -14.3651 -4.2709 2.4770 -8.8105 36.4217
#
#
#
# Elastic Compliance Matrix: (Units=1/GPa)
#
#
# Indices 1 2 3 4 5 6 
#
# 1 0.012493 -0.001365 -0.003032 0.003258 0.002963 0.002397
# 2 -0.001365 0.013220 -0.001441 0.000542 0.000836 0.004905
# 3 -0.003032 -0.001441 0.015206 0.011534 -0.000441 -0.000355
# 4 0.003258 0.000542 0.011534 0.064084 0.015164 0.001605
# 5 0.002963 0.000836 -0.000441 0.015164 0.033844 0.008097
# 6 0.002397 0.004905 -0.000355 0.001605 0.008097 0.031735
#
#
# Mechanical properties :
#
#
# Convention : Reuss Voigt Hill
#
# Bulk Modulus (GPa) = 34.19392 41.83979 38.01686
# Shear Modulus (GPa) = 26.04094 32.68574 29.36334
#
# Velocity S-wave (km/s) = 3.55168 3.97910 3.77145
# Velocity P-wave (km/s) = 5.77780 6.43261 6.11398
#
# Compressibility (1/GPa) = 0.02924496
#
# Stress axis : x y z
#
# Youngs Moduli (GPa) = 80.04357 75.64143 65.76229
#
# Poissons Ratio (x) = 0.10324 0.19938
# Poissons Ratio (y) = 0.10925 0.09474
# Poissons Ratio (z) = 0.24267 0.10898
#
# Static dielectric constant tensor:
#      x y z
#    x 3.536430 -0.074830 0.069230 
#    y -0.074830 3.488060 -0.351410 
#    z 0.069230 -0.351410 4.063620 
# 
# 
# High freq. dielectric constant tensor:
#      x y z
#    x 1.793630 -0.013930 0.003140 
#    y -0.013930 1.807760 -0.004220 
#    z 0.003140 -0.004220 1.811000 
# 
# From -- ./inp_files/552893.got.cif
#   From: 2010.06.25/outbox.cif.g09.slc.cpg/sg2_277_cif.got.tgz:552893.got - 2010.06.27 13:26:56.
