data_PCOD8011526
_publ_section_title
;
Structure prediction by ZEFSAII (Michael W. Deem and Ramdas Pophale) SiO2 
 PCOD8011526
Probable space group: P -1
;
_chemical_formula_sum "Si O2"
_cell_formula_units_Z 16
_cell_length_a 8.154018
_cell_length_b 7.293307
_cell_length_c 18.093800
_cell_angle_alpha 70.740276
_cell_angle_beta 128.279562
_cell_angle_gamma 100.225619
_cell_volume 796.887128
_symmetry_space_group_name_H-M "P -1"
_symmetry_group_IT_number 2
_symmetry_cell_setting 'triclinic'
loop_
_space_group_symop_operation_xyz
x,y,z
-x,-y,-z
loop_
_atom_site_type_symbol
_atom_site_label
_atom_site_fract_x
_atom_site_fract_y
_atom_site_fract_z
Si Si1 0.209508 0.185223 0.417702
Si Si2 0.379869 0.777799 0.553985
Si Si3 0.357196 0.531051 0.727069
Si Si4 0.753428 0.309887 0.913458
Si Si5 0.793226 0.242484 0.210721
Si Si6 0.065404 0.533392 0.430574
Si Si7 0.174628 0.459727 0.949055
Si Si8 0.439907 0.072636 0.053744
O O1 0.378546 0.252019 0.396428
O O2 0.170497 0.341768 0.449617
O O3 0.997504 0.144185 0.319325
O O4 0.303921 0.000181 0.512694
O O5 0.349004 0.676337 0.636691
O O6 0.238993 0.695738 0.458466
O O7 0.561513 0.392629 0.799565
O O8 0.359335 0.654093 0.786026
O O9 0.145222 0.406060 0.682212
O O10 0.964740 0.350906 0.924346
O O11 0.725321 0.077560 0.940033
O O12 0.749397 0.408554 0.979767
O O13 0.865986 0.399946 0.150275
O O14 0.657308 0.073134 0.159896
O O15 0.000000 0.500000 0.500000
O O16 0.347729 0.293657 0.998486
O O17 0.500000 0.000000 0.000000
#
# Coordination Sequence:
#
# PCOD8011526 Si02
#       8
#     2   2   2   2   2   2   2   2
#     4  10  22  39  63  88 122 161 197 251 306 360
#     4  10  21  41  61  89 122 157 201 249 307 360
#     4  10  21  39  62  90 120 160 201 251 300 360
#     4  11  23  40  64  89 125 161 202 252 306 365
#     4  11  22  40  64  90 124 161 205 253 303 364
#     4   9  20  36  60  85 116 154 201 244 294 353
#     4  11  23  43  61  89 127 160 199 256 311 356
#     4  12  23  40  65  91 122 163 208 250 300 367
#
# _framework density 20.078123999999999
#
# number of rings (size 3 to 8) (size 9 to 14) (size 15 to 20)
#    0.000    1.500    2.500    2.625    1.750    4.500 
#    2.250    0.000    0.000    0.000    0.000    0.000 
#    0.000    0.000    0.000    0.000    0.000    0.000 
#
# Total GULP energy -198376.220444 kJ/mol
# GULP energy per Si atom -12398.513778 kJ/mol
# Density = 2.003243 g / cm^3
# Si number density = 20.078124 Si / 1000 Ang^3
#
#
#
# Elastic Constant Matrix: (Units=GPa)
#
#
# Indices 1 2 3 4 5 6 
#
# 1 79.8777 33.8123 27.6550 2.9076 3.3665 -3.4932
# 2 33.8123 79.1939 17.1642 13.3542 -4.3920 4.3547
# 3 27.6550 17.1642 66.6373 3.8407 -2.8954 -1.7822
# 4 2.9076 13.3542 3.8407 32.7466 2.1877 2.0856
# 5 3.3665 -4.3920 -2.8954 2.1877 35.4022 1.0261
# 6 -3.4932 4.3547 -1.7822 2.0856 1.0261 37.9594
#
#
#
# Elastic Compliance Matrix: (Units=1/GPa)
#
#
# Indices 1 2 3 4 5 6 
#
# 1 0.017568 -0.006892 -0.005712 0.001998 -0.003178 0.002115
# 2 -0.006892 0.017188 -0.001129 -0.006323 0.003156 -0.002397
# 3 -0.005712 -0.001129 0.017838 -0.001282 0.001928 0.000460
# 4 0.001998 -0.006323 -0.001282 0.033354 -0.003114 -0.000899
# 5 -0.003178 0.003156 0.001928 -0.003114 0.029325 -0.001185
# 6 0.002115 -0.002397 0.000460 -0.000899 -0.001185 0.026917
#
#
# Mechanical properties :
#
#
# Convention : Reuss Voigt Hill
#
# Bulk Modulus (GPa) = 39.79922 42.55242 41.17582
# Shear Modulus (GPa) = 28.08471 31.02680 29.55576
#
# Velocity S-wave (km/s) = 3.74407 3.93530 3.84088
# Velocity P-wave (km/s) = 6.20935 6.47211 6.34209
#
# Compressibility (1/GPa) = 0.02512612
#
# Stress axis : x y z
#
# Youngs Moduli (GPa) = 56.92179 58.18116 56.05968
#
# Poissons Ratio (x) = 0.40100 0.32023
# Poissons Ratio (y) = 0.39232 0.06331
# Poissons Ratio (z) = 0.32515 0.06571
#
# Static dielectric constant tensor:
#      x y z
#    x 3.812540 0.203640 0.232330 
#    y 0.203640 3.763840 0.297150 
#    z 0.232330 0.297150 3.758420 
# 
# 
# High freq. dielectric constant tensor:
#      x y z
#    x 1.794970 0.002440 0.011400 
#    y 0.002440 1.780430 0.012100 
#    z 0.011400 0.012100 1.786660 
# 
# From -- ./inp_files/37948.got.cif
#   From: 2010.06.25/outbox.cif.g09.slc.cpg/sg2_19_cif.got.tgz:37948.got - 2010.06.27 13:26:56.
