data_PCOD8011664
_publ_section_title
;
Structure prediction by ZEFSAII (Michael W. Deem and Ramdas Pophale) SiO2 
 PCOD8011664
Probable space group: P -1
;
_chemical_formula_sum "Si O2"
_cell_formula_units_Z 16
_cell_length_a 6.877360
_cell_length_b 14.467160
_cell_length_c 17.164359
_cell_angle_alpha 30.755618
_cell_angle_beta 114.643329
_cell_angle_gamma 101.447340
_cell_volume 745.357239
_symmetry_space_group_name_H-M "P -1"
_symmetry_group_IT_number 2
_symmetry_cell_setting 'triclinic'
loop_
_space_group_symop_operation_xyz
x,y,z
-x,-y,-z
loop_
_atom_site_type_symbol
_atom_site_label
_atom_site_fract_x
_atom_site_fract_y
_atom_site_fract_z
Si Si1 0.825556 0.305341 0.716107
Si Si2 0.461468 0.648516 0.674285
Si Si3 0.002041 0.027642 0.603808
Si Si4 0.369334 0.434732 0.957520
Si Si5 0.679446 0.952986 0.995617
Si Si6 0.544270 0.038161 0.208774
Si Si7 0.499024 0.366436 0.481659
Si Si8 0.911419 0.739139 0.691838
O O1 0.720183 0.363203 0.570411
O O2 0.733480 0.493564 0.619007
O O3 0.743651 0.141592 0.857386
O O4 0.099256 0.230948 0.811657
O O5 0.237820 0.835810 0.504306
O O6 0.447391 0.490011 0.847313
O O7 0.483292 0.557966 0.656965
O O8 0.673326 0.711987 0.685975
O O9 0.105221 0.116334 0.486592
O O10 0.978450 0.827366 0.717447
O O11 0.187773 0.987432 0.733247
O O12 0.100223 0.533011 0.854365
O O13 0.500000 0.500000 0.000000
O O14 0.425379 0.205436 0.131092
O O15 0.567743 0.900593 0.938273
O O16 0.500000 0.000000 0.000000
O O17 0.512159 0.845517 0.373866
#
# Coordination Sequence:
#
# PCOD8011664 Si02
#       8
#     2   2   2   2   2   2   2   2
#     4   9  22  45  64  94 133 164 210 272 320 377
#     4  11  24  38  67  93 120 175 221 256 317 389
#     4  10  21  39  63  91 127 160 219 270 307 374
#     4  11  25  44  62  94 138 167 211 273 319 379
#     4  10  23  41  69  97 131 166 206 264 333 386
#     4  11  23  42  64  96 128 171 211 268 324 370
#     4  10  22  44  68  92 128 172 217 266 317 382
#     4  10  21  42  63  87 128 170 210 267 317 371
#
# _framework density 21.466214999999998
#
# number of rings (size 3 to 8) (size 9 to 14) (size 15 to 20)
#    0.000    1.750    2.500    0.375    5.250    1.500 
#    2.250    1.875    0.000    0.000    0.000    0.000 
#    0.000    0.000    0.000    0.000    0.000    0.000 
#
# Total GULP energy -198450.676654 kJ/mol
# GULP energy per Si atom -12403.167291 kJ/mol
# Density = 2.141736 g / cm^3
# Si number density = 21.466215 Si / 1000 Ang^3
#
#
#
# Elastic Constant Matrix: (Units=GPa)
#
#
# Indices 1 2 3 4 5 6 
#
# 1 111.4428 43.8279 39.4758 5.9331 31.5012 4.1683
# 2 43.8279 139.2084 52.9001 0.7534 12.7696 -5.2368
# 3 39.4758 52.9001 96.8686 -7.4570 29.2006 -2.5280
# 4 5.9331 0.7534 -7.4570 44.1627 -0.5626 5.5312
# 5 31.5012 12.7696 29.2006 -0.5626 32.7326 8.3743
# 6 4.1683 -5.2368 -2.5280 5.5312 8.3743 31.5153
#
#
#
# Elastic Compliance Matrix: (Units=1/GPa)
#
#
# Indices 1 2 3 4 5 6 
#
# 1 0.013794 -0.002992 -0.000506 -0.002192 -0.012004 0.001212
# 2 -0.002992 0.009828 -0.005236 -0.000706 0.003499 0.000803
# 3 -0.000506 -0.005236 0.018095 0.002514 -0.014617 0.004091
# 4 -0.002192 -0.000706 0.002514 0.023929 0.001644 -0.004262
# 5 -0.012004 0.003499 -0.014617 0.001644 0.057536 -0.014581
# 6 0.001212 0.000803 0.004091 -0.004262 -0.014581 0.036654
#
#
# Mechanical properties :
#
#
# Convention : Reuss Voigt Hill
#
# Bulk Modulus (GPa) = 41.23772 68.88083 55.05927
# Shear Modulus (GPa) = 26.97054 35.76985 31.37019
#
# Velocity S-wave (km/s) = 3.54844 4.08650 3.82694
# Velocity P-wave (km/s) = 6.00340 7.37724 6.72549
#
# Compressibility (1/GPa) = 0.02424965
#
# Stress axis : x y z
#
# Youngs Moduli (GPa) = 72.49765 101.74759 55.26325
#
# Poissons Ratio (x) = 0.30442 0.02795
# Poissons Ratio (y) = 0.21691 0.28936
# Poissons Ratio (z) = 0.03667 0.53275
#
# Static dielectric constant tensor:
#      x y z
#    x 3.713510 0.033820 0.251450 
#    y 0.033820 4.092130 0.054020 
#    z 0.251450 0.054020 3.995640 
# 
# 
# High freq. dielectric constant tensor:
#      x y z
#    x 1.830540 0.004250 0.020440 
#    y 0.004250 1.854270 0.000740 
#    z 0.020440 0.000740 1.845540 
# 
# From -- ./inp_files/39983.got.cif
#   From: 2010.06.25/outbox.cif.g09.slc.cpg/sg2_20_cif.got.tgz:39983.got - 2010.06.27 13:26:56.
