data_PCOD8011233
_publ_section_title
;
Structure prediction by ZEFSAII (Michael W. Deem and Ramdas Pophale) SiO2 
 PCOD8011233
Probable space group: P -1
;
_chemical_formula_sum "Si O2"
_cell_formula_units_Z 16
_cell_length_a 15.063212
_cell_length_b 12.152996
_cell_length_c 11.797617
_cell_angle_alpha 34.264611
_cell_angle_beta 121.037077
_cell_angle_gamma 138.488780
_cell_volume 774.412821
_symmetry_space_group_name_H-M "P -1"
_symmetry_group_IT_number 2
_symmetry_cell_setting 'triclinic'
loop_
_space_group_symop_operation_xyz
x,y,z
-x,-y,-z
loop_
_atom_site_type_symbol
_atom_site_label
_atom_site_fract_x
_atom_site_fract_y
_atom_site_fract_z
Si Si1 0.551457 0.101316 0.573732
Si Si2 0.161901 0.061273 0.469544
Si Si3 0.984804 0.471025 0.785746
Si Si4 0.030550 0.809819 0.183142
Si Si5 0.588983 0.712546 0.701045
Si Si6 0.351348 0.176490 0.094103
Si Si7 0.918489 0.024412 0.264305
Si Si8 0.840044 0.570210 0.458632
O O1 0.436735 0.113069 0.530653
O O2 0.706805 0.385765 0.447077
O O3 0.500000 0.000000 0.500000
O O4 0.558526 0.903671 0.810591
O O5 0.311727 0.284916 0.318419
O O6 0.179713 0.098976 0.584391
O O7 0.103641 0.773397 0.644158
O O8 0.066978 0.117875 0.314010
O O9 0.047731 0.405022 0.786614
O O10 0.850816 0.432150 0.688753
O O11 0.936818 0.272027 0.026980
O O12 0.974352 0.670528 0.386894
O O13 0.191664 0.963615 0.133987
O O14 0.000000 0.000000 0.000000
O O15 0.656486 0.802889 0.793301
O O16 0.431125 0.438278 0.850566
O O17 0.847690 0.804352 0.306757
#
# Coordination Sequence:
#
# PCOD8011233 Si02
#       8
#     2   2   2   2   2   2   2   2
#     4  10  22  37  57  83 125 167 196 239 301 368
#     4  10  23  42  64  91 120 160 210 251 303 357
#     4  11  22  36  64  89 125 156 200 254 307 361
#     4  12  22  35  62  94 126 157 195 253 312 368
#     4  10  22  38  58  83 121 162 200 244 296 365
#     4  10  21  39  55  88 125 156 196 242 304 366
#     4  10  22  42  64  92 120 157 205 263 302 353
#     4  11  22  38  60  94 126 158 202 253 306 361
#
# _framework density 20.660816000000001
#
# number of rings (size 3 to 8) (size 9 to 14) (size 15 to 20)
#    0.000    1.500    2.500    3.000    3.500    1.000 
#    0.000    0.625    0.000    1.500    0.000    0.000 
#    0.000    0.000    0.000    0.000    0.000    0.000 
#
# Total GULP energy -198217.061838 kJ/mol
# GULP energy per Si atom -12388.566365 kJ/mol
# Density = 2.061379 g / cm^3
# Si number density = 20.660816 Si / 1000 Ang^3
#
#
#
# Elastic Constant Matrix: (Units=GPa)
#
#
# Indices 1 2 3 4 5 6 
#
# 1 103.9355 22.3599 28.0190 9.6587 -13.2035 2.6045
# 2 22.3599 85.6646 15.8729 -3.8425 -11.8437 -1.7360
# 3 28.0190 15.8729 79.2382 15.5535 2.3863 8.3671
# 4 9.6587 -3.8425 15.5535 21.9982 1.3929 5.6115
# 5 -13.2035 -11.8437 2.3863 1.3929 35.8265 2.7136
# 6 2.6045 -1.7360 8.3671 5.6115 2.7136 28.5246
#
#
#
# Elastic Compliance Matrix: (Units=1/GPa)
#
#
# Indices 1 2 3 4 5 6 
#
# 1 0.011761 -0.002090 -0.003168 -0.003554 0.003989 0.000048
# 2 -0.002090 0.013554 -0.003156 0.005136 0.003677 0.000581
# 3 -0.003168 -0.003156 0.016718 -0.010157 -0.002736 -0.002548
# 4 -0.003554 0.005136 -0.010157 0.057061 -0.000582 -0.007554
# 5 0.003989 0.003677 -0.002736 -0.000582 0.030967 -0.002169
# 6 0.000048 0.000581 -0.002548 -0.007554 -0.002169 0.037528
#
#
# Mechanical properties :
#
#
# Convention : Reuss Voigt Hill
#
# Bulk Modulus (GPa) = 39.67439 44.59353 42.13396
# Shear Modulus (GPa) = 25.93113 30.77565 28.35339
#
# Velocity S-wave (km/s) = 3.54656 3.86368 3.70851
# Velocity P-wave (km/s) = 6.00127 6.44472 6.22695
#
# Compressibility (1/GPa) = 0.02520517
#
# Stress axis : x y z
#
# Youngs Moduli (GPa) = 85.02931 73.77735 59.81647
#
# Poissons Ratio (x) = 0.15418 0.18947
# Poissons Ratio (y) = 0.17769 0.18881
# Poissons Ratio (z) = 0.26934 0.23287
#
# Static dielectric constant tensor:
#      x y z
#    x 3.944990 -0.060460 0.361010 
#    y -0.060460 3.724170 0.046360 
#    z 0.361010 0.046360 3.929590 
# 
# 
# High freq. dielectric constant tensor:
#      x y z
#    x 1.792130 -0.004040 0.031610 
#    y -0.004040 1.798090 0.002720 
#    z 0.031610 0.002720 1.810900 
# 
# From -- ./inp_files/433785.got.cif
#   From: 2010.06.25/outbox.cif.g09.slc.cpg/sg2_217_cif.got.tgz:433785.got - 2010.06.27 13:26:56.
