data_PCOD8011486
_publ_section_title
;
Structure prediction by ZEFSAII (Michael W. Deem and Ramdas Pophale) SiO2 
 PCOD8011486
Probable space group: P -1
;
_chemical_formula_sum "Si O2"
_cell_formula_units_Z 14
_cell_length_a 20.084313
_cell_length_b 9.703092
_cell_length_c 5.173958
_cell_angle_alpha 125.401965
_cell_angle_beta 68.494432
_cell_angle_gamma 122.501137
_cell_volume 690.904667
_symmetry_space_group_name_H-M "P -1"
_symmetry_group_IT_number 2
_symmetry_cell_setting 'triclinic'
loop_
_space_group_symop_operation_xyz
x,y,z
-x,-y,-z
loop_
_atom_site_type_symbol
_atom_site_label
_atom_site_fract_x
_atom_site_fract_y
_atom_site_fract_z
Si Si1 0.165496 0.667207 0.694195
Si Si2 0.318713 0.909602 0.980995
Si Si3 0.585771 0.688296 0.875404
Si Si4 0.413417 0.516642 0.849009
Si Si5 0.949265 0.140239 0.957166
Si Si6 0.051692 0.242643 0.422710
Si Si7 0.317690 0.736750 0.300722
O O1 0.223019 0.788075 0.976708
O O2 0.115913 0.452600 0.616906
O O3 0.222150 0.664614 0.373933
O O4 0.113900 0.777020 0.804643
O O5 0.358712 0.836882 0.618478
O O6 0.351964 0.886901 0.184783
O O7 0.342501 0.124601 0.121854
O O8 0.498648 0.687653 0.984034
O O9 0.584605 0.531914 0.506745
O O10 0.602471 0.650534 0.105707
O O11 0.339622 0.566499 0.035490
O O12 0.983253 0.198829 0.684915
O O13 0.912377 0.912327 0.779083
O O14 0.017847 0.233056 0.172852
#
# Coordination Sequence:
#
# PCOD8011486 Si02
#       7
#     2   2   2   2   2   2   2
#     4  10  24  38  61  86 122 156 192 244 305 352
#     4  10  23  38  56  89 120 156 199 238 308 356
#     4  10  21  39  62  86 117 159 203 250 298 350
#     4  10  21  39  62  86 117 159 203 250 298 350
#     4  10  22  39  61  87 114 152 199 242 293 354
#     4  10  22  39  61  87 114 152 199 242 293 354
#     4  10  23  38  56  89 120 156 199 238 308 356
#
# _framework density 20.263289
#
# number of rings (size 3 to 8) (size 9 to 14) (size 15 to 20)
#    0.857    1.143    0.000    2.571    4.000    2.286 
#    0.000    0.000    0.000    0.000    0.000    0.000 
#    0.000    0.000    0.000    0.000    0.000    0.000 
#
# Total GULP energy -173468.124001 kJ/mol
# GULP energy per Si atom -12390.580286 kJ/mol
# Density = 2.021717 g / cm^3
# Si number density = 20.263289 Si / 1000 Ang^3
#
#
#
# Elastic Constant Matrix: (Units=GPa)
#
#
# Indices 1 2 3 4 5 6 
#
# 1 70.0196 42.2423 37.6522 8.4818 -26.6951 -2.6874
# 2 42.2423 112.0654 28.2602 11.5499 -6.3283 0.6475
# 3 37.6522 28.2602 70.4852 -10.2673 -16.6198 -2.8060
# 4 8.4818 11.5499 -10.2673 39.9328 -8.8212 10.0838
# 5 -26.6951 -6.3283 -16.6198 -8.8212 36.3443 3.3786
# 6 -2.6874 0.6475 -2.8060 10.0838 3.3786 21.3687
#
#
#
# Elastic Compliance Matrix: (Units=1/GPa)
#
#
# Indices 1 2 3 4 5 6 
#
# 1 0.031035 -0.007813 -0.010300 -0.004131 0.015510 0.002285
# 2 -0.007813 0.012722 -0.002957 -0.004453 -0.006078 0.001306
# 3 -0.010300 -0.002957 0.023821 0.011652 0.006063 -0.004535
# 4 -0.004131 -0.004453 0.011652 0.037626 0.012377 -0.018567
# 5 0.015510 -0.006078 0.006063 0.012377 0.044550 -0.009954
# 6 0.002285 0.001306 -0.004535 -0.018567 -0.009954 0.056785
#
#
# Mechanical properties :
#
#
# Convention : Reuss Voigt Hill
#
# Bulk Modulus (GPa) = 39.30906 52.09774 45.70340
# Shear Modulus (GPa) = 19.44325 29.15685 24.30005
#
# Velocity S-wave (km/s) = 3.10099 3.79740 3.46673
# Velocity P-wave (km/s) = 5.68003 6.70770 6.21514
#
# Compressibility (1/GPa) = 0.02543943
#
# Stress axis : x y z
#
# Youngs Moduli (GPa) = 32.22189 78.60286 41.97927
#
# Poissons Ratio (x) = 0.61409 0.43237
# Poissons Ratio (y) = 0.25174 0.12414
# Poissons Ratio (z) = 0.33188 0.23244
#
# Static dielectric constant tensor:
#      x y z
#    x 3.510960 -0.054530 0.047430 
#    y -0.054530 3.558630 -0.072680 
#    z 0.047430 -0.072680 3.746360 
# 
# 
# High freq. dielectric constant tensor:
#      x y z
#    x 1.769840 -0.009470 0.003340 
#    y -0.009470 1.789360 -0.010320 
#    z 0.003340 -0.010320 1.799380 
# 
# From -- ./inp_files/116402.got.cif
#   From: 2010.06.25/outbox.cif.g09.slc.cpg/sg2_59_cif.got.tgz:116402.got - 2010.06.27 13:26:56.
