data_PCOD8011899
_publ_section_title
;
Structure prediction by ZEFSAII (Michael W. Deem and Ramdas Pophale) SiO2 
 PCOD8011899
Probable space group: P -1
;
_chemical_formula_sum "Si O2"
_cell_formula_units_Z 16
_cell_length_a 17.898968
_cell_length_b 15.520171
_cell_length_c 8.557370
_cell_angle_alpha 32.132050
_cell_angle_beta 135.292638
_cell_angle_gamma 146.623114
_cell_volume 695.531075
_symmetry_space_group_name_H-M "P -1"
_symmetry_group_IT_number 2
_symmetry_cell_setting 'triclinic'
loop_
_space_group_symop_operation_xyz
x,y,z
-x,-y,-z
loop_
_atom_site_type_symbol
_atom_site_label
_atom_site_fract_x
_atom_site_fract_y
_atom_site_fract_z
Si Si1 0.316761 0.079388 0.131950
Si Si2 0.882061 0.484168 0.767785
Si Si3 0.489830 0.830244 0.469547
Si Si4 0.781830 0.346340 0.498155
Si Si5 0.101168 0.153099 0.633063
Si Si6 0.389551 0.746942 0.136256
Si Si7 0.575497 0.438260 0.798514
Si Si8 0.142753 0.282017 0.141383
O O1 0.367573 0.101013 0.353901
O O2 0.234140 0.847282 0.301552
O O3 0.228621 0.157096 0.857472
O O4 0.463646 0.225680 0.044515
O O5 0.877738 0.428728 0.665482
O O6 0.897569 0.694047 0.481857
O O7 0.744725 0.291701 0.941332
O O8 0.000000 0.500000 0.000000
O O9 0.364454 0.711545 0.588286
O O10 0.452786 0.703184 0.445738
O O11 0.503143 0.026966 0.124935
O O12 0.858697 0.530759 0.201436
O O13 0.102004 0.222329 0.352727
O O14 0.961244 0.920402 0.808321
O O15 0.344061 0.587025 0.175184
O O16 0.500000 0.500000 0.500000
O O17 0.700625 0.629319 0.793421
#
# Coordination Sequence:
#
# PCOD8011899 Si02
#       8
#     2   2   2   2   2   2   2   2
#     4  12  23  41  74 108 132 174 233 282 336 404
#     4  11  26  46  69  94 138 184 226 279 342 409
#     4  10  21  39  65 100 138 169 219 283 332 401
#     4  11  24  41  71 105 131 178 232 278 337 405
#     4  11  27  47  66 101 138 182 228 278 344 410
#     4  10  21  41  62  99 136 172 222 272 338 402
#     4  12  21  39  69 101 133 180 216 279 341 399
#     4  11  24  44  68  94 146 175 226 281 332 407
#
# _framework density 23.004004999999999
#
# number of rings (size 3 to 8) (size 9 to 14) (size 15 to 20)
#    0.000    1.000    5.000    1.125    3.500    2.000 
#    2.250    1.875    0.000    0.000    0.000    0.000 
#    0.000    0.000    0.000    0.000    0.000    0.000 
#
# Total GULP energy -198244.502210 kJ/mol
# GULP energy per Si atom -12390.281388 kJ/mol
# Density = 2.295165 g / cm^3
# Si number density = 23.004005 Si / 1000 Ang^3
#
#
#
# Elastic Constant Matrix: (Units=GPa)
#
#
# Indices 1 2 3 4 5 6 
#
# 1 55.0920 44.6837 40.4145 8.5908 3.7412 6.2275
# 2 44.6837 170.6804 63.4205 11.4367 2.9184 2.6332
# 3 40.4145 63.4205 126.8075 13.5270 -1.6685 2.2193
# 4 8.5908 11.4367 13.5270 56.3846 6.1716 -1.0330
# 5 3.7412 2.9184 -1.6685 6.1716 27.4369 -1.7293
# 6 6.2275 2.6332 2.2193 -1.0330 -1.7293 16.3464
#
#
#
# Elastic Compliance Matrix: (Units=1/GPa)
#
#
# Indices 1 2 3 4 5 6 
#
# 1 0.028245 -0.004708 -0.006364 -0.001561 -0.003995 -0.009659
# 2 -0.004708 0.008032 -0.002506 -0.000268 -0.000254 0.000796
# 3 -0.006364 -0.002506 0.011327 -0.001459 0.002242 0.001435
# 4 -0.001561 -0.000268 -0.001459 0.018843 -0.003985 0.001605
# 5 -0.003995 -0.000254 0.002242 -0.003985 0.038371 0.005066
# 6 -0.009659 0.000796 0.001435 0.001605 0.005066 0.065170
#
#
# Mechanical properties :
#
#
# Convention : Reuss Voigt Hill
#
# Bulk Modulus (GPa) = 48.90035 72.17970 60.54002
# Shear Modulus (GPa) = 24.51444 33.63766 29.07605
#
# Velocity S-wave (km/s) = 3.26799 3.82809 3.55907
# Velocity P-wave (km/s) = 5.96180 7.14032 6.57751
#
# Compressibility (1/GPa) = 0.02044975
#
# Stress axis : x y z
#
# Youngs Moduli (GPa) = 35.40414 124.49553 88.28122
#
# Poissons Ratio (x) = 0.58609 0.56186
# Poissons Ratio (y) = 0.16667 0.22119
# Poissons Ratio (z) = 0.22533 0.31193
#
# Static dielectric constant tensor:
#      x y z
#    x 3.345390 -0.070850 0.037800 
#    y -0.070850 4.635440 0.060730 
#    z 0.037800 0.060730 3.893180 
# 
# 
# High freq. dielectric constant tensor:
#      x y z
#    x 1.868050 0.003520 -0.018810 
#    y 0.003520 1.938820 0.004670 
#    z -0.018810 0.004670 1.913980 
# 
# From -- ./inp_files/348780.got.cif
#   From: 2010.06.25/outbox.cif.g09.slc.cpg/sg2_175_cif.got.tgz:348780.got - 2010.06.27 13:26:56.
