data_PCOD8011820
_publ_section_title
;
Structure prediction by ZEFSAII (Michael W. Deem and Ramdas Pophale) SiO2 
 PCOD8011820
Probable space group: P -1
;
_chemical_formula_sum "Si O2"
_cell_formula_units_Z 16
_cell_length_a 10.922789
_cell_length_b 9.274469
_cell_length_c 16.346668
_cell_angle_alpha 115.577041
_cell_angle_beta 46.578881
_cell_angle_gamma 138.114852
_cell_volume 792.009868
_symmetry_space_group_name_H-M "P -1"
_symmetry_group_IT_number 2
_symmetry_cell_setting 'triclinic'
loop_
_space_group_symop_operation_xyz
x,y,z
-x,-y,-z
loop_
_atom_site_type_symbol
_atom_site_label
_atom_site_fract_x
_atom_site_fract_y
_atom_site_fract_z
Si Si1 0.021095 0.536074 0.289281
Si Si2 0.783498 0.074524 0.808013
Si Si3 0.846423 0.755208 0.723497
Si Si4 0.707499 0.090162 0.027541
Si Si5 0.889738 0.185123 0.133020
Si Si6 0.405971 0.714095 0.277437
Si Si7 0.270047 0.254948 0.047736
Si Si8 0.742170 0.214099 0.475229
O O1 0.946457 0.361673 0.212880
O O2 0.837120 0.410880 0.417065
O O3 0.038440 0.720771 0.283951
O O4 0.272901 0.660400 0.240456
O O5 0.814223 0.906661 0.733022
O O6 0.517201 0.945027 0.882169
O O7 0.838820 0.165256 0.898368
O O8 0.623876 0.496721 0.743395
O O9 0.874079 0.805284 0.819118
O O10 0.082876 0.821882 0.604695
O O11 0.866401 0.252844 0.070306
O O12 0.645811 0.871152 0.030675
O O13 0.104457 0.200585 0.035713
O O14 0.666728 0.940809 0.205363
O O15 0.279213 0.725109 0.410976
O O16 0.500000 0.500000 0.000000
O O17 0.500000 0.000000 0.500000
#
# Coordination Sequence:
#
# PCOD8011820 Si02
#       8
#     2   2   2   2   2   2   2   2
#     4  11  21  39  66  89 127 169 202 267 310 376
#     4  10  22  42  60  89 138 170 209 246 328 381
#     4  10  21  39  64  92 126 170 198 268 317 372
#     4  10  22  37  59  88 130 176 204 258 304 382
#     4  12  21  38  67  97 122 165 225 259 310 369
#     4  11  21  41  68  93 122 160 217 267 319 361
#     4  11  20  36  61  95 126 162 219 264 311 359
#     4  11  21  41  67  98 121 158 221 264 318 371
#
# _framework density 20.201768999999999
#
# number of rings (size 3 to 8) (size 9 to 14) (size 15 to 20)
#    0.000    1.250    5.000    3.375    0.000    0.500 
#    0.000    6.875    0.000    0.000    0.000    0.000 
#    0.000    0.000    0.000    0.000    0.000    0.000 
#
# Total GULP energy -198280.122039 kJ/mol
# GULP energy per Si atom -12392.507627 kJ/mol
# Density = 2.015579 g / cm^3
# Si number density = 20.201769 Si / 1000 Ang^3
#
#
#
# Elastic Constant Matrix: (Units=GPa)
#
#
# Indices 1 2 3 4 5 6 
#
# 1 127.4675 69.0496 51.6185 -1.1392 -1.6749 -4.6949
# 2 69.0496 111.8549 36.3783 5.6667 -1.1292 -4.5962
# 3 51.6185 36.3783 100.7962 5.7088 0.0645 -3.2420
# 4 -1.1392 5.6667 5.7088 35.0022 -0.3040 2.2825
# 5 -1.6749 -1.1292 0.0645 -0.3040 28.6043 4.7540
# 6 -4.6949 -4.5962 -3.2420 2.2825 4.7540 43.3110
#
#
#
# Elastic Compliance Matrix: (Units=1/GPa)
#
#
# Indices 1 2 3 4 5 6 
#
# 1 0.013474 -0.006952 -0.004515 0.002291 0.000515 0.000208
# 2 -0.006952 0.013789 -0.001262 -0.002301 -0.000007 0.000737
# 3 -0.004515 -0.001262 0.012822 -0.002070 -0.000447 0.000495
# 4 0.002291 -0.002301 -0.002070 0.029476 0.000656 -0.001776
# 5 0.000515 -0.000007 -0.000447 0.000656 0.035650 -0.003926
# 6 0.000208 0.000737 0.000495 -0.001776 -0.003926 0.023751
#
#
# Mechanical properties :
#
#
# Convention : Reuss Voigt Hill
#
# Bulk Modulus (GPa) = 68.36528 72.69015 70.52772
# Shear Modulus (GPa) = 31.38816 33.58831 32.48824
#
# Velocity S-wave (km/s) = 3.94602 4.08197 4.01457
# Velocity P-wave (km/s) = 7.39433 7.63393 7.51508
#
# Compressibility (1/GPa) = 0.01462731
#
# Stress axis : x y z
#
# Youngs Moduli (GPa) = 74.21676 72.52174 77.99067
#
# Poissons Ratio (x) = 0.50416 0.35210
# Poissons Ratio (y) = 0.51594 0.09846
# Poissons Ratio (z) = 0.33506 0.09156
#
# Static dielectric constant tensor:
#      x y z
#    x 4.362560 -0.229300 0.572710 
#    y -0.229300 4.103220 -0.039050 
#    z 0.572710 -0.039050 4.050770 
# 
# 
# High freq. dielectric constant tensor:
#      x y z
#    x 1.784050 0.007890 0.011500 
#    y 0.007890 1.791530 0.005090 
#    z 0.011500 0.005090 1.787420 
# 
# From -- ./inp_files/557366.got.cif
#   From: 2010.06.25/outbox.cif.g09.slc.cpg/sg2_279_cif.got.tgz:557366.got - 2010.06.27 13:26:56.
