data_PCOD8011668
_publ_section_title
;
Structure prediction by ZEFSAII (Michael W. Deem and Ramdas Pophale) SiO2 
 PCOD8011668
Probable space group: P -1
;
_chemical_formula_sum "Si O2"
_cell_formula_units_Z 16
_cell_length_a 5.189505
_cell_length_b 12.610224
_cell_length_c 14.848055
_cell_angle_alpha 49.452863
_cell_angle_beta 89.687212
_cell_angle_gamma 71.059635
_cell_volume 669.199791
_symmetry_space_group_name_H-M "P -1"
_symmetry_group_IT_number 2
_symmetry_cell_setting 'triclinic'
loop_
_space_group_symop_operation_xyz
x,y,z
-x,-y,-z
loop_
_atom_site_type_symbol
_atom_site_label
_atom_site_fract_x
_atom_site_fract_y
_atom_site_fract_z
Si Si1 0.868870 0.282689 0.495087
Si Si2 0.137111 0.254672 0.993804
Si Si3 0.464180 0.670714 0.703014
Si Si4 0.487970 0.072879 0.863672
Si Si5 0.257435 0.990426 0.565505
Si Si6 0.977118 0.464534 0.720434
Si Si7 0.491820 0.415984 0.956591
Si Si8 0.838926 0.256642 0.715176
O O1 0.654145 0.268614 0.429985
O O2 0.756861 0.286574 0.593800
O O3 0.884052 0.445832 0.388834
O O4 0.161687 0.124597 0.567579
O O5 0.284395 0.332815 0.016488
O O6 0.179333 0.305759 0.861453
O O7 0.808852 0.298893 0.991311
O O8 0.301471 0.073603 0.113752
O O9 0.393039 0.810835 0.697934
O O10 0.801986 0.578937 0.738283
O O11 0.350157 0.549055 0.807539
O O12 0.622819 0.196699 0.794037
O O13 0.171546 0.140946 0.786435
O O14 0.500000 0.000000 0.000000
O O15 0.500000 0.000000 0.500000
O O16 0.000000 0.000000 0.500000
O O17 0.786619 0.415959 0.678181
O O18 0.500000 0.500000 0.000000
#
# Coordination Sequence:
#
# PCOD8011668 Si02
#       8
#     2   2   2   2   2   2   2   2
#     4  11  24  45  66 105 143 177 235 284 358 418
#     4  11  24  44  74  98 138 185 232 285 352 414
#     4  10  23  40  69  94 141 180 223 285 349 417
#     4  12  27  49  70  99 141 187 240 286 347 410
#     4  10  21  39  63  91 128 180 223 268 339 416
#     4  11  23  42  71 101 141 182 232 280 356 419
#     4  11  24  43  69 107 135 180 235 288 349 412
#     4  12  29  42  74 106 138 189 234 295 346 420
#
# _framework density 23.909154000000001
#
# number of rings (size 3 to 8) (size 9 to 14) (size 15 to 20)
#    0.000    1.000    3.750    1.875    7.000    2.500 
#    0.000    1.250    0.000    0.000    0.000    0.000 
#    0.000    0.000    0.000    0.000    0.000    0.000 
#
# Total GULP energy -198258.966574 kJ/mol
# GULP energy per Si atom -12391.185411 kJ/mol
# Density = 2.385474 g / cm^3
# Si number density = 23.909154 Si / 1000 Ang^3
#
#
#
# Elastic Constant Matrix: (Units=GPa)
#
#
# Indices 1 2 3 4 5 6 
#
# 1 92.4926 -10.5370 13.4716 2.5902 -9.8346 8.6594
# 2 -10.5370 68.8643 15.6528 -3.2910 -4.7342 7.2640
# 3 13.4716 15.6528 68.9953 -4.3911 -2.4847 -1.5277
# 4 2.5902 -3.2910 -4.3911 44.8259 4.3337 0.9213
# 5 -9.8346 -4.7342 -2.4847 4.3337 35.2925 -3.5079
# 6 8.6594 7.2640 -1.5277 0.9213 -3.5079 36.1840
#
#
#
# Elastic Compliance Matrix: (Units=1/GPa)
#
#
# Indices 1 2 3 4 5 6 
#
# 1 0.012335 0.003140 -0.003139 -0.001053 0.003433 -0.003355
# 2 0.003140 0.016602 -0.004356 0.000468 0.002335 -0.004054
# 3 -0.003139 -0.004356 0.016226 0.001431 -0.000269 0.002248
# 4 -0.001053 0.000468 0.001431 0.022847 -0.003000 -0.000654
# 5 0.003433 0.002335 -0.000269 -0.003000 0.030123 0.001695
# 6 -0.003355 -0.004054 0.002248 -0.000654 0.001695 0.029529
#
#
# Mechanical properties :
#
#
# Convention : Reuss Voigt Hill
#
# Bulk Modulus (GPa) = 27.43026 29.72523 28.57775
# Shear Modulus (GPa) = 33.66497 37.37812 35.52154
#
# Velocity S-wave (km/s) = 3.75645 3.95820 3.85864
# Velocity P-wave (km/s) = 5.50565 5.77489 5.64188
#
# Compressibility (1/GPa) = 0.03645609
#
# Stress axis : x y z
#
# Youngs Moduli (GPa) = 81.06830 60.23228 61.62994
#
# Poissons Ratio (x) = -0.18916 0.19343
# Poissons Ratio (y) = -0.25459 0.26844
# Poissons Ratio (z) = 0.25444 0.26235
#
# Static dielectric constant tensor:
#      x y z
#    x 4.126980 -0.161440 0.115560 
#    y -0.161440 5.027050 -0.916540 
#    z 0.115560 -0.916540 4.924350 
# 
# 
# High freq. dielectric constant tensor:
#      x y z
#    x 1.944960 -0.002990 0.000660 
#    y -0.002990 1.959990 -0.028240 
#    z 0.000660 -0.028240 1.938990 
# 
# From -- ./inp_files/99647.got.cif
#   From: 2010.06.25/outbox.cif.g09.slc.cpg/sg2_50_cif.got.tgz:99647.got - 2010.06.27 13:26:56.
