data_PCOD8011844
_publ_section_title
;
Structure prediction by ZEFSAII (Michael W. Deem and Ramdas Pophale) SiO2 
 PCOD8011844
Probable space group: P -1
;
_chemical_formula_sum "Si O2"
_cell_formula_units_Z 16
_cell_length_a 14.654197
_cell_length_b 27.901289
_cell_length_c 8.403225
_cell_angle_alpha 138.851963
_cell_angle_beta 127.135540
_cell_angle_gamma 21.729539
_cell_volume 769.568516
_symmetry_space_group_name_H-M "P -1"
_symmetry_group_IT_number 2
_symmetry_cell_setting 'triclinic'
loop_
_space_group_symop_operation_xyz
x,y,z
-x,-y,-z
loop_
_atom_site_type_symbol
_atom_site_label
_atom_site_fract_x
_atom_site_fract_y
_atom_site_fract_z
Si Si1 0.967103 0.501994 0.287026
Si Si2 0.756418 0.107614 0.915777
Si Si3 0.537593 0.863837 0.220537
Si Si4 0.065988 0.226819 0.074506
Si Si5 0.309626 0.430350 0.417375
Si Si6 0.027808 0.080055 0.651613
Si Si7 0.453095 0.019907 0.247964
Si Si8 0.578426 0.233133 0.536561
O O1 0.666844 0.645588 0.298606
O O2 0.000000 0.500000 0.500000
O O3 0.044623 0.533374 0.358284
O O4 0.164139 0.325814 0.996154
O O5 0.655598 0.093466 0.863205
O O6 0.839927 0.041271 0.658488
O O7 0.511564 0.307903 0.172542
O O8 0.000000 0.000000 0.000000
O O9 0.407919 0.991817 0.275540
O O10 0.560003 0.889482 0.479493
O O11 0.785300 0.432613 0.304329
O O12 0.205701 0.146293 0.189971
O O13 0.006993 0.177694 0.838942
O O14 0.259387 0.156049 0.975213
O O15 0.472973 0.301279 0.415874
O O16 0.725688 0.223683 0.718200
O O17 0.208507 0.956390 0.688313
#
# Coordination Sequence:
#
# PCOD8011844 Si02
#       8
#     2   2   2   2   2   2   2   2
#     4   9  19  34  62  90 119 158 210 252 304 362
#     4  11  22  42  63  90 126 166 209 257 308 383
#     4  10  21  39  64  94 120 174 208 257 317 371
#     4  11  24  39  62  97 129 163 207 267 311 370
#     4  10  22  39  65  93 125 162 208 257 321 362
#     4  11  24  40  65  93 123 168 214 251 316 375
#     4  10  22  38  62  89 135 161 208 259 320 370
#     4  10  22  40  62  90 124 166 210 254 304 388
#
# _framework density 20.790870999999999
#
# number of rings (size 3 to 8) (size 9 to 14) (size 15 to 20)
#    0.000    1.750    2.500    1.500    8.750    1.500 
#    0.000    2.500    0.000    4.500    0.000    0.000 
#    0.000    0.000    0.000    0.000    0.000    0.000 
#
# Total GULP energy -198296.180125 kJ/mol
# GULP energy per Si atom -12393.511258 kJ/mol
# Density = 2.074355 g / cm^3
# Si number density = 20.790871 Si / 1000 Ang^3
#
#
#
# Elastic Constant Matrix: (Units=GPa)
#
#
# Indices 1 2 3 4 5 6 
#
# 1 67.4574 41.7571 25.0491 6.0096 8.7048 -15.4161
# 2 41.7571 96.7678 41.7639 5.0365 1.4103 -28.9565
# 3 25.0491 41.7639 137.4203 11.2267 4.6080 -3.5200
# 4 6.0096 5.0365 11.2267 26.0272 1.4494 -4.2050
# 5 8.7048 1.4103 4.6080 1.4494 25.1762 4.3319
# 6 -15.4161 -28.9565 -3.5200 -4.2050 4.3319 34.1746
#
#
#
# Elastic Compliance Matrix: (Units=1/GPa)
#
#
# Indices 1 2 3 4 5 6 
#
# 1 0.022040 -0.007536 -0.001202 -0.002021 -0.007575 0.004144
# 2 -0.007536 0.019084 -0.004262 0.001913 0.000045 0.012561
# 3 -0.001202 -0.004262 0.008978 -0.003345 -0.000174 -0.003618
# 4 -0.002021 0.001913 -0.003345 0.040997 -0.002134 0.005679
# 5 -0.007575 0.000045 -0.000174 -0.002134 0.044082 -0.009247
# 6 0.004144 0.012561 -0.003618 0.005679 -0.009247 0.043272
#
#
# Mechanical properties :
#
#
# Convention : Reuss Voigt Hill
#
# Bulk Modulus (GPa) = 41.49143 57.64288 49.56716
# Shear Modulus (GPa) = 23.53068 29.94731 26.73899
#
# Velocity S-wave (km/s) = 3.36784 3.79939 3.59010
# Velocity P-wave (km/s) = 5.92647 6.85802 6.40919
#
# Compressibility (1/GPa) = 0.02410136
#
# Stress axis : x y z
#
# Youngs Moduli (GPa) = 45.37165 52.39959 111.38584
#
# Poissons Ratio (x) = 0.39490 0.13387
# Poissons Ratio (y) = 0.34193 0.47475
# Poissons Ratio (z) = 0.05453 0.22334
#
# Static dielectric constant tensor:
#      x y z
#    x 3.784740 -0.358670 -0.108860 
#    y -0.358670 3.864820 0.063690 
#    z -0.108860 0.063690 3.945900 
# 
# 
# High freq. dielectric constant tensor:
#      x y z
#    x 1.810030 -0.014890 -0.003470 
#    y -0.014890 1.805850 -0.002210 
#    z -0.003470 -0.002210 1.812460 
# 
# From -- ./inp_files/321004.got.cif
#   From: 2010.06.25/outbox.cif.g09.slc.cpg/sg2_161_cif.got.tgz:321004.got - 2010.06.27 13:26:56.
