data_PCOD8011014
_publ_section_title
;
Structure prediction by ZEFSAII (Michael W. Deem and Ramdas Pophale) SiO2 
 PCOD8011014
Probable space group: P -1
;
_chemical_formula_sum "Si O2"
_cell_formula_units_Z 16
_cell_length_a 20.435243
_cell_length_b 14.531218
_cell_length_c 8.573606
_cell_angle_alpha 40.891197
_cell_angle_beta 135.690791
_cell_angle_gamma 153.076184
_cell_volume 747.200324
_symmetry_space_group_name_H-M "P -1"
_symmetry_group_IT_number 2
_symmetry_cell_setting 'triclinic'
loop_
_space_group_symop_operation_xyz
x,y,z
-x,-y,-z
loop_
_atom_site_type_symbol
_atom_site_label
_atom_site_fract_x
_atom_site_fract_y
_atom_site_fract_z
Si Si1 0.215905 0.688102 0.569228
Si Si2 0.668963 0.457105 0.949164
Si Si3 0.853698 0.910492 0.823460
Si Si4 0.623555 0.748811 0.854588
Si Si5 0.399530 0.060487 0.186841
Si Si6 0.921513 0.302551 0.408600
Si Si7 0.526641 0.231753 0.682166
Si Si8 0.292959 0.809740 0.016385
O O1 0.161754 0.755967 0.496214
O O2 0.094964 0.520496 0.443956
O O3 0.371326 0.903446 0.470601
O O4 0.228609 0.563928 0.858731
O O5 0.758211 0.702756 0.812125
O O6 0.585559 0.384889 0.736769
O O7 0.564070 0.295233 0.123606
O O8 0.766528 0.831759 0.935702
O O9 0.885103 0.099292 0.558973
O O10 0.000000 0.000000 0.000000
O O11 0.670952 0.886351 0.915125
O O12 0.551029 0.758380 0.584077
O O13 0.500000 0.500000 0.000000
O O14 0.311288 0.920967 0.060761
O O15 0.870183 0.348317 0.123248
O O16 0.398987 0.980531 0.838893
O O17 0.661123 0.300955 0.739913
#
# Coordination Sequence:
#
# PCOD8011014 Si02
#       8
#     2   2   2   2   2   2   2   2
#     4  11  22  39  65  94 128 172 219 267 317 394
#     4  11  23  39  66  99 127 171 217 269 329 384
#     4  12  24  42  66  93 130 176 221 261 318 401
#     4  12  25  43  66  97 133 174 216 272 330 387
#     4  11  24  36  65  96 128 162 222 272 330 371
#     4  11  22  41  67  89 130 176 218 257 330 392
#     4  10  22  39  64  96 132 161 218 276 320 388
#     4  10  21  38  65  98 127 167 213 275 331 377
#
# _framework density 21.413266
#
# number of rings (size 3 to 8) (size 9 to 14) (size 15 to 20)
#    0.000    1.000    6.250    0.375    5.250    2.000 
#    0.000    0.000    0.000    1.500    0.000    0.000 
#    0.000    0.000    0.000    0.000    0.000    0.000 
#
# Total GULP energy -198285.001331 kJ/mol
# GULP energy per Si atom -12392.812583 kJ/mol
# Density = 2.136453 g / cm^3
# Si number density = 21.413266 Si / 1000 Ang^3
#
#
#
# Elastic Constant Matrix: (Units=GPa)
#
#
# Indices 1 2 3 4 5 6 
#
# 1 103.3156 36.9889 39.0554 0.8532 13.4557 -9.0248
# 2 36.9889 99.1752 25.1655 -0.0302 7.8182 -13.9284
# 3 39.0554 25.1655 72.2005 5.1913 10.2225 2.3710
# 4 0.8532 -0.0302 5.1913 34.8726 -1.1491 5.1176
# 5 13.4557 7.8182 10.2225 -1.1491 28.0264 -0.9273
# 6 -9.0248 -13.9284 2.3710 5.1176 -0.9273 33.0457
#
#
#
# Elastic Compliance Matrix: (Units=1/GPa)
#
#
# Indices 1 2 3 4 5 6 
#
# 1 0.013687 -0.002912 -0.005991 0.000023 -0.003479 0.002840
# 2 -0.002912 0.012628 -0.002832 -0.000223 -0.000944 0.004738
# 3 -0.005991 -0.002832 0.018851 -0.002197 -0.003430 -0.003939
# 4 0.000023 -0.000223 -0.002197 0.029723 0.001923 -0.004479
# 5 -0.003479 -0.000944 -0.003430 0.001923 0.038934 -0.000307
# 6 0.002840 0.004738 -0.003939 -0.004479 -0.000307 0.034001
#
#
# Mechanical properties :
#
#
# Convention : Reuss Voigt Hill
#
# Bulk Modulus (GPa) = 46.09209 53.01233 49.55221
# Shear Modulus (GPa) = 28.00701 30.75438 29.38069
#
# Velocity S-wave (km/s) = 3.62045 3.79387 3.70818
# Velocity P-wave (km/s) = 6.24889 6.63339 6.44401
#
# Compressibility (1/GPa) = 0.02169570
#
# Stress axis : x y z
#
# Youngs Moduli (GPa) = 73.06059 79.19168 53.04652
#
# Poissons Ratio (x) = 0.23057 0.31782
# Poissons Ratio (y) = 0.21272 0.15025
# Poissons Ratio (z) = 0.43773 0.22430
#
# Static dielectric constant tensor:
#      x y z
#    x 3.996430 -0.039250 0.168870 
#    y -0.039250 4.001950 0.027540 
#    z 0.168870 0.027540 3.540220 
# 
# 
# High freq. dielectric constant tensor:
#      x y z
#    x 1.842650 -0.012850 0.012480 
#    y -0.012850 1.840950 0.004080 
#    z 0.012480 0.004080 1.821870 
# 
# From -- ./inp_files/347477.got.cif
#   From: 2010.06.25/outbox.cif.g09.slc.cpg/sg2_174_cif.got.tgz:347477.got - 2010.06.27 13:26:56.
