data_PCOD8011150
_publ_section_title
;
Structure prediction by ZEFSAII (Michael W. Deem and Ramdas Pophale) SiO2 
 PCOD8011150
Probable space group: P -1
;
_chemical_formula_sum "Si O2"
_cell_formula_units_Z 16
_cell_length_a 24.574291
_cell_length_b 5.258406
_cell_length_c 8.907819
_cell_angle_alpha 101.097542
_cell_angle_beta 55.339307
_cell_angle_gamma 68.506462
_cell_volume 750.459986
_symmetry_space_group_name_H-M "P -1"
_symmetry_group_IT_number 2
_symmetry_cell_setting 'triclinic'
loop_
_space_group_symop_operation_xyz
x,y,z
-x,-y,-z
loop_
_atom_site_type_symbol
_atom_site_label
_atom_site_fract_x
_atom_site_fract_y
_atom_site_fract_z
Si Si1 0.248523 0.797783 0.976585
Si Si2 0.736220 0.374004 0.396623
Si Si3 0.409915 0.207193 0.100615
Si Si4 0.107678 0.890543 0.380186
Si Si5 0.798915 0.767295 0.425463
Si Si6 0.919274 0.603720 0.728635
Si Si7 0.346954 0.808372 0.074686
Si Si8 0.959839 0.618134 0.234901
O O1 0.285412 0.592121 0.742889
O O2 0.202760 0.697763 0.152969
O O3 0.322635 0.771965 0.941470
O O4 0.178965 0.156436 0.070151
O O5 0.651437 0.612996 0.643976
O O6 0.792702 0.496223 0.336251
O O7 0.784623 0.013615 0.345064
O O8 0.402668 0.459217 0.023401
O O9 0.395085 0.969121 0.010989
O O10 0.500000 0.000000 0.000000
O O11 0.064156 0.731717 0.377895
O O12 0.055587 0.256152 0.431164
O O13 0.088430 0.997882 0.598878
O O14 0.887419 0.573283 0.345020
O O15 0.736569 0.958855 0.679223
O O16 0.960304 0.614451 0.816075
O O17 0.000000 0.500000 0.000000
#
# Coordination Sequence:
#
# PCOD8011150 Si02
#       8
#     2   2   2   2   2   2   2   2
#     4  10  23  39  64  87 119 155 210 237 296 346
#     4  10  23  38  65  85 122 155 197 247 294 351
#     4  10  22  42  64  94 124 153 186 235 301 359
#     4  10  24  41  58  79 118 156 201 247 305 348
#     4  10  22  41  54  89 115 162 204 247 293 353
#     4  10  24  41  60  80 121 161 199 253 308 337
#     4  10  21  38  68  86 120 159 196 236 287 359
#     4  12  24  39  60  87 120 158 211 258 300 341
#
# _framework density 21.320257000000002
#
# number of rings (size 3 to 8) (size 9 to 14) (size 15 to 20)
#    0.750    1.000    1.250    1.875    5.250    3.000 
#    0.000    5.000    0.000    0.000    0.000    0.000 
#    0.000    0.000    0.000    0.000    0.000    0.000 
#
# Total GULP energy -198243.639148 kJ/mol
# GULP energy per Si atom -12390.227447 kJ/mol
# Density = 2.127173 g / cm^3
# Si number density = 21.320257 Si / 1000 Ang^3
#
#
#
# Elastic Constant Matrix: (Units=GPa)
#
#
# Indices 1 2 3 4 5 6 
#
# 1 164.4795 50.3799 50.4485 4.4252 14.9255 0.9870
# 2 50.3799 88.4658 22.4654 9.0939 4.1972 21.2059
# 3 50.4485 22.4654 71.7443 -0.9644 25.0797 -0.2656
# 4 4.4252 9.0939 -0.9644 14.1580 -6.4778 -0.5370
# 5 14.9255 4.1972 25.0797 -6.4778 40.9655 1.9466
# 6 0.9870 21.2059 -0.2656 -0.5370 1.9466 38.6205
#
#
#
# Elastic Compliance Matrix: (Units=1/GPa)
#
#
# Indices 1 2 3 4 5 6 
#
# 1 0.008894 -0.004291 -0.004935 -0.000243 0.000083 0.002088
# 2 -0.004291 0.017934 -0.002875 -0.010623 0.000278 -0.009919
# 3 -0.004935 -0.002875 0.022448 -0.000402 -0.011830 0.002450
# 4 -0.000243 -0.010623 -0.000402 0.084359 0.014464 0.006281
# 5 0.000083 0.000278 -0.011830 0.014464 0.033965 -0.001747
# 6 0.002088 -0.009919 0.002450 0.006281 -0.001747 0.031478
#
#
# Mechanical properties :
#
#
# Convention : Reuss Voigt Hill
#
# Bulk Modulus (GPa) = 39.88139 63.47525 51.67832
# Shear Modulus (GPa) = 21.58526 32.17519 26.88023
#
# Velocity S-wave (km/s) = 3.18532 3.88898 3.55460
# Velocity P-wave (km/s) = 5.68110 7.07124 6.41394
#
# Compressibility (1/GPa) = 0.02507435
#
# Stress axis : x y z
#
# Youngs Moduli (GPa) = 112.43101 55.75910 44.54763
#
# Poissons Ratio (x) = 0.23928 0.21984
# Poissons Ratio (y) = 0.48248 0.12806
# Poissons Ratio (z) = 0.55484 0.16029
#
# Static dielectric constant tensor:
#      x y z
#    x 3.742190 0.150640 0.085450 
#    y 0.150640 3.837750 -0.053710 
#    z 0.085450 -0.053710 3.762500 
# 
# 
# High freq. dielectric constant tensor:
#      x y z
#    x 1.847660 0.006220 0.010710 
#    y 0.006220 1.823070 0.002850 
#    z 0.010710 0.002850 1.825330 
# 
# From -- ./inp_files/339928.got.cif
#   From: 2010.06.25/outbox.cif.g09.slc.cpg/sg2_170_cif.got.tgz:339928.got - 2010.06.27 13:26:56.
