data_PCOD8011736
_publ_section_title
;
Structure prediction by ZEFSAII (Michael W. Deem and Ramdas Pophale) SiO2 
 PCOD8011736
Probable space group: P -1
;
_chemical_formula_sum "Si O2"
_cell_formula_units_Z 12
_cell_length_a 8.452761
_cell_length_b 5.322035
_cell_length_c 11.830122
_cell_angle_alpha 80.656120
_cell_angle_beta 71.880770
_cell_angle_gamma 98.914989
_cell_volume 486.961601
_symmetry_space_group_name_H-M "P -1"
_symmetry_group_IT_number 2
_symmetry_cell_setting 'triclinic'
loop_
_space_group_symop_operation_xyz
x,y,z
-x,-y,-z
loop_
_atom_site_type_symbol
_atom_site_label
_atom_site_fract_x
_atom_site_fract_y
_atom_site_fract_z
Si Si1 0.241046 0.579043 0.734080
Si Si2 0.308277 0.285548 0.137693
Si Si3 0.337686 0.729168 0.940491
Si Si4 0.682220 0.088944 0.508005
Si Si5 0.947575 0.097942 0.885964
Si Si6 0.627320 0.535871 0.649560
O O1 0.197541 0.764429 0.630227
O O2 0.423080 0.500356 0.680394
O O3 0.091911 0.322652 0.785791
O O4 0.241445 0.731713 0.841450
O O5 0.339711 0.433454 0.998777
O O6 0.321696 0.474799 0.229719
O O7 0.113402 0.115231 0.183888
O O8 0.462205 0.125000 0.127785
O O9 0.234597 0.831342 0.054172
O O10 0.685798 0.297766 0.592649
O O11 0.500000 0.000000 0.500000
O O12 0.730758 0.822103 0.560178
O O13 0.000000 0.000000 0.000000
#
# Coordination Sequence:
#
# PCOD8011736 Si02
#       6
#     2   2   2   2   2   2
#     4  10  21  39  63  97 125 168 222 277 328 380
#     4  10  23  42  64  92 131 177 218 265 334 402
#     4  10  22  42  61  93 131 173 220 264 333 403
#     4  10  21  42  67  98 126 172 228 273 319 391
#     4  12  24  38  63 100 134 171 214 278 337 391
#     4  10  23  42  69  95 128 178 223 270 326 395
#
# _framework density 24.642599000000001
#
# number of rings (size 3 to 8) (size 9 to 14) (size 15 to 20)
#    0.000    1.667    1.667    3.000    2.333    5.333 
#    0.000    1.667    0.000    0.000    0.000    0.000 
#    0.000    0.000    0.000    0.000    0.000    0.000 
#
# Total GULP energy -148668.727456 kJ/mol
# GULP energy per Si atom -12389.060621 kJ/mol
# Density = 2.458651 g / cm^3
# Si number density = 24.642599 Si / 1000 Ang^3
#
#
#
# Elastic Constant Matrix: (Units=GPa)
#
#
# Indices 1 2 3 4 5 6 
#
# 1 68.4932 40.8437 29.8659 -1.1795 8.3383 32.6615
# 2 40.8437 126.9019 54.0748 -8.2361 0.8902 28.4125
# 3 29.8659 54.0748 131.4822 -13.4075 17.5222 20.9157
# 4 -1.1795 -8.2361 -13.4075 43.3535 6.2804 -4.5351
# 5 8.3383 0.8902 17.5222 6.2804 22.7242 0.9002
# 6 32.6615 28.4125 20.9157 -4.5351 0.9002 40.2997
#
#
#
# Elastic Compliance Matrix: (Units=1/GPa)
#
#
# Indices 1 2 3 4 5 6 
#
# 1 0.027412 -0.004466 -0.000346 -0.000928 -0.008616 -0.018800
# 2 -0.004466 0.011521 -0.003888 -0.000028 0.004295 -0.002584
# 3 -0.000346 -0.003888 0.011279 0.003873 -0.009402 -0.002187
# 4 -0.000928 -0.000028 0.003873 0.025861 -0.009867 0.001892
# 5 -0.008616 0.004295 -0.009402 -0.009867 0.056720 0.006456
# 6 -0.018800 -0.002584 -0.002187 0.001892 0.006456 0.043077
#
#
# Mechanical properties :
#
#
# Convention : Reuss Voigt Hill
#
# Bulk Modulus (GPa) = 30.47611 64.04958 47.26285
# Shear Modulus (GPa) = 24.48523 34.74835 29.61679
#
# Velocity S-wave (km/s) = 3.15558 3.75919 3.47054
# Velocity P-wave (km/s) = 5.06666 6.69999 5.93974
#
# Compressibility (1/GPa) = 0.03281258
#
# Stress axis : x y z
#
# Youngs Moduli (GPa) = 36.48092 86.79931 88.66173
#
# Poissons Ratio (x) = 0.38763 0.03064
# Poissons Ratio (y) = 0.16292 0.34471
# Poissons Ratio (z) = 0.01261 0.33747
#
# Static dielectric constant tensor:
#      x y z
#    x 4.425240 -0.042610 0.149230 
#    y -0.042610 4.513680 -0.389030 
#    z 0.149230 -0.389030 5.102860 
# 
# 
# High freq. dielectric constant tensor:
#      x y z
#    x 1.963200 0.014560 0.016020 
#    y 0.014560 1.971990 -0.004850 
#    z 0.016020 -0.004850 1.981420 
# 
# From -- ./inp_files/24389.got.cif
#   From: 2010.06.25/outbox.cif.g09.slc.cpg/sg2_13_cif.got.tgz:24389.got - 2010.06.27 13:26:56.
