data_PCOD8011031
_publ_section_title
;
Structure prediction by ZEFSAII (Michael W. Deem and Ramdas Pophale) SiO2 
 PCOD8011031
Probable space group: P -1
;
_chemical_formula_sum "Si O2"
_cell_formula_units_Z 14
_cell_length_a 7.636679
_cell_length_b 10.875517
_cell_length_c 23.213317
_cell_angle_alpha 34.910463
_cell_angle_beta 146.521407
_cell_angle_gamma 135.760209
_cell_volume 605.414013
_symmetry_space_group_name_H-M "P -1"
_symmetry_group_IT_number 2
_symmetry_cell_setting 'triclinic'
loop_
_space_group_symop_operation_xyz
x,y,z
-x,-y,-z
loop_
_atom_site_type_symbol
_atom_site_label
_atom_site_fract_x
_atom_site_fract_y
_atom_site_fract_z
Si Si1 0.372661 0.499530 0.591401
Si Si2 0.598210 0.089784 0.084602
Si Si3 0.650108 0.515081 0.182973
Si Si4 0.860337 0.779296 0.904511
Si Si5 0.898403 0.823164 0.587759
Si Si6 0.336841 0.021677 0.728198
Si Si7 0.354538 0.627748 0.169737
O O1 0.519128 0.732832 0.515077
O O2 0.587555 0.506479 0.705930
O O3 0.000000 0.500000 0.500000
O O4 0.402259 0.283218 0.645299
O O5 0.749503 0.076546 0.194712
O O6 0.855120 0.092207 0.102737
O O7 0.362635 0.877204 0.092662
O O8 0.376373 0.284960 0.944208
O O9 0.352915 0.339790 0.157269
O O10 0.634466 0.581340 0.219959
O O11 0.967690 0.406397 0.299090
O O12 0.660173 0.939527 0.823857
O O13 0.003290 0.596207 0.055153
O O14 0.025206 0.934112 0.639343
O O15 0.000000 0.000000 0.500000
#
# Coordination Sequence:
#
# PCOD8011031 Si02
#       7
#     2   2   2   2   2   2   2
#     4  11  28  47  70 102 137 197 242 293 350 410
#     4  10  21  38  66 105 144 174 220 286 365 421
#     4  10  22  39  68 104 137 182 222 290 356 426
#     4  10  21  38  66 105 144 174 220 286 365 421
#     4  11  28  47  70 102 137 197 242 293 350 410
#     4  10  26  44  72 106 138 182 236 300 344 440
#     4  10  22  39  68 104 137 182 222 290 356 426
#
# _framework density 23.124669000000001
#
# number of rings (size 3 to 8) (size 9 to 14) (size 15 to 20)
#    0.000    1.714    0.000    3.429   12.000    8.000 
#    0.000    0.000    0.000    0.000    0.000    0.000 
#    0.000    0.000    0.000    0.000    0.000    0.000 
#
# Total GULP energy -173484.326026 kJ/mol
# GULP energy per Si atom -12391.737573 kJ/mol
# Density = 2.307204 g / cm^3
# Si number density = 23.124669 Si / 1000 Ang^3
#
#
#
# Elastic Constant Matrix: (Units=GPa)
#
#
# Indices 1 2 3 4 5 6 
#
# 1 95.2899 49.0482 45.4363 -0.8447 -0.5898 -3.9748
# 2 49.0482 99.0439 38.1050 -9.0713 -1.8317 4.2347
# 3 45.4363 38.1050 78.6894 -4.2289 4.0043 4.0782
# 4 -0.8447 -9.0713 -4.2289 34.6051 6.7021 1.1424
# 5 -0.5898 -1.8317 4.0043 6.7021 21.0710 0.2542
# 6 -3.9748 4.2347 4.0782 1.1424 0.2542 47.4727
#
#
#
# Elastic Compliance Matrix: (Units=1/GPa)
#
#
# Indices 1 2 3 4 5 6 
#
# 1 0.017215 -0.005974 -0.007433 -0.002560 0.002157 0.002663
# 2 -0.005974 0.014774 -0.003489 0.003202 0.000781 -0.001600
# 3 -0.007433 -0.003489 0.019160 0.002249 -0.004844 -0.001985
# 4 -0.002560 0.003202 0.002249 0.032007 -0.010384 -0.001408
# 5 0.002157 0.000781 -0.004844 -0.010384 0.051804 0.000500
# 6 0.002663 -0.001600 -0.001985 -0.001408 0.000500 0.021632
#
#
# Mechanical properties :
#
#
# Convention : Reuss Voigt Hill
#
# Bulk Modulus (GPa) = 57.61548 59.80024 58.70786
# Shear Modulus (GPa) = 25.48821 29.99200 27.74011
#
# Velocity S-wave (km/s) = 3.32355 3.60525 3.46727
# Velocity P-wave (km/s) = 6.30058 6.57621 6.43987
#
# Compressibility (1/GPa) = 0.01735645
#
# Stress axis : x y z
#
# Youngs Moduli (GPa) = 58.08860 67.68874 52.19260
#
# Poissons Ratio (x) = 0.40438 0.38793
# Poissons Ratio (y) = 0.34702 0.18211
# Poissons Ratio (z) = 0.43175 0.23618
#
# Static dielectric constant tensor:
#      x y z
#    x 4.195940 -0.359930 -0.030250 
#    y -0.359930 4.314320 0.017810 
#    z -0.030250 0.017810 4.305890 
# 
# 
# High freq. dielectric constant tensor:
#      x y z
#    x 1.909470 -0.014280 -0.000250 
#    y -0.014280 1.925670 -0.000950 
#    z -0.000250 -0.000950 1.904970 
# 
# From -- ./inp_files/387327.got.cif
#   From: 2010.06.25/outbox.cif.g09.slc.cpg/sg2_194_cif.got.tgz:387327.got - 2010.06.27 13:26:56.
