data_PCOD8011286
_publ_section_title
;
Structure prediction by ZEFSAII (Michael W. Deem and Ramdas Pophale) SiO2 
 PCOD8011286
Probable space group: P -1
;
_chemical_formula_sum "Si O2"
_cell_formula_units_Z 16
_cell_length_a 5.267364
_cell_length_b 14.978323
_cell_length_c 11.647295
_cell_angle_alpha 120.483828
_cell_angle_beta 95.185180
_cell_angle_gamma 69.386852
_cell_volume 736.761326
_symmetry_space_group_name_H-M "P -1"
_symmetry_group_IT_number 2
_symmetry_cell_setting 'triclinic'
loop_
_space_group_symop_operation_xyz
x,y,z
-x,-y,-z
loop_
_atom_site_type_symbol
_atom_site_label
_atom_site_fract_x
_atom_site_fract_y
_atom_site_fract_z
Si Si1 0.626889 0.576700 0.493702
Si Si2 0.212299 0.044817 0.392231
Si Si3 0.093694 0.382014 0.266416
Si Si4 0.997523 0.473365 0.849588
Si Si5 0.342908 0.940908 0.096770
Si Si6 0.102668 0.147961 0.066346
Si Si7 0.592574 0.351520 0.702747
Si Si8 0.659853 0.121118 0.510286
O O1 0.500000 0.500000 0.500000
O O2 0.672417 0.653500 0.648620
O O3 0.424007 0.652456 0.439739
O O4 0.886987 0.496907 0.383294
O O5 0.368106 0.133581 0.448853
O O6 0.885243 0.107179 0.409656
O O7 0.327742 0.951204 0.239388
O O8 0.259315 0.988930 0.482301
O O9 0.165673 0.418326 0.165985
O O10 0.998334 0.277127 0.182760
O O11 0.848936 0.384380 0.771302
O O12 0.314421 0.430491 0.799908
O O13 0.000000 0.500000 0.000000
O O14 0.223087 0.065888 0.124056
O O15 0.657096 0.876972 0.034014
O O16 0.164974 0.868799 0.003742
O O17 0.643249 0.225247 0.658469
#
# Coordination Sequence:
#
# PCOD8011286 Si02
#       8
#     2   2   2   2   2   2   2   2
#     4  10  21  39  61  88 124 151 201 256 291 360
#     4  10  21  39  59  84 120 151 193 244 292 346
#     4  10  23  39  60  90 119 160 200 245 306 350
#     4  11  24  41  60  87 124 157 198 247 291 360
#     4  10  22  40  56  86 118 151 196 240 281 356
#     4  10  23  38  59  85 116 153 197 236 288 350
#     4  11  23  40  61  91 119 154 204 243 300 357
#     4  10  22  37  60  89 113 152 196 242 296 348
#
# _framework density 21.716667000000001
#
# number of rings (size 3 to 8) (size 9 to 14) (size 15 to 20)
#    0.000    1.750    1.250    1.875    3.500    3.000 
#    0.000    0.000    0.000    0.000    0.000    0.000 
#    0.000    0.000    0.000    0.000    0.000    0.000 
#
# Total GULP energy -198278.808270 kJ/mol
# GULP energy per Si atom -12392.425517 kJ/mol
# Density = 2.166724 g / cm^3
# Si number density = 21.716667 Si / 1000 Ang^3
#
#
#
# Elastic Constant Matrix: (Units=GPa)
#
#
# Indices 1 2 3 4 5 6 
#
# 1 122.5998 28.3791 29.4298 -6.1586 7.3432 22.5947
# 2 28.3791 51.1675 41.4178 3.0490 13.1279 12.5000
# 3 29.4298 41.4178 107.5886 -12.4559 17.9910 13.6878
# 4 -6.1586 3.0490 -12.4559 40.2918 8.8072 6.7156
# 5 7.3432 13.1279 17.9910 8.8072 38.8055 6.6687
# 6 22.5947 12.5000 13.6878 6.7156 6.6687 24.9002
#
#
#
# Elastic Compliance Matrix: (Units=1/GPa)
#
#
# Indices 1 2 3 4 5 6 
#
# 1 0.010895 -0.004250 0.000180 0.003507 0.000009 -0.008800
# 2 -0.004250 0.033078 -0.011040 -0.005098 -0.003353 -0.004407
# 3 0.000180 -0.011040 0.015605 0.007336 -0.004517 -0.003968
# 4 0.003507 -0.005098 0.007336 0.031520 -0.007582 -0.011126
# 5 0.000009 -0.003353 -0.004517 -0.007582 0.031082 -0.002121
# 6 -0.008800 -0.004407 -0.003968 -0.011126 -0.002121 0.056108
#
#
# Mechanical properties :
#
#
# Convention : Reuss Voigt Hill
#
# Bulk Modulus (GPa) = 34.06261 53.31213 43.68737
# Shear Modulus (GPa) = 22.90498 32.94143 27.92321
#
# Velocity S-wave (km/s) = 3.25117 3.89893 3.58969
# Velocity P-wave (km/s) = 5.46008 6.69859 6.11080
#
# Compressibility (1/GPa) = 0.02935771
#
# Stress axis : x y z
#
# Youngs Moduli (GPa) = 91.78936 30.23154 64.08214
#
# Poissons Ratio (x) = 0.12847 -0.01153
# Poissons Ratio (y) = 0.39007 0.70748
# Poissons Ratio (z) = -0.01652 0.33376
#
# Static dielectric constant tensor:
#      x y z
#    x 4.222560 0.115940 0.079220 
#    y 0.115940 3.890090 -0.124270 
#    z 0.079220 -0.124270 3.528010 
# 
# 
# High freq. dielectric constant tensor:
#      x y z
#    x 1.866660 0.013340 0.007070 
#    y 0.013340 1.839330 -0.004650 
#    z 0.007070 -0.004650 1.847250 
# 
# From -- ./inp_files/118186.got.cif
#   From: 2010.06.25/outbox.cif.g09.slc.cpg/sg2_60_cif.got.tgz:118186.got - 2010.06.27 13:26:56.
