data_PCOD8011693
_publ_section_title
;
Structure prediction by ZEFSAII (Michael W. Deem and Ramdas Pophale) SiO2 
 PCOD8011693
Probable space group: P -1
;
_chemical_formula_sum "Si O2"
_cell_formula_units_Z 16
_cell_length_a 23.801555
_cell_length_b 17.407616
_cell_length_c 11.848668
_cell_angle_alpha 37.043167
_cell_angle_beta 29.383098
_cell_angle_gamma 18.238344
_cell_volume 739.905111
_symmetry_space_group_name_H-M "P -1"
_symmetry_group_IT_number 2
_symmetry_cell_setting 'triclinic'
loop_
_space_group_symop_operation_xyz
x,y,z
-x,-y,-z
loop_
_atom_site_type_symbol
_atom_site_label
_atom_site_fract_x
_atom_site_fract_y
_atom_site_fract_z
Si Si1 0.426734 0.001476 0.012711
Si Si2 0.708226 0.148297 0.857318
Si Si3 0.610680 0.268177 0.128032
Si Si4 0.085155 0.882746 0.813816
Si Si5 0.880549 0.862094 0.465542
Si Si6 0.529772 0.777967 0.391568
Si Si7 0.191363 0.702179 0.591579
Si Si8 0.312149 0.438178 0.068916
O O1 0.205351 0.129582 0.280564
O O2 0.639997 0.717136 0.925247
O O3 0.500000 0.000000 0.000000
O O4 0.375572 0.168617 0.820428
O O5 0.649545 0.355749 0.694472
O O6 0.680490 0.125987 0.059654
O O7 0.555324 0.212726 0.966785
O O8 0.974908 0.879296 0.683683
O O9 0.451933 0.319268 0.410106
O O10 0.500000 0.500000 0.000000
O O11 0.823440 0.098095 0.034410
O O12 0.140905 0.825721 0.650614
O O13 0.126254 0.982063 0.676857
O O14 0.240335 0.636689 0.899892
O O15 0.127683 0.580338 0.321381
O O16 0.721884 0.979907 0.499751
O O17 0.684164 0.549443 0.301751
#
# Coordination Sequence:
#
# PCOD8011693 Si02
#       8
#     2   2   2   2   2   2   2   2
#     4  10  25  44  64  96 132 176 219 261 323 389
#     4  10  22  38  61  96 128 168 211 267 336 373
#     4  11  21  38  62  94 132 167 212 264 320 392
#     4  11  22  37  67 102 126 161 214 271 338 376
#     4  11  23  40  67 103 131 163 214 278 330 378
#     4  11  22  42  64  91 129 179 221 258 322 392
#     4  10  21  39  63  92 134 171 208 265 324 393
#     4  12  23  43  68  99 132 165 215 283 322 381
#
# _framework density 21.624396000000001
#
# number of rings (size 3 to 8) (size 9 to 14) (size 15 to 20)
#    0.000    1.250    2.500    4.125    0.000    3.500 
#    6.750    1.250    0.000    0.000    0.000    0.000 
#    0.000    0.000    0.000    0.000    0.000    0.000 
#
# Total GULP energy -198260.244541 kJ/mol
# GULP energy per Si atom -12391.265284 kJ/mol
# Density = 2.157518 g / cm^3
# Si number density = 21.624396 Si / 1000 Ang^3
#
#
#
# Elastic Constant Matrix: (Units=GPa)
#
#
# Indices 1 2 3 4 5 6 
#
# 1 79.8084 37.3126 38.3697 1.5784 -3.5697 6.7595
# 2 37.3126 79.1913 59.4611 -1.8756 0.2947 22.1966
# 3 38.3697 59.4611 147.3868 -16.7114 16.0420 17.1599
# 4 1.5784 -1.8756 -16.7114 36.8591 -2.8940 -3.1644
# 5 -3.5697 0.2947 16.0420 -2.8940 27.4185 2.1225
# 6 6.7595 22.1966 17.1599 -3.1644 2.1225 42.8340
#
#
#
# Elastic Compliance Matrix: (Units=1/GPa)
#
#
# Indices 1 2 3 4 5 6 
#
# 1 0.016845 -0.006512 -0.002499 -0.001795 0.003426 0.001415
# 2 -0.006512 0.023694 -0.007538 -0.002378 0.003722 -0.008591
# 3 -0.002499 -0.007538 0.011677 0.004522 -0.006621 0.000285
# 4 -0.001795 -0.002378 0.004522 0.029304 0.000095 0.001864
# 5 0.003426 0.003722 -0.006621 0.000095 0.040904 -0.001837
# 6 0.001415 -0.008591 0.000285 0.001864 -0.001837 0.027689
#
#
# Mechanical properties :
#
#
# Convention : Reuss Voigt Hill
#
# Bulk Modulus (GPa) = 52.31119 64.07483 58.19301
# Shear Modulus (GPa) = 26.37350 32.83853 29.60601
#
# Velocity S-wave (km/s) = 3.49609 3.90113 3.70415
# Velocity P-wave (km/s) = 6.36712 7.07014 6.72782
#
# Compressibility (1/GPa) = 0.01911637
#
# Stress axis : x y z
#
# Youngs Moduli (GPa) = 59.36406 42.20520 85.63908
#
# Poissons Ratio (x) = 0.27485 0.21404
# Poissons Ratio (y) = 0.38659 0.64556
# Poissons Ratio (z) = 0.14837 0.31815
#
# Static dielectric constant tensor:
#      x y z
#    x 3.879380 0.121570 0.255900 
#    y 0.121570 4.005850 -0.231870 
#    z 0.255900 -0.231870 4.888940 
# 
# 
# High freq. dielectric constant tensor:
#      x y z
#    x 1.835290 0.003560 0.017280 
#    y 0.003560 1.837190 0.005210 
#    z 0.017280 0.005210 1.857040 
# 
# From -- ./inp_files/475435.got.cif
#   From: 2010.06.25/outbox.cif.g09.slc.cpg/sg2_238_cif.got.tgz:475435.got - 2010.06.27 13:26:56.
