data_PCOD8011572
_publ_section_title
;
Structure prediction by ZEFSAII (Michael W. Deem and Ramdas Pophale) SiO2 
 PCOD8011572
Probable space group: P -1
;
_chemical_formula_sum "Si O2"
_cell_formula_units_Z 14
_cell_length_a 10.657035
_cell_length_b 10.783670
_cell_length_c 12.106016
_cell_angle_alpha 109.936649
_cell_angle_beta 35.453812
_cell_angle_gamma 125.195146
_cell_volume 634.765078
_symmetry_space_group_name_H-M "P -1"
_symmetry_group_IT_number 2
_symmetry_cell_setting 'triclinic'
loop_
_space_group_symop_operation_xyz
x,y,z
-x,-y,-z
loop_
_atom_site_type_symbol
_atom_site_label
_atom_site_fract_x
_atom_site_fract_y
_atom_site_fract_z
Si Si1 0.249136 0.028166 0.268706
Si Si2 0.513452 0.576247 0.319833
Si Si3 0.921584 0.216794 0.052930
Si Si4 0.429385 0.088727 0.921953
Si Si5 0.063547 0.582183 0.724021
Si Si6 0.348046 0.558489 0.192722
Si Si7 0.287084 0.633704 0.899601
O O1 0.226775 0.032276 0.152788
O O2 0.497912 0.186900 0.179330
O O3 0.000000 0.000000 0.500000
O O4 0.306665 0.895850 0.222338
O O5 0.352826 0.518898 0.304171
O O6 0.569610 0.445835 0.279597
O O7 0.333464 0.592674 0.541052
O O8 0.789436 0.743688 0.160543
O O9 0.908719 0.358001 0.042813
O O10 0.886434 0.250801 0.216608
O O11 0.713093 0.039739 0.113109
O O12 0.508772 0.254343 0.866592
O O13 0.948736 0.543908 0.669944
O O14 0.841850 0.438810 0.912190
O O15 0.500000 0.500000 0.000000
#
# Coordination Sequence:
#
# PCOD8011572 Si02
#       7
#     2   2   2   2   2   2   2
#     4  10  21  39  63  93 125 161 208 254 308 368
#     4  11  23  38  65  91 122 167 209 253 305 364
#     4  10  23  41  60  93 128 161 204 255 316 367
#     4  10  23  41  63  91 128 162 203 258 311 366
#     4  11  22  40  63  92 123 161 212 253 302 368
#     4  12  22  44  66  89 123 168 212 256 304 368
#     4  10  21  39  62  94 124 161 203 258 309 364
#
# _framework density 22.055402999999998
#
# number of rings (size 3 to 8) (size 9 to 14) (size 15 to 20)
#    0.000    1.429    4.286    2.143    2.000    5.143 
#    2.571    0.714    0.000    0.000    0.000    0.000 
#    0.000    0.000    0.000    0.000    0.000    0.000 
#
# Total GULP energy -173563.955092 kJ/mol
# GULP energy per Si atom -12397.425364 kJ/mol
# Density = 2.200520 g / cm^3
# Si number density = 22.055403 Si / 1000 Ang^3
#
#
#
# Elastic Constant Matrix: (Units=GPa)
#
#
# Indices 1 2 3 4 5 6 
#
# 1 76.1041 26.4498 9.2432 -5.5510 -13.9494 17.6206
# 2 26.4498 97.7955 22.2902 16.1734 -7.8677 5.2422
# 3 9.2432 22.2902 147.4645 18.9964 -20.7056 1.5382
# 4 -5.5510 16.1734 18.9964 15.9770 -0.8505 -4.8264
# 5 -13.9494 -7.8677 -20.7056 -0.8505 27.2995 1.9888
# 6 17.6206 5.2422 1.5382 -4.8264 1.9888 30.1481
#
#
#
# Elastic Compliance Matrix: (Units=1/GPa)
#
#
# Indices 1 2 3 4 5 6 
#
# 1 0.019895 -0.005852 -0.000375 0.010918 0.009223 -0.009452
# 2 -0.005852 0.014973 0.000743 -0.018693 0.001474 -0.002311
# 3 -0.000375 0.000743 0.009288 -0.012412 0.006886 -0.002825
# 4 0.010918 -0.018693 -0.012412 0.104109 -0.007045 0.014634
# 5 0.009223 0.001474 0.006886 -0.007045 0.047519 -0.010261
# 6 -0.009452 -0.002311 -0.002825 0.014634 -0.010261 0.042259
#
#
# Mechanical properties :
#
#
# Convention : Reuss Voigt Hill
#
# Bulk Modulus (GPa) = 30.13361 48.59229 39.36295
# Shear Modulus (GPa) = 19.22529 32.24363 25.73446
#
# Velocity S-wave (km/s) = 2.95563 3.82768 3.41957
# Velocity P-wave (km/s) = 5.03389 6.45094 5.78596
#
# Compressibility (1/GPa) = 0.03318553
#
# Stress axis : x y z
#
# Youngs Moduli (GPa) = 50.26468 66.78793 107.66838
#
# Poissons Ratio (x) = 0.39086 0.04041
# Poissons Ratio (y) = 0.29416 -0.07996
# Poissons Ratio (z) = 0.01886 -0.04960
#
# Static dielectric constant tensor:
#      x y z
#    x 4.232090 0.179680 -0.172200 
#    y 0.179680 3.748990 0.718190 
#    z -0.172200 0.718190 2.785340 
# 
# 
# High freq. dielectric constant tensor:
#      x y z
#    x 1.868450 0.019960 -0.017130 
#    y 0.019960 1.866100 0.016770 
#    z -0.017130 0.016770 1.860720 
# 
# From -- ./inp_files/471689.got.cif
#   From: 2010.06.25/outbox.cif.g09.slc.cpg/sg2_236_cif.got.tgz:471689.got - 2010.06.27 13:26:56.
