data_PCOD8011599
_publ_section_title
;
Structure prediction by ZEFSAII (Michael W. Deem and Ramdas Pophale) SiO2 
 PCOD8011599
Probable space group: P -1
;
_chemical_formula_sum "Si O2"
_cell_formula_units_Z 14
_cell_length_a 24.438674
_cell_length_b 9.661734
_cell_length_c 14.987942
_cell_angle_alpha 140.500789
_cell_angle_beta 17.510180
_cell_angle_gamma 141.195569
_cell_volume 659.619749
_symmetry_space_group_name_H-M "P -1"
_symmetry_group_IT_number 2
_symmetry_cell_setting 'triclinic'
loop_
_space_group_symop_operation_xyz
x,y,z
-x,-y,-z
loop_
_atom_site_type_symbol
_atom_site_label
_atom_site_fract_x
_atom_site_fract_y
_atom_site_fract_z
Si Si1 0.205719 0.539200 0.094593
Si Si2 0.790412 0.261249 0.631418
Si Si3 0.056868 0.104578 0.867329
Si Si4 0.680473 0.891344 0.263337
Si Si5 0.308166 0.457653 0.224653
Si Si6 0.309837 0.019350 0.911407
Si Si7 0.911796 0.418431 0.892107
O O1 0.274414 0.726503 0.158201
O O2 0.196749 0.651440 0.067903
O O3 0.001192 0.398066 0.364788
O O4 0.335376 0.360011 0.800663
O O5 0.662163 0.371303 0.820115
O O6 0.788391 0.007984 0.477435
O O7 0.148973 0.367433 0.863982
O O8 0.869256 0.066830 0.082471
O O9 0.000000 0.000000 0.000000
O O10 0.669131 0.879029 0.168735
O O11 0.506534 0.974256 0.616347
O O12 0.136237 0.490702 0.569435
O O13 0.500000 0.500000 0.000000
O O14 0.250391 0.201333 0.156630
O O15 0.149259 0.791641 0.051879
#
# Coordination Sequence:
#
# PCOD8011599 Si02
#       7
#     2   2   2   2   2   2   2
#     4   9  17  36  61  86 110 158 203 240 288 353
#     4   9  18  33  62  85 111 155 207 233 289 361
#     4  11  19  37  63  89 113 157 208 244 290 355
#     4  10  21  39  63  84 120 165 198 237 307 361
#     4  11  21  37  62  87 121 160 199 239 299 367
#     4  11  24  38  59  92 125 155 198 249 303 358
#     4  11  23  38  63  94 118 153 205 255 292 341
#
# _framework density 21.224349
#
# number of rings (size 3 to 8) (size 9 to 14) (size 15 to 20)
#    0.000    1.714    5.714    1.286    2.000    1.143 
#    0.000    0.000    0.000    1.714    0.000    0.000 
#    0.000    0.000    0.000    0.000    0.000    0.000 
#
# Total GULP energy -173589.793192 kJ/mol
# GULP energy per Si atom -12399.270942 kJ/mol
# Density = 2.117604 g / cm^3
# Si number density = 21.224349 Si / 1000 Ang^3
#
#
#
# Elastic Constant Matrix: (Units=GPa)
#
#
# Indices 1 2 3 4 5 6 
#
# 1 70.1536 18.6210 44.0055 14.4234 -14.4724 13.5576
# 2 18.6210 93.3077 31.6180 23.4998 6.3560 13.5240
# 3 44.0055 31.6180 69.8107 25.6673 -11.7065 0.8352
# 4 14.4234 23.4998 25.6673 33.2292 5.1279 9.4225
# 5 -14.4724 6.3560 -11.7065 5.1279 34.0923 9.2186
# 6 13.5576 13.5240 0.8352 9.4225 9.2186 25.3488
#
#
#
# Elastic Compliance Matrix: (Units=1/GPa)
#
#
# Indices 1 2 3 4 5 6 
#
# 1 0.033641 0.001993 -0.022075 0.006275 0.012169 -0.025087
# 2 0.001993 0.014640 -0.006665 -0.003938 -0.001813 -0.006534
# 3 -0.022075 -0.006665 0.040136 -0.023317 0.003350 0.021489
# 4 0.006275 -0.003938 -0.023317 0.054452 -0.007978 -0.017826
# 5 0.012169 -0.001813 0.003350 -0.007978 0.042047 -0.017977
# 6 -0.025087 -0.006534 0.021489 -0.017826 -0.017977 0.068809
#
#
# Mechanical properties :
#
#
# Convention : Reuss Voigt Hill
#
# Bulk Modulus (GPa) = 28.63424 46.86235 37.74830
# Shear Modulus (GPa) = 15.68086 27.80257 21.74171
#
# Velocity S-wave (km/s) = 2.72106 3.62323 3.20406
# Velocity P-wave (km/s) = 4.83661 6.29533 5.61355
#
# Compressibility (1/GPa) = 0.03492323
#
# Stress axis : x y z
#
# Youngs Moduli (GPa) = 29.72593 68.30449 24.91532
#
# Poissons Ratio (x) = -0.13616 0.55001
# Poissons Ratio (y) = -0.05926 0.16607
# Poissons Ratio (z) = 0.65620 0.45527
#
# Static dielectric constant tensor:
#      x y z
#    x 4.263200 0.200880 0.071140 
#    y 0.200880 3.712590 0.593500 
#    z 0.071140 0.593500 3.950340 
# 
# 
# High freq. dielectric constant tensor:
#      x y z
#    x 1.835110 0.005180 -0.004950 
#    y 0.005180 1.806110 0.037320 
#    z -0.004950 0.037320 1.825010 
# 
# From -- ./inp_files/182765.got.cif
#   From: 2010.06.25/outbox.cif.g09.slc.cpg/sg2_92_cif.got.tgz:182765.got - 2010.06.27 13:26:56.
