data_PCOD8011451
_publ_section_title
;
Structure prediction by ZEFSAII (Michael W. Deem and Ramdas Pophale) SiO2 
 PCOD8011451
Probable space group: P -1
;
_chemical_formula_sum "Si O2"
_cell_formula_units_Z 16
_cell_length_a 8.646737
_cell_length_b 14.387028
_cell_length_c 11.220634
_cell_angle_alpha 124.046504
_cell_angle_beta 138.308077
_cell_angle_gamma 77.035396
_cell_volume 720.181289
_symmetry_space_group_name_H-M "P -1"
_symmetry_group_IT_number 2
_symmetry_cell_setting 'triclinic'
loop_
_space_group_symop_operation_xyz
x,y,z
-x,-y,-z
loop_
_atom_site_type_symbol
_atom_site_label
_atom_site_fract_x
_atom_site_fract_y
_atom_site_fract_z
Si Si1 0.787009 0.064892 0.196050
Si Si2 0.954714 0.722211 0.669746
Si Si3 0.219824 0.853097 0.497684
Si Si4 0.129670 0.698171 0.997766
Si Si5 0.828247 0.050718 0.704576
Si Si6 0.502983 0.440261 0.834416
Si Si7 0.108157 0.396628 0.983557
Si Si8 0.266700 0.100068 0.253176
O O1 0.897015 0.119800 0.428196
O O2 0.837952 0.174478 0.210789
O O3 0.905735 0.969291 0.148423
O O4 0.500000 0.000000 0.000000
O O5 0.784927 0.620583 0.411117
O O6 0.763370 0.772541 0.662087
O O7 0.078777 0.667246 0.805869
O O8 0.069544 0.717374 0.274619
O O9 0.516164 0.880234 0.704947
O O10 0.213783 0.945965 0.457694
O O11 0.351957 0.654427 0.139117
O O12 0.885044 0.639583 0.899490
O O13 0.189529 0.838762 0.150500
O O14 0.641212 0.936294 0.589752
O O15 0.500000 0.500000 0.000000
O O16 0.624941 0.547298 0.885624
O O17 0.000000 0.500000 0.000000
O O18 0.000000 0.000000 0.000000
#
# Coordination Sequence:
#
# PCOD8011451 Si02
#       8
#     2   2   2   2   2   2   2   2
#     4  11  25  41  57  95 137 169 201 262 323 381
#     4  11  23  42  66  93 129 172 210 256 329 378
#     4  11  21  38  63  89 124 172 211 261 320 378
#     4  10  22  42  67  96 124 166 219 257 317 394
#     4  10  21  39  61  92 125 167 216 250 312 392
#     4  11  24  45  68  94 129 164 214 275 324 372
#     4   9  20  41  64  93 123 160 217 273 312 365
#     4  11  20  36  62  94 131 164 205 259 312 378
#
# _framework density 22.216628
#
# number of rings (size 3 to 8) (size 9 to 14) (size 15 to 20)
#    0.000    1.500    1.250    5.250    0.000    2.000 
#    6.750    0.000    0.000    0.000    0.000    0.000 
#    0.000    0.000    0.000    0.000    0.000    0.000 
#
# Total GULP energy -198209.409964 kJ/mol
# GULP energy per Si atom -12388.088123 kJ/mol
# Density = 2.216606 g / cm^3
# Si number density = 22.216628 Si / 1000 Ang^3
#
#
#
# Elastic Constant Matrix: (Units=GPa)
#
#
# Indices 1 2 3 4 5 6 
#
# 1 112.5099 26.5528 31.8302 3.9892 0.2070 16.8990
# 2 26.5528 77.3417 30.9851 -1.9734 2.1941 16.6400
# 3 31.8302 30.9851 107.8046 4.9932 0.6313 13.9419
# 4 3.9892 -1.9734 4.9932 26.4473 13.2624 -12.5830
# 5 0.2070 2.1941 0.6313 13.2624 40.5376 4.8533
# 6 16.8990 16.6400 13.9419 -12.5830 4.8533 39.7295
#
#
#
# Elastic Compliance Matrix: (Units=1/GPa)
#
#
# Indices 1 2 3 4 5 6 
#
# 1 0.010795 -0.002147 -0.001713 -0.004978 0.002309 -0.004950
# 2 -0.002147 0.016008 -0.003390 0.000175 -0.000320 -0.004507
# 3 -0.001713 -0.003390 0.011451 -0.004955 0.002077 -0.003693
# 4 -0.004978 0.000175 -0.004955 0.064666 -0.024324 0.027235
# 5 0.002309 -0.000320 0.002077 -0.024324 0.034211 -0.013460
# 6 -0.004950 -0.004507 -0.003693 0.027235 -0.013460 0.040730
#
#
# Mechanical properties :
#
#
# Convention : Reuss Voigt Hill
#
# Bulk Modulus (GPa) = 42.09944 52.93251 47.51597
# Shear Modulus (GPa) = 24.96492 35.22877 30.09685
#
# Velocity S-wave (km/s) = 3.35581 3.98640 3.68462
# Velocity P-wave (km/s) = 5.83146 6.71311 6.28776
#
# Compressibility (1/GPa) = 0.02375328
#
# Stress axis : x y z
#
# Youngs Moduli (GPa) = 92.63309 62.46704 87.32691
#
# Poissons Ratio (x) = 0.13415 0.14959
# Poissons Ratio (y) = 0.19893 0.29607
# Poissons Ratio (z) = 0.15868 0.21179
#
# Static dielectric constant tensor:
#      x y z
#    x 4.585020 0.447010 -0.044180 
#    y 0.447010 4.237690 0.042460 
#    z -0.044180 0.042460 4.028180 
# 
# 
# High freq. dielectric constant tensor:
#      x y z
#    x 1.889620 0.015790 -0.009760 
#    y 0.015790 1.871670 -0.000070 
#    z -0.009760 -0.000070 1.860300 
# 
# From -- ./inp_files/399490.got.cif
#   From: 2010.06.25/outbox.cif.g09.slc.cpg/sg2_200_cif.got.tgz:399490.got - 2010.06.27 13:26:56.
