data_PCOD8011275
_publ_section_title
;
Structure prediction by ZEFSAII (Michael W. Deem and Ramdas Pophale) SiO2 
 PCOD8011275
Probable space group: P -1
;
_chemical_formula_sum "Si O2"
_cell_formula_units_Z 16
_cell_length_a 15.740953
_cell_length_b 9.662754
_cell_length_c 12.100284
_cell_angle_alpha 97.713165
_cell_angle_beta 27.113796
_cell_angle_gamma 87.745977
_cell_volume 778.147173
_symmetry_space_group_name_H-M "P -1"
_symmetry_group_IT_number 2
_symmetry_cell_setting 'triclinic'
loop_
_space_group_symop_operation_xyz
x,y,z
-x,-y,-z
loop_
_atom_site_type_symbol
_atom_site_label
_atom_site_fract_x
_atom_site_fract_y
_atom_site_fract_z
Si Si1 0.469410 0.288846 0.731027
Si Si2 0.577004 0.814847 0.780790
Si Si3 0.043578 0.370516 0.140463
Si Si4 0.643809 0.845131 0.949630
Si Si5 0.108977 0.824065 0.867664
Si Si6 0.330747 0.622340 0.994933
Si Si7 0.008032 0.696233 0.190976
Si Si8 0.057278 0.631386 0.500714
O O1 0.493380 0.194622 0.805335
O O2 0.658537 0.213058 0.427367
O O3 0.275726 0.288190 0.889421
O O4 0.452159 0.455060 0.800163
O O5 0.782696 0.804405 0.484091
O O6 0.417683 0.979168 0.972118
O O7 0.615760 0.769532 0.859317
O O8 0.485245 0.706884 0.812682
O O9 0.011396 0.530561 0.139222
O O10 0.907781 0.397713 0.411777
O O11 0.982421 0.263351 0.119501
O O12 0.874595 0.785802 0.711437
O O13 0.093300 0.768008 0.002390
O O14 0.000000 0.000000 0.000000
O O15 0.138176 0.693132 0.148430
O O16 0.254719 0.635082 0.211624
O O17 0.000000 0.500000 0.500000
#
# Coordination Sequence:
#
# PCOD8011275 Si02
#       8
#     2   2   2   2   2   2   2   2
#     4  10  23  42  64  94 119 163 216 255 308 374
#     4  11  23  37  59  95 127 169 200 255 318 371
#     4  10  23  41  68  92 124 168 204 263 314 361
#     4  10  21  39  58  89 138 158 202 260 313 374
#     4  12  27  43  64  91 126 172 215 255 304 373
#     4  11  23  38  69  97 119 169 206 260 312 378
#     4  11  23  44  62  89 133 158 213 259 309 361
#     4  11  18  41  67  96 132 157 204 260 320 370
#
# _framework density 20.561662999999999
#
# number of rings (size 3 to 8) (size 9 to 14) (size 15 to 20)
#    0.000    1.250    5.000    1.875    1.750    6.500 
#    0.000    0.000    0.000    0.000    0.000    0.000 
#    0.000    0.000    0.000    0.000    0.000    0.000 
#
# Total GULP energy -198465.716366 kJ/mol
# GULP energy per Si atom -12404.107273 kJ/mol
# Density = 2.051486 g / cm^3
# Si number density = 20.561663 Si / 1000 Ang^3
#
#
#
# Elastic Constant Matrix: (Units=GPa)
#
#
# Indices 1 2 3 4 5 6 
#
# 1 49.7249 26.0114 12.8180 -8.9128 10.2269 -0.8931
# 2 26.0114 66.9859 15.5021 -1.1713 8.5771 -10.8005
# 3 12.8180 15.5021 128.0697 -7.1979 14.7622 -16.4131
# 4 -8.9128 -1.1713 -7.1979 25.1945 -7.9783 -2.5479
# 5 10.2269 8.5771 14.7622 -7.9783 26.9123 -7.0833
# 6 -0.8931 -10.8005 -16.4131 -2.5479 -7.0833 32.9345
#
#
#
# Elastic Compliance Matrix: (Units=1/GPa)
#
#
# Indices 1 2 3 4 5 6 
#
# 1 0.028229 -0.010494 -0.000992 0.006991 -0.005786 -0.003873
# 2 -0.010494 0.020181 -0.000685 -0.002891 -0.001492 0.005448
# 3 -0.000992 -0.000685 0.008881 0.001635 -0.002819 0.003695
# 4 0.006991 -0.002891 0.001635 0.047311 0.013114 0.006537
# 5 -0.005786 -0.001492 -0.002819 0.013114 0.047693 0.009221
# 6 -0.003873 0.005448 0.003695 0.006537 0.009221 0.036375
#
#
# Mechanical properties :
#
#
# Convention : Reuss Voigt Hill
#
# Bulk Modulus (GPa) = 30.34907 39.27150 34.81028
# Shear Modulus (GPa) = 22.32215 29.70486 26.01351
#
# Velocity S-wave (km/s) = 3.29845 3.80501 3.56075
# Velocity P-wave (km/s) = 5.41280 6.20040 5.81994
#
# Compressibility (1/GPa) = 0.03294994
#
# Stress axis : x y z
#
# Youngs Moduli (GPa) = 35.42451 49.55256 112.60322
#
# Poissons Ratio (x) = 0.51999 0.11167
# Poissons Ratio (y) = 0.37173 0.07712
# Poissons Ratio (z) = 0.03513 0.03394
#
# Static dielectric constant tensor:
#      x y z
#    x 3.761970 -0.217710 0.148430 
#    y -0.217710 3.719230 -0.106120 
#    z 0.148430 -0.106120 4.299050 
# 
# 
# High freq. dielectric constant tensor:
#      x y z
#    x 1.798570 -0.011030 -0.000190 
#    y -0.011030 1.803960 0.002620 
#    z -0.000190 0.002620 1.812410 
# 
# From -- ./inp_files/398777.got.cif
#   From: 2010.06.25/outbox.cif.g09.slc.cpg/sg2_200_cif.got.tgz:398777.got - 2010.06.27 13:26:56.
