data_PCOD8011195
_publ_section_title
;
Structure prediction by ZEFSAII (Michael W. Deem and Ramdas Pophale) SiO2 
 PCOD8011195
Probable space group: P -1
;
_chemical_formula_sum "Si O2"
_cell_formula_units_Z 14
_cell_length_a 16.198012
_cell_length_b 10.138304
_cell_length_c 8.901951
_cell_angle_alpha 118.562995
_cell_angle_beta 148.931209
_cell_angle_gamma 59.111401
_cell_volume 644.987799
_symmetry_space_group_name_H-M "P -1"
_symmetry_group_IT_number 2
_symmetry_cell_setting 'triclinic'
loop_
_space_group_symop_operation_xyz
x,y,z
-x,-y,-z
loop_
_atom_site_type_symbol
_atom_site_label
_atom_site_fract_x
_atom_site_fract_y
_atom_site_fract_z
Si Si1 0.001074 0.889002 0.744352
Si Si2 0.185588 0.952018 0.703814
Si Si3 0.474557 0.068738 0.333332
Si Si4 0.176927 0.441038 0.313751
Si Si5 0.802260 0.886537 0.713899
Si Si6 0.516555 0.588048 0.420032
Si Si7 0.773714 0.348065 0.231294
O O1 0.942417 0.830540 0.777408
O O2 0.066528 0.737427 0.661767
O O3 0.841441 0.012335 0.496266
O O4 0.149015 0.977182 0.037685
O O5 0.270630 0.776222 0.786481
O O6 0.000000 0.000000 0.500000
O O7 0.295330 0.065441 0.993852
O O8 0.495744 0.240252 0.451973
O O9 0.500000 0.000000 0.500000
O O10 0.621123 0.960430 0.404216
O O11 0.209389 0.256661 0.277232
O O12 0.311005 0.483306 0.432854
O O13 0.186184 0.513727 0.532949
O O14 0.000000 0.500000 0.000000
O O15 0.500000 0.500000 0.500000
O O16 0.374245 0.581241 0.073626
#
# Coordination Sequence:
#
# PCOD8011195 Si02
#       7
#     2   2   2   2   2   2   2
#     4  10  23  40  71 106 140 183 238 306 346 426
#     4  10  21  38  70 100 132 180 239 285 353 422
#     4  12  21  43  73  95 133 187 239 287 350 425
#     4  12  28  43  73 105 146 194 241 292 371 435
#     4  11  23  44  70 103 143 187 245 289 361 427
#     4  12  28  46  72 108 146 192 242 301 363 423
#     4  11  23  46  69  99 152 188 229 299 359 425
#
# _framework density 21.705836999999999
#
# number of rings (size 3 to 8) (size 9 to 14) (size 15 to 20)
#    0.000    0.857    4.286    2.143    6.000    3.429 
#    0.000    0.000    0.000    0.000    0.000    0.000 
#    0.000    0.000    0.000    0.000    0.000    0.000 
#
# Total GULP energy -173550.629934 kJ/mol
# GULP energy per Si atom -12396.473567 kJ/mol
# Density = 2.165643 g / cm^3
# Si number density = 21.705837 Si / 1000 Ang^3
#
#
#
# Elastic Constant Matrix: (Units=GPa)
#
#
# Indices 1 2 3 4 5 6 
#
# 1 115.5248 45.9812 47.7632 -1.6917 8.6999 -1.5846
# 2 45.9812 105.3361 47.6266 -5.0811 4.6967 5.5746
# 3 47.7632 47.6266 165.5041 -16.8434 11.6648 2.3441
# 4 -1.6917 -5.0811 -16.8434 39.7874 2.0491 -2.4736
# 5 8.6999 4.6967 11.6648 2.0491 24.3935 -4.7156
# 6 -1.5846 5.5746 2.3441 -2.4736 -4.7156 39.6707
#
#
#
# Elastic Compliance Matrix: (Units=1/GPa)
#
#
# Indices 1 2 3 4 5 6 
#
# 1 0.011235 -0.003970 -0.002043 -0.000737 -0.002042 0.000839
# 2 -0.003970 0.012409 -0.002352 0.000321 -0.000218 -0.001769
# 3 -0.002043 -0.002352 0.007828 0.003053 -0.002889 -0.000367
# 4 -0.000737 0.000321 0.003053 0.026669 -0.003303 0.001015
# 5 -0.002042 -0.000218 -0.002889 -0.003303 0.044428 0.005195
# 6 0.000839 -0.001769 -0.000367 0.001015 0.005195 0.026192
#
#
# Mechanical properties :
#
#
# Convention : Reuss Voigt Hill
#
# Bulk Modulus (GPa) = 67.83112 74.34521 71.08816
# Shear Modulus (GPa) = 33.24374 37.10325 35.17349
#
# Velocity S-wave (km/s) = 3.91776 4.13893 4.02986
# Velocity P-wave (km/s) = 7.19605 7.56086 7.38071
#
# Compressibility (1/GPa) = 0.01474250
#
# Stress axis : x y z
#
# Youngs Moduli (GPa) = 89.00528 80.58991 127.74483
#
# Poissons Ratio (x) = 0.31991 0.26099
# Poissons Ratio (y) = 0.35331 0.30047
# Poissons Ratio (z) = 0.18184 0.18955
#
# Static dielectric constant tensor:
#      x y z
#    x 4.135660 0.070150 0.015580 
#    y 0.070150 3.910280 -0.264070 
#    z 0.015580 -0.264070 4.308620 
# 
# 
# High freq. dielectric constant tensor:
#      x y z
#    x 1.851360 0.000660 0.005540 
#    y 0.000660 1.849380 -0.007410 
#    z 0.005540 -0.007410 1.861240 
# 
# From -- ./inp_files/207135.got.cif
#   From: 2010.06.25/outbox.cif.g09.slc.cpg/sg2_104_cif.got.tgz:207135.got - 2010.06.27 13:26:56.
