data_PCOD8011199
_publ_section_title
;
Structure prediction by ZEFSAII (Michael W. Deem and Ramdas Pophale) SiO2 
 PCOD8011199
Probable space group: P -1
;
_chemical_formula_sum "Si O2"
_cell_formula_units_Z 16
_cell_length_a 15.439671
_cell_length_b 9.891853
_cell_length_c 18.029862
_cell_angle_alpha 47.005849
_cell_angle_beta 142.735169
_cell_angle_gamma 154.861552
_cell_volume 700.297989
_symmetry_space_group_name_H-M "P -1"
_symmetry_group_IT_number 2
_symmetry_cell_setting 'triclinic'
loop_
_space_group_symop_operation_xyz
x,y,z
-x,-y,-z
loop_
_atom_site_type_symbol
_atom_site_label
_atom_site_fract_x
_atom_site_fract_y
_atom_site_fract_z
Si Si1 0.611030 0.326021 0.870833
Si Si2 0.881820 0.265355 0.440952
Si Si3 0.629728 0.659831 0.108136
Si Si4 0.768945 0.845284 0.857005
Si Si5 0.149433 0.057044 0.352841
Si Si6 0.745988 0.135898 0.618052
Si Si7 0.194021 0.818156 0.876212
Si Si8 0.663503 0.354762 0.730991
O O1 0.709114 0.639094 0.826654
O O2 0.674735 0.308244 0.841719
O O3 0.316411 0.012127 0.808916
O O4 0.753629 0.343795 0.018976
O O5 0.000000 0.500000 0.500000
O O6 0.020863 0.476303 0.381500
O O7 0.915431 0.085494 0.554398
O O8 0.588048 0.999639 0.338707
O O9 0.458483 0.377593 0.157499
O O10 0.680327 0.926676 0.067023
O O11 0.500000 0.500000 0.000000
O O12 0.896257 0.842542 0.217783
O O13 0.802734 0.083243 0.753098
O O14 0.000000 0.000000 0.000000
O O15 0.339546 0.426332 0.355597
O O16 0.286281 0.043107 0.404195
O O17 0.500000 0.000000 0.500000
O O18 0.897173 0.526756 0.779461
#
# Coordination Sequence:
#
# PCOD8011199 Si02
#       8
#     2   2   2   2   2   2   2   2
#     4  10  21  42  62 102 139 177 234 284 339 429
#     4  10  24  43  65  96 130 175 230 286 335 418
#     4  10  21  38  70 102 137 181 224 285 354 418
#     4  11  23  41  67 101 142 180 224 291 346 406
#     4  10  21  43  66  95 133 176 234 281 341 422
#     4  11  23  44  66  95 139 179 227 287 349 413
#     4   9  22  39  66  99 140 177 230 280 347 417
#     4  11  21  42  72  92 136 183 229 286 357 406
#
# _framework density 22.847415999999999
#
# number of rings (size 3 to 8) (size 9 to 14) (size 15 to 20)
#    0.000    1.750    1.250    2.250    1.750    5.000 
#   13.500    0.625    0.000    0.000    0.000    0.000 
#    0.000    0.000    0.000    0.000    0.000    0.000 
#
# Total GULP energy -198278.968798 kJ/mol
# GULP energy per Si atom -12392.435550 kJ/mol
# Density = 2.279541 g / cm^3
# Si number density = 22.847416 Si / 1000 Ang^3
#
#
#
# Elastic Constant Matrix: (Units=GPa)
#
#
# Indices 1 2 3 4 5 6 
#
# 1 58.4733 28.6158 24.9423 1.6571 22.2978 16.1870
# 2 28.6158 149.7171 67.0742 5.6986 5.8905 24.9330
# 3 24.9423 67.0742 123.9679 -1.3074 10.9791 16.9055
# 4 1.6571 5.6986 -1.3074 47.9258 7.3160 2.1424
# 5 22.2978 5.8905 10.9791 7.3160 37.2217 3.1920
# 6 16.1870 24.9330 16.9055 2.1424 3.1920 29.9849
#
#
#
# Elastic Compliance Matrix: (Units=1/GPa)
#
#
# Indices 1 2 3 4 5 6 
#
# 1 0.027545 -0.002314 -0.001470 0.002078 -0.015196 -0.010647
# 2 -0.002314 0.009829 -0.004404 -0.001276 0.001770 -0.004538
# 3 -0.001470 -0.004404 0.011154 0.001232 -0.001806 -0.001729
# 4 0.002078 -0.001276 0.001232 0.021906 -0.005564 -0.001728
# 5 -0.015196 0.001770 -0.001806 -0.005564 0.036954 0.004214
# 6 -0.010647 -0.004538 -0.001729 -0.001728 0.004214 0.043521
#
#
# Mechanical properties :
#
#
# Convention : Reuss Voigt Hill
#
# Bulk Modulus (GPa) = 31.10264 63.71366 47.40815
# Shear Modulus (GPa) = 28.08939 37.12821 32.60880
#
# Velocity S-wave (km/s) = 3.51013 4.03556 3.78198
# Velocity P-wave (km/s) = 5.48368 7.04709 6.31396
#
# Compressibility (1/GPa) = 0.03215162
#
# Stress axis : x y z
#
# Youngs Moduli (GPa) = 36.30430 101.73673 89.65466
#
# Poissons Ratio (x) = 0.23543 0.13181
# Poissons Ratio (y) = 0.08401 0.39484
# Poissons Ratio (z) = 0.05337 0.44804
#
# Static dielectric constant tensor:
#      x y z
#    x 4.020670 0.352260 0.001020 
#    y 0.352260 4.890800 -0.402630 
#    z 0.001020 -0.402630 4.075400 
# 
# 
# High freq. dielectric constant tensor:
#      x y z
#    x 1.886630 0.014480 0.005480 
#    y 0.014480 1.922500 -0.010800 
#    z 0.005480 -0.010800 1.890350 
# 
# From -- ./inp_files/600064.got.cif
#   From: 2010.06.25/outbox.cif.g09.slc.cpg/sg2_301_cif.got.tgz:600064.got - 2010.06.27 13:26:56.
