data_PCOD8011182
_publ_section_title
;
Structure prediction by ZEFSAII (Michael W. Deem and Ramdas Pophale) SiO2 
 PCOD8011182
Probable space group: P -1
;
_chemical_formula_sum "Si O2"
_cell_formula_units_Z 16
_cell_length_a 19.302324
_cell_length_b 8.279945
_cell_length_c 16.264053
_cell_angle_alpha 118.321564
_cell_angle_beta 159.479292
_cell_angle_gamma 70.899671
_cell_volume 742.134295
_symmetry_space_group_name_H-M "P -1"
_symmetry_group_IT_number 2
_symmetry_cell_setting 'triclinic'
loop_
_space_group_symop_operation_xyz
x,y,z
-x,-y,-z
loop_
_atom_site_type_symbol
_atom_site_label
_atom_site_fract_x
_atom_site_fract_y
_atom_site_fract_z
Si Si1 0.806900 0.281435 0.389387
Si Si2 0.224333 0.992155 0.269137
Si Si3 0.784057 0.991569 0.545299
Si Si4 0.566414 0.544778 0.178678
Si Si5 0.647382 0.014853 0.000977
Si Si6 0.332514 0.701195 0.205193
Si Si7 0.810497 0.368935 0.149204
Si Si8 0.124578 0.251516 0.870702
O O1 0.636563 0.373599 0.253574
O O2 0.962682 0.452284 0.543258
O O3 0.932287 0.235631 0.592293
O O4 0.691334 0.080968 0.160910
O O5 0.411968 0.194611 0.496514
O O6 0.237847 0.959777 0.372945
O O7 0.247564 0.805886 0.205965
O O8 0.000000 0.000000 0.000000
O O9 0.601878 0.040273 0.306015
O O10 0.016742 0.128651 0.802695
O O11 0.755744 0.762574 0.447056
O O12 0.500000 0.500000 0.000000
O O13 0.370595 0.542457 0.015518
O O14 0.714832 0.831112 0.015282
O O15 0.793224 0.193835 0.148830
O O16 0.214953 0.711398 0.991890
O O17 0.268858 0.475525 0.109496
#
# Coordination Sequence:
#
# PCOD8011182 Si02
#       8
#     2   2   2   2   2   2   2   2
#     4  11  23  38  61  98 132 182 222 254 312 385
#     4  11  25  45  77  94 121 163 227 279 328 388
#     4  11  25  44  65 101 130 175 216 275 331 382
#     4  11  21  39  65  97 128 177 225 268 302 379
#     4  11  22  41  61  94 142 178 214 259 317 389
#     4  10  24  47  65 101 122 166 220 273 330 387
#     4  10  21  38  69  91 128 174 224 265 311 378
#     4  11  27  39  66  97 142 171 208 269 333 391
#
# _framework density 21.559441
#
# number of rings (size 3 to 8) (size 9 to 14) (size 15 to 20)
#    0.000    1.250    5.000    1.500    7.000    4.000 
#    0.000    1.250    0.000    0.000    0.000    0.000 
#    0.000    0.000    0.000    0.000    0.000    0.000 
#
# Total GULP energy -198457.600709 kJ/mol
# GULP energy per Si atom -12403.600044 kJ/mol
# Density = 2.151037 g / cm^3
# Si number density = 21.559441 Si / 1000 Ang^3
#
#
#
# Elastic Constant Matrix: (Units=GPa)
#
#
# Indices 1 2 3 4 5 6 
#
# 1 91.8797 34.6866 31.2864 24.5246 -4.7401 -22.0252
# 2 34.6866 119.5186 42.9796 10.4894 -4.1808 -29.3084
# 3 31.2864 42.9796 103.7593 10.7366 -5.2466 -18.2309
# 4 24.5246 10.4894 10.7366 30.2943 -5.4978 -5.2091
# 5 -4.7401 -4.1808 -5.2466 -5.4978 27.3396 6.2320
# 6 -22.0252 -29.3084 -18.2309 -5.2091 6.2320 24.2174
#
#
#
# Elastic Compliance Matrix: (Units=1/GPa)
#
#
# Indices 1 2 3 4 5 6 
#
# 1 0.017648 -0.000529 -0.001881 -0.011813 -0.002516 0.012100
# 2 -0.000529 0.012778 -0.002811 -0.001086 -0.001886 0.013117
# 3 -0.001881 -0.002811 0.012152 -0.001086 0.000522 0.003668
# 4 -0.011813 -0.001086 -0.001086 0.043784 0.007617 -0.005417
# 5 -0.002516 -0.001886 0.000522 0.007617 0.040435 -0.012945
# 6 0.012100 0.013117 0.003668 -0.005417 -0.012945 0.073099
#
#
# Mechanical properties :
#
#
# Convention : Reuss Voigt Hill
#
# Bulk Modulus (GPa) = 31.11886 59.22921 45.17404
# Shear Modulus (GPa) = 22.61912 30.11725 26.36819
#
# Velocity S-wave (km/s) = 3.24257 3.74162 3.50100
# Velocity P-wave (km/s) = 5.33708 6.79695 6.11076
#
# Compressibility (1/GPa) = 0.03213485
#
# Stress axis : x y z
#
# Youngs Moduli (GPa) = 56.66311 78.26238 82.28771
#
# Poissons Ratio (x) = 0.04144 0.15477
# Poissons Ratio (y) = 0.03000 0.23134
# Poissons Ratio (z) = 0.10658 0.22002
#
# Static dielectric constant tensor:
#      x y z
#    x 3.972910 -0.204090 0.037140 
#    y -0.204090 3.902860 0.117700 
#    z 0.037140 0.117700 3.999290 
# 
# 
# High freq. dielectric constant tensor:
#      x y z
#    x 1.850640 -0.012330 0.006100 
#    y -0.012330 1.843600 0.002090 
#    z 0.006100 0.002090 1.848960 
# 
# From -- ./inp_files/519799.got.cif
#   From: 2010.06.25/outbox.cif.g09.slc.cpg/sg2_260_cif.got.tgz:519799.got - 2010.06.27 13:26:56.
