data_PCOD8011382
_publ_section_title
;
Structure prediction by ZEFSAII (Michael W. Deem and Ramdas Pophale) SiO2 
 PCOD8011382
Probable space group: P -1
;
_chemical_formula_sum "Si O2"
_cell_formula_units_Z 12
_cell_length_a 10.960306
_cell_length_b 15.861571
_cell_length_c 21.705949
_cell_angle_alpha 19.672599
_cell_angle_beta 30.257705
_cell_angle_gamma 40.090261
_cell_volume 613.592522
_symmetry_space_group_name_H-M "P -1"
_symmetry_group_IT_number 2
_symmetry_cell_setting 'triclinic'
loop_
_space_group_symop_operation_xyz
x,y,z
-x,-y,-z
loop_
_atom_site_type_symbol
_atom_site_label
_atom_site_fract_x
_atom_site_fract_y
_atom_site_fract_z
Si Si1 0.369467 0.572566 0.831091
Si Si2 0.021066 0.216142 0.759350
Si Si3 0.587964 0.768402 0.315722
Si Si4 0.956130 0.842330 0.815744
Si Si5 0.828504 0.952116 0.668046
Si Si6 0.091321 0.238643 0.576858
O O1 0.197927 0.761094 0.790306
O O2 0.652046 0.748702 0.579895
O O3 0.342198 0.352910 0.047993
O O4 0.278763 0.418101 0.911857
O O5 0.253234 0.261060 0.673468
O O6 0.102570 0.138613 0.710183
O O7 0.956932 0.485086 0.595843
O O8 0.767688 0.994748 0.040149
O O9 0.500000 0.500000 0.500000
O O10 0.345599 0.851940 0.387341
O O11 0.004877 0.995357 0.623040
O O12 0.884074 0.022682 0.776018
O O13 0.000000 0.000000 0.500000
#
# Coordination Sequence:
#
# PCOD8011382 Si02
#       6
#     2   2   2   2   2   2
#     4   9  20  37  57  84 121 149 195 249 285 354
#     4  10  24  37  62  90 118 157 200 246 291 361
#     4  11  23  43  60  86 127 159 198 244 300 358
#     4   9  20  37  60  84 119 153 196 244 297 349
#     4  10  21  39  61  84 120 157 194 245 296 348
#     4  11  20  39  61  88 117 153 201 245 298 344
#
# _framework density 19.556953
#
# number of rings (size 3 to 8) (size 9 to 14) (size 15 to 20)
#    1.000    1.000    1.667    1.500    2.333    2.667 
#    0.000    5.000    0.000    0.000    0.000    0.000 
#    0.000    0.000    0.000    0.000    0.000    0.000 
#
# Total GULP energy -148683.683279 kJ/mol
# GULP energy per Si atom -12390.306940 kJ/mol
# Density = 1.951244 g / cm^3
# Si number density = 19.556953 Si / 1000 Ang^3
#
#
#
# Elastic Constant Matrix: (Units=GPa)
#
#
# Indices 1 2 3 4 5 6 
#
# 1 87.0979 54.1853 37.1394 -8.5386 13.2349 16.1210
# 2 54.1853 87.2976 52.9678 -0.6204 1.1568 6.8311
# 3 37.1394 52.9678 79.0558 -2.3434 4.8248 15.8205
# 4 -8.5386 -0.6204 -2.3434 27.5199 7.6798 -3.3395
# 5 13.2349 1.1568 4.8248 7.6798 25.6934 -0.6164
# 6 16.1210 6.8311 15.8205 -3.3395 -0.6164 42.5663
#
#
#
# Elastic Compliance Matrix: (Units=1/GPa)
#
#
# Indices 1 2 3 4 5 6 
#
# 1 0.025743 -0.015937 0.001330 0.011462 -0.016387 -0.007024
# 2 -0.015937 0.029406 -0.014446 -0.008158 0.012186 0.006222
# 3 0.001330 -0.014446 0.023472 0.002781 -0.005436 -0.006770
# 4 0.011462 -0.008158 0.002781 0.045327 -0.019627 -0.000794
# 5 -0.016387 0.012186 -0.005436 -0.019627 0.053832 0.005511
# 6 -0.007024 0.006222 -0.006770 -0.000794 0.005511 0.027688
#
#
# Mechanical properties :
#
#
# Convention : Reuss Voigt Hill
#
# Bulk Modulus (GPa) = 48.74493 60.22627 54.48560
# Shear Modulus (GPa) = 18.49023 26.43317 22.46170
#
# Velocity S-wave (km/s) = 3.07816 3.68040 3.39267
# Velocity P-wave (km/s) = 6.13287 6.99447 6.57780
#
# Compressibility (1/GPa) = 0.02051496
#
# Stress axis : x y z
#
# Youngs Moduli (GPa) = 38.84544 34.00694 42.60378
#
# Poissons Ratio (x) = 0.54198 -0.05666
# Poissons Ratio (y) = 0.61909 0.61544
# Poissons Ratio (z) = -0.05166 0.49125
#
# Static dielectric constant tensor:
#      x y z
#    x 3.569570 0.005510 0.080390 
#    y 0.005510 3.505800 -0.078440 
#    z 0.080390 -0.078440 3.526660 
# 
# 
# High freq. dielectric constant tensor:
#      x y z
#    x 1.760320 -0.003730 0.001310 
#    y -0.003730 1.762130 -0.017930 
#    z 0.001310 -0.017930 1.755240 
# 
# From -- ./inp_files/261248.got.cif
#   From: 2010.06.25/outbox.cif.g09.slc.cpg/sg2_131_cif.got.tgz:261248.got - 2010.06.27 13:26:56.
