data_PCOD8011322
_publ_section_title
;
Structure prediction by ZEFSAII (Michael W. Deem and Ramdas Pophale) SiO2 
 PCOD8011322
Probable space group: P -1
;
_chemical_formula_sum "Si O2"
_cell_formula_units_Z 16
_cell_length_a 20.770646
_cell_length_b 13.767815
_cell_length_c 9.136699
_cell_angle_alpha 77.830993
_cell_angle_beta 54.075984
_cell_angle_gamma 32.313440
_cell_volume 851.166713
_symmetry_space_group_name_H-M "P -1"
_symmetry_group_IT_number 2
_symmetry_cell_setting 'triclinic'
loop_
_space_group_symop_operation_xyz
x,y,z
-x,-y,-z
loop_
_atom_site_type_symbol
_atom_site_label
_atom_site_fract_x
_atom_site_fract_y
_atom_site_fract_z
Si Si1 0.941840 0.119134 0.892302
Si Si2 0.290383 0.757438 0.028276
Si Si3 0.176939 0.541803 0.928234
Si Si4 0.861339 0.569308 0.482551
Si Si5 0.718027 0.327680 0.617152
Si Si6 0.807774 0.660727 0.855682
Si Si7 0.516694 0.026528 0.628045
Si Si8 0.922659 0.300359 0.316546
O O1 0.767041 0.255258 0.015350
O O2 0.861804 0.319096 0.965162
O O3 0.128008 0.912438 0.603693
O O4 0.000000 0.000000 0.000000
O O5 0.277624 0.712645 0.210194
O O6 0.502203 0.557761 0.770433
O O7 0.141286 0.018675 0.148186
O O8 0.410270 0.255872 0.696598
O O9 0.084714 0.655325 0.855138
O O10 0.084552 0.552409 0.133356
O O11 0.774679 0.668967 0.728858
O O12 0.866985 0.451251 0.452913
O O13 0.074875 0.371688 0.268509
O O14 0.735039 0.782189 0.473326
O O15 0.773041 0.380827 0.515831
O O16 0.597339 0.917776 0.126300
O O17 0.500000 0.000000 0.500000
#
# Coordination Sequence:
#
# PCOD8011322 Si02
#       8
#     2   2   2   2   2   2   2   2
#     4  11  20  40  62  87 129 152 196 252 297 354
#     4  10  23  41  61  93 121 160 199 245 299 364
#     4  10  22  40  56  93 120 160 203 238 304 355
#     4  11  21  42  63  87 124 161 196 257 295 352
#     4  10  23  41  61  91 121 159 203 241 301 364
#     4   9  24  39  59  91 121 155 209 240 303 358
#     4  10  21  39  60  84 124 157 200 245 295 354
#     4  11  21  39  63  89 122 160 201 245 304 351
#
# _framework density 18.797726999999998
#
# number of rings (size 3 to 8) (size 9 to 14) (size 15 to 20)
#    0.750    1.000    3.750    1.875    3.500    3.500 
#    4.500    1.250    0.000    0.000    0.000    0.000 
#    0.000    0.000    0.000    0.000    0.000    0.000 
#
# Total GULP energy -198317.715336 kJ/mol
# GULP energy per Si atom -12394.857208 kJ/mol
# Density = 1.875494 g / cm^3
# Si number density = 18.797727 Si / 1000 Ang^3
#
#
#
# Elastic Constant Matrix: (Units=GPa)
#
#
# Indices 1 2 3 4 5 6 
#
# 1 128.3474 45.1232 63.6980 9.5665 15.8525 -2.6376
# 2 45.1232 92.9291 23.6197 2.4292 -0.2123 -8.1424
# 3 63.6980 23.6197 67.8274 11.4232 7.0822 -4.0984
# 4 9.5665 2.4292 11.4232 36.1715 -3.9261 4.0796
# 5 15.8525 -0.2123 7.0822 -3.9261 27.3592 2.8914
# 6 -2.6376 -8.1424 -4.0984 4.0796 2.8914 38.1310
#
#
#
# Elastic Compliance Matrix: (Units=1/GPa)
#
#
# Indices 1 2 3 4 5 6 
#
# 1 0.017100 -0.004906 -0.013648 -0.000488 -0.006399 -0.000794
# 2 -0.004906 0.013411 -0.000325 0.000562 0.002878 0.002211
# 3 -0.013648 -0.000325 0.028908 -0.005889 -0.000716 0.002778
# 4 -0.000488 0.000562 -0.005889 0.030814 0.006693 -0.004351
# 5 -0.006399 0.002878 -0.000716 0.006693 0.041828 -0.003793
# 6 -0.000794 0.002211 0.002778 -0.004351 -0.003793 0.027694
#
#
# Mechanical properties :
#
#
# Convention : Reuss Voigt Hill
#
# Bulk Modulus (GPa) = 46.16389 61.55399 53.85894
# Shear Modulus (GPa) = 24.42193 30.77653 27.59923
#
# Velocity S-wave (km/s) = 3.60835 4.05068 3.83590
# Velocity P-wave (km/s) = 6.47856 7.39553 6.95218
#
# Compressibility (1/GPa) = 0.02166195
#
# Stress axis : x y z
#
# Youngs Moduli (GPa) = 58.47925 74.56527 34.59219
#
# Poissons Ratio (x) = 0.36579 0.47213
# Poissons Ratio (y) = 0.28688 0.01123
# Poissons Ratio (z) = 0.79815 0.02421
#
# Static dielectric constant tensor:
#      x y z
#    x 3.257960 -0.096500 0.057470 
#    y -0.096500 3.570460 0.000300 
#    z 0.057470 0.000300 3.459260 
# 
# 
# High freq. dielectric constant tensor:
#      x y z
#    x 1.725510 -0.008920 0.014410 
#    y -0.008920 1.739200 -0.005300 
#    z 0.014410 -0.005300 1.729050 
# 
# From -- ./inp_files/346914.got.cif
#   From: 2010.06.25/outbox.cif.g09.slc.cpg/sg2_174_cif.got.tgz:346914.got - 2010.06.27 13:26:56.
