data_PCOD8011480
_publ_section_title
;
Structure prediction by ZEFSAII (Michael W. Deem and Ramdas Pophale) SiO2 
 PCOD8011480
Probable space group: P -1
;
_chemical_formula_sum "Si O2"
_cell_formula_units_Z 14
_cell_length_a 5.173368
_cell_length_b 27.464395
_cell_length_c 17.039564
_cell_angle_alpha 16.860752
_cell_angle_beta 85.205660
_cell_angle_gamma 93.760386
_cell_volume 604.526525
_symmetry_space_group_name_H-M "P -1"
_symmetry_group_IT_number 2
_symmetry_cell_setting 'triclinic'
loop_
_space_group_symop_operation_xyz
x,y,z
-x,-y,-z
loop_
_atom_site_type_symbol
_atom_site_label
_atom_site_fract_x
_atom_site_fract_y
_atom_site_fract_z
Si Si1 0.064034 0.424975 0.803837
Si Si2 0.695362 0.545287 0.533003
Si Si3 0.688693 0.171276 0.518167
Si Si4 0.276635 0.646784 0.927282
Si Si5 0.873183 0.018841 0.391807
Si Si6 0.349897 0.183226 0.996815
Si Si7 0.682120 0.656634 0.689044
O O1 0.409501 0.492435 0.676811
O O2 0.969111 0.569423 0.542549
O O3 0.009788 0.415193 0.913854
O O4 0.850578 0.213357 0.095982
O O5 0.616569 0.373756 0.736832
O O6 0.796812 0.745858 0.175792
O O7 0.796718 0.310787 0.223473
O O8 0.470080 0.209092 0.521872
O O9 0.974435 0.206898 0.505435
O O10 0.515983 0.944524 0.846336
O O11 0.553212 0.833069 0.671846
O O12 0.335337 0.464174 0.202644
O O13 0.000000 0.000000 0.500000
O O14 0.092531 0.036033 0.289602
O O15 0.500000 0.500000 0.000000
#
# Coordination Sequence:
#
# PCOD8011480 Si02
#       7
#     2   2   2   2   2   2   2
#     4  11  23  39  58  86 122 155 196 236 290 359
#     4  10  24  39  59  87 114 159 203 234 285 357
#     4  11  22  37  60  89 116 152 198 247 296 350
#     4  11  21  37  61  88 126 157 188 248 306 350
#     4  11  22  37  61  96 126 155 191 239 304 368
#     4  10  21  39  62  84 120 155 195 246 292 341
#     4  10  22  36  56  88 119 152 198 238 295 360
#
# _framework density 23.158619000000002
#
# number of rings (size 3 to 8) (size 9 to 14) (size 15 to 20)
#    0.000    1.429    0.000    7.286    0.000   13.143 
#    0.000    0.000    0.000    5.143    0.000    0.000 
#    0.000    0.000    0.000    0.000    0.000    0.000 
#
# Total GULP energy -173590.574445 kJ/mol
# GULP energy per Si atom -12399.326746 kJ/mol
# Density = 2.310591 g / cm^3
# Si number density = 23.158619 Si / 1000 Ang^3
#
#
#
# Elastic Constant Matrix: (Units=GPa)
#
#
# Indices 1 2 3 4 5 6 
#
# 1 100.2084 16.1816 23.7703 -13.5522 18.4279 -11.7269
# 2 16.1816 61.6338 25.2680 -5.0913 2.4510 -19.8360
# 3 23.7703 25.2680 73.8501 -0.4274 19.2459 -17.6869
# 4 -13.5522 -5.0913 -0.4274 27.0654 -1.4936 19.8597
# 5 18.4279 2.4510 19.2459 -1.4936 33.5253 -7.2875
# 6 -11.7269 -19.8360 -17.6869 19.8597 -7.2875 36.5645
#
#
#
# Elastic Compliance Matrix: (Units=1/GPa)
#
#
# Indices 1 2 3 4 5 6 
#
# 1 0.012834 -0.002827 -0.002728 0.009086 -0.005933 -0.004854
# 2 -0.002827 0.022699 -0.004971 -0.007197 0.005471 0.014002
# 3 -0.002728 -0.004971 0.020629 -0.009856 -0.008218 0.010122
# 4 0.009086 -0.007197 -0.009856 0.074384 -0.005780 -0.047311
# 5 -0.005933 0.005471 -0.008218 -0.005780 0.038884 0.007979
# 6 -0.004854 0.014002 0.010122 -0.047311 0.007979 0.065571
#
#
# Mechanical properties :
#
#
# Convention : Reuss Voigt Hill
#
# Bulk Modulus (GPa) = 28.48060 40.68133 34.58097
# Shear Modulus (GPa) = 18.67369 30.79586 24.73478
#
# Velocity S-wave (km/s) = 2.84269 3.65057 3.27166
# Velocity P-wave (km/s) = 4.80617 5.94756 5.40706
#
# Compressibility (1/GPa) = 0.03511162
#
# Stress axis : x y z
#
# Youngs Moduli (GPa) = 77.91510 44.05408 48.47632
#
# Poissons Ratio (x) = 0.12455 0.13223
# Poissons Ratio (y) = 0.22028 0.24095
# Poissons Ratio (z) = 0.21253 0.21897
#
# Static dielectric constant tensor:
#      x y z
#    x 4.263820 -0.477020 0.481700 
#    y -0.477020 4.542820 -0.400390 
#    z 0.481700 -0.400390 4.397540 
# 
# 
# High freq. dielectric constant tensor:
#      x y z
#    x 1.917720 -0.017450 0.019170 
#    y -0.017450 1.900510 -0.010690 
#    z 0.019170 -0.010690 1.895760 
# 
# From -- ./inp_files/368402.got.cif
#   From: 2010.06.25/outbox.cif.g09.slc.cpg/sg2_185_cif.got.tgz:368402.got - 2010.06.27 13:26:56.
