data_PCOD8011927
_publ_section_title
;
Structure prediction by ZEFSAII (Michael W. Deem and Ramdas Pophale) SiO2 
 PCOD8011927
Probable space group: P -1
;
_chemical_formula_sum "Si O2"
_cell_formula_units_Z 16
_cell_length_a 7.408185
_cell_length_b 6.372256
_cell_length_c 21.327170
_cell_angle_alpha 57.908876
_cell_angle_beta 69.077578
_cell_angle_gamma 56.100060
_cell_volume 705.313446
_symmetry_space_group_name_H-M "P -1"
_symmetry_group_IT_number 2
_symmetry_cell_setting 'triclinic'
loop_
_space_group_symop_operation_xyz
x,y,z
-x,-y,-z
loop_
_atom_site_type_symbol
_atom_site_label
_atom_site_fract_x
_atom_site_fract_y
_atom_site_fract_z
Si Si1 0.447179 0.289049 0.337206
Si Si2 0.359876 0.431206 0.913714
Si Si3 0.238952 0.493163 0.783132
Si Si4 0.723989 0.378673 0.572107
Si Si5 0.793691 0.947513 0.961716
Si Si6 0.709324 0.643197 0.407268
Si Si7 0.236717 0.952244 0.904009
Si Si8 0.066409 0.257075 0.327393
O O1 0.554195 0.486961 0.274485
O O2 0.302350 0.424201 0.395964
O O3 0.289698 0.279703 0.303334
O O4 0.638970 0.971889 0.373026
O O5 0.218452 0.572625 0.846285
O O6 0.591702 0.166756 0.910202
O O7 0.420135 0.651270 0.905934
O O8 0.212951 0.348880 0.992696
O O9 0.274663 0.177179 0.824032
O O10 0.015879 0.688803 0.742921
O O11 0.806997 0.495521 0.485184
O O12 0.490484 0.406191 0.580701
O O13 0.898132 0.053636 0.611422
O O14 0.011232 0.950146 0.911177
O O15 0.745141 0.027770 0.028014
O O16 0.889597 0.497833 0.354804
#
# Coordination Sequence:
#
# PCOD8011927 Si02
#       8
#     2   2   2   2   2   2   2   2
#     4  11  25  42  64  93 131 170 213 266 322 382
#     4  10  21  39  65  89 128 161 205 258 313 366
#     4  11  26  42  58  96 131 170 211 253 313 390
#     4  10  22  43  69  96 123 167 218 272 324 373
#     4   9  20  40  62  98 116 156 212 260 304 367
#     4  10  22  43  69  95 126 163 220 275 316 380
#     4  10  21  39  65  90 128 160 207 257 310 371
#     4  11  25  42  64  93 131 169 214 267 319 385
#
# _framework density 22.684949
#
# number of rings (size 3 to 8) (size 9 to 14) (size 15 to 20)
#    0.000    1.750    1.250    1.500    5.250    0.500 
#    0.000    0.000    0.000    0.000    0.000    0.000 
#    0.000    0.000    0.000    0.000    0.000    0.000 
#
# Total GULP energy -198333.812947 kJ/mol
# GULP energy per Si atom -12395.863309 kJ/mol
# Density = 2.263332 g / cm^3
# Si number density = 22.684949 Si / 1000 Ang^3
#
#
#
# Elastic Constant Matrix: (Units=GPa)
#
#
# Indices 1 2 3 4 5 6 
#
# 1 76.0786 5.0517 37.8095 -12.3289 6.4499 5.7761
# 2 5.0517 118.2803 40.4185 -21.6678 0.7182 4.8950
# 3 37.8095 40.4185 122.3103 -22.6478 9.8012 3.5452
# 4 -12.3289 -21.6678 -22.6478 22.7841 4.4837 -6.5856
# 5 6.4499 0.7182 9.8012 4.4837 38.1902 -2.6581
# 6 5.7761 4.8950 3.5452 -6.5856 -2.6581 25.2069
#
#
#
# Elastic Compliance Matrix: (Units=1/GPa)
#
#
# Indices 1 2 3 4 5 6 
#
# 1 0.016611 0.002077 -0.004333 0.006553 -0.002653 -0.002168
# 2 0.002077 0.010906 -0.002448 0.009281 -0.001012 0.000068
# 3 -0.004333 -0.002448 0.012100 0.008460 -0.003207 0.001638
# 4 0.006553 0.009281 0.008460 0.070499 -0.010840 0.012782
# 5 -0.002653 -0.001012 -0.003207 -0.010840 0.028849 0.001466
# 6 -0.002168 0.000068 0.001638 0.012782 0.001466 0.043419
#
#
# Mechanical properties :
#
#
# Convention : Reuss Voigt Hill
#
# Bulk Modulus (GPa) = 33.10193 53.69208 43.39701
# Shear Modulus (GPa) = 24.76937 32.79553 28.78245
#
# Velocity S-wave (km/s) = 3.30795 3.80636 3.56587
# Velocity P-wave (km/s) = 5.40498 6.56032 6.01047
#
# Compressibility (1/GPa) = 0.03020971
#
# Stress axis : x y z
#
# Youngs Moduli (GPa) = 60.20105 91.69314 82.64249
#
# Poissons Ratio (x) = -0.19048 0.35806
# Poissons Ratio (y) = -0.12506 0.20235
# Poissons Ratio (z) = 0.26083 0.22451
#
# Static dielectric constant tensor:
#      x y z
#    x 4.131990 0.223510 0.112770 
#    y 0.223510 4.000550 -0.205380 
#    z 0.112770 -0.205380 4.114840 
# 
# 
# High freq. dielectric constant tensor:
#      x y z
#    x 1.900250 0.016330 0.007550 
#    y 0.016330 1.894040 -0.014390 
#    z 0.007550 -0.014390 1.887170 
# 
# From -- ./inp_files/585109.got.cif
#   From: 2010.06.25/outbox.cif.g09.slc.cpg/sg2_293_cif.got.tgz:585109.got - 2010.06.27 13:26:56.
