data_PCOD8011782
_publ_section_title
;
Structure prediction by ZEFSAII (Michael W. Deem and Ramdas Pophale) SiO2 
 PCOD8011782
Probable space group: P -1
;
_chemical_formula_sum "Si O2"
_cell_formula_units_Z 16
_cell_length_a 8.477262
_cell_length_b 22.825758
_cell_length_c 14.037240
_cell_angle_alpha 158.733090
_cell_angle_beta 66.726644
_cell_angle_gamma 123.817611
_cell_volume 746.584918
_symmetry_space_group_name_H-M "P -1"
_symmetry_group_IT_number 2
_symmetry_cell_setting 'triclinic'
loop_
_space_group_symop_operation_xyz
x,y,z
-x,-y,-z
loop_
_atom_site_type_symbol
_atom_site_label
_atom_site_fract_x
_atom_site_fract_y
_atom_site_fract_z
Si Si1 0.011245 0.592947 0.759750
Si Si2 0.621575 0.204618 0.337904
Si Si3 0.724343 0.721079 0.681033
Si Si4 0.111320 0.847599 0.674245
Si Si5 0.059388 0.210608 0.774097
Si Si6 0.490246 0.462029 0.833283
Si Si7 0.259823 0.457538 0.407620
Si Si8 0.053400 0.340840 0.757900
O O1 0.812142 0.367357 0.474128
O O2 0.930716 0.673787 0.819004
O O3 0.215701 0.602851 0.694739
O O4 0.075811 0.729549 0.044445
O O5 0.728362 0.203847 0.409366
O O6 0.467735 0.264382 0.502579
O O7 0.500000 0.000000 0.000000
O O8 0.485673 0.584124 0.492728
O O9 0.734383 0.685336 0.736017
O O10 0.881063 0.691616 0.538305
O O11 0.797776 0.941670 0.984791
O O12 0.097995 0.837513 0.547494
O O13 0.031177 0.245371 0.722645
O O14 0.292356 0.352713 0.976059
O O15 0.000000 0.000000 0.500000
O O16 0.287681 0.447982 0.823646
O O17 0.500000 0.500000 0.000000
O O18 0.000000 0.500000 0.000000
#
# Coordination Sequence:
#
# PCOD8011782 Si02
#       8
#     2   2   2   2   2   2   2   2
#     4  10  21  39  64  89 127 168 212 261 324 383
#     4  11  22  39  67  97 131 168 221 269 325 394
#     4  10  23  38  60  91 128 164 203 258 331 386
#     4  11  23  39  62  94 131 159 216 267 326 379
#     4  10  23  44  66  93 129 172 225 266 321 391
#     4   9  21  42  66  92 125 177 218 264 324 397
#     4  10  21  40  61  88 127 167 204 254 329 392
#     4  11  24  43  69  93 129 171 218 278 329 386
#
# _framework density 21.430916
#
# number of rings (size 3 to 8) (size 9 to 14) (size 15 to 20)
#    0.000    1.750    1.250    3.000    8.750    0.000 
#   13.500    0.625    0.000    0.000    0.000    0.000 
#    0.000    0.000    0.000    0.000    0.000    0.000 
#
# Total GULP energy -198248.425411 kJ/mol
# GULP energy per Si atom -12390.526588 kJ/mol
# Density = 2.138214 g / cm^3
# Si number density = 21.430916 Si / 1000 Ang^3
#
#
#
# Elastic Constant Matrix: (Units=GPa)
#
#
# Indices 1 2 3 4 5 6 
#
# 1 133.5728 32.5165 27.8112 -2.1827 -11.5714 5.5399
# 2 32.5165 76.9748 32.6991 -8.6837 -5.0990 -1.7671
# 3 27.8112 32.6991 101.3048 -10.7312 -8.5341 3.4508
# 4 -2.1827 -8.6837 -10.7312 34.1491 -3.6857 -3.3876
# 5 -11.5714 -5.0990 -8.5341 -3.6857 27.8370 -9.3754
# 6 5.5399 -1.7671 3.4508 -3.3876 -9.3754 36.5710
#
#
#
# Elastic Compliance Matrix: (Units=1/GPa)
#
#
# Indices 1 2 3 4 5 6 
#
# 1 0.008720 -0.003075 -0.001221 -0.000431 0.002365 -0.000788
# 2 -0.003075 0.016557 -0.004103 0.003146 0.001716 0.002384
# 3 -0.001221 -0.004103 0.012084 0.002960 0.002781 -0.000166
# 4 -0.000431 0.003146 0.002960 0.032233 0.007176 0.004764
# 5 0.002365 0.001716 0.002781 0.007176 0.042758 0.011089
# 6 -0.000788 0.002384 -0.000166 0.004764 0.011089 0.030878
#
#
# Mechanical properties :
#
#
# Convention : Reuss Voigt Hill
#
# Bulk Modulus (GPa) = 48.63279 55.32289 51.97784
# Shear Modulus (GPa) = 29.96112 34.29978 32.13045
#
# Velocity S-wave (km/s) = 3.74308 4.00494 3.87622
# Velocity P-wave (km/s) = 6.43607 6.87435 6.65881
#
# Compressibility (1/GPa) = 0.02056226
#
# Stress axis : x y z
#
# Youngs Moduli (GPa) = 114.68151 60.39861 82.75147
#
# Poissons Ratio (x) = 0.18572 0.10104
# Poissons Ratio (y) = 0.35264 0.33956
# Poissons Ratio (z) = 0.14002 0.24784
#
# Static dielectric constant tensor:
#      x y z
#    x 4.330320 0.149710 -0.025470 
#    y 0.149710 4.075200 -0.089950 
#    z -0.025470 -0.089950 3.623810 
# 
# 
# High freq. dielectric constant tensor:
#      x y z
#    x 1.855020 -0.002540 -0.005600 
#    y -0.002540 1.842930 -0.017000 
#    z -0.005600 -0.017000 1.816930 
# 
# From -- ./inp_files/343658.got.cif
#   From: 2010.06.25/outbox.cif.g09.slc.cpg/sg2_172_cif.got.tgz:343658.got - 2010.06.27 13:26:56.
