data_PCOD8011521
_publ_section_title
;
Structure prediction by ZEFSAII (Michael W. Deem and Ramdas Pophale) SiO2 
 PCOD8011521
Probable space group: P -1
;
_chemical_formula_sum "Si O2"
_cell_formula_units_Z 16
_cell_length_a 19.748808
_cell_length_b 20.557699
_cell_length_c 7.896504
_cell_angle_alpha 133.242308
_cell_angle_beta 43.880114
_cell_angle_gamma 159.288692
_cell_volume 785.119987
_symmetry_space_group_name_H-M "P -1"
_symmetry_group_IT_number 2
_symmetry_cell_setting 'triclinic'
loop_
_space_group_symop_operation_xyz
x,y,z
-x,-y,-z
loop_
_atom_site_type_symbol
_atom_site_label
_atom_site_fract_x
_atom_site_fract_y
_atom_site_fract_z
Si Si1 0.873174 0.772602 0.401629
Si Si2 0.720959 0.812912 0.549437
Si Si3 0.233388 0.803745 0.260639
Si Si4 0.325212 0.551053 0.971749
Si Si5 0.767935 0.320260 0.635761
Si Si6 0.199950 0.470725 0.423774
Si Si7 0.353752 0.788035 0.713497
Si Si8 0.416376 0.499218 0.286367
O O1 0.826316 0.803488 0.389599
O O2 0.708342 0.661899 0.645809
O O3 0.835492 0.639960 0.177391
O O4 0.104755 0.972190 0.400550
O O5 0.605488 0.704564 0.388417
O O6 0.556914 0.711869 0.803536
O O7 0.284641 0.779970 0.284100
O O8 0.039206 0.708052 0.476939
O O9 0.417203 0.018746 0.296423
O O10 0.211269 0.734726 0.997071
O O11 0.290550 0.625605 0.115858
O O12 0.289362 0.504825 0.150121
O O13 0.664129 0.203433 0.439704
O O14 0.000000 0.500000 0.500000
O O15 0.297846 0.642916 0.598285
O O16 0.254367 0.442106 0.414619
O O17 0.500000 0.500000 0.000000
#
# Coordination Sequence:
#
# PCOD8011521 Si02
#       8
#     2   2   2   2   2   2   2   2
#     4  10  22  41  64  90 119 159 198 250 302 362
#     4  10  22  41  63  90 123 153 203 248 299 367
#     4  11  23  43  63  89 128 166 208 259 309 364
#     4  10  21  39  62  90 117 161 202 247 303 360
#     4  11  22  41  64  90 126 167 211 255 309 365
#     4  11  23  40  63  87 123 158 201 253 302 367
#     4  10  24  40  63  92 125 166 208 259 308 363
#     4  11  23  40  64  90 123 158 197 249 306 362
#
# _framework density 20.379049999999999
#
# number of rings (size 3 to 8) (size 9 to 14) (size 15 to 20)
#    0.000    1.500    2.500    3.750    3.500    3.500 
#    4.500    0.000    0.000    0.000    0.000    0.000 
#    0.000    0.000    0.000    0.000    0.000    0.000 
#
# Total GULP energy -198373.923262 kJ/mol
# GULP energy per Si atom -12398.370204 kJ/mol
# Density = 2.033267 g / cm^3
# Si number density = 20.379050 Si / 1000 Ang^3
#
#
#
# Elastic Constant Matrix: (Units=GPa)
#
#
# Indices 1 2 3 4 5 6 
#
# 1 44.4511 -21.1720 -35.9108 -1.8242 1.8280 64.5443
# 2 -21.1720 106.4187 -1.7394 -1.5621 9.6344 57.8035
# 3 -35.9108 -1.7394 33.1873 -19.7194 24.5161 98.1619
# 4 -1.8242 -1.5621 -19.7194 16.5751 4.7508 17.5223
# 5 1.8280 9.6344 24.5161 4.7508 29.8427 -10.6796
# 6 64.5443 57.8035 98.1619 17.5223 -10.6796 -49.2684
#
#
#
# Elastic Compliance Matrix: (Units=1/GPa)
#
#
# Indices 1 2 3 4 5 6 
#
# 1 0.013323 0.000169 -0.004938 -0.009440 0.005831 0.003194
# 2 0.000169 0.008993 -0.004223 -0.004894 0.001444 0.000305
# 3 -0.004938 -0.004223 0.008333 0.002674 -0.003166 0.006817
# 4 -0.009440 -0.004894 0.002674 0.055135 -0.005913 0.008109
# 5 0.005831 0.001444 -0.003166 -0.005913 0.033926 -0.006432
# 6 0.003194 0.000305 0.006817 0.008109 -0.006432 0.002104
#
#
# Mechanical properties :
#
#
# Convention : Reuss Voigt Hill
#
# Bulk Modulus (GPa) = 78.94981 7.37920 43.16451
# Shear Modulus (GPa) = 34.71730 15.62184 25.16957
#
# Velocity S-wave (km/s) = 4.13192 2.77169 3.51817
# Velocity P-wave (km/s) = 7.84783 3.72450 6.14249
#
# Compressibility (1/GPa) = 0.01266627
#
# Stress axis : x y z
#
# Youngs Moduli (GPa) = 75.05555 111.19565 120.00630
#
# Poissons Ratio (x) = -0.01876 0.59253
# Poissons Ratio (y) = -0.01267 0.50677
# Poissons Ratio (z) = 0.37059 0.46956
#
# Static dielectric constant tensor:
#      x y z
#    x 4.490220 -0.212590 0.599350 
#    y -0.212590 3.824950 -0.106990 
#    z 0.599350 -0.106990 3.975310 
# 
# 
# High freq. dielectric constant tensor:
#      x y z
#    x 1.791580 0.000940 0.006390 
#    y 0.000940 1.802800 -0.002520 
#    z 0.006390 -0.002520 1.804480 
# 
# From -- ./inp_files/349716.got.cif
#   From: 2010.06.25/outbox.cif.g09.slc.cpg/sg2_175_cif.got.tgz:349716.got - 2010.06.27 13:26:56.
