data_PCOD8011378
_publ_section_title
;
Structure prediction by ZEFSAII (Michael W. Deem and Ramdas Pophale) SiO2 
 PCOD8011378
Probable space group: P -1
;
_chemical_formula_sum "Si O2"
_cell_formula_units_Z 12
_cell_length_a 7.030718
_cell_length_b 10.827988
_cell_length_c 12.403207
_cell_angle_alpha 96.226775
_cell_angle_beta 138.248412
_cell_angle_gamma 80.636009
_cell_volume 620.271657
_symmetry_space_group_name_H-M "P -1"
_symmetry_group_IT_number 2
_symmetry_cell_setting 'triclinic'
loop_
_space_group_symop_operation_xyz
x,y,z
-x,-y,-z
loop_
_atom_site_type_symbol
_atom_site_label
_atom_site_fract_x
_atom_site_fract_y
_atom_site_fract_z
Si Si1 0.862101 0.044845 0.557131
Si Si2 0.444876 0.599461 0.390751
Si Si3 0.277670 0.671637 0.907387
Si Si4 0.142680 0.267952 0.783934
Si Si5 0.275245 0.179496 0.376887
Si Si6 0.597773 0.543275 0.212922
O O1 0.546190 0.122498 0.413106
O O2 0.073738 0.130761 0.711865
O O3 0.839279 0.925703 0.609322
O O4 0.000000 0.000000 0.500000
O O5 0.500000 0.500000 0.500000
O O6 0.634348 0.712116 0.497856
O O7 0.525776 0.529706 0.306000
O O8 0.112272 0.656929 0.247452
O O9 0.250863 0.589739 0.780077
O O10 0.986216 0.766316 0.806628
O O11 0.559623 0.745619 0.022781
O O12 0.313472 0.582860 0.021033
O O13 0.186535 0.350617 0.702450
#
# Coordination Sequence:
#
# PCOD8011378 Si02
#       6
#     2   2   2   2   2   2
#     4  10  21  39  61  81 112 154 194 240 283 337
#     4  11  22  35  61  87 115 157 193 230 289 344
#     4   9  20  40  58  85 122 153 181 242 293 330
#     4   9  20  38  56  85 116 149 194 232 288 340
#     4  10  22  39  57  85 117 142 201 240 277 341
#     4   9  20  39  58  84 128 145 186 238 284 346
#
# _framework density 19.346363
#
# number of rings (size 3 to 8) (size 9 to 14) (size 15 to 20)
#    1.000    1.333    0.000    2.000    0.000    6.667 
#    3.000    0.833    0.000    0.000    0.000    0.000 
#    0.000    0.000    0.000    0.000    0.000    0.000 
#
# Total GULP energy -148720.462558 kJ/mol
# GULP energy per Si atom -12393.371880 kJ/mol
# Density = 1.930233 g / cm^3
# Si number density = 19.346363 Si / 1000 Ang^3
#
#
#
# Elastic Constant Matrix: (Units=GPa)
#
#
# Indices 1 2 3 4 5 6 
#
# 1 116.3412 54.0322 53.9865 9.2687 -10.2398 -8.1091
# 2 54.0322 115.9692 50.7751 11.5025 2.0783 -1.1675
# 3 53.9865 50.7751 88.5592 -5.5187 13.5540 -7.1888
# 4 9.2687 11.5025 -5.5187 33.9378 -6.0729 10.9511
# 5 -10.2398 2.0783 13.5540 -6.0729 38.6608 2.3900
# 6 -8.1091 -1.1675 -7.1888 10.9511 2.3900 30.7241
#
#
#
# Elastic Compliance Matrix: (Units=1/GPa)
#
#
# Indices 1 2 3 4 5 6 
#
# 1 0.014957 -0.002943 -0.008413 -0.004282 0.006217 0.002910
# 2 -0.002943 0.013067 -0.005970 -0.004607 -0.000111 -0.000026
# 3 -0.008413 -0.005970 0.021629 0.005913 -0.008634 0.001177
# 4 -0.004282 -0.004607 0.005913 0.038343 0.003922 -0.013894
# 5 0.006217 -0.000111 -0.008634 0.003922 0.031423 -0.004226
# 6 0.002910 -0.000026 0.001177 -0.013894 -0.004226 0.038871
#
#
# Mechanical properties :
#
#
# Convention : Reuss Voigt Hill
#
# Bulk Modulus (GPa) = 66.66092 70.93970 68.80031
# Shear Modulus (GPa) = 25.25992 31.46957 28.36474
#
# Velocity S-wave (km/s) = 3.61732 4.03754 3.83319
# Velocity P-wave (km/s) = 7.20958 7.64745 7.43174
#
# Compressibility (1/GPa) = 0.01500129
#
# Stress axis : x y z
#
# Youngs Moduli (GPa) = 66.85762 76.53077 46.23447
#
# Poissons Ratio (x) = 0.22521 0.38897
# Poissons Ratio (y) = 0.19675 0.27602
# Poissons Ratio (z) = 0.56247 0.45689
#
# Static dielectric constant tensor:
#      x y z
#    x 3.379020 -0.096350 0.315200 
#    y -0.096350 3.482990 0.086670 
#    z 0.315200 0.086670 3.385390 
# 
# 
# High freq. dielectric constant tensor:
#      x y z
#    x 1.744920 -0.003250 0.023380 
#    y -0.003250 1.756820 0.007490 
#    z 0.023380 0.007490 1.738950 
# 
# From -- ./inp_files/91916.got.cif
#   From: 2010.06.25/outbox.cif.g09.slc.cpg/sg2_46_cif.got.tgz:91916.got - 2010.06.27 13:26:56.
