data_PCOD8011216
_publ_section_title
;
Structure prediction by ZEFSAII (Michael W. Deem and Ramdas Pophale) SiO2 
 PCOD8011216
Probable space group: P -1
;
_chemical_formula_sum "Si O2"
_cell_formula_units_Z 16
_cell_length_a 13.274599
_cell_length_b 8.710861
_cell_length_c 15.062447
_cell_angle_alpha 84.572496
_cell_angle_beta 146.754629
_cell_angle_gamma 117.189772
_cell_volume 685.945545
_symmetry_space_group_name_H-M "P -1"
_symmetry_group_IT_number 2
_symmetry_cell_setting 'triclinic'
loop_
_space_group_symop_operation_xyz
x,y,z
-x,-y,-z
loop_
_atom_site_type_symbol
_atom_site_label
_atom_site_fract_x
_atom_site_fract_y
_atom_site_fract_z
Si Si1 0.830270 0.817876 0.262654
Si Si2 0.601606 0.563196 0.932629
Si Si3 0.033877 0.758859 0.647067
Si Si4 0.573766 0.506944 0.429938
Si Si5 0.615963 0.847081 0.796277
Si Si6 0.787374 0.344640 0.052660
Si Si7 0.279637 0.889974 0.644688
Si Si8 0.099672 0.331531 0.167901
O O1 0.675708 0.698149 0.067316
O O2 0.111749 0.908207 0.459907
O O3 0.819334 0.994764 0.254531
O O4 0.688827 0.664492 0.253659
O O5 0.789720 0.527490 0.060035
O O6 0.648391 0.706038 0.879724
O O7 0.113704 0.685706 0.785889
O O8 0.106071 0.724116 0.607475
O O9 0.733132 0.623442 0.449249
O O10 0.462845 0.263667 0.354615
O O11 0.327555 0.479647 0.255373
O O12 0.759707 0.654768 0.641149
O O13 0.379605 0.806592 0.663531
O O14 0.881492 0.092185 0.981613
O O15 0.971819 0.417703 0.099368
O O16 0.510633 0.120852 0.840615
#
# Coordination Sequence:
#
# PCOD8011216 Si02
#       8
#     2   2   2   2   2   2   2   2
#     4  11  24  37  58  89 132 160 199 251 299 374
#     4  11  24  38  57  92 126 165 200 246 309 363
#     4  11  22  39  63  88 126 164 197 252 306 366
#     4  10  21  38  71  88 117 164 212 246 313 358
#     4  11  24  41  64  94 125 162 202 258 305 363
#     4  10  22  39  63  86 124 162 203 251 305 362
#     4  11  23  37  61  92 123 161 202 245 309 369
#     4   9  21  43  65  91 118 160 210 260 302 359
#
# _framework density 23.325468000000001
#
# number of rings (size 3 to 8) (size 9 to 14) (size 15 to 20)
#    0.000    1.500    1.250    4.125    8.750    1.000 
#    0.000    0.625    2.750    4.500    0.000    0.000 
#    0.000    0.000    0.000    0.000    0.000    0.000 
#
# Total GULP energy -198242.867314 kJ/mol
# GULP energy per Si atom -12390.179207 kJ/mol
# Density = 2.327238 g / cm^3
# Si number density = 23.325468 Si / 1000 Ang^3
#
#
#
# Elastic Constant Matrix: (Units=GPa)
#
#
# Indices 1 2 3 4 5 6 
#
# 1 94.2709 -1.5458 33.8118 3.6773 25.1895 -16.9181
# 2 -1.5458 60.7145 5.9070 -17.7730 7.4054 -18.4669
# 3 33.8118 5.9070 79.7454 7.0369 24.5529 -4.4260
# 4 3.6773 -17.7730 7.0369 31.5765 -7.1167 4.3252
# 5 25.1895 7.4054 24.5529 -7.1167 48.6278 0.8962
# 6 -16.9181 -18.4669 -4.4260 4.3252 0.8962 27.5042
#
#
#
# Elastic Compliance Matrix: (Units=1/GPa)
#
#
# Indices 1 2 3 4 5 6 
#
# 1 0.016919 0.005608 -0.004214 -0.001592 -0.007982 0.014005
# 2 0.005608 0.026578 -0.003030 0.011435 -0.004102 0.019142
# 3 -0.004214 -0.003030 0.017259 -0.006562 -0.007019 -0.000589
# 4 -0.001592 0.011435 -0.006562 0.041846 0.008543 -0.001216
# 5 -0.007982 -0.004102 -0.007019 0.008543 0.030323 -0.011125
# 6 0.014005 0.019142 -0.000589 -0.001216 -0.011125 0.058284
#
#
# Mechanical properties :
#
#
# Convention : Reuss Voigt Hill
#
# Bulk Modulus (GPa) = 17.39622 34.56411 25.98017
# Shear Modulus (GPa) = 23.40357 34.64555 29.02456
#
# Velocity S-wave (km/s) = 3.17100 3.85815 3.53133
# Velocity P-wave (km/s) = 4.56960 5.89046 5.27156
#
# Compressibility (1/GPa) = 0.05748376
#
# Stress axis : x y z
#
# Youngs Moduli (GPa) = 59.10434 37.62470 57.94196
#
# Poissons Ratio (x) = -0.21100 0.24416
# Poissons Ratio (y) = -0.33145 0.17558
# Poissons Ratio (z) = 0.24905 0.11401
#
# Static dielectric constant tensor:
#      x y z
#    x 4.762090 -0.222940 0.153490 
#    y -0.222940 3.763850 0.150750 
#    z 0.153490 0.150750 4.553660 
# 
# 
# High freq. dielectric constant tensor:
#      x y z
#    x 1.941110 -0.022310 0.005360 
#    y -0.022310 1.879330 0.008830 
#    z 0.005360 0.008830 1.943390 
# 
# From -- ./inp_files/215118.got.cif
#   From: 2010.06.25/outbox.cif.g09.slc.cpg/sg2_108_cif.got.tgz:215118.got - 2010.06.27 13:26:56.
