data_PCOD8011425
_publ_section_title
;
Structure prediction by ZEFSAII (Michael W. Deem and Ramdas Pophale) SiO2 
 PCOD8011425
Probable space group: P -1
;
_chemical_formula_sum "Si O2"
_cell_formula_units_Z 16
_cell_length_a 26.240859
_cell_length_b 17.877498
_cell_length_c 11.241616
_cell_angle_alpha 152.366785
_cell_angle_beta 150.596341
_cell_angle_gamma 19.874315
_cell_volume 807.004408
_symmetry_space_group_name_H-M "P -1"
_symmetry_group_IT_number 2
_symmetry_cell_setting 'triclinic'
loop_
_space_group_symop_operation_xyz
x,y,z
-x,-y,-z
loop_
_atom_site_type_symbol
_atom_site_label
_atom_site_fract_x
_atom_site_fract_y
_atom_site_fract_z
Si Si1 0.172926 0.632511 0.314504
Si Si2 0.555597 0.940161 0.711529
Si Si3 0.990245 0.820306 0.639083
Si Si4 0.126034 0.356204 0.951937
Si Si5 0.255221 0.845982 0.200106
Si Si6 0.489732 0.855555 0.693573
Si Si7 0.058066 0.970001 0.771404
Si Si8 0.658501 0.601220 0.227198
O O1 0.354556 0.424403 0.365139
O O2 0.088302 0.764945 0.203941
O O3 0.145340 0.796283 0.590789
O O4 0.109588 0.535984 0.095426
O O5 0.468298 0.937693 0.630585
O O6 0.607994 0.752494 0.455460
O O7 0.443171 0.212083 0.823566
O O8 0.705051 0.856851 0.949070
O O9 0.896704 0.763831 0.352618
O O10 0.161807 0.576108 0.686959
O O11 0.890277 0.026151 0.827666
O O12 0.996583 0.905566 0.646479
O O13 0.000000 0.500000 0.000000
O O14 0.346365 0.903399 0.499843
O O15 0.368546 0.559755 0.036069
O O16 0.180318 0.943511 0.052768
O O17 0.500000 0.000000 0.000000
#
# Coordination Sequence:
#
# PCOD8011425 Si02
#       8
#     2   2   2   2   2   2   2   2
#     4  10  22  39  61  88 118 152 196 246 296 352
#     4  10  22  39  61  88 118 152 196 246 296 352
#     4  11  21  38  61  86 119 156 199 243 291 352
#     4  11  18  37  61  85 114 153 196 237 292 352
#     4  11  23  39  61  88 120 162 200 241 299 355
#     4  11  24  42  57  82 125 160 194 246 299 355
#     4  10  21  39  61  90 116 149 199 248 298 346
#     4  10  21  39  61  90 116 149 199 248 298 346
#
# _framework density 19.826409000000002
#
# number of rings (size 3 to 8) (size 9 to 14) (size 15 to 20)
#    0.000    1.500    2.500    5.250    0.000    6.000 
#    0.000    3.750    0.000    0.000    0.000    0.000 
#    0.000    0.000    0.000    0.000    0.000    0.000 
#
# Total GULP energy -198389.658585 kJ/mol
# GULP energy per Si atom -12399.353662 kJ/mol
# Density = 1.978128 g / cm^3
# Si number density = 19.826409 Si / 1000 Ang^3
#
#
#
# Elastic Constant Matrix: (Units=GPa)
#
#
# Indices 1 2 3 4 5 6 
#
# 1 57.7704 60.1002 22.8226 -7.7860 3.2546 -10.1060
# 2 60.1002 141.8886 45.9758 -8.3209 -4.0259 17.7599
# 3 22.8226 45.9758 108.0287 -12.0218 7.4145 2.0937
# 4 -7.7860 -8.3209 -12.0218 21.1540 -12.4228 -2.9042
# 5 3.2546 -4.0259 7.4145 -12.4228 29.6935 -3.6464
# 6 -10.1060 17.7599 2.0937 -2.9042 -3.6464 31.7693
#
#
#
# Elastic Compliance Matrix: (Units=1/GPa)
#
#
# Indices 1 2 3 4 5 6 
#
# 1 0.049097 -0.024015 0.000728 0.013526 0.000560 0.030296
# 2 -0.024015 0.020725 -0.004006 -0.004209 0.002339 -0.019078
# 3 0.000728 -0.004006 0.011378 0.004698 -0.001252 0.002007
# 4 0.013526 -0.004209 0.004698 0.072637 0.029168 0.016334
# 5 0.000560 0.002339 -0.001252 0.029168 0.047315 0.007050
# 6 0.030296 -0.019078 0.002007 0.016334 0.007050 0.053949
#
#
# Mechanical properties :
#
#
# Convention : Reuss Voigt Hill
#
# Bulk Modulus (GPa) = 37.57487 62.83165 50.20326
# Shear Modulus (GPa) = 15.69567 28.44263 22.06915
#
# Velocity S-wave (km/s) = 2.81669 3.79170 3.33996
# Velocity P-wave (km/s) = 5.43796 7.13645 6.34430
#
# Compressibility (1/GPa) = 0.02661354
#
# Stress axis : x y z
#
# Youngs Moduli (GPa) = 20.36783 48.25002 87.88940
#
# Poissons Ratio (x) = 1.15872 -0.06395
# Poissons Ratio (y) = 0.48913 0.35210
# Poissons Ratio (z) = -0.01482 0.19330
#
# Static dielectric constant tensor:
#      x y z
#    x 3.907740 0.496800 -0.165120 
#    y 0.496800 4.448780 -0.059920 
#    z -0.165120 -0.059920 3.771180 
# 
# 
# High freq. dielectric constant tensor:
#      x y z
#    x 1.770940 -0.003790 -0.008410 
#    y -0.003790 1.777670 0.002670 
#    z -0.008410 0.002670 1.781160 
# 
# From -- ./inp_files/476986.got.cif
#   From: 2010.06.25/outbox.cif.g09.slc.cpg/sg2_239_cif.got.tgz:476986.got - 2010.06.27 13:26:56.
