data_PCOD8011254
_publ_section_title
;
Structure prediction by ZEFSAII (Michael W. Deem and Ramdas Pophale) SiO2 
 PCOD8011254
Probable space group: P -1
;
_chemical_formula_sum "Si O2"
_cell_formula_units_Z 16
_cell_length_a 12.033489
_cell_length_b 5.190597
_cell_length_c 12.736112
_cell_angle_alpha 80.560312
_cell_angle_beta 115.958231
_cell_angle_gamma 86.779158
_cell_volume 698.185246
_symmetry_space_group_name_H-M "P -1"
_symmetry_group_IT_number 2
_symmetry_cell_setting 'triclinic'
loop_
_space_group_symop_operation_xyz
x,y,z
-x,-y,-z
loop_
_atom_site_type_symbol
_atom_site_label
_atom_site_fract_x
_atom_site_fract_y
_atom_site_fract_z
Si Si1 0.828475 0.760618 0.217705
Si Si2 0.148748 0.784861 0.659698
Si Si3 0.226221 0.458097 0.150625
Si Si4 0.916649 0.232831 0.761266
Si Si5 0.134848 0.063568 0.426602
Si Si6 0.140702 0.032882 0.998212
Si Si7 0.512760 0.694095 0.644685
Si Si8 0.620878 0.745075 0.456427
O O1 0.776777 0.498190 0.254219
O O2 0.783890 0.857096 0.076106
O O3 0.980388 0.686910 0.281815
O O4 0.788209 0.989982 0.269960
O O5 0.005641 0.791420 0.636391
O O6 0.156441 0.824719 0.535902
O O7 0.170058 0.515527 0.241585
O O8 0.375287 0.389271 0.221769
O O9 0.167759 0.210292 0.097149
O O10 0.192556 0.724387 0.050928
O O11 0.990803 0.072191 0.902541
O O12 0.833041 0.058066 0.669338
O O13 0.228712 0.274517 0.475094
O O14 0.567571 0.713564 0.551191
O O15 0.417355 0.478960 0.621221
O O16 0.436553 0.969651 0.632658
#
# Coordination Sequence:
#
# PCOD8011254 Si02
#       8
#     2   2   2   2   2   2   2   2
#     4   9  21  37  55  81 128 148 193 240 285 353
#     4  10  21  39  57  94 117 155 196 238 295 381
#     4  12  22  38  59  84 117 165 201 241 283 348
#     4   9  23  34  56  89 125 157 193 233 297 365
#     4  10  23  37  65  86 129 155 192 240 310 351
#     4  10  23  37  56  85 121 163 194 241 292 351
#     4  10  24  39  59  84 117 156 213 233 284 355
#     4  10  23  41  57  86 118 159 191 251 292 341
#
# _framework density 22.916556
#
# number of rings (size 3 to 8) (size 9 to 14) (size 15 to 20)
#    0.750    1.250    0.000    2.250    8.750    7.500 
#    0.000    0.000    0.000    0.000    0.000   17.500 
#    0.000    0.000    0.000    0.000    0.000    0.000 
#
# Total GULP energy -198339.521123 kJ/mol
# GULP energy per Si atom -12396.220070 kJ/mol
# Density = 2.286440 g / cm^3
# Si number density = 22.916556 Si / 1000 Ang^3
#
#
#
# Elastic Constant Matrix: (Units=GPa)
#
#
# Indices 1 2 3 4 5 6 
#
# 1 27.5519 20.1435 21.1708 17.8794 4.8872 -1.3025
# 2 20.1435 150.9748 47.7185 7.8669 5.7490 7.7313
# 3 21.1708 47.7185 89.5053 20.1394 1.2576 -7.2783
# 4 17.8794 7.8669 20.1394 41.0438 1.1731 5.9098
# 5 4.8872 5.7490 1.2576 1.1731 18.9995 3.0106
# 6 -1.3025 7.7313 -7.2783 5.9098 3.0106 16.8703
#
#
#
# Elastic Compliance Matrix: (Units=1/GPa)
#
#
# Indices 1 2 3 4 5 6 
#
# 1 0.065835 -0.006360 -0.004219 -0.027626 -0.015990 0.018708
# 2 -0.006360 0.009326 -0.005271 0.004825 0.000255 -0.008775
# 3 -0.004219 -0.005271 0.017704 -0.007624 0.000015 0.012396
# 4 -0.027626 0.004825 -0.007624 0.042433 0.007302 -0.023801
# 5 -0.015990 0.000255 0.000015 0.007302 0.058489 -0.014341
# 6 0.018708 -0.008775 0.012396 -0.023801 -0.014341 0.080986
#
#
# Mechanical properties :
#
#
# Convention : Reuss Voigt Hill
#
# Bulk Modulus (GPa) = 16.34908 49.56639 32.95773
# Shear Modulus (GPa) = 15.29694 27.31601 21.30648
#
# Velocity S-wave (km/s) = 2.58642 3.45625 3.05247
# Velocity P-wave (km/s) = 4.00862 6.13217 5.18038
#
# Compressibility (1/GPa) = 0.06116553
#
# Stress axis : x y z
#
# Youngs Moduli (GPa) = 15.18939 107.22365 56.48530
#
# Poissons Ratio (x) = 0.68194 0.23833
# Poissons Ratio (y) = 0.09660 0.29772
# Poissons Ratio (z) = 0.06409 0.56515
#
# Static dielectric constant tensor:
#      x y z
#    x 3.726120 0.055230 -0.092930 
#    y 0.055230 4.139980 0.004770 
#    z -0.092930 0.004770 4.057280 
# 
# 
# High freq. dielectric constant tensor:
#      x y z
#    x 1.863500 0.005280 -0.016170 
#    y 0.005280 1.916360 -0.007550 
#    z -0.016170 -0.007550 1.896770 
# 
# From -- ./inp_files/525266.got.cif
#   From: 2010.06.25/outbox.cif.g09.slc.cpg/sg2_263_cif.got.tgz:525266.got - 2010.06.27 13:26:56.
