data_PCOD8011509
_publ_section_title
;
Structure prediction by ZEFSAII (Michael W. Deem and Ramdas Pophale) SiO2 
 PCOD8011509
Probable space group: P -1
;
_chemical_formula_sum "Si O2"
_cell_formula_units_Z 16
_cell_length_a 8.057933
_cell_length_b 11.455133
_cell_length_c 10.379029
_cell_angle_alpha 94.743907
_cell_angle_beta 132.616220
_cell_angle_gamma 68.760334
_cell_volume 638.404722
_symmetry_space_group_name_H-M "P -1"
_symmetry_group_IT_number 2
_symmetry_cell_setting 'triclinic'
loop_
_space_group_symop_operation_xyz
x,y,z
-x,-y,-z
loop_
_atom_site_type_symbol
_atom_site_label
_atom_site_fract_x
_atom_site_fract_y
_atom_site_fract_z
Si Si1 0.053351 0.653707 0.630254
Si Si2 0.411049 0.039975 0.751382
Si Si3 0.791244 0.089437 0.802072
Si Si4 0.027134 0.077866 0.358239
Si Si5 0.125526 0.538246 0.398219
Si Si6 0.439879 0.178951 0.026964
Si Si7 0.591015 0.555460 0.932395
Si Si8 0.303010 0.622066 0.251244
O O1 0.964428 0.631863 0.438432
O O2 0.328524 0.636537 0.733416
O O3 0.915574 0.796360 0.628843
O O4 0.024499 0.553434 0.711893
O O5 0.527225 0.096612 0.708578
O O6 0.154320 0.034850 0.564013
O O7 0.614496 0.894944 0.886437
O O8 0.340942 0.136914 0.844183
O O9 0.788094 0.229724 0.817262
O O10 0.824228 0.037525 0.670103
O O11 0.000000 0.000000 0.000000
O O12 0.739329 0.115614 0.185781
O O13 0.138479 0.614084 0.284653
O O14 0.403982 0.439557 0.573712
O O15 0.304432 0.335904 0.972397
O O16 0.761947 0.446866 0.912099
O O17 0.500000 0.500000 0.000000
#
# Coordination Sequence:
#
# PCOD8011509 Si02
#       8
#     2   2   2   2   2   2   2   2
#     4   9  20  38  63  95 125 160 212 269 325 395
#     4  11  23  42  66  96 131 174 218 265 333 387
#     4  12  25  43  62  93 138 177 222 274 325 392
#     4  11  23  41  69  95 127 173 214 268 330 398
#     4   9  19  40  62  97 126 156 219 272 326 399
#     4  10  23  42  65 100 129 163 220 278 318 397
#     4  10  21  39  62  88 127 173 210 264 330 382
#     4  10  22  38  66  90 127 176 211 273 331 383
#
# _framework density 25.062470000000001
#
# number of rings (size 3 to 8) (size 9 to 14) (size 15 to 20)
#    0.000    1.750    1.250    2.250    1.750    8.000 
#    2.250    0.625    0.000    0.000    0.000    0.000 
#    0.000    0.000    0.000    0.000    0.000    0.000 
#
# Total GULP energy -198232.572013 kJ/mol
# GULP energy per Si atom -12389.535751 kJ/mol
# Density = 2.500543 g / cm^3
# Si number density = 25.062470 Si / 1000 Ang^3
#
#
#
# Elastic Constant Matrix: (Units=GPa)
#
#
# Indices 1 2 3 4 5 6 
#
# 1 99.5860 45.7151 21.1931 8.4664 -11.6900 3.5356
# 2 45.7151 199.3533 35.9614 16.8830 -27.0504 12.1918
# 3 21.1931 35.9614 92.4841 18.7959 -8.2815 -1.6709
# 4 8.4664 16.8830 18.7959 42.1752 2.4932 -9.9049
# 5 -11.6900 -27.0504 -8.2815 2.4932 41.1086 -0.7507
# 6 3.5356 12.1918 -1.6709 -9.9049 -0.7507 27.9759
#
#
#
# Elastic Compliance Matrix: (Units=1/GPa)
#
#
# Indices 1 2 3 4 5 6 
#
# 1 0.011621 -0.001987 -0.001505 -0.001224 0.001749 -0.001079
# 2 -0.001987 0.006657 -0.001314 -0.002742 0.003651 -0.003601
# 3 -0.001505 -0.001314 0.012830 -0.005033 0.001594 -0.000210
# 4 -0.001224 -0.002742 -0.005033 0.030317 -0.004792 0.011654
# 5 0.001749 0.003651 0.001594 -0.004792 0.027789 -0.002668
# 6 -0.001079 -0.003601 -0.000210 0.011654 -0.002668 0.041493
#
#
# Mechanical properties :
#
#
# Convention : Reuss Voigt Hill
#
# Bulk Modulus (GPa) = 46.51671 66.35140 56.43406
# Shear Modulus (GPa) = 33.90197 41.48885 37.69541
#
# Velocity S-wave (km/s) = 3.68190 4.07310 3.88243
# Velocity P-wave (km/s) = 6.05605 6.97510 6.53176
#
# Compressibility (1/GPa) = 0.02149765
#
# Stress axis : x y z
#
# Youngs Moduli (GPa) = 86.04800 150.22501 77.94047
#
# Poissons Ratio (x) = 0.29843 0.11728
# Poissons Ratio (y) = 0.17094 0.10242
# Poissons Ratio (z) = 0.12948 0.19740
#
# Static dielectric constant tensor:
#      x y z
#    x 4.763440 0.452120 0.264760 
#    y 0.452120 4.845900 0.176900 
#    z 0.264760 0.176900 4.883190 
# 
# 
# High freq. dielectric constant tensor:
#      x y z
#    x 1.985790 0.021540 0.008420 
#    y 0.021540 2.006110 0.003510 
#    z 0.008420 0.003510 2.015530 
# 
# From -- ./inp_files/390522.got.cif
#   From: 2010.06.25/outbox.cif.g09.slc.cpg/sg2_196_cif.got.tgz:390522.got - 2010.06.27 13:26:56.
