data_PCOD8011879
_publ_section_title
;
Structure prediction by ZEFSAII (Michael W. Deem and Ramdas Pophale) SiO2 
 PCOD8011879
Probable space group: P -1
;
_chemical_formula_sum "Si O2"
_cell_formula_units_Z 16
_cell_length_a 5.123334
_cell_length_b 9.014080
_cell_length_c 16.900816
_cell_angle_alpha 86.530958
_cell_angle_beta 71.478813
_cell_angle_gamma 104.893953
_cell_volume 706.566551
_symmetry_space_group_name_H-M "P -1"
_symmetry_group_IT_number 2
_symmetry_cell_setting 'triclinic'
loop_
_space_group_symop_operation_xyz
x,y,z
-x,-y,-z
loop_
_atom_site_type_symbol
_atom_site_label
_atom_site_fract_x
_atom_site_fract_y
_atom_site_fract_z
Si Si1 0.291672 0.134789 0.473906
Si Si2 0.315498 0.543417 0.084548
Si Si3 0.492587 0.552811 0.639540
Si Si4 0.699605 0.509021 0.179709
Si Si5 0.180643 0.130720 0.808218
Si Si6 0.434975 0.904013 0.089882
Si Si7 0.044985 0.595343 0.412286
Si Si8 0.503170 0.106185 0.618167
O O1 0.294827 0.297305 0.428583
O O2 0.379995 0.182148 0.554196
O O3 0.515072 0.067375 0.404853
O O4 0.000000 0.000000 0.500000
O O5 0.416472 0.468294 0.154508
O O6 0.383417 0.726844 0.076725
O O7 0.970171 0.473658 0.109883
O O8 0.500000 0.500000 0.000000
O O9 0.359328 0.597103 0.731994
O O10 0.685778 0.444613 0.654087
O O11 0.240954 0.454354 0.610206
O O12 0.770715 0.686986 0.193817
O O13 0.309297 0.054678 0.871338
O O14 0.308756 0.090771 0.714979
O O15 0.836252 0.056987 0.844128
O O16 0.500000 0.000000 0.000000
O O17 0.162807 0.783986 0.404967
O O18 0.000000 0.500000 0.500000
#
# Coordination Sequence:
#
# PCOD8011879 Si02
#       8
#     2   2   2   2   2   2   2   2
#     4  11  27  45  64  91 147 183 212 282 343 393
#     4  10  21  41  64  92 128 166 202 264 338 392
#     4  12  25  43  66  99 129 172 227 279 322 381
#     4  10  21  39  64  96 127 162 218 274 316 383
#     4  10  22  39  68  93 127 168 219 273 318 388
#     4  10  22  42  65  94 127 164 212 267 325 394
#     4  12  24  40  70  95 124 172 231 274 312 387
#     4  11  25  44  64  98 132 181 226 270 344 388
#
# _framework density 22.64472
#
# number of rings (size 3 to 8) (size 9 to 14) (size 15 to 20)
#    0.000    1.250    2.500    2.625    8.750    0.000 
#    4.500    0.000    0.000    0.000    0.000    0.000 
#    0.000    0.000    0.000    0.000    0.000    0.000 
#
# Total GULP energy -198308.566907 kJ/mol
# GULP energy per Si atom -12394.285432 kJ/mol
# Density = 2.259318 g / cm^3
# Si number density = 22.644720 Si / 1000 Ang^3
#
#
#
# Elastic Constant Matrix: (Units=GPa)
#
#
# Indices 1 2 3 4 5 6 
#
# 1 130.1901 38.3267 34.8861 -0.7398 -1.6508 -1.0482
# 2 38.3267 62.1354 31.5834 4.2477 7.9226 0.6215
# 3 34.8861 31.5834 141.4916 6.5281 6.1073 -6.3438
# 4 -0.7398 4.2477 6.5281 32.6653 -7.4017 -6.4049
# 5 -1.6508 7.9226 6.1073 -7.4017 31.3008 -1.4750
# 6 -1.0482 0.6215 -6.3438 -6.4049 -1.4750 28.2515
#
#
#
# Elastic Compliance Matrix: (Units=1/GPa)
#
#
# Indices 1 2 3 4 5 6 
#
# 1 0.009816 -0.005907 -0.001279 0.002036 0.002782 0.000814
# 2 -0.005907 0.022541 -0.003211 -0.004461 -0.006577 -0.002791
# 3 -0.001279 -0.003211 0.008271 -0.001205 -0.001081 0.001551
# 4 0.002036 -0.004461 -0.001205 0.035468 0.010258 0.008479
# 5 0.002782 -0.006577 -0.001081 0.010258 0.036596 0.004241
# 6 0.000814 -0.002791 0.001551 0.008479 0.004241 0.037980
#
#
# Mechanical properties :
#
#
# Convention : Reuss Voigt Hill
#
# Bulk Modulus (GPa) = 50.41569 60.37883 55.39726
# Shear Modulus (GPa) = 28.07786 33.71159 30.89473
#
# Velocity S-wave (km/s) = 3.52508 3.86258 3.69768
# Velocity P-wave (km/s) = 6.23541 6.82745 6.53814
#
# Compressibility (1/GPa) = 0.01983510
#
# Stress axis : x y z
#
# Youngs Moduli (GPa) = 101.87300 44.36451 120.89802
#
# Poissons Ratio (x) = 0.26204 0.15467
# Poissons Ratio (y) = 0.60172 0.38815
# Poissons Ratio (z) = 0.13033 0.14243
#
# Static dielectric constant tensor:
#      x y z
#    x 5.058310 -0.402570 -0.172010 
#    y -0.402570 4.170460 0.146800 
#    z -0.172010 0.146800 4.179310 
# 
# 
# High freq. dielectric constant tensor:
#      x y z
#    x 1.909380 -0.016420 -0.007880 
#    y -0.016420 1.868030 0.008230 
#    z -0.007880 0.008230 1.902890 
# 
# From -- ./inp_files/480407.got.cif
#   From: 2010.06.25/outbox.cif.g09.slc.cpg/sg2_241_cif.got.tgz:480407.got - 2010.06.27 13:26:56.
