data_PCOD8011169
_publ_section_title
;
Structure prediction by ZEFSAII (Michael W. Deem and Ramdas Pophale) SiO2 
 PCOD8011169
Probable space group: P -1
;
_chemical_formula_sum "Si O2"
_cell_formula_units_Z 16
_cell_length_a 12.291751
_cell_length_b 9.023056
_cell_length_c 9.127779
_cell_angle_alpha 82.717094
_cell_angle_beta 50.344842
_cell_angle_gamma 97.460811
_cell_volume 743.101683
_symmetry_space_group_name_H-M "P -1"
_symmetry_group_IT_number 2
_symmetry_cell_setting 'triclinic'
loop_
_space_group_symop_operation_xyz
x,y,z
-x,-y,-z
loop_
_atom_site_type_symbol
_atom_site_label
_atom_site_fract_x
_atom_site_fract_y
_atom_site_fract_z
Si Si1 0.970414 0.955010 0.260509
Si Si2 0.784424 0.406551 0.218772
Si Si3 0.749186 0.106212 0.828440
Si Si4 0.145133 0.614920 0.515854
Si Si5 0.607776 0.291474 0.124246
Si Si6 0.703673 0.837044 0.709239
Si Si7 0.958777 0.743144 0.021490
Si Si8 0.824462 0.577840 0.745651
O O1 0.824199 0.938006 0.482539
O O2 0.930357 0.832301 0.178900
O O3 0.095739 0.918410 0.255885
O O4 0.019151 0.134779 0.145588
O O5 0.763790 0.378348 0.413689
O O6 0.635215 0.319043 0.271589
O O7 0.821896 0.591514 0.128308
O O8 0.903691 0.326089 0.061055
O O9 0.776487 0.241678 0.669413
O O10 0.651990 0.951509 0.851262
O O11 0.661445 0.144613 0.038958
O O12 0.143964 0.459573 0.445975
O O13 0.976288 0.606915 0.703612
O O14 0.435658 0.264168 0.248091
O O15 0.698093 0.444097 0.943642
O O16 0.772586 0.731767 0.767146
#
# Coordination Sequence:
#
# PCOD8011169 Si02
#       8
#     2   2   2   2   2   2   2   2
#     4  11  22  41  63  99 122 156 212 271 298 366
#     4  11  21  39  65  93 126 166 205 250 315 373
#     4  11  23  42  65  92 124 165 212 262 310 360
#     4  10  21  38  68  98 120 158 213 265 306 356
#     4  11  25  42  59  91 135 170 201 250 317 383
#     4  12  24  39  65  91 128 166 212 253 315 372
#     4  10  22  37  66  93 125 157 209 261 314 352
#     4  10  21  39  64  94 126 160 209 265 305 362
#
# _framework density 21.531372000000001
#
# number of rings (size 3 to 8) (size 9 to 14) (size 15 to 20)
#    0.000    1.250    2.500    4.125    5.250    0.000 
#    0.000    5.000    5.500    0.000    0.000    0.000 
#    0.000    0.000    0.000    0.000    0.000    0.000 
#
# Total GULP energy -198434.913293 kJ/mol
# GULP energy per Si atom -12402.182081 kJ/mol
# Density = 2.148237 g / cm^3
# Si number density = 21.531372 Si / 1000 Ang^3
#
#
#
# Elastic Constant Matrix: (Units=GPa)
#
#
# Indices 1 2 3 4 5 6 
#
# 1 97.5982 17.3441 32.3828 -12.1124 16.2681 11.6224
# 2 17.3441 111.8200 11.8962 -0.8194 19.9711 -5.8227
# 3 32.3828 11.8962 48.6320 -1.7753 18.0814 -5.9169
# 4 -12.1124 -0.8194 -1.7753 23.4152 0.9786 5.3417
# 5 16.2681 19.9711 18.0814 0.9786 28.6513 3.1935
# 6 11.6224 -5.8227 -5.9169 5.3417 3.1935 27.6760
#
#
#
# Elastic Compliance Matrix: (Units=1/GPa)
#
#
# Indices 1 2 3 4 5 6 
#
# 1 0.017531 -0.002033 -0.012438 0.010914 0.000344 -0.012595
# 2 -0.002033 0.010733 0.002358 -0.001249 -0.008309 0.004816
# 3 -0.012438 0.002358 0.037571 -0.006622 -0.019998 0.017338
# 4 0.010914 -0.001249 -0.006622 0.051521 -0.001115 -0.016077
# 5 0.000344 -0.008309 -0.019998 -0.001115 0.054523 -0.012244
# 6 -0.012595 0.004816 0.017338 -0.016077 -0.012244 0.050657
#
#
# Mechanical properties :
#
#
# Convention : Reuss Voigt Hill
#
# Bulk Modulus (GPa) = 24.03321 42.36625 33.19973
# Shear Modulus (GPa) = 19.18405 29.04364 24.11385
#
# Velocity S-wave (km/s) = 2.98817 3.67672 3.35018
# Velocity P-wave (km/s) = 4.80538 6.14358 5.51522
#
# Compressibility (1/GPa) = 0.04160910
#
# Stress axis : x y z
#
# Youngs Moduli (GPa) = 57.04040 93.16970 26.61620
#
# Poissons Ratio (x) = 0.18944 0.33106
# Poissons Ratio (y) = 0.11598 -0.06277
# Poissons Ratio (z) = 0.70948 -0.21971
#
# Static dielectric constant tensor:
#      x y z
#    x 3.750620 0.142290 0.202500 
#    y 0.142290 4.241610 0.170070 
#    z 0.202500 0.170070 3.630500 
# 
# 
# High freq. dielectric constant tensor:
#      x y z
#    x 1.835050 0.009270 0.022150 
#    y 0.009270 1.867200 0.007080 
#    z 0.022150 0.007080 1.823200 
# 
# From -- ./inp_files/243346.got.cif
#   From: 2010.06.25/outbox.cif.g09.slc.cpg/sg2_122_cif.got.tgz:243346.got - 2010.06.27 13:26:56.
