data_PCOD8011858
_publ_section_title
;
Structure prediction by ZEFSAII (Michael W. Deem and Ramdas Pophale) SiO2 
 PCOD8011858
Probable space group: P -1
;
_chemical_formula_sum "Si O2"
_cell_formula_units_Z 16
_cell_length_a 11.232641
_cell_length_b 14.748271
_cell_length_c 13.830336
_cell_angle_alpha 120.652978
_cell_angle_beta 138.824732
_cell_angle_gamma 32.168439
_cell_volume 748.251861
_symmetry_space_group_name_H-M "P -1"
_symmetry_group_IT_number 2
_symmetry_cell_setting 'triclinic'
loop_
_space_group_symop_operation_xyz
x,y,z
-x,-y,-z
loop_
_atom_site_type_symbol
_atom_site_label
_atom_site_fract_x
_atom_site_fract_y
_atom_site_fract_z
Si Si1 0.799766 0.939488 0.304622
Si Si2 0.369206 0.417932 0.703198
Si Si3 0.543721 0.392575 0.129865
Si Si4 0.879358 0.550619 0.615799
Si Si5 0.706120 0.213182 0.327775
Si Si6 0.129928 0.823920 0.978482
Si Si7 0.851233 0.759042 0.840271
Si Si8 0.784485 0.440115 0.664074
O O1 0.797376 0.046602 0.297759
O O2 0.441761 0.080046 0.182762
O O3 0.013812 0.855116 0.486050
O O4 0.945566 0.768162 0.243330
O O5 0.260626 0.591805 0.726849
O O6 0.380968 0.360998 0.573460
O O7 0.185361 0.432819 0.676117
O O8 0.718321 0.261250 0.869842
O O9 0.669794 0.256635 0.216589
O O10 0.624679 0.303549 0.027700
O O11 0.164627 0.583916 0.999205
O O12 0.752833 0.710121 0.683758
O O13 0.934031 0.427660 0.655705
O O14 0.360951 0.403203 0.266715
O O15 0.882884 0.845812 0.836365
O O16 0.000000 0.000000 0.000000
O O17 0.500000 0.500000 0.500000
#
# Coordination Sequence:
#
# PCOD8011858 Si02
#       8
#     2   2   2   2   2   2   2   2
#     4  10  22  40  64  99 127 169 229 275 312 391
#     4  10  21  39  64  95 123 170 215 261 330 395
#     4  11  22  45  65  93 136 178 208 268 343 399
#     4  11  20  38  70  95 123 168 221 269 319 390
#     4  10  22  42  66  90 136 174 215 271 337 376
#     4  11  24  43  61  94 137 174 212 269 336 401
#     4  11  22  42  69  93 134 173 217 275 330 388
#     4  10  21  40  64  93 133 172 212 272 332 380
#
# _framework density 21.383175999999999
#
# number of rings (size 3 to 8) (size 9 to 14) (size 15 to 20)
#    0.000    1.500    3.750    2.250    1.750    1.500 
#    4.500    1.875    0.000    0.000    0.000    0.000 
#    0.000    0.000    0.000    0.000    0.000    0.000 
#
# Total GULP energy -198227.802395 kJ/mol
# GULP energy per Si atom -12389.237650 kJ/mol
# Density = 2.133451 g / cm^3
# Si number density = 21.383176 Si / 1000 Ang^3
#
#
#
# Elastic Constant Matrix: (Units=GPa)
#
#
# Indices 1 2 3 4 5 6 
#
# 1 105.9618 46.2911 38.7971 -7.0773 1.6148 29.9516
# 2 46.2911 127.0888 40.7950 -5.6099 2.4760 32.2059
# 3 38.7971 40.7950 83.5006 3.2073 -6.3114 6.1271
# 4 -7.0773 -5.6099 3.2073 31.4272 -4.4333 3.4191
# 5 1.6148 2.4760 -6.3114 -4.4333 31.1977 -8.8198
# 6 29.9516 32.2059 6.1271 3.4191 -8.8198 27.1237
#
#
#
# Elastic Compliance Matrix: (Units=1/GPa)
#
#
# Indices 1 2 3 4 5 6 
#
# 1 0.020594 0.003879 -0.010418 0.008096 -0.010666 -0.029483
# 2 0.003879 0.016158 -0.008792 0.006064 -0.009570 -0.025360
# 3 -0.010418 -0.008792 0.020588 -0.006880 0.010526 0.021583
# 4 0.008096 0.006064 -0.006880 0.037240 -0.002699 -0.020159
# 5 -0.010666 -0.009570 0.010526 -0.002699 0.045235 0.035812
# 6 -0.029483 -0.025360 0.021583 -0.020159 0.035812 0.108847
#
#
# Mechanical properties :
#
#
# Convention : Reuss Voigt Hill
#
# Bulk Modulus (GPa) = 37.48218 63.14640 50.31429
# Shear Modulus (GPa) = 17.34804 30.66093 24.00449
#
# Velocity S-wave (km/s) = 2.85141 3.79077 3.35414
# Velocity P-wave (km/s) = 5.32988 6.98247 6.21138
#
# Compressibility (1/GPa) = 0.02667934
#
# Stress axis : x y z
#
# Youngs Moduli (GPa) = 48.55775 61.88740 48.57186
#
# Poissons Ratio (x) = -0.24008 0.50601
# Poissons Ratio (y) = -0.18837 0.42705
# Poissons Ratio (z) = 0.50586 0.54413
#
# Static dielectric constant tensor:
#      x y z
#    x 5.432350 -0.514070 0.604470 
#    y -0.514070 4.779070 -0.224920 
#    z 0.604470 -0.224920 3.963890 
# 
# 
# High freq. dielectric constant tensor:
#      x y z
#    x 1.841580 0.017780 0.011190 
#    y 0.017780 1.838790 0.007740 
#    z 0.011190 0.007740 1.821210 
# 
# From -- ./inp_files/522394.got.cif
#   From: 2010.06.25/outbox.cif.g09.slc.cpg/sg2_262_cif.got.tgz:522394.got - 2010.06.27 13:26:56.
