data_PCOD8011882
_publ_section_title
;
Structure prediction by ZEFSAII (Michael W. Deem and Ramdas Pophale) SiO2 
 PCOD8011882
Probable space group: P -1
;
_chemical_formula_sum "Si O2"
_cell_formula_units_Z 16
_cell_length_a 18.469911
_cell_length_b 9.262822
_cell_length_c 9.288230
_cell_angle_alpha 135.427802
_cell_angle_beta 138.035131
_cell_angle_gamma 62.611142
_cell_volume 737.456317
_symmetry_space_group_name_H-M "P -1"
_symmetry_group_IT_number 2
_symmetry_cell_setting 'triclinic'
loop_
_space_group_symop_operation_xyz
x,y,z
-x,-y,-z
loop_
_atom_site_type_symbol
_atom_site_label
_atom_site_fract_x
_atom_site_fract_y
_atom_site_fract_z
Si Si1 0.027022 0.713154 0.534448
Si Si2 0.087436 0.060335 0.049049
Si Si3 0.537369 0.196459 0.094007
Si Si4 0.627914 0.504192 0.867688
Si Si5 0.843477 0.617673 0.418049
Si Si6 0.052958 0.303968 0.899822
Si Si7 0.465226 0.102343 0.376843
Si Si8 0.690756 0.587531 0.698503
O O1 0.909588 0.698923 0.430231
O O2 0.008676 0.797313 0.407153
O O3 0.075775 0.498809 0.447555
O O4 0.119364 0.855749 0.872113
O O5 0.184043 0.206178 0.381275
O O6 0.029565 0.154645 0.894846
O O7 0.000000 0.000000 0.000000
O O8 0.442507 0.341104 0.046404
O O9 0.646104 0.351787 0.413323
O O10 0.500000 0.000000 0.000000
O O11 0.562586 0.096829 0.908806
O O12 0.564237 0.272597 0.584643
O O13 0.663228 0.605403 0.838681
O O14 0.730572 0.484873 0.108506
O O15 0.181218 0.369576 0.108398
O O16 0.000000 0.500000 0.000000
O O17 0.362247 0.229906 0.332697
O O18 0.500000 0.000000 0.500000
#
# Coordination Sequence:
#
# PCOD8011882 Si02
#       8
#     2   2   2   2   2   2   2   2
#     4  10  21  41  62  90 136 172 216 272 323 383
#     4  10  23  42  64  92 128 172 226 269 324 392
#     4  11  21  44  72 100 131 172 221 275 333 409
#     4  11  22  41  73  97 131 175 222 274 337 399
#     4  10  21  39  64  96 129 170 215 273 327 385
#     4  12  24  45  67  97 138 180 222 277 328 394
#     4  11  25  45  68 104 136 167 217 282 340 397
#     4  11  24  44  70  99 134 176 226 275 332 400
#
# _framework density 21.696200999999999
#
# number of rings (size 3 to 8) (size 9 to 14) (size 15 to 20)
#    0.000    1.250    5.000    1.125    0.000    6.000 
#    9.000    0.000    0.000    0.000    0.000    0.000 
#    0.000    0.000    0.000    0.000    0.000    0.000 
#
# Total GULP energy -198209.631429 kJ/mol
# GULP energy per Si atom -12388.101964 kJ/mol
# Density = 2.164682 g / cm^3
# Si number density = 21.696201 Si / 1000 Ang^3
#
#
#
# Elastic Constant Matrix: (Units=GPa)
#
#
# Indices 1 2 3 4 5 6 
#
# 1 75.9279 39.1063 36.8807 -4.9952 -6.3585 -1.4940
# 2 39.1063 90.9495 25.6457 -4.0192 -5.0028 10.3827
# 3 36.8807 25.6457 140.7363 3.7340 -14.5160 -13.0463
# 4 -4.9952 -4.0192 3.7340 36.9982 -1.6824 -10.3446
# 5 -6.3585 -5.0028 -14.5160 -1.6824 32.3871 -5.7078
# 6 -1.4940 10.3827 -13.0463 -10.3446 -5.7078 34.0083
#
#
#
# Elastic Compliance Matrix: (Units=1/GPa)
#
#
# Indices 1 2 3 4 5 6 
#
# 1 0.018936 -0.007346 -0.003231 0.003024 0.001832 0.003062
# 2 -0.007346 0.015152 -0.001447 -0.000892 -0.000839 -0.005916
# 3 -0.003231 -0.001447 0.009035 -0.000094 0.003963 0.004402
# 4 0.003024 -0.000892 -0.000094 0.030388 0.003799 0.010250
# 5 0.001832 -0.000839 0.003963 0.003799 0.034635 0.008825
# 6 0.003062 -0.005916 0.004402 0.010250 0.008825 0.037633
#
#
# Mechanical properties :
#
#
# Convention : Reuss Voigt Hill
#
# Bulk Modulus (GPa) = 52.42746 56.76436 54.59591
# Shear Modulus (GPa) = 28.37912 34.41080 31.39496
#
# Velocity S-wave (km/s) = 3.62058 3.98682 3.80811
# Velocity P-wave (km/s) = 6.45716 6.88571 6.67488
#
# Compressibility (1/GPa) = 0.01907397
#
# Stress axis : x y z
#
# Youngs Moduli (GPa) = 52.80935 65.99939 110.67759
#
# Poissons Ratio (x) = 0.48485 0.35761
# Poissons Ratio (y) = 0.38795 0.16017
# Poissons Ratio (z) = 0.17063 0.09551
#
# Static dielectric constant tensor:
#      x y z
#    x 3.828220 0.037310 -0.390720 
#    y 0.037310 4.368990 0.154320 
#    z -0.390720 0.154320 4.432100 
# 
# 
# High freq. dielectric constant tensor:
#      x y z
#    x 1.836880 0.005510 -0.021310 
#    y 0.005510 1.856260 0.009640 
#    z -0.021310 0.009640 1.867220 
# 
# From -- ./inp_files/343892.got.cif
#   From: 2010.06.25/outbox.cif.g09.slc.cpg/sg2_172_cif.got.tgz:343892.got - 2010.06.27 13:26:56.
