data_PCOD8011752
_publ_section_title
;
Structure prediction by ZEFSAII (Michael W. Deem and Ramdas Pophale) SiO2 
 PCOD8011752
Probable space group: P -1
;
_chemical_formula_sum "Si O2"
_cell_formula_units_Z 16
_cell_length_a 16.624954
_cell_length_b 19.750168
_cell_length_c 11.772283
_cell_angle_alpha 145.560154
_cell_angle_beta 32.693568
_cell_angle_gamma 159.642474
_cell_volume 713.082177
_symmetry_space_group_name_H-M "P -1"
_symmetry_group_IT_number 2
_symmetry_cell_setting 'triclinic'
loop_
_space_group_symop_operation_xyz
x,y,z
-x,-y,-z
loop_
_atom_site_type_symbol
_atom_site_label
_atom_site_fract_x
_atom_site_fract_y
_atom_site_fract_z
Si Si1 0.464718 0.529620 0.911561
Si Si2 0.294959 0.705020 0.550376
Si Si3 0.578462 0.801479 0.876090
Si Si4 0.731230 0.353898 0.752963
Si Si5 0.301709 0.213987 0.800760
Si Si6 0.877784 0.791675 0.620174
Si Si7 0.673969 0.090710 0.027375
Si Si8 0.076539 0.419461 0.849820
O O1 0.282601 0.310786 0.869624
O O2 0.628260 0.587171 0.693399
O O3 0.271082 0.505619 0.071196
O O4 0.675407 0.716360 0.004526
O O5 0.348518 0.762303 0.431362
O O6 0.437712 0.680404 0.390408
O O7 0.013684 0.497357 0.634309
O O8 0.414809 0.892730 0.734356
O O9 0.793621 0.843457 0.705146
O O10 0.363934 0.596931 0.779557
O O11 0.689557 0.965021 0.878644
O O12 0.458280 0.791160 0.117047
O O13 0.075128 0.977631 0.728999
O O14 0.997039 0.746750 0.364996
O O15 0.940161 0.313651 0.985381
O O16 0.500000 0.000000 0.000000
O O17 0.000000 0.500000 0.000000
#
# Coordination Sequence:
#
# PCOD8011752 Si02
#       8
#     2   2   2   2   2   2   2   2
#     4   9  21  40  66  94 137 172 216 276 334 403
#     4  10  21  39  67  95 135 172 221 272 333 398
#     4  11  25  44  68  97 134 173 225 283 338 400
#     4   9  20  42  66  98 130 175 218 273 342 395
#     4  10  21  39  64 100 131 174 221 271 334 403
#     4  11  25  41  67  96 132 180 224 274 335 403
#     4  12  25  42  68  98 131 177 223 278 334 408
#     4  12  26  45  65  94 138 177 229 280 331 398
#
# _framework density 22.437806999999999
#
# number of rings (size 3 to 8) (size 9 to 14) (size 15 to 20)
#    0.000    1.500    2.500    1.500    3.500    2.000 
#    0.000    0.000    0.000    0.000    0.000    0.000 
#    0.000    0.000    0.000    0.000    0.000    0.000 
#
# Total GULP energy -198229.793639 kJ/mol
# GULP energy per Si atom -12389.362102 kJ/mol
# Density = 2.238674 g / cm^3
# Si number density = 22.437807 Si / 1000 Ang^3
#
#
#
# Elastic Constant Matrix: (Units=GPa)
#
#
# Indices 1 2 3 4 5 6 
#
# 1 90.4080 24.2704 33.9697 -0.8287 -18.3436 -11.0108
# 2 24.2704 70.0437 23.3933 1.5663 -9.4671 -11.5698
# 3 33.9697 23.3933 109.2851 7.5386 -1.8657 -4.5651
# 4 -0.8287 1.5663 7.5386 30.9228 9.1905 1.4962
# 5 -18.3436 -9.4671 -1.8657 9.1905 35.4339 0.9803
# 6 -11.0108 -11.5698 -4.5651 1.4962 0.9803 41.4699
#
#
#
# Elastic Compliance Matrix: (Units=1/GPa)
#
#
# Indices 1 2 3 4 5 6 
#
# 1 0.014897 -0.002482 -0.003816 -0.000746 0.006967 0.002705
# 2 -0.002482 0.017124 -0.002572 -0.001514 0.003442 0.003809
# 3 -0.003816 -0.002572 0.010995 -0.002185 -0.001505 -0.000406
# 4 -0.000746 -0.001514 -0.002185 0.036054 -0.010204 -0.001921
# 5 0.006967 0.003442 -0.001505 -0.010204 0.035255 0.002179
# 6 0.002705 0.003809 -0.000406 -0.001921 0.002179 0.025868
#
#
# Mechanical properties :
#
#
# Convention : Reuss Voigt Hill
#
# Bulk Modulus (GPa) = 39.56223 48.11151 43.83687
# Shear Modulus (GPa) = 30.05570 34.10554 32.08062
#
# Velocity S-wave (km/s) = 3.66390 3.90295 3.78532
# Velocity P-wave (km/s) = 5.96399 6.46525 6.21967
#
# Compressibility (1/GPa) = 0.02527663
#
# Stress axis : x y z
#
# Youngs Moduli (GPa) = 67.12648 58.39754 90.95019
#
# Poissons Ratio (x) = 0.14497 0.34705
# Poissons Ratio (y) = 0.16664 0.23389
# Poissons Ratio (z) = 0.25614 0.15017
#
# Static dielectric constant tensor:
#      x y z
#    x 4.121070 0.005440 0.113490 
#    y 0.005440 3.810630 -0.068470 
#    z 0.113490 -0.068470 4.148390 
# 
# 
# High freq. dielectric constant tensor:
#      x y z
#    x 1.888560 0.008040 0.003530 
#    y 0.008040 1.868370 -0.003080 
#    z 0.003530 -0.003080 1.888220 
# 
# From -- ./inp_files/467169.got.cif
#   From: 2010.06.25/outbox.cif.g09.slc.cpg/sg2_234_cif.got.tgz:467169.got - 2010.06.27 13:26:56.
