data_PCOD8011987
_publ_section_title
;
Structure prediction by ZEFSAII (Michael W. Deem and Ramdas Pophale) SiO2 
 PCOD8011987
Probable space group: P -1
;
_chemical_formula_sum "Si O2"
_cell_formula_units_Z 16
_cell_length_a 11.021874
_cell_length_b 13.092925
_cell_length_c 8.855751
_cell_angle_alpha 74.267309
_cell_angle_beta 128.534664
_cell_angle_gamma 129.871570
_cell_volume 749.518308
_symmetry_space_group_name_H-M "P -1"
_symmetry_group_IT_number 2
_symmetry_cell_setting 'triclinic'
loop_
_space_group_symop_operation_xyz
x,y,z
-x,-y,-z
loop_
_atom_site_type_symbol
_atom_site_label
_atom_site_fract_x
_atom_site_fract_y
_atom_site_fract_z
Si Si1 0.408478 0.274359 0.837306
Si Si2 0.162375 0.634048 0.254324
Si Si3 0.349568 0.519074 0.311581
Si Si4 0.296111 0.790147 0.575130
Si Si5 0.217233 0.538461 0.761347
Si Si6 0.957398 0.268896 0.123071
Si Si7 0.067537 0.293478 0.543843
Si Si8 0.615544 0.970919 0.988470
O O1 0.537613 0.352004 0.759114
O O2 0.198163 0.243421 0.675061
O O3 0.551345 0.372033 0.045111
O O4 0.358919 0.128854 0.866255
O O5 0.243686 0.548711 0.343231
O O6 0.314441 0.771953 0.418241
O O7 0.940389 0.541885 0.191722
O O8 0.160103 0.681305 0.062820
O O9 0.500000 0.500000 0.500000
O O10 0.173861 0.367349 0.168708
O O11 0.184963 0.639882 0.622149
O O12 0.503958 0.907804 0.766962
O O13 0.133397 0.813051 0.470409
O O14 0.200622 0.443588 0.657241
O O15 0.991947 0.292319 0.319097
O O16 0.833329 0.108816 0.058739
O O17 0.500000 0.000000 0.000000
#
# Coordination Sequence:
#
# PCOD8011987 Si02
#       8
#     2   2   2   2   2   2   2   2
#     4  11  24  40  65  97 128 170 209 260 324 374
#     4  11  23  39  66  92 127 168 213 263 322 366
#     4  12  24  39  63  99 131 162 208 271 323 369
#     4  10  22  41  64  93 126 168 215 260 309 381
#     4  10  21  39  65  94 127 163 213 264 314 379
#     4  12  23  40  65  92 130 163 215 256 314 382
#     4  11  21  39  64  99 126 160 212 272 316 366
#     4  11  24  43  64  93 126 173 217 256 307 390
#
# _framework density 21.347044
#
# number of rings (size 3 to 8) (size 9 to 14) (size 15 to 20)
#    0.000    1.000    3.750    4.500    3.500    1.000 
#    0.000    0.000    0.000    3.750    0.000    0.000 
#    0.000    0.000    0.000    0.000    0.000    0.000 
#
# Total GULP energy -198231.483737 kJ/mol
# GULP energy per Si atom -12389.467734 kJ/mol
# Density = 2.129846 g / cm^3
# Si number density = 21.347044 Si / 1000 Ang^3
#
#
#
# Elastic Constant Matrix: (Units=GPa)
#
#
# Indices 1 2 3 4 5 6 
#
# 1 86.4458 54.2556 60.7528 -0.2408 19.8111 -10.2936
# 2 54.2556 149.1455 59.2941 10.9484 13.8491 2.5536
# 3 60.7528 59.2941 135.5179 -0.6463 7.5704 -16.3575
# 4 -0.2408 10.9484 -0.6463 28.7047 0.6490 -0.0580
# 5 19.8111 13.8491 7.5704 0.6490 21.8721 2.7693
# 6 -10.2936 2.5536 -16.3575 -0.0580 2.7693 26.0615
#
#
#
# Elastic Compliance Matrix: (Units=1/GPa)
#
#
# Indices 1 2 3 4 5 6 
#
# 1 0.024420 -0.004781 -0.006931 0.002289 -0.017730 0.007653
# 2 -0.004781 0.009932 -0.002755 -0.003893 -0.000311 -0.004566
# 3 -0.006931 -0.002755 0.012097 0.001202 0.003193 0.004788
# 4 0.002289 -0.003893 0.001202 0.036404 -0.001392 0.002269
# 5 -0.017730 -0.000311 0.003193 -0.001392 0.062382 -0.011600
# 6 0.007653 -0.004566 0.004788 0.002269 -0.011600 0.046084
#
#
# Mechanical properties :
#
#
# Convention : Reuss Voigt Hill
#
# Bulk Modulus (GPa) = 57.08902 79.96824 68.52863
# Shear Modulus (GPa) = 22.11506 28.44810 25.28158
#
# Velocity S-wave (km/s) = 3.22215 3.65451 3.44512
# Velocity P-wave (km/s) = 6.37529 7.43973 6.92798
#
# Compressibility (1/GPa) = 0.01751650
#
# Stress axis : x y z
#
# Youngs Moduli (GPa) = 40.94974 100.68483 82.66670
#
# Poissons Ratio (x) = 0.48135 0.57294
# Poissons Ratio (y) = 0.19577 0.22772
# Poissons Ratio (z) = 0.28381 0.27735
#
# Static dielectric constant tensor:
#      x y z
#    x 3.664850 0.052350 0.123710 
#    y 0.052350 3.878460 0.260680 
#    z 0.123710 0.260680 3.928180 
# 
# 
# High freq. dielectric constant tensor:
#      x y z
#    x 1.812270 0.002020 0.005540 
#    y 0.002020 1.827460 0.005420 
#    z 0.005540 0.005420 1.857640 
# 
# From -- ./inp_files/262347.got.cif
#   From: 2010.06.25/outbox.cif.g09.slc.cpg/sg2_132_cif.got.tgz:262347.got - 2010.06.27 13:26:56.
