data_PCOD8011878
_publ_section_title
;
Structure prediction by ZEFSAII (Michael W. Deem and Ramdas Pophale) SiO2 
 PCOD8011878
Probable space group: P -1
;
_chemical_formula_sum "Si O2"
_cell_formula_units_Z 14
_cell_length_a 10.960290
_cell_length_b 8.939985
_cell_length_c 11.547298
_cell_angle_alpha 140.972035
_cell_angle_beta 50.258457
_cell_angle_gamma 129.480439
_cell_volume 524.737038
_symmetry_space_group_name_H-M "P -1"
_symmetry_group_IT_number 2
_symmetry_cell_setting 'triclinic'
loop_
_space_group_symop_operation_xyz
x,y,z
-x,-y,-z
loop_
_atom_site_type_symbol
_atom_site_label
_atom_site_fract_x
_atom_site_fract_y
_atom_site_fract_z
Si Si1 0.329923 0.786774 0.493609
Si Si2 0.228566 0.986982 0.288362
Si Si3 0.064400 0.418021 0.669913
Si Si4 0.791921 0.781147 0.197121
Si Si5 0.465849 0.298589 0.496224
Si Si6 0.842628 0.124417 0.974962
Si Si7 0.180140 0.364504 0.161302
O O1 0.354288 0.691257 0.551438
O O2 0.309746 0.568060 0.281879
O O3 0.500000 0.000000 0.500000
O O4 0.188755 0.924230 0.653012
O O5 0.375546 0.041567 0.327984
O O6 0.158889 0.224180 0.457087
O O7 0.097282 0.734343 0.252965
O O8 0.285684 0.951145 0.100275
O O9 0.993268 0.557072 0.692286
O O10 0.189301 0.636838 0.800637
O O11 0.654609 0.654912 0.300838
O O12 0.971004 0.780355 0.134572
O O13 0.750001 0.639669 0.014268
O O14 0.500000 0.500000 0.500000
O O15 0.840979 0.905089 0.933600
#
# Coordination Sequence:
#
# PCOD8011878 Si02
#       7
#     2   2   2   2   2   2   2
#     4  10  22  42  64  88 127 171 213 254 300 368
#     4  11  22  40  63  89 130 171 199 255 319 368
#     4  10  21  39  64  96 127 160 205 254 324 385
#     4  10  22  42  65  90 124 162 202 263 320 362
#     4  11  24  40  61  89 121 167 218 250 293 369
#     4  11  23  39  66 100 127 157 205 262 321 382
#     4  11  23  40  67  99 125 159 210 263 316 371
#
# _framework density 26.680029999999999
#
# number of rings (size 3 to 8) (size 9 to 14) (size 15 to 20)
#    0.000    1.429    0.000    7.286    0.000    9.143 
#    0.000    1.429    0.000   17.143    0.000    0.000 
#    0.000    0.000    0.000    0.000    0.000    0.000 
#
# Total GULP energy -173474.570230 kJ/mol
# GULP energy per Si atom -12391.040731 kJ/mol
# Density = 2.661931 g / cm^3
# Si number density = 26.680030 Si / 1000 Ang^3
#
#
#
# Elastic Constant Matrix: (Units=GPa)
#
#
# Indices 1 2 3 4 5 6 
#
# 1 87.5009 11.5650 44.8278 -3.5992 44.4967 -18.3132
# 2 11.5650 62.6863 42.5174 15.2199 11.3706 -26.7920
# 3 44.8278 42.5174 152.6794 23.9555 45.3989 -7.5598
# 4 -3.5992 15.2199 23.9555 46.6134 -0.8532 3.2237
# 5 44.4967 11.3706 45.3989 -0.8532 59.2296 0.9924
# 6 -18.3132 -26.7920 -7.5598 3.2237 0.9924 34.0601
#
#
#
# Elastic Compliance Matrix: (Units=1/GPa)
#
#
# Indices 1 2 3 4 5 6 
#
# 1 0.026779 0.011719 -0.003754 -0.001821 -0.019911 0.023536
# 2 0.011719 0.039374 -0.007476 -0.010875 -0.011409 0.036976
# 3 -0.003754 -0.007476 0.011332 -0.003412 -0.004397 -0.004933
# 4 -0.001821 -0.010875 -0.003412 0.027646 0.006689 -0.013103
# 5 -0.019911 -0.011409 -0.004397 0.006689 0.037873 -0.022392
# 6 0.023536 0.036976 -0.004933 -0.013103 -0.022392 0.071897
#
#
# Mechanical properties :
#
#
# Convention : Reuss Voigt Hill
#
# Bulk Modulus (GPa) = 12.74488 55.63188 34.18838
# Shear Modulus (GPa) = 20.82645 41.57772 31.20208
#
# Velocity S-wave (km/s) = 2.79695 3.95192 3.42349
# Velocity P-wave (km/s) = 3.90101 6.45913 5.33565
#
# Compressibility (1/GPa) = 0.07846287
#
# Stress axis : x y z
#
# Youngs Moduli (GPa) = 37.34260 25.39730 88.24255
#
# Poissons Ratio (x) = -0.29763 0.33130
# Poissons Ratio (y) = -0.43762 0.65970
# Poissons Ratio (z) = 0.14020 0.18987
#
# Static dielectric constant tensor:
#      x y z
#    x 7.473350 -0.239110 0.292060 
#    y -0.239110 5.027240 0.428890 
#    z 0.292060 0.428890 5.081050 
# 
# 
# High freq. dielectric constant tensor:
#      x y z
#    x 2.071840 -0.023740 0.014910 
#    y -0.023740 2.077150 0.013850 
#    z 0.014910 0.013850 2.070710 
# 
# From -- ./inp_files/420174.got.cif
#   From: 2010.06.25/outbox.cif.g09.slc.cpg/sg2_211_cif.got.tgz:420174.got - 2010.06.27 13:26:56.
