data_PCOD8011732
_publ_section_title
;
Structure prediction by ZEFSAII (Michael W. Deem and Ramdas Pophale) SiO2 
 PCOD8011732
Probable space group: P -1
;
_chemical_formula_sum "Si O2"
_cell_formula_units_Z 16
_cell_length_a 14.521613
_cell_length_b 10.633502
_cell_length_c 19.755157
_cell_angle_alpha 30.668472
_cell_angle_beta 149.637563
_cell_angle_gamma 131.848194
_cell_volume 752.478828
_symmetry_space_group_name_H-M "P -1"
_symmetry_group_IT_number 2
_symmetry_cell_setting 'triclinic'
loop_
_space_group_symop_operation_xyz
x,y,z
-x,-y,-z
loop_
_atom_site_type_symbol
_atom_site_label
_atom_site_fract_x
_atom_site_fract_y
_atom_site_fract_z
Si Si1 0.302431 0.779153 0.268524
Si Si2 0.009811 0.497189 0.176542
Si Si3 0.346018 0.775640 0.558248
Si Si4 0.300372 0.065171 0.262164
Si Si5 0.057427 0.235274 0.457010
Si Si6 0.023278 0.978863 0.364992
Si Si7 0.405813 0.786064 0.061910
Si Si8 0.527695 0.730296 0.313175
O O1 0.411489 0.896458 0.225515
O O2 0.438360 0.560820 0.503865
O O3 0.156759 0.664349 0.188448
O O4 0.218635 0.000996 0.167771
O O5 0.102105 0.203939 0.343643
O O6 0.958394 0.479018 0.232957
O O7 0.830243 0.638524 0.949548
O O8 0.478674 0.942968 0.593829
O O9 0.467155 0.477816 0.770034
O O10 0.266935 0.878030 0.386369
O O11 0.161551 0.824923 0.465688
O O12 0.284353 0.186814 0.621417
O O13 0.986886 0.250257 0.483128
O O14 0.000000 0.000000 0.500000
O O15 0.812720 0.131479 0.136534
O O16 0.403168 0.760065 0.153103
O O17 0.500000 0.000000 0.000000
#
# Coordination Sequence:
#
# PCOD8011732 Si02
#       8
#     2   2   2   2   2   2   2   2
#     4  10  22  37  66  93 132 171 217 273 328 389
#     4  10  22  41  67  96 132 175 220 269 336 390
#     4  11  27  43  67  99 136 174 219 277 331 393
#     4  11  23  44  63  99 141 165 221 281 323 399
#     4   9  20  40  63  92 130 168 218 275 317 387
#     4  11  24  44  69  96 133 178 222 268 333 397
#     4  12  24  47  68  92 137 176 226 272 323 403
#     4  10  21  39  63  96 125 173 221 268 333 377
#
# _framework density 21.263057
#
# number of rings (size 3 to 8) (size 9 to 14) (size 15 to 20)
#    0.000    1.500    3.750    0.375    8.750    1.000 
#    2.250    0.625    0.000    0.000    0.000    0.000 
#    0.000    0.000    0.000    0.000    0.000    0.000 
#
# Total GULP energy -198247.984808 kJ/mol
# GULP energy per Si atom -12390.499051 kJ/mol
# Density = 2.121466 g / cm^3
# Si number density = 21.263057 Si / 1000 Ang^3
#
#
#
# Elastic Constant Matrix: (Units=GPa)
#
#
# Indices 1 2 3 4 5 6 
#
# 1 172.4396 43.0869 49.3578 -2.9409 6.1441 4.0825
# 2 43.0869 81.7975 12.5840 3.5111 3.5802 2.1264
# 3 49.3578 12.5840 105.1413 0.3377 -2.2177 -1.2265
# 4 -2.9409 3.5111 0.3377 25.2458 -2.8537 -2.8028
# 5 6.1441 3.5802 -2.2177 -2.8537 27.1915 0.8791
# 6 4.0825 2.1264 -1.2265 -2.8028 0.8791 29.9205
#
#
#
# Elastic Compliance Matrix: (Units=1/GPa)
#
#
# Indices 1 2 3 4 5 6 
#
# 1 0.007693 -0.003525 -0.003232 0.001186 -0.001388 -0.000780
# 2 -0.003525 0.014286 -0.000084 -0.002631 -0.001343 -0.000745
# 3 -0.003232 -0.000084 0.011082 -0.000241 0.001593 0.000832
# 4 0.001186 -0.002631 -0.000241 0.041012 0.004242 0.003732
# 5 -0.001388 -0.001343 0.001593 0.004242 0.037854 -0.000365
# 6 -0.000780 -0.000745 0.000832 0.003732 -0.000365 0.033976
#
#
# Mechanical properties :
#
#
# Convention : Reuss Voigt Hill
#
# Bulk Modulus (GPa) = 51.59806 63.27064 57.43435
# Shear Modulus (GPa) = 30.11260 33.42820 31.77040
#
# Velocity S-wave (km/s) = 3.76732 3.96931 3.86963
# Velocity P-wave (km/s) = 6.57592 7.12937 6.85823
#
# Compressibility (1/GPa) = 0.01938057
#
# Stress axis : x y z
#
# Youngs Moduli (GPa) = 129.98646 69.99813 90.23463
#
# Poissons Ratio (x) = 0.24675 0.29162
# Poissons Ratio (y) = 0.45821 0.00754
# Poissons Ratio (z) = 0.42008 0.00585
#
# Static dielectric constant tensor:
#      x y z
#    x 4.153500 0.030100 -0.369580 
#    y 0.030100 3.773300 0.029790 
#    z -0.369580 0.029790 3.915240 
# 
# 
# High freq. dielectric constant tensor:
#      x y z
#    x 1.834210 0.004080 -0.019640 
#    y 0.004080 1.833940 0.011340 
#    z -0.019640 0.011340 1.826990 
# 
# From -- ./inp_files/514048.got.cif
#   From: 2010.06.25/outbox.cif.g09.slc.cpg/sg2_258_cif.got.tgz:514048.got - 2010.06.27 13:26:56.
