data_PCOD8011917
_publ_section_title
;
Structure prediction by ZEFSAII (Michael W. Deem and Ramdas Pophale) SiO2 
 PCOD8011917
Probable space group: P -1
;
_chemical_formula_sum "Si O2"
_cell_formula_units_Z 16
_cell_length_a 9.256206
_cell_length_b 16.515903
_cell_length_c 13.368539
_cell_angle_alpha 42.405820
_cell_angle_beta 150.825150
_cell_angle_gamma 132.941203
_cell_volume 667.693548
_symmetry_space_group_name_H-M "P -1"
_symmetry_group_IT_number 2
_symmetry_cell_setting 'triclinic'
loop_
_space_group_symop_operation_xyz
x,y,z
-x,-y,-z
loop_
_atom_site_type_symbol
_atom_site_label
_atom_site_fract_x
_atom_site_fract_y
_atom_site_fract_z
Si Si1 0.751953 0.339940 0.197751
Si Si2 0.279059 0.768495 0.512916
Si Si3 0.216015 0.736743 0.106357
Si Si4 0.261678 0.136241 0.011970
Si Si5 0.375760 0.409071 0.421358
Si Si6 0.643459 0.909865 0.097946
Si Si7 0.322278 0.420269 0.155095
Si Si8 0.814429 0.939786 0.750498
O O1 0.830227 0.314746 0.383006
O O2 0.049141 0.342513 0.309216
O O3 0.505937 0.234516 0.114444
O O4 0.606969 0.466258 0.980436
O O5 0.481673 0.688652 0.644127
O O6 0.476120 0.900251 0.541539
O O7 0.001193 0.794028 0.255706
O O8 0.382813 0.688563 0.347399
O O9 0.489417 0.779706 0.155845
O O10 0.022992 0.629723 0.027574
O O11 0.011489 0.835011 0.931523
O O12 0.415368 0.067605 0.076631
O O13 0.158548 0.047305 0.123458
O O14 0.500000 0.500000 0.500000
O O15 0.365079 0.467300 0.251949
O O16 0.500000 0.000000 0.000000
O O17 0.011574 0.934745 0.306676
#
# Coordination Sequence:
#
# PCOD8011917 Si02
#       8
#     2   2   2   2   2   2   2   2
#     4  11  24  38  61  92 124 163 206 245 301 364
#     4  10  23  41  63  90 123 162 204 252 299 361
#     4  10  21  40  62  87 127 158 204 251 298 360
#     4  11  22  39  64  88 124 156 202 252 304 357
#     4  12  24  37  61  89 123 165 204 245 301 357
#     4  10  21  39  65  88 119 160 200 253 309 355
#     4  11  23  40  60  89 127 165 204 246 301 359
#     4   9  21  41  62  92 118 160 203 253 303 357
#
# _framework density 23.963090999999999
#
# number of rings (size 3 to 8) (size 9 to 14) (size 15 to 20)
#    0.000    1.500    1.250    3.375    3.500    1.000 
#    0.000    2.500    0.000   18.000    0.000    0.000 
#    0.000    0.000    0.000    0.000    0.000    0.000 
#
# Total GULP energy -198295.926848 kJ/mol
# GULP energy per Si atom -12393.495428 kJ/mol
# Density = 2.390855 g / cm^3
# Si number density = 23.963091 Si / 1000 Ang^3
#
#
#
# Elastic Constant Matrix: (Units=GPa)
#
#
# Indices 1 2 3 4 5 6 
#
# 1 125.8728 30.8267 48.4670 6.9472 -16.8955 12.5774
# 2 30.8267 59.7688 8.0964 3.2294 -12.5042 13.3269
# 3 48.4670 8.0964 136.4602 6.0765 -9.8046 8.1962
# 4 6.9472 3.2294 6.0765 24.1659 7.2074 -3.3068
# 5 -16.8955 -12.5042 -9.8046 7.2074 37.1801 3.3865
# 6 12.5774 13.3269 8.1962 -3.3068 3.3865 38.1174
#
#
#
# Elastic Compliance Matrix: (Units=1/GPa)
#
#
# Indices 1 2 3 4 5 6 
#
# 1 0.010982 -0.003780 -0.003126 -0.003288 0.003736 -0.002247
# 2 -0.003780 0.022261 0.001329 -0.005692 0.007953 -0.008022
# 3 -0.003126 0.001329 0.008698 -0.002264 0.001911 -0.001669
# 4 -0.003288 -0.005692 -0.002264 0.049187 -0.014370 0.009106
# 5 0.003736 0.007953 0.001911 -0.014370 0.035361 -0.008813
# 6 -0.002247 -0.008022 -0.001669 0.009106 -0.008813 0.031713
#
#
# Mechanical properties :
#
#
# Convention : Reuss Voigt Hill
#
# Bulk Modulus (GPa) = 32.48346 55.20912 43.84629
# Shear Modulus (GPa) = 27.83671 35.54011 31.68841
#
# Velocity S-wave (km/s) = 3.41200 3.85531 3.64041
# Velocity P-wave (km/s) = 5.39512 6.55035 6.00060
#
# Compressibility (1/GPa) = 0.03078490
#
# Stress axis : x y z
#
# Youngs Moduli (GPa) = 91.06199 44.92177 114.96787
#
# Poissons Ratio (x) = 0.16981 0.35942
# Poissons Ratio (y) = 0.34422 -0.15274
# Poissons Ratio (z) = 0.28468 -0.05968
#
# Static dielectric constant tensor:
#      x y z
#    x 5.144490 0.443820 0.102630 
#    y 0.443820 4.865490 0.075780 
#    z 0.102630 0.075780 4.502350 
# 
# 
# High freq. dielectric constant tensor:
#      x y z
#    x 1.960080 0.002520 0.012350 
#    y 0.002520 1.967730 0.004510 
#    z 0.012350 0.004510 1.957960 
# 
# From -- ./inp_files/37546.got.cif
#   From: 2010.06.25/outbox.cif.g09.slc.cpg/sg2_19_cif.got.tgz:37546.got - 2010.06.27 13:26:56.
