data_PCOD8011781
_publ_section_title
;
Structure prediction by ZEFSAII (Michael W. Deem and Ramdas Pophale) SiO2 
 PCOD8011781
Probable space group: P -1
;
_chemical_formula_sum "Si O2"
_cell_formula_units_Z 16
_cell_length_a 13.993215
_cell_length_b 9.534223
_cell_length_c 8.439096
_cell_angle_alpha 74.862059
_cell_angle_beta 124.300746
_cell_angle_gamma 68.340701
_cell_volume 684.275653
_symmetry_space_group_name_H-M "P -1"
_symmetry_group_IT_number 2
_symmetry_cell_setting 'triclinic'
loop_
_space_group_symop_operation_xyz
x,y,z
-x,-y,-z
loop_
_atom_site_type_symbol
_atom_site_label
_atom_site_fract_x
_atom_site_fract_y
_atom_site_fract_z
Si Si1 0.332983 0.853012 0.669070
Si Si2 0.933956 0.401694 0.840523
Si Si3 0.665049 0.905306 0.882048
Si Si4 0.851243 0.940342 0.275250
Si Si5 0.958331 0.403618 0.216944
Si Si6 0.674211 0.822950 0.563505
Si Si7 0.323053 0.413269 0.915288
Si Si8 0.861995 0.233947 0.582145
O O1 0.235060 0.833327 0.462417
O O2 0.264918 0.874304 0.775986
O O3 0.312137 0.038275 0.560181
O O4 0.508565 0.659954 0.876024
O O5 0.774694 0.614845 0.643905
O O6 0.916789 0.255335 0.794415
O O7 0.036990 0.422367 0.816544
O O8 0.009850 0.320538 0.109785
O O9 0.729042 0.804566 0.800174
O O10 0.495841 0.100506 0.631155
O O11 0.761100 0.956211 0.033408
O O12 0.662565 0.772261 0.043298
O O13 0.921104 0.753270 0.498948
O O14 0.991588 0.922720 0.345128
O O15 0.789799 0.476479 0.071217
O O16 0.246629 0.552881 0.654174
#
# Coordination Sequence:
#
# PCOD8011781 Si02
#       8
#     2   2   2   2   2   2   2   2
#     4  11  24  43  60  90 131 169 203 249 313 372
#     4  11  21  39  67  92 125 162 207 257 309 365
#     4  10  21  39  66  97 121 160 207 263 312 349
#     4  11  23  40  65  91 124 165 207 259 305 366
#     4  10  21  39  64  96 122 155 209 264 303 355
#     4  10  22  40  66  92 129 156 207 260 307 370
#     4  10  21  39  64  89 127 159 207 260 298 364
#     4  11  25  40  62  93 127 167 207 250 309 375
#
# _framework density 23.382389
#
# number of rings (size 3 to 8) (size 9 to 14) (size 15 to 20)
#    0.000    1.500    2.500    2.250    3.500    3.000 
#    0.000    5.625    0.000    0.000    0.000    0.000 
#    0.000    0.000    0.000    0.000    0.000    0.000 
#
# Total GULP energy -198319.933327 kJ/mol
# GULP energy per Si atom -12394.995833 kJ/mol
# Density = 2.332917 g / cm^3
# Si number density = 23.382389 Si / 1000 Ang^3
#
#
#
# Elastic Constant Matrix: (Units=GPa)
#
#
# Indices 1 2 3 4 5 6 
#
# 1 95.0113 24.5881 29.2953 8.9626 33.5620 -12.7010
# 2 24.5881 58.1115 7.1328 18.7778 14.7787 -14.5693
# 3 29.2953 7.1328 85.3652 13.1710 17.6342 -11.0135
# 4 8.9626 18.7778 13.1710 37.0608 2.3238 8.3294
# 5 33.5620 14.7787 17.6342 2.3238 38.5550 0.2699
# 6 -12.7010 -14.5693 -11.0135 8.3294 0.2699 24.9930
#
#
#
# Elastic Compliance Matrix: (Units=1/GPa)
#
#
# Indices 1 2 3 4 5 6 
#
# 1 0.018187 0.001942 -0.000333 -0.007127 -0.016084 0.012776
# 2 0.001942 0.041254 0.010512 -0.033006 -0.020609 0.040890
# 3 -0.000333 0.010512 0.018097 -0.015276 -0.011230 0.019145
# 4 -0.007127 -0.033006 -0.015276 0.060697 0.022534 -0.050065
# 5 -0.016084 -0.020609 -0.011230 0.022534 0.051848 -0.033205
# 6 0.012776 0.040890 0.019145 -0.050065 -0.033205 0.095820
#
#
# Mechanical properties :
#
#
# Convention : Reuss Voigt Hill
#
# Bulk Modulus (GPa) = 9.82519 40.05783 24.94151
# Shear Modulus (GPa) = 16.91538 31.95322 24.43430
#
# Velocity S-wave (km/s) = 2.69257 3.70070 3.23613
# Velocity P-wave (km/s) = 3.72528 5.95223 4.96521
#
# Compressibility (1/GPa) = 0.10177925
#
# Stress axis : x y z
#
# Youngs Moduli (GPa) = 54.98493 24.23989 55.25774
#
# Poissons Ratio (x) = -0.04708 0.01841
# Poissons Ratio (y) = -0.10679 -0.58084
# Poissons Ratio (z) = 0.01832 -0.25480
#
# Static dielectric constant tensor:
#      x y z
#    x 4.405300 -0.233610 0.274770 
#    y -0.233610 3.826500 -0.167560 
#    z 0.274770 -0.167560 4.328480 
# 
# 
# High freq. dielectric constant tensor:
#      x y z
#    x 1.929540 -0.016450 0.023730 
#    y -0.016450 1.889260 -0.012510 
#    z 0.023730 -0.012510 1.935840 
# 
# From -- ./inp_files/271555.got.cif
#   From: 2010.06.25/outbox.cif.g09.slc.cpg/sg2_136_cif.got.tgz:271555.got - 2010.06.27 13:26:56.
