data_PCOD8011991
_publ_section_title
;
Structure prediction by ZEFSAII (Michael W. Deem and Ramdas Pophale) SiO2 
 PCOD8011991
Probable space group: P -1
;
_chemical_formula_sum "Si O2"
_cell_formula_units_Z 16
_cell_length_a 11.133261
_cell_length_b 22.596697
_cell_length_c 6.589506
_cell_angle_alpha 107.256527
_cell_angle_beta 59.335897
_cell_angle_gamma 146.556806
_cell_volume 756.241415
_symmetry_space_group_name_H-M "P -1"
_symmetry_group_IT_number 2
_symmetry_cell_setting 'triclinic'
loop_
_space_group_symop_operation_xyz
x,y,z
-x,-y,-z
loop_
_atom_site_type_symbol
_atom_site_label
_atom_site_fract_x
_atom_site_fract_y
_atom_site_fract_z
Si Si1 0.818057 0.444789 0.791429
Si Si2 0.067366 0.950172 0.606337
Si Si3 0.395645 0.019952 0.727762
Si Si4 0.531792 0.675888 0.373753
Si Si5 0.393809 0.169973 0.313274
Si Si6 0.107070 0.456603 0.784459
Si Si7 0.791446 0.231816 0.837061
Si Si8 0.079808 0.849607 0.178322
O O1 0.546602 0.351658 0.825036
O O2 0.000000 0.500000 0.500000
O O3 0.856762 0.401296 0.866340
O O4 0.861725 0.520971 0.975974
O O5 0.075393 0.886487 0.426215
O O6 0.780805 0.870088 0.765064
O O7 0.171996 0.975610 0.766675
O O8 0.240604 0.064580 0.469252
O O9 0.631619 0.152819 0.697134
O O10 0.500000 0.000000 0.500000
O O11 0.291363 0.959265 0.970403
O O12 0.525258 0.743244 0.528427
O O13 0.353471 0.567796 0.559817
O O14 0.808914 0.749807 0.204654
O O15 0.643281 0.229017 0.086566
O O16 0.052404 0.363515 0.690727
O O17 0.847186 0.193942 0.890959
#
# Coordination Sequence:
#
# PCOD8011991 Si02
#       8
#     2   2   2   2   2   2   2   2
#     4   9  18  39  62  91 126 159 204 256 311 364
#     4  10  22  42  61  96 128 160 206 255 319 371
#     4  12  24  41  66  91 125 171 209 250 315 381
#     4  10  23  42  66  90 127 166 203 259 310 374
#     4  10  21  39  65  94 130 158 201 267 307 364
#     4  10  22  39  62  94 125 161 208 258 310 365
#     4  12  23  40  66  91 127 168 206 260 306 366
#     4  11  24  45  62  89 131 166 205 262 313 363
#
# _framework density 21.157266
#
# number of rings (size 3 to 8) (size 9 to 14) (size 15 to 20)
#    0.000    1.500    2.500    3.375    1.750    4.000 
#    4.500    0.625    0.000    0.000    0.000    0.000 
#    0.000    0.000    0.000    0.000    0.000    0.000 
#
# Total GULP energy -198321.747565 kJ/mol
# GULP energy per Si atom -12395.109223 kJ/mol
# Density = 2.110911 g / cm^3
# Si number density = 21.157266 Si / 1000 Ang^3
#
#
#
# Elastic Constant Matrix: (Units=GPa)
#
#
# Indices 1 2 3 4 5 6 
#
# 1 121.8817 55.3804 27.4706 18.8915 2.0440 3.0202
# 2 55.3804 117.8019 2.7136 20.0645 9.6528 18.5371
# 3 27.4706 2.7136 30.6505 14.7346 1.3174 21.8890
# 4 18.8915 20.0645 14.7346 28.8389 8.8578 6.6266
# 5 2.0440 9.6528 1.3174 8.8578 32.2341 3.4458
# 6 3.0202 18.5371 21.8890 6.6266 3.4458 25.3846
#
#
#
# Elastic Compliance Matrix: (Units=1/GPa)
#
#
# Indices 1 2 3 4 5 6 
#
# 1 -0.017439 0.026090 0.096675 -0.037991 0.009587 -0.091723
# 2 0.026090 -0.021153 -0.105237 0.032471 -0.010204 0.095997
# 3 0.096675 -0.105237 -0.326359 0.110799 -0.026080 0.321381
# 4 -0.037991 0.032471 0.110799 0.007585 -0.001472 -0.116513
# 5 0.009587 -0.010204 -0.026080 -0.001472 0.032290 0.024801
# 6 -0.091723 0.095997 0.321381 -0.116513 0.024801 -0.269871
#
#
# Mechanical properties :
#
#
# Convention : Reuss Voigt Hill
#
# Bulk Modulus (GPa) = -3.03126 49.05147 23.01010
# Shear Modulus (GPa) = -6.75707 29.60946 11.42620
#
# Velocity S-wave (km/s) = -1.78904 3.74504 2.32644
# Velocity P-wave (km/s) = 2.38818 6.47572 4.25626
#
# Compressibility (1/GPa) = -0.32989537
#
# Stress axis : x y z
#
# Youngs Moduli (GPa) = -57.34361 -47.27557 -3.06411
#
# Poissons Ratio (x) = 1.23341 0.29622
# Poissons Ratio (y) = 1.49609 -0.32246
# Poissons Ratio (z) = 5.54368 -4.97515
#
# Static dielectric constant tensor:
#      x y z
#    x 4.166730 0.232620 0.086750 
#    y 0.232620 4.166880 0.139950 
#    z 0.086750 0.139950 3.620870 
# 
# 
# High freq. dielectric constant tensor:
#      x y z
#    x 1.833080 0.007580 0.003780 
#    y 0.007580 1.845330 0.005120 
#    z 0.003780 0.005120 1.805970 
# 
# From -- ./inp_files/84423.got.cif
#   From: 2010.06.25/outbox.cif.g09.slc.cpg/sg2_43_cif.got.tgz:84423.got - 2010.06.27 13:26:56.
