data_PCOD8011016
_publ_section_title
;
Structure prediction by ZEFSAII (Michael W. Deem and Ramdas Pophale) SiO2 
 PCOD8011016
Probable space group: P -1
;
_chemical_formula_sum "Si O2"
_cell_formula_units_Z 16
_cell_length_a 8.741868
_cell_length_b 11.145229
_cell_length_c 15.830808
_cell_angle_alpha 72.061109
_cell_angle_beta 48.817874
_cell_angle_gamma 41.852055
_cell_volume 721.585185
_symmetry_space_group_name_H-M "P -1"
_symmetry_group_IT_number 2
_symmetry_cell_setting 'triclinic'
loop_
_space_group_symop_operation_xyz
x,y,z
-x,-y,-z
loop_
_atom_site_type_symbol
_atom_site_label
_atom_site_fract_x
_atom_site_fract_y
_atom_site_fract_z
Si Si1 0.292851 0.656413 0.886384
Si Si2 0.134201 0.797147 0.483612
Si Si3 0.221839 0.903640 0.731140
Si Si4 0.068191 0.155146 0.277407
Si Si5 0.043008 0.697561 0.243651
Si Si6 0.250080 0.496877 0.782784
Si Si7 0.772370 0.770666 0.153207
Si Si8 0.761502 0.796629 0.492607
O O1 0.227469 0.824359 0.833994
O O2 0.601286 0.504797 0.865433
O O3 0.358248 0.524064 0.818266
O O4 0.997631 0.763862 0.027860
O O5 0.472648 0.647710 0.353320
O O6 0.145661 0.730091 0.586752
O O7 0.924762 0.804928 0.501149
O O8 0.000000 0.000000 0.500000
O O9 0.585662 0.759510 0.606325
O O10 0.055334 0.905780 0.716782
O O11 0.015143 0.125404 0.768849
O O12 0.036581 0.296799 0.202765
O O13 0.423893 0.970723 0.213186
O O14 0.813613 0.752662 0.243247
O O15 0.987562 0.652907 0.363898
O O16 0.143407 0.409001 0.870821
O O17 0.500000 0.000000 0.500000
#
# Coordination Sequence:
#
# PCOD8011016 Si02
#       8
#     2   2   2   2   2   2   2   2
#     4  11  25  47  65  98 131 177 231 264 326 391
#     4  12  21  40  70  97 137 168 218 277 330 393
#     4  10  24  41  68  97 134 175 210 277 331 394
#     4  11  24  42  65 101 135 170 224 268 333 391
#     4  11  23  43  65  97 132 171 223 269 334 386
#     4  11  25  43  66  99 130 176 218 279 325 389
#     4  12  26  42  71  94 133 183 219 274 323 387
#     4  10  21  38  65  98 130 172 210 265 341 387
#
# _framework density 22.173404000000001
#
# number of rings (size 3 to 8) (size 9 to 14) (size 15 to 20)
#    0.000    1.000    2.500    4.875    1.750    6.000 
#    0.000    0.000    0.000    0.000    0.000    0.000 
#    0.000    0.000    0.000    0.000    0.000    0.000 
#
# Total GULP energy -198401.165163 kJ/mol
# GULP energy per Si atom -12400.072823 kJ/mol
# Density = 2.212294 g / cm^3
# Si number density = 22.173404 Si / 1000 Ang^3
#
#
#
# Elastic Constant Matrix: (Units=GPa)
#
#
# Indices 1 2 3 4 5 6 
#
# 1 98.2938 34.6147 22.7418 8.3111 -11.3487 -28.5914
# 2 34.6147 72.8093 11.1114 -2.4967 -8.1972 -16.4196
# 3 22.7418 11.1114 90.1970 -3.9215 -18.1750 -2.1799
# 4 8.3111 -2.4967 -3.9215 29.8508 4.1596 -1.2403
# 5 -11.3487 -8.1972 -18.1750 4.1596 34.0607 -0.4029
# 6 -28.5914 -16.4196 -2.1799 -1.2403 -0.4029 26.4431
#
#
#
# Elastic Compliance Matrix: (Units=1/GPa)
#
#
# Indices 1 2 3 4 5 6 
#
# 1 0.018140 -0.004126 -0.003042 -0.005708 0.004322 0.016600
# 2 -0.004126 0.017599 -0.000369 0.002507 0.002436 0.006591
# 3 -0.003042 -0.000369 0.013051 0.001651 0.005633 -0.002279
# 4 -0.005708 0.002507 0.001651 0.036074 -0.004857 -0.002861
# 5 0.004322 0.002436 0.005633 -0.004857 0.035067 0.006956
# 6 0.016600 0.006591 -0.002279 -0.002861 0.006956 0.059642
#
#
# Mechanical properties :
#
#
# Convention : Reuss Voigt Hill
#
# Bulk Modulus (GPa) = 29.65778 44.24842 36.95310
# Shear Modulus (GPa) = 24.28555 30.92640 27.60597
#
# Velocity S-wave (km/s) = 3.31306 3.73869 3.53229
# Velocity P-wave (km/s) = 5.29524 6.21579 5.77389
#
# Compressibility (1/GPa) = 0.03371796
#
# Stress axis : x y z
#
# Youngs Moduli (GPa) = 55.12619 56.82201 76.62240
#
# Poissons Ratio (x) = 0.23443 0.23306
# Poissons Ratio (y) = 0.22743 0.02825
# Poissons Ratio (z) = 0.16768 0.02095
#
# Static dielectric constant tensor:
#      x y z
#    x 4.075150 0.018730 -0.113100 
#    y 0.018730 3.980390 -0.215600 
#    z -0.113100 -0.215600 4.842310 
# 
# 
# High freq. dielectric constant tensor:
#      x y z
#    x 1.879540 -0.007830 0.000560 
#    y -0.007830 1.873360 -0.006130 
#    z 0.000560 -0.006130 1.875290 
# 
# From -- ./inp_files/427406.got.cif
#   From: 2010.06.25/outbox.cif.g09.slc.cpg/sg2_214_cif.got.tgz:427406.got - 2010.06.27 13:26:56.
