data_PCOD8011019
_publ_section_title
;
Structure prediction by ZEFSAII (Michael W. Deem and Ramdas Pophale) SiO2 
 PCOD8011019
Probable space group: P -1
;
_chemical_formula_sum "Si O2"
_cell_formula_units_Z 10
_cell_length_a 4.913588
_cell_length_b 10.617676
_cell_length_c 10.100244
_cell_angle_alpha 109.057724
_cell_angle_beta 112.956418
_cell_angle_gamma 59.003019
_cell_volume 410.611511
_symmetry_space_group_name_H-M "P -1"
_symmetry_group_IT_number 2
_symmetry_cell_setting 'triclinic'
loop_
_space_group_symop_operation_xyz
x,y,z
-x,-y,-z
loop_
_atom_site_type_symbol
_atom_site_label
_atom_site_fract_x
_atom_site_fract_y
_atom_site_fract_z
Si Si1 0.061121 0.635939 0.892729
Si Si2 0.381736 0.395027 0.515017
Si Si3 0.734738 0.073913 0.358406
Si Si4 0.131548 0.063077 0.167607
Si Si5 0.723613 0.446125 0.822118
O O1 0.432042 0.578661 0.891604
O O2 0.907757 0.520465 0.791483
O O3 0.857525 0.788755 0.833176
O O4 0.036349 0.662401 0.056694
O O5 0.469270 0.240194 0.407559
O O6 0.582657 0.352932 0.677744
O O7 0.000000 0.500000 0.500000
O O8 0.521617 0.979336 0.258070
O O9 0.910679 0.084698 0.261314
O O10 0.000000 0.000000 0.500000
O O11 0.000000 0.000000 0.000000
O O12 0.500000 0.500000 0.500000
#
# Coordination Sequence:
#
# PCOD8011019 Si02
#       5
#     2   2   2   2   2
#     4  10  21  40  65  97 137 170 240 284 351 407
#     4  12  24  42  72 100 141 188 240 289 369 426
#     4  12  28  49  72 110 152 190 246 306 368 442
#     4  12  26  47  74 102 145 200 245 295 360 443
#     4  10  21  38  65  99 130 180 223 300 341 422
#
# _framework density 24.353921
#
# number of rings (size 3 to 8) (size 9 to 14) (size 15 to 20)
#    0.000    0.800    0.000    8.400    2.800    0.000 
#    7.200    0.000    0.000    0.000    0.000    0.000 
#    0.000    0.000    0.000    0.000    0.000    0.000 
#
# Total GULP energy -123898.307866 kJ/mol
# GULP energy per Si atom -12389.830787 kJ/mol
# Density = 2.429849 g / cm^3
# Si number density = 24.353921 Si / 1000 Ang^3
#
#
#
# Elastic Constant Matrix: (Units=GPa)
#
#
# Indices 1 2 3 4 5 6 
#
# 1 185.8587 37.5601 82.4794 1.1861 9.9806 -5.2059
# 2 37.5601 67.5135 51.1077 -0.6849 -5.4259 -2.9697
# 3 82.4794 51.1077 197.4683 11.5900 33.2745 6.8320
# 4 1.1861 -0.6849 11.5900 22.4997 0.9808 -0.1890
# 5 9.9806 -5.4259 33.2745 0.9808 57.7263 -2.5982
# 6 -5.2059 -2.9697 6.8320 -0.1890 -2.5982 28.8006
#
#
#
# Elastic Compliance Matrix: (Units=1/GPa)
#
#
# Indices 1 2 3 4 5 6 
#
# 1 0.006915 -0.001812 -0.002560 0.000906 0.000170 0.001692
# 2 -0.001812 0.021062 -0.006030 0.003619 0.005880 0.003829
# 3 -0.002560 -0.006030 0.008996 -0.004479 -0.005402 -0.003735
# 4 0.000906 0.003619 -0.004479 0.046742 0.002065 0.002092
# 5 0.000170 0.005880 -0.005402 0.002065 0.021098 0.003835
# 6 0.001692 0.003829 -0.003735 0.002092 0.003835 0.036668
#
#
# Mechanical properties :
#
#
# Convention : Reuss Voigt Hill
#
# Bulk Modulus (GPa) = 61.84263 88.12610 74.98437
# Shear Modulus (GPa) = 29.81969 40.45155 35.13562
#
# Velocity S-wave (km/s) = 3.50298 4.07994 3.80242
# Velocity P-wave (km/s) = 6.46603 7.64583 7.08055
#
# Compressibility (1/GPa) = 0.01617007
#
# Stress axis : x y z
#
# Youngs Moduli (GPa) = 144.61290 47.47813 111.15792
#
# Poissons Ratio (x) = 0.08604 0.28453
# Poissons Ratio (y) = 0.26206 0.67028
# Poissons Ratio (z) = 0.37016 0.28629
#
# Static dielectric constant tensor:
#      x y z
#    x 4.555910 -0.081620 -0.090170 
#    y -0.081620 3.748670 -0.839150 
#    z -0.090170 -0.839150 3.583570 
# 
# 
# High freq. dielectric constant tensor:
#      x y z
#    x 1.991400 -0.000490 0.013820 
#    y -0.000490 1.921160 -0.015430 
#    z 0.013820 -0.015430 2.011300 
# 
# From -- ./inp_files/131043.got.cif
#   From: 2010.06.25/outbox.cif.g09.slc.cpg/sg2_66_cif.got.tgz:131043.got - 2010.06.27 13:26:56.
