data_PCOD8011209
_publ_section_title
;
Structure prediction by ZEFSAII (Michael W. Deem and Ramdas Pophale) SiO2 
 PCOD8011209
Probable space group: P -1
;
_chemical_formula_sum "Si O2"
_cell_formula_units_Z 14
_cell_length_a 22.733329
_cell_length_b 10.934531
_cell_length_c 8.759229
_cell_angle_alpha 119.637980
_cell_angle_beta 50.575672
_cell_angle_gamma 155.610994
_cell_volume 670.080003
_symmetry_space_group_name_H-M "P -1"
_symmetry_group_IT_number 2
_symmetry_cell_setting 'triclinic'
loop_
_space_group_symop_operation_xyz
x,y,z
-x,-y,-z
loop_
_atom_site_type_symbol
_atom_site_label
_atom_site_fract_x
_atom_site_fract_y
_atom_site_fract_z
Si Si1 0.012417 0.804099 0.918390
Si Si2 0.063186 0.752396 0.100673
Si Si3 0.119567 0.139246 0.679604
Si Si4 0.420505 0.743423 0.376034
Si Si5 0.160320 0.459090 0.426187
Si Si6 0.835460 0.313566 0.698115
Si Si7 0.627827 0.833282 0.969294
O O1 0.874808 0.466285 0.881177
O O2 0.131942 0.033613 0.718512
O O3 0.119545 0.923719 0.958134
O O4 0.909825 0.769629 0.119538
O O5 0.919934 0.607029 0.330219
O O6 0.000000 0.500000 0.000000
O O7 0.213512 0.978633 0.103453
O O8 0.293202 0.438453 0.493214
O O9 0.969156 0.860455 0.637568
O O10 0.324792 0.645629 0.323809
O O11 0.567404 0.879554 0.171791
O O12 0.500000 0.000000 0.500000
O O13 0.218515 0.676660 0.347960
O O14 0.000000 0.500000 0.500000
O O15 0.683016 0.959724 0.780607
O O16 0.500000 0.500000 0.000000
#
# Coordination Sequence:
#
# PCOD8011209 Si02
#       7
#     2   2   2   2   2   2   2
#     4  10  21  38  70  96 122 164 236 270 305 380
#     4  12  21  42  68  95 125 181 227 257 324 410
#     4  10  22  41  67  98 125 168 229 275 312 394
#     4  12  25  43  65  97 143 170 214 279 350 384
#     4  11  23  41  75  92 123 182 234 262 317 409
#     4  11  22  44  69  96 131 177 229 266 325 406
#     4  12  27  41  64 103 141 167 210 288 343 377
#
# _framework density 20.893028000000001
#
# number of rings (size 3 to 8) (size 9 to 14) (size 15 to 20)
#    0.000    0.857    4.286    3.000    4.000    0.571 
#    2.571    0.714    0.000    0.000    0.000    0.000 
#    0.000    0.000    0.000    0.000    0.000    0.000 
#
# Total GULP energy -173539.890264 kJ/mol
# GULP energy per Si atom -12395.706447 kJ/mol
# Density = 2.084547 g / cm^3
# Si number density = 20.893028 Si / 1000 Ang^3
#
#
#
# Elastic Constant Matrix: (Units=GPa)
#
#
# Indices 1 2 3 4 5 6 
#
# 1 126.5565 13.8207 32.6814 -15.3388 32.2005 -6.2933
# 2 13.8207 82.8414 20.8883 -1.3326 16.4942 -19.5824
# 3 32.6814 20.8883 84.9260 -0.3549 10.5883 -14.3317
# 4 -15.3388 -1.3326 -0.3549 40.9368 -10.2692 5.2729
# 5 32.2005 16.4942 10.5883 -10.2692 45.6577 -1.4178
# 6 -6.2933 -19.5824 -14.3317 5.2729 -1.4178 31.6196
#
#
#
# Elastic Compliance Matrix: (Units=1/GPa)
#
#
# Indices 1 2 3 4 5 6 
#
# 1 0.010630 0.000413 -0.003365 0.002357 -0.006331 0.000170
# 2 0.000413 0.015700 -0.001788 -0.001948 -0.005706 0.009065
# 3 -0.003365 -0.001788 0.014434 -0.002003 -0.000622 0.005072
# 4 0.002357 -0.001948 -0.002003 0.027373 0.005477 -0.005964
# 5 -0.006331 -0.005706 -0.000622 0.005477 0.029659 -0.004659
# 6 0.000170 0.009065 0.005072 -0.005964 -0.004659 0.040358
#
#
# Mechanical properties :
#
#
# Convention : Reuss Voigt Hill
#
# Bulk Modulus (GPa) = 31.96211 47.67829 39.82020
# Shear Modulus (GPa) = 31.63308 38.77175 35.20241
#
# Velocity S-wave (km/s) = 3.89530 4.31249 4.10919
# Velocity P-wave (km/s) = 5.96342 6.90409 6.45092
#
# Compressibility (1/GPa) = 0.03128705
#
# Stress axis : x y z
#
# Youngs Moduli (GPa) = 94.07133 63.69231 69.27849
#
# Poissons Ratio (x) = -0.02633 0.23310
# Poissons Ratio (y) = -0.03889 0.12386
# Poissons Ratio (z) = 0.31652 0.11387
#
# Static dielectric constant tensor:
#      x y z
#    x 4.174390 -0.428470 0.285060 
#    y -0.428470 3.710830 0.032150 
#    z 0.285060 0.032150 3.950990 
# 
# 
# High freq. dielectric constant tensor:
#      x y z
#    x 1.837060 -0.022440 0.009650 
#    y -0.022440 1.806350 0.012740 
#    z 0.009650 0.012740 1.821520 
# 
# From -- ./inp_files/159914.got.cif
#   From: 2010.06.25/outbox.cif.g09.slc.cpg/sg2_80_cif.got.tgz:159914.got - 2010.06.27 13:26:56.
