data_PCOD8011853
_publ_section_title
;
Structure prediction by ZEFSAII (Michael W. Deem and Ramdas Pophale) SiO2 
 PCOD8011853
Probable space group: P -1
;
_chemical_formula_sum "Si O2"
_cell_formula_units_Z 14
_cell_length_a 11.139335
_cell_length_b 10.340838
_cell_length_c 7.284088
_cell_angle_alpha 47.600370
_cell_angle_beta 78.742585
_cell_angle_gamma 61.797123
_cell_volume 536.133216
_symmetry_space_group_name_H-M "P -1"
_symmetry_group_IT_number 2
_symmetry_cell_setting 'triclinic'
loop_
_space_group_symop_operation_xyz
x,y,z
-x,-y,-z
loop_
_atom_site_type_symbol
_atom_site_label
_atom_site_fract_x
_atom_site_fract_y
_atom_site_fract_z
Si Si1 0.102164 0.665048 0.553018
Si Si2 0.844379 0.292907 0.897178
Si Si3 0.384184 0.451939 0.799600
Si Si4 0.372668 0.078310 0.271100
Si Si5 0.575044 0.639563 0.554887
Si Si6 0.805128 0.939538 0.349433
Si Si7 0.864624 0.759018 0.106121
O O1 0.124627 0.773933 0.263271
O O2 0.221269 0.617658 0.716494
O O3 0.113434 0.461082 0.669870
O O4 0.949344 0.802353 0.547134
O O5 0.722855 0.522352 0.728141
O O6 0.987523 0.258365 0.981701
O O7 0.784059 0.161632 0.137022
O O8 0.478127 0.547692 0.747913
O O9 0.403714 0.396640 0.632923
O O10 0.417581 0.252439 0.093105
O O11 0.321677 0.063357 0.503457
O O12 0.508773 0.873166 0.384119
O O13 0.251455 0.114683 0.128984
O O14 0.809028 0.860568 0.220081
#
# Coordination Sequence:
#
# PCOD8011853 Si02
#       7
#     2   2   2   2   2   2   2
#     4   9  19  41  67  97 126 175 218 271 333 385
#     4  10  21  39  64  94 133 172 215 271 324 393
#     4   9  21  41  69  95 129 176 226 267 321 403
#     4  11  25  43  69 101 129 175 223 269 332 395
#     4  10  22  42  69  93 134 182 214 269 336 383
#     4  11  23  39  65 101 136 161 222 276 328 390
#     4  10  22  42  71  95 128 175 218 274 333 384
#
# _framework density 26.112912999999999
#
# number of rings (size 3 to 8) (size 9 to 14) (size 15 to 20)
#    0.000    2.000    0.000    3.857    8.000    3.429 
#    7.714    0.714    0.000    0.000    0.000    0.000 
#    0.000    0.000    0.000    0.000    0.000    0.000 
#
# Total GULP energy -173626.012491 kJ/mol
# GULP energy per Si atom -12401.858035 kJ/mol
# Density = 2.605348 g / cm^3
# Si number density = 26.112913 Si / 1000 Ang^3
#
#
#
# Elastic Constant Matrix: (Units=GPa)
#
#
# Indices 1 2 3 4 5 6 
#
# 1 60.1123 -12.4962 16.5885 -2.1517 12.9760 -1.4778
# 2 -12.4962 45.5083 7.4581 -15.7509 15.0939 -11.8412
# 3 16.5885 7.4581 118.0670 -15.3607 -10.0542 9.1778
# 4 -2.1517 -15.7509 -15.3607 30.1365 -12.1615 7.7423
# 5 12.9760 15.0939 -10.0542 -12.1615 47.8078 -10.6539
# 6 -1.4778 -11.8412 9.1778 7.7423 -10.6539 15.1770
#
#
#
# Elastic Compliance Matrix: (Units=1/GPa)
#
#
# Indices 1 2 3 4 5 6 
#
# 1 0.023072 0.012517 -0.005688 -0.000947 -0.009602 0.009195
# 2 0.012517 0.038543 -0.005808 0.008113 -0.009354 0.024098
# 3 -0.005688 -0.005808 0.012141 0.008147 0.005106 -0.012998
# 4 -0.000947 0.008113 0.008147 0.049406 0.007886 -0.018357
# 5 -0.009602 -0.009354 0.005106 0.007886 0.030984 0.006406
# 6 0.009195 0.024098 -0.012998 -0.018357 0.006406 0.107308
#
#
# Mechanical properties :
#
#
# Convention : Reuss Voigt Hill
#
# Bulk Modulus (GPa) = 13.19275 27.42095 20.30685
# Shear Modulus (GPa) = 17.56372 32.76674 25.16523
#
# Velocity S-wave (km/s) = 2.59628 3.54617 3.10773
# Velocity P-wave (km/s) = 3.74843 5.22406 4.54651
#
# Compressibility (1/GPa) = 0.07579920
#
# Stress axis : x y z
#
# Youngs Moduli (GPa) = 43.34243 25.94479 82.36577
#
# Poissons Ratio (x) = -0.32475 0.46849
# Poissons Ratio (y) = -0.54252 0.47835
# Poissons Ratio (z) = 0.24653 0.15068
#
# Static dielectric constant tensor:
#      x y z
#    x 5.122940 -0.458560 -0.016820 
#    y -0.458560 4.430170 -0.116470 
#    z -0.016820 -0.116470 4.764840 
# 
# 
# High freq. dielectric constant tensor:
#      x y z
#    x 2.053860 -0.022440 -0.001880 
#    y -0.022440 2.029490 -0.008000 
#    z -0.001880 -0.008000 2.052970 
# 
# From -- ./inp_files/261283.got.cif
#   From: 2010.06.25/outbox.cif.g09.slc.cpg/sg2_131_cif.got.tgz:261283.got - 2010.06.27 13:26:56.
