data_PCOD8011473
_publ_section_title
;
Structure prediction by ZEFSAII (Michael W. Deem and Ramdas Pophale) SiO2 
 PCOD8011473
Probable space group: P -1
;
_chemical_formula_sum "Si O2"
_cell_formula_units_Z 12
_cell_length_a 15.450804
_cell_length_b 14.398123
_cell_length_c 6.849883
_cell_angle_alpha 132.139498
_cell_angle_beta 58.159760
_cell_angle_gamma 151.269122
_cell_volume 535.206507
_symmetry_space_group_name_H-M "P -1"
_symmetry_group_IT_number 2
_symmetry_cell_setting 'triclinic'
loop_
_space_group_symop_operation_xyz
x,y,z
-x,-y,-z
loop_
_atom_site_type_symbol
_atom_site_label
_atom_site_fract_x
_atom_site_fract_y
_atom_site_fract_z
Si Si1 0.811994 0.896523 0.371469
Si Si2 0.659039 0.329264 0.297263
Si Si3 0.396734 0.924812 0.319470
Si Si4 0.102837 0.988217 0.119637
Si Si5 0.942243 0.256773 0.467175
Si Si6 0.428090 0.475965 0.346897
O O1 0.918242 0.879347 0.163978
O O2 0.596833 0.649905 0.238383
O O3 0.889992 0.094794 0.449365
O O4 0.832850 0.953165 0.653334
O O5 0.658336 0.474949 0.455718
O O6 0.855390 0.486195 0.366947
O O7 0.505165 0.141328 0.375491
O O8 0.617091 0.216049 0.986173
O O9 0.194462 0.766639 0.387528
O O10 0.500000 0.000000 0.500000
O O11 0.738606 0.785976 0.887691
O O12 0.065129 0.809696 0.835620
O O13 0.500000 0.500000 0.500000
#
# Coordination Sequence:
#
# PCOD8011473 Si02
#       6
#     2   2   2   2   2   2
#     4  10  21  39  61  96 136 172 203 265 324 385
#     4  11  25  47  67  98 134 169 223 273 323 389
#     4  11  28  47  69  93 127 180 226 272 325 381
#     4  10  23  38  62 102 135 168 212 258 331 395
#     4  12  24  42  69  97 130 171 221 272 324 390
#     4  10  21  39  67  98 133 172 206 265 328 391
#
# _framework density 22.421250000000001
#
# number of rings (size 3 to 8) (size 9 to 14) (size 15 to 20)
#    0.000    1.333    3.333    1.000    4.667    4.000 
#    0.000    0.000    0.000    0.000    0.000    0.000 
#    0.000    0.000    0.000    0.000    0.000    0.000 
#
# Total GULP energy -148846.258892 kJ/mol
# GULP energy per Si atom -12403.854908 kJ/mol
# Density = 2.237022 g / cm^3
# Si number density = 22.421250 Si / 1000 Ang^3
#
#
#
# Elastic Constant Matrix: (Units=GPa)
#
#
# Indices 1 2 3 4 5 6 
#
# 1 74.9259 -0.1183 14.9095 1.1814 -0.4333 22.7396
# 2 -0.1183 93.5304 31.5138 6.3755 -0.2518 34.4162
# 3 14.9095 31.5138 90.4032 7.7708 2.8965 9.1278
# 4 1.1814 6.3755 7.7708 35.8511 3.8760 -2.2291
# 5 -0.4333 -0.2518 2.8965 3.8760 19.1368 2.4304
# 6 22.7396 34.4162 9.1278 -2.2291 2.4304 39.6394
#
#
#
# Elastic Compliance Matrix: (Units=1/GPa)
#
#
# Indices 1 2 3 4 5 6 
#
# 1 0.019675 0.008201 -0.004195 -0.002740 0.004009 -0.017841
# 2 0.008201 0.021415 -0.006319 -0.004667 0.005217 -0.022425
# 3 -0.004195 -0.006319 0.013646 -0.001109 -0.002635 0.004850
# 4 -0.002740 -0.004667 -0.001109 0.030322 -0.007116 0.008021
# 5 0.004009 0.005217 -0.002635 -0.007116 0.055528 -0.010028
# 6 -0.017841 -0.022425 0.004850 0.008021 -0.010028 0.054881
#
#
# Mechanical properties :
#
#
# Convention : Reuss Voigt Hill
#
# Bulk Modulus (GPa) = 19.95629 39.05217 29.50423
# Shear Modulus (GPa) = 23.06280 33.09576 28.07928
#
# Velocity S-wave (km/s) = 3.21068 3.84616 3.54270
# Velocity P-wave (km/s) = 4.76073 6.09748 5.47009
#
# Compressibility (1/GPa) = 0.05010951
#
# Stress axis : x y z
#
# Youngs Moduli (GPa) = 50.82503 46.69579 73.27926
#
# Poissons Ratio (x) = -0.38295 0.30742
# Poissons Ratio (y) = -0.41681 0.46309
# Poissons Ratio (z) = 0.21322 0.29509
#
# Static dielectric constant tensor:
#      x y z
#    x 3.979710 0.271030 0.021470 
#    y 0.271030 4.635970 -0.035600 
#    z 0.021470 -0.035600 4.030690 
# 
# 
# High freq. dielectric constant tensor:
#      x y z
#    x 1.877090 0.014290 0.007680 
#    y 0.014290 1.901170 -0.001500 
#    z 0.007680 -0.001500 1.889280 
# 
# From -- ./inp_files/97329.got.cif
#   From: 2010.06.25/outbox.cif.g09.slc.cpg/sg2_49_cif.got.tgz:97329.got - 2010.06.27 13:26:56.
