data_PCOD8011824
_publ_section_title
;
Structure prediction by ZEFSAII (Michael W. Deem and Ramdas Pophale) SiO2 
 PCOD8011824
Probable space group: P -1
;
_chemical_formula_sum "Si O2"
_cell_formula_units_Z 16
_cell_length_a 9.004250
_cell_length_b 12.380976
_cell_length_c 10.760086
_cell_angle_alpha 91.505697
_cell_angle_beta 63.250438
_cell_angle_gamma 50.219227
_cell_volume 731.805762
_symmetry_space_group_name_H-M "P -1"
_symmetry_group_IT_number 2
_symmetry_cell_setting 'triclinic'
loop_
_space_group_symop_operation_xyz
x,y,z
-x,-y,-z
loop_
_atom_site_type_symbol
_atom_site_label
_atom_site_fract_x
_atom_site_fract_y
_atom_site_fract_z
Si Si1 0.131259 0.163135 0.674291
Si Si2 0.567926 0.803507 0.560890
Si Si3 0.099457 0.149714 0.155941
Si Si4 0.012788 0.664164 0.021886
Si Si5 0.193290 0.830971 0.359021
Si Si6 0.613846 0.328580 0.470473
Si Si7 0.563982 0.840718 0.853463
Si Si8 0.642890 0.680044 0.055548
O O1 0.201979 0.244591 0.587938
O O2 0.045815 0.219386 0.848981
O O3 0.918755 0.216639 0.672034
O O4 0.340013 0.974187 0.593809
O O5 0.559360 0.681537 0.523046
O O6 0.585535 0.795665 0.702425
O O7 0.273895 0.128319 0.188163
O O8 0.889455 0.184040 0.308096
O O9 0.947630 0.299853 0.125611
O O10 0.279198 0.992748 0.998377
O O11 0.783209 0.692869 0.097163
O O12 0.256114 0.488118 0.968458
O O13 0.375320 0.695535 0.387888
O O14 0.357697 0.822613 0.201634
O O15 0.000000 0.000000 0.500000
O O16 0.500000 0.500000 0.500000
O O17 0.673112 0.698078 0.900188
#
# Coordination Sequence:
#
# PCOD8011824 Si02
#       8
#     2   2   2   2   2   2   2   2
#     4  11  24  41  68  94 127 170 218 265 313 382
#     4  11  24  42  65  97 128 167 217 267 317 379
#     4  10  21  39  64  92 128 165 208 258 320 380
#     4  10  21  42  64  93 129 173 207 256 322 386
#     4  12  24  42  65  97 130 172 216 263 316 381
#     4  12  26  43  65  95 132 169 210 265 325 379
#     4  10  21  39  65  96 125 163 211 267 316 372
#     4  10  23  39  65  95 132 167 210 259 322 383
#
# _framework density 21.863724999999999
#
# number of rings (size 3 to 8) (size 9 to 14) (size 15 to 20)
#    0.000    1.250    2.500    3.000    1.750    5.000 
#    0.000    1.875    0.000    0.000    0.000    0.000 
#    0.000    0.000    0.000    0.000    0.000    0.000 
#
# Total GULP energy -198427.964769 kJ/mol
# GULP energy per Si atom -12401.747798 kJ/mol
# Density = 2.181396 g / cm^3
# Si number density = 21.863725 Si / 1000 Ang^3
#
#
#
# Elastic Constant Matrix: (Units=GPa)
#
#
# Indices 1 2 3 4 5 6 
#
# 1 134.7998 24.6288 45.3224 -12.6218 14.0387 4.1392
# 2 24.6288 82.2023 1.5957 -8.1784 11.4678 -1.4804
# 3 45.3224 1.5957 74.7758 -14.6464 -3.0827 -1.8995
# 4 -12.6218 -8.1784 -14.6464 32.5571 -4.7958 3.8366
# 5 14.0387 11.4678 -3.0827 -4.7958 39.7572 -5.4667
# 6 4.1392 -1.4804 -1.8995 3.8366 -5.4667 34.2875
#
#
#
# Elastic Compliance Matrix: (Units=1/GPa)
#
#
# Indices 1 2 3 4 5 6 
#
# 1 0.010564 -0.002526 -0.006517 0.000249 -0.003804 -0.002380
# 2 -0.002526 0.013520 0.001690 0.002776 -0.002504 0.000272
# 3 -0.006517 0.001690 0.018845 0.006800 0.004348 0.001836
# 4 0.000249 0.002776 0.006800 0.035431 0.003509 -0.002939
# 5 -0.003804 -0.002504 0.004348 0.003509 0.028634 0.004765
# 6 -0.002380 0.000272 0.001836 -0.002939 0.004765 0.030654
#
#
# Mechanical properties :
#
#
# Convention : Reuss Voigt Hill
#
# Bulk Modulus (GPa) = 35.43361 48.31907 41.87634
# Shear Modulus (GPa) = 30.90956 36.00243 33.45599
#
# Velocity S-wave (km/s) = 3.76405 4.06233 3.91603
# Velocity P-wave (km/s) = 5.92727 6.64465 6.29619
#
# Compressibility (1/GPa) = 0.02822179
#
# Stress axis : x y z
#
# Youngs Moduli (GPa) = 94.66334 73.96684 53.06368
#
# Poissons Ratio (x) = 0.18683 0.34584
# Poissons Ratio (y) = 0.23911 -0.08967
# Poissons Ratio (z) = 0.61696 -0.12500
#
# Static dielectric constant tensor:
#      x y z
#    x 3.854820 -0.071410 -0.068700 
#    y -0.071410 4.022190 -0.208070 
#    z -0.068700 -0.208070 3.872200 
# 
# 
# High freq. dielectric constant tensor:
#      x y z
#    x 1.853030 -0.008610 -0.000110 
#    y -0.008610 1.863650 -0.014600 
#    z -0.000110 -0.014600 1.858450 
# 
# From -- ./inp_files/392584.got.cif
#   From: 2010.06.25/outbox.cif.g09.slc.cpg/sg2_197_cif.got.tgz:392584.got - 2010.06.27 13:26:56.
