data_PCOD8011667
_publ_section_title
;
Structure prediction by ZEFSAII (Michael W. Deem and Ramdas Pophale) SiO2 
 PCOD8011667
Probable space group: P -1
;
_chemical_formula_sum "Si O2"
_cell_formula_units_Z 16
_cell_length_a 5.281331
_cell_length_b 12.134476
_cell_length_c 11.355731
_cell_angle_alpha 103.465667
_cell_angle_beta 56.610308
_cell_angle_gamma 88.367136
_cell_volume 579.824540
_symmetry_space_group_name_H-M "P -1"
_symmetry_group_IT_number 2
_symmetry_cell_setting 'triclinic'
loop_
_space_group_symop_operation_xyz
x,y,z
-x,-y,-z
loop_
_atom_site_type_symbol
_atom_site_label
_atom_site_fract_x
_atom_site_fract_y
_atom_site_fract_z
Si Si1 0.883034 0.126593 0.507948
Si Si2 0.773715 0.781364 0.221723
Si Si3 0.161245 0.328225 0.580109
Si Si4 0.753145 0.565976 0.742072
Si Si5 0.030903 0.600513 0.930082
Si Si6 0.812620 0.272788 0.343224
Si Si7 0.227287 0.946818 0.211555
Si Si8 0.141323 0.097562 0.051785
O O1 0.576983 0.143154 0.674331
O O2 0.767344 0.171700 0.419409
O O3 0.110665 0.203140 0.520951
O O4 0.080783 0.995579 0.390572
O O5 0.802842 0.681995 0.289698
O O6 0.008650 0.866822 0.198874
O O7 0.872197 0.721560 0.057701
O O8 0.472281 0.354420 0.444598
O O9 0.883141 0.432229 0.641973
O O10 0.393807 0.596397 0.809565
O O11 0.834036 0.583807 0.861580
O O12 0.939755 0.654127 0.649414
O O13 0.000000 0.500000 0.000000
O O14 0.908718 0.219594 0.173549
O O15 0.249349 0.053932 0.145217
O O16 0.584239 0.878121 0.099089
O O17 0.000000 0.000000 0.000000
#
# Coordination Sequence:
#
# PCOD8011667 Si02
#       8
#     2   2   2   2   2   2   2   2
#     4  10  23  42  65  92 136 169 222 278 332 404
#     4  11  24  40  65  96 130 176 220 274 341 399
#     4  11  24  42  66  92 134 175 218 280 332 402
#     4  12  27  44  73 100 135 183 226 281 338 397
#     4  12  26  46  69 100 140 176 229 282 334 401
#     4  10  24  42  63  99 128 172 225 273 338 398
#     4  10  22  40  63  95 128 168 221 273 332 405
#     4  10  21  39  63  91 128 169 214 276 333 393
#
# _framework density 27.594552
#
# number of rings (size 3 to 8) (size 9 to 14) (size 15 to 20)
#    0.000    1.250    1.250    3.375    7.000    2.000 
#    0.000    0.000    0.000    0.000    0.000    0.000 
#    0.000    0.000    0.000    0.000    0.000    0.000 
#
# Total GULP energy -198431.888287 kJ/mol
# GULP energy per Si atom -12401.993018 kJ/mol
# Density = 2.753175 g / cm^3
# Si number density = 27.594552 Si / 1000 Ang^3
#
#
#
# Elastic Constant Matrix: (Units=GPa)
#
#
# Indices 1 2 3 4 5 6 
#
# 1 48.4787 10.4114 43.3613 3.7745 -14.7701 3.4987
# 2 10.4114 112.7729 54.6991 9.2398 -19.4844 6.5895
# 3 43.3613 54.6991 235.4321 -7.5968 -8.8388 -8.1475
# 4 3.7745 9.2398 -7.5968 60.9157 4.2619 -5.5532
# 5 -14.7701 -19.4844 -8.8388 4.2619 57.4191 1.0573
# 6 3.4987 6.5895 -8.1475 -5.5532 1.0573 53.5204
#
#
#
# Elastic Compliance Matrix: (Units=1/GPa)
#
#
# Indices 1 2 3 4 5 6 
#
# 1 0.027913 0.001850 -0.005529 -0.003519 0.007281 -0.003403
# 2 0.001850 0.011183 -0.002953 -0.002673 0.004057 -0.002305
# 3 -0.005529 -0.002953 0.006013 0.001827 -0.001668 0.001863
# 4 -0.003519 -0.002673 0.001827 0.017719 -0.002897 0.002733
# 5 0.007281 0.004057 -0.001668 -0.002897 0.020659 -0.001938
# 6 -0.003403 -0.002305 0.001863 0.002733 -0.001938 0.019796
#
#
# Mechanical properties :
#
#
# Convention : Reuss Voigt Hill
#
# Bulk Modulus (GPa) = 31.40114 68.18082 49.79098
# Shear Modulus (GPa) = 39.31971 53.58516 46.45244
#
# Velocity S-wave (km/s) = 3.77889 4.41145 4.10737
# Velocity P-wave (km/s) = 5.51763 7.12107 6.37000
#
# Compressibility (1/GPa) = 0.03184597
#
# Stress axis : x y z
#
# Youngs Moduli (GPa) = 35.82519 89.41798 166.31833
#
# Poissons Ratio (x) = -0.16540 0.91953
# Poissons Ratio (y) = -0.06627 0.49109
# Poissons Ratio (z) = 0.19807 0.26402
#
# Static dielectric constant tensor:
#      x y z
#    x 5.005850 -0.542570 0.190860 
#    y -0.542570 5.192520 -0.200040 
#    z 0.190860 -0.200040 6.060570 
# 
# 
# High freq. dielectric constant tensor:
#      x y z
#    x 2.124660 -0.037660 0.014550 
#    y -0.037660 2.130420 -0.009190 
#    z 0.014550 -0.009190 2.155220 
# 
# From -- ./inp_files/47809.got.cif
#   From: 2010.06.25/outbox.cif.g09.slc.cpg/sg2_24_cif.got.tgz:47809.got - 2010.06.27 13:26:56.
