data_PCOD8011251
_publ_section_title
;
Structure prediction by ZEFSAII (Michael W. Deem and Ramdas Pophale) SiO2 
 PCOD8011251
Probable space group: P -1
;
_chemical_formula_sum "Si O2"
_cell_formula_units_Z 16
_cell_length_a 19.643309
_cell_length_b 6.861095
_cell_length_c 9.145307
_cell_angle_alpha 128.235736
_cell_angle_beta 53.181185
_cell_angle_gamma 100.971588
_cell_volume 742.380911
_symmetry_space_group_name_H-M "P -1"
_symmetry_group_IT_number 2
_symmetry_cell_setting 'triclinic'
loop_
_space_group_symop_operation_xyz
x,y,z
-x,-y,-z
loop_
_atom_site_type_symbol
_atom_site_label
_atom_site_fract_x
_atom_site_fract_y
_atom_site_fract_z
Si Si1 0.094923 0.961001 0.428537
Si Si2 0.334940 0.071065 0.860979
Si Si3 0.672982 0.102805 0.747181
Si Si4 0.804260 0.425216 0.664127
Si Si5 0.618705 0.789767 0.434296
Si Si6 0.460205 0.878072 0.859712
Si Si7 0.233226 0.687305 0.888082
Si Si8 0.176843 0.380440 0.579934
O O1 0.111282 0.730476 0.419747
O O2 0.100723 0.230746 0.619264
O O3 0.172271 0.888818 0.173221
O O4 0.000000 0.000000 0.500000
O O5 0.393880 0.087111 0.935233
O O6 0.302784 0.811208 0.774660
O O7 0.396455 0.094766 0.655378
O O8 0.242142 0.295207 0.080201
O O9 0.733351 0.264697 0.680722
O O10 0.621688 0.033108 0.643441
O O11 0.727958 0.835388 0.631360
O O12 0.603916 0.265919 0.037584
O O13 0.836908 0.452812 0.472427
O O14 0.536148 0.701686 0.571947
O O15 0.709118 0.559305 0.210862
O O16 0.500000 0.000000 0.000000
O O17 0.168863 0.591602 0.816197
#
# Coordination Sequence:
#
# PCOD8011251 Si02
#       8
#     2   2   2   2   2   2   2   2
#     4  11  24  43  66  95 127 157 197 255 313 370
#     4  12  21  38  62  89 121 163 212 251 301 365
#     4   9  19  38  59  84 121 164 206 251 305 353
#     4  11  20  39  66  88 121 165 207 249 305 368
#     4  10  22  38  58  87 122 161 208 259 299 358
#     4  10  21  39  57  87 128 162 208 259 305 351
#     4  11  23  42  66  90 124 163 206 254 308 368
#     4  10  21  41  65  92 124 165 202 247 306 368
#
# _framework density 21.552277
#
# number of rings (size 3 to 8) (size 9 to 14) (size 15 to 20)
#    0.000    1.500    3.750    1.875    0.000    1.500 
#    2.250    1.875    0.000    0.000    0.000    0.000 
#    0.000    0.000    0.000    0.000    0.000    0.000 
#
# Total GULP energy -198260.721212 kJ/mol
# GULP energy per Si atom -12391.295076 kJ/mol
# Density = 2.150322 g / cm^3
# Si number density = 21.552277 Si / 1000 Ang^3
#
#
#
# Elastic Constant Matrix: (Units=GPa)
#
#
# Indices 1 2 3 4 5 6 
#
# 1 127.1283 48.7278 18.5115 -0.6588 10.5179 -12.9784
# 2 48.7278 101.1094 19.3440 -7.4897 11.2183 -17.3088
# 3 18.5115 19.3440 43.5487 -5.0855 6.3829 -8.3009
# 4 -0.6588 -7.4897 -5.0855 23.4693 -1.5044 8.5843
# 5 10.5179 11.2183 6.3829 -1.5044 27.9156 -2.2488
# 6 -12.9784 -17.3088 -8.3009 8.5843 -2.2488 31.4668
#
#
#
# Elastic Compliance Matrix: (Units=1/GPa)
#
#
# Indices 1 2 3 4 5 6 
#
# 1 0.010063 -0.004118 -0.002127 -0.002265 -0.001625 0.001826
# 2 -0.004118 0.013610 -0.002840 0.001846 -0.002820 0.004333
# 3 -0.002127 -0.002840 0.026716 0.003329 -0.003710 0.003435
# 4 -0.002265 0.001846 0.003329 0.048368 0.000977 -0.012165
# 5 -0.001625 -0.002820 -0.003710 0.000977 0.038411 -0.000721
# 6 0.001826 0.004333 0.003435 -0.012165 -0.000721 0.039090
#
#
# Mechanical properties :
#
#
# Convention : Reuss Voigt Hill
#
# Bulk Modulus (GPa) = 31.03713 49.43923 40.23818
# Shear Modulus (GPa) = 24.37056 28.91720 26.64388
#
# Velocity S-wave (km/s) = 3.36633 3.66693 3.51984
# Velocity P-wave (km/s) = 5.43523 6.39668 5.93545
#
# Compressibility (1/GPa) = 0.03221948
#
# Stress axis : x y z
#
# Youngs Moduli (GPa) = 99.37176 73.47790 37.43137
#
# Poissons Ratio (x) = 0.30256 0.07961
# Poissons Ratio (y) = 0.40918 0.10631
# Poissons Ratio (z) = 0.21134 0.20868
#
# Static dielectric constant tensor:
#      x y z
#    x 3.985790 -0.084760 0.153330 
#    y -0.084760 3.987380 -0.112890 
#    z 0.153330 -0.112890 3.781100 
# 
# 
# High freq. dielectric constant tensor:
#      x y z
#    x 1.847320 -0.004710 0.017080 
#    y -0.004710 1.844720 -0.013320 
#    z 0.017080 -0.013320 1.826010 
# 
# From -- ./inp_files/116581.got.cif
#   From: 2010.06.25/outbox.cif.g09.slc.cpg/sg2_59_cif.got.tgz:116581.got - 2010.06.27 13:26:56.
