data_PCOD8011192
_publ_section_title
;
Structure prediction by ZEFSAII (Michael W. Deem and Ramdas Pophale) SiO2 
 PCOD8011192
Probable space group: P -1
;
_chemical_formula_sum "Si O2"
_cell_formula_units_Z 16
_cell_length_a 5.175529
_cell_length_b 11.961390
_cell_length_c 10.424061
_cell_angle_alpha 94.252545
_cell_angle_beta 75.498476
_cell_angle_gamma 108.752086
_cell_volume 591.580849
_symmetry_space_group_name_H-M "P -1"
_symmetry_group_IT_number 2
_symmetry_cell_setting 'triclinic'
loop_
_space_group_symop_operation_xyz
x,y,z
-x,-y,-z
loop_
_atom_site_type_symbol
_atom_site_label
_atom_site_fract_x
_atom_site_fract_y
_atom_site_fract_z
Si Si1 0.343503 0.165196 0.507449
Si Si2 0.217342 0.385714 0.493289
Si Si3 0.895745 0.576163 0.914150
Si Si4 0.699303 0.097072 0.894876
Si Si5 0.673359 0.420795 0.686487
Si Si6 0.011168 0.026871 0.317385
Si Si7 0.683724 0.749725 0.109271
Si Si8 0.108735 0.761974 0.710120
O O1 0.367351 0.302438 0.541361
O O2 0.073514 0.102952 0.447248
O O3 0.615748 0.167115 0.396243
O O4 0.281928 0.083493 0.636991
O O5 0.424135 0.512041 0.417530
O O6 0.964150 0.398587 0.611711
O O7 0.105101 0.327834 0.365500
O O8 0.721084 0.490601 0.819986
O O9 0.146544 0.683342 0.821557
O O10 0.690762 0.641371 0.007781
O O11 0.000000 0.500000 0.000000
O O12 0.561633 0.199605 0.902326
O O13 0.013054 0.152142 0.917381
O O14 0.742269 0.028171 0.755192
O O15 0.500000 0.000000 0.000000
O O16 0.418929 0.301830 0.739544
O O17 0.991121 0.125492 0.222457
#
# Coordination Sequence:
#
# PCOD8011192 Si02
#       8
#     2   2   2   2   2   2   2   2
#     4  10  21  38  69  98 139 179 234 296 367 434
#     4   9  21  42  66 104 140 180 235 295 369 435
#     4  11  25  45  70 102 142 195 247 297 362 434
#     4  12  28  47  73 103 145 189 244 305 366 436
#     4  10  22  45  69  99 144 186 242 300 365 432
#     4  10  23  41  66 101 138 183 240 294 368 434
#     4  12  27  46  73 103 144 191 247 301 362 436
#     4  10  22  40  69 101 139 183 235 302 361 436
#
# _framework density 27.046178999999999
#
# number of rings (size 3 to 8) (size 9 to 14) (size 15 to 20)
#    0.000    1.500    0.000    3.375    7.000    0.000 
#    2.250    1.875    0.000    0.000    0.000    0.000 
#    0.000    0.000    0.000    0.000    0.000    0.000 
#
# Total GULP energy -198244.346860 kJ/mol
# GULP energy per Si atom -12390.271679 kJ/mol
# Density = 2.698462 g / cm^3
# Si number density = 27.046179 Si / 1000 Ang^3
#
#
#
# Elastic Constant Matrix: (Units=GPa)
#
#
# Indices 1 2 3 4 5 6 
#
# 1 61.9792 41.4756 35.0953 -8.9485 -7.4341 -16.2787
# 2 41.4756 202.9476 79.3109 -13.6823 -4.0554 -21.9016
# 3 35.0953 79.3109 145.4888 -22.8688 -18.6671 -15.6199
# 4 -8.9485 -13.6823 -22.8688 54.0894 -0.2851 -7.5421
# 5 -7.4341 -4.0554 -18.6671 -0.2851 49.7744 -5.6627
# 6 -16.2787 -21.9016 -15.6199 -7.5421 -5.6627 46.5801
#
#
#
# Elastic Compliance Matrix: (Units=1/GPa)
#
#
# Indices 1 2 3 4 5 6 
#
# 1 0.021595 -0.002576 -0.002300 0.002853 0.002895 0.006378
# 2 -0.002576 0.006755 -0.003012 0.000171 -0.000827 0.001193
# 3 -0.002300 -0.003012 0.010328 0.003557 0.003561 0.002252
# 4 0.002853 0.000171 0.003557 0.021363 0.002584 0.006044
# 5 0.002895 -0.000827 0.003561 0.002584 0.022370 0.004955
# 6 0.006378 0.001193 0.002252 0.006044 0.004955 0.026594
#
#
# Mechanical properties :
#
#
# Convention : Reuss Voigt Hill
#
# Bulk Modulus (GPa) = 43.66566 80.24213 61.95389
# Shear Modulus (GPa) = 37.76001 47.05772 42.40886
#
# Velocity S-wave (km/s) = 3.74054 4.17574 3.96412
# Velocity P-wave (km/s) = 5.90215 7.27888 6.62637
#
# Compressibility (1/GPa) = 0.02290129
#
# Stress axis : x y z
#
# Youngs Moduli (GPa) = 46.30675 148.04743 96.82403
#
# Poissons Ratio (x) = 0.38134 0.22274
# Poissons Ratio (y) = 0.11928 0.29164
# Poissons Ratio (z) = 0.10652 0.44592
#
# Static dielectric constant tensor:
#      x y z
#    x 4.583740 0.024830 0.020090 
#    y 0.024830 6.070530 -0.263580 
#    z 0.020090 -0.263580 5.163860 
# 
# 
# High freq. dielectric constant tensor:
#      x y z
#    x 2.062810 0.012350 0.003190 
#    y 0.012350 2.139870 -0.006690 
#    z 0.003190 -0.006690 2.105880 
# 
# From -- ./inp_files/364453.got.cif
#   From: 2010.06.25/outbox.cif.g09.slc.cpg/sg2_183_cif.got.tgz:364453.got - 2010.06.27 13:26:56.
