data_PCOD8011774
_publ_section_title
;
Structure prediction by ZEFSAII (Michael W. Deem and Ramdas Pophale) SiO2 
 PCOD8011774
Probable space group: P -1
;
_chemical_formula_sum "Si O2"
_cell_formula_units_Z 16
_cell_length_a 12.200164
_cell_length_b 8.490962
_cell_length_c 9.354954
_cell_angle_alpha 60.245949
_cell_angle_beta 64.467975
_cell_angle_gamma 56.801124
_cell_volume 686.872885
_symmetry_space_group_name_H-M "P -1"
_symmetry_group_IT_number 2
_symmetry_cell_setting 'triclinic'
loop_
_space_group_symop_operation_xyz
x,y,z
-x,-y,-z
loop_
_atom_site_type_symbol
_atom_site_label
_atom_site_fract_x
_atom_site_fract_y
_atom_site_fract_z
Si Si1 0.831012 0.297615 0.652394
Si Si2 0.260617 0.714374 0.831138
Si Si3 0.300414 0.402580 0.178759
Si Si4 0.881093 0.747732 0.516973
Si Si5 0.713524 0.179559 0.520244
Si Si6 0.965296 0.904320 0.925182
Si Si7 0.759027 0.876951 0.227303
Si Si8 0.491385 0.975194 0.185759
O O1 0.709690 0.452150 0.748241
O O2 0.770731 0.305240 0.527356
O O3 0.957549 0.358275 0.549004
O O4 0.879088 0.073084 0.784743
O O5 0.346152 0.688747 0.649192
O O6 0.108822 0.758152 0.846116
O O7 0.271321 0.888938 0.842070
O O8 0.314887 0.506308 0.978710
O O9 0.164168 0.367917 0.284500
O O10 0.427521 0.188885 0.207677
O O11 0.802228 0.757351 0.406872
O O12 0.837627 0.973867 0.493352
O O13 0.598140 0.144755 0.683352
O O14 0.878944 0.787189 0.082486
O O15 0.000000 0.000000 0.000000
O O16 0.633557 0.853423 0.237797
O O17 0.500000 0.000000 0.000000
#
# Coordination Sequence:
#
# PCOD8011774 Si02
#       8
#     2   2   2   2   2   2   2   2
#     4  12  19  39  68 102 129 166 214 265 321 384
#     4  10  20  40  65 102 126 166 212 264 325 385
#     4  11  24  40  65  96 133 163 220 269 318 371
#     4  10  21  38  67  98 130 168 208 267 323 386
#     4  10  23  40  67  94 132 173 211 253 323 388
#     4  10  16  32  64  96 122 165 207 256 314 388
#     4  10  19  40  68  88 125 177 221 245 317 392
#     4  11  26  47  64  91 129 177 219 266 312 383
#
# _framework density 23.293976000000001
#
# number of rings (size 3 to 8) (size 9 to 14) (size 15 to 20)
#    0.000    1.500    6.250    1.500    0.000    5.000 
#    2.250    1.250    0.000    0.000    0.000    0.000 
#    0.000    0.000    0.000    0.000    0.000    0.000 
#
# Total GULP energy -198320.936180 kJ/mol
# GULP energy per Si atom -12395.058511 kJ/mol
# Density = 2.324096 g / cm^3
# Si number density = 23.293976 Si / 1000 Ang^3
#
#
#
# Elastic Constant Matrix: (Units=GPa)
#
#
# Indices 1 2 3 4 5 6 
#
# 1 114.0050 13.2610 35.6342 15.0863 5.1098 -2.3696
# 2 13.2610 39.2945 7.4351 10.8988 7.3499 -0.7701
# 3 35.6342 7.4351 152.7053 6.2605 -9.4502 6.0621
# 4 15.0863 10.8988 6.2605 34.0721 0.9578 -2.2010
# 5 5.1098 7.3499 -9.4502 0.9578 28.8050 11.4216
# 6 -2.3696 -0.7701 6.0621 -2.2010 11.4216 19.4677
#
#
#
# Elastic Compliance Matrix: (Units=1/GPa)
#
#
# Indices 1 2 3 4 5 6 
#
# 1 0.010441 -0.001304 -0.002625 -0.003365 -0.003813 0.003893
# 2 -0.001304 0.030611 -0.001786 -0.008139 -0.010644 0.006933
# 3 -0.002625 -0.001786 0.007893 -0.000304 0.006078 -0.006448
# 4 -0.003365 -0.008139 -0.000304 0.033687 0.000256 0.003022
# 5 -0.003813 -0.010644 0.006078 0.000256 0.053669 -0.034236
# 6 0.003893 0.006933 -0.006448 0.003022 -0.034236 0.074551
#
#
# Mechanical properties :
#
#
# Convention : Reuss Voigt Hill
#
# Bulk Modulus (GPa) = 26.65742 46.51836 36.58789
# Shear Modulus (GPa) = 21.29583 33.11392 27.20487
#
# Velocity S-wave (km/s) = 3.02689 3.77446 3.42115
# Velocity P-wave (km/s) = 4.86671 6.24571 5.59882
#
# Compressibility (1/GPa) = 0.03751301
#
# Stress axis : x y z
#
# Youngs Moduli (GPa) = 95.77677 32.66778 126.69838
#
# Poissons Ratio (x) = 0.04260 0.33264
# Poissons Ratio (y) = 0.12490 0.22633
# Poissons Ratio (z) = 0.25146 0.05836
#
# Static dielectric constant tensor:
#      x y z
#    x 4.535050 -0.365220 0.095390 
#    y -0.365220 4.046520 0.021840 
#    z 0.095390 0.021840 4.805910 
# 
# 
# High freq. dielectric constant tensor:
#      x y z
#    x 1.894960 -0.004600 -0.016000 
#    y -0.004600 1.895850 0.005450 
#    z -0.016000 0.005450 1.940680 
# 
# From -- ./inp_files/242505.got.cif
#   From: 2010.06.25/outbox.cif.g09.slc.cpg/sg2_122_cif.got.tgz:242505.got - 2010.06.27 13:26:56.
