data_PCOD8011719
_publ_section_title
;
Structure prediction by ZEFSAII (Michael W. Deem and Ramdas Pophale) SiO2 
 PCOD8011719
Probable space group: P -1
;
_chemical_formula_sum "Si O2"
_cell_formula_units_Z 16
_cell_length_a 11.674974
_cell_length_b 15.019603
_cell_length_c 9.522006
_cell_angle_alpha 127.157728
_cell_angle_beta 38.108648
_cell_angle_gamma 106.076495
_cell_volume 751.529309
_symmetry_space_group_name_H-M "P -1"
_symmetry_group_IT_number 2
_symmetry_cell_setting 'triclinic'
loop_
_space_group_symop_operation_xyz
x,y,z
-x,-y,-z
loop_
_atom_site_type_symbol
_atom_site_label
_atom_site_fract_x
_atom_site_fract_y
_atom_site_fract_z
Si Si1 0.414041 0.057740 0.786692
Si Si2 0.861687 0.275438 0.741246
Si Si3 0.865700 0.998757 0.793640
Si Si4 0.930061 0.684371 0.673472
Si Si5 0.151656 0.316431 0.710173
Si Si6 0.927762 0.443601 0.312998
Si Si7 0.231043 0.048004 0.445074
Si Si8 0.430440 0.424168 0.389054
O O1 0.500000 0.000000 0.500000
O O2 0.601356 0.036680 0.688464
O O3 0.267076 0.996820 0.936165
O O4 0.286630 0.202141 0.027513
O O5 0.963231 0.133002 0.537679
O O6 0.898979 0.295395 0.561812
O O7 0.960699 0.342294 0.815550
O O8 0.623218 0.322219 0.032694
O O9 0.724869 0.027984 0.817424
O O10 0.000542 0.078661 0.756452
O O11 0.914996 0.563850 0.516989
O O12 0.002061 0.668235 0.750770
O O13 0.253064 0.175879 0.527233
O O14 0.313010 0.350821 0.504332
O O15 0.082800 0.404372 0.995410
O O16 0.702651 0.476571 0.502912
O O17 0.500000 0.500000 0.500000
#
# Coordination Sequence:
#
# PCOD8011719 Si02
#       8
#     2   2   2   2   2   2   2   2
#     4  11  23  42  66  93 129 172 210 256 322 382
#     4  10  21  39  63  94 129 165 206 258 317 373
#     4   9  22  40  64  98 127 161 214 264 313 373
#     4  10  23  42  64  89 130 169 207 260 313 376
#     4  11  22  41  65  95 134 163 204 269 315 370
#     4  11  22  41  65  91 128 169 209 258 317 368
#     4  10  22  40  68  94 128 165 211 261 318 373
#     4  12  23  37  68  99 123 166 216 258 314 382
#
# _framework density 21.289921
#
# number of rings (size 3 to 8) (size 9 to 14) (size 15 to 20)
#    0.000    1.500    2.500    2.250    1.750    4.000 
#    0.000    0.000    0.000    0.000    0.000    0.000 
#    0.000    0.000    0.000    0.000    0.000    0.000 
#
# Total GULP energy -198349.688382 kJ/mol
# GULP energy per Si atom -12396.855524 kJ/mol
# Density = 2.124146 g / cm^3
# Si number density = 21.289921 Si / 1000 Ang^3
#
#
#
# Elastic Constant Matrix: (Units=GPa)
#
#
# Indices 1 2 3 4 5 6 
#
# 1 126.9268 58.8519 62.2168 -3.9082 -17.2076 -26.9685
# 2 58.8519 101.1811 45.6662 -7.3900 -6.9501 -12.0505
# 3 62.2168 45.6662 142.6762 -19.1324 -4.0444 -18.8863
# 4 -3.9082 -7.3900 -19.1324 31.8979 -3.8402 0.1476
# 5 -17.2076 -6.9501 -4.0444 -3.8402 31.3980 -0.9973
# 6 -26.9685 -12.0505 -18.8863 0.1476 -0.9973 37.3724
#
#
#
# Elastic Compliance Matrix: (Units=1/GPa)
#
#
# Indices 1 2 3 4 5 6 
#
# 1 0.014592 -0.005668 -0.003554 -0.000919 0.006397 0.007081
# 2 -0.005668 0.014080 -0.001918 0.001410 -0.000081 -0.000527
# 3 -0.003554 -0.001918 0.010099 0.005122 -0.000385 0.001890
# 4 -0.000919 0.001410 0.005122 0.035209 0.004850 0.002370
# 5 0.006397 -0.000081 -0.000385 0.004850 0.036050 0.005339
# 6 0.007081 -0.000527 0.001890 0.002370 0.005339 0.032785
#
#
# Mechanical properties :
#
#
# Convention : Reuss Voigt Hill
#
# Bulk Modulus (GPa) = 60.63693 78.25043 69.44368
# Shear Modulus (GPa) = 29.30963 33.73695 31.52329
#
# Velocity S-wave (km/s) = 3.71440 3.98508 3.85212
# Velocity P-wave (km/s) = 6.85121 7.61636 7.24389
#
# Compressibility (1/GPa) = 0.01649160
#
# Stress axis : x y z
#
# Youngs Moduli (GPa) = 68.53116 71.02090 99.02382
#
# Poissons Ratio (x) = 0.40254 0.35189
# Poissons Ratio (y) = 0.38843 0.18993
# Poissons Ratio (z) = 0.24353 0.13622
#
# Static dielectric constant tensor:
#      x y z
#    x 4.149430 -0.305590 -0.100730 
#    y -0.305590 4.064800 -0.044400 
#    z -0.100730 -0.044400 3.878480 
# 
# 
# High freq. dielectric constant tensor:
#      x y z
#    x 1.830040 -0.014030 -0.003210 
#    y -0.014030 1.839780 -0.001430 
#    z -0.003210 -0.001430 1.833830 
# 
# From -- ./inp_files/270809.got.cif
#   From: 2010.06.25/outbox.cif.g09.slc.cpg/sg2_136_cif.got.tgz:270809.got - 2010.06.27 13:26:56.
