data_PCOD8011255
_publ_section_title
;
Structure prediction by ZEFSAII (Michael W. Deem and Ramdas Pophale) SiO2 
 PCOD8011255
Probable space group: P -1
;
_chemical_formula_sum "Si O2"
_cell_formula_units_Z 16
_cell_length_a 15.080788
_cell_length_b 11.165039
_cell_length_c 8.722139
_cell_angle_alpha 138.524671
_cell_angle_beta 50.610742
_cell_angle_gamma 128.445655
_cell_volume 720.355658
_symmetry_space_group_name_H-M "P -1"
_symmetry_group_IT_number 2
_symmetry_cell_setting 'triclinic'
loop_
_space_group_symop_operation_xyz
x,y,z
-x,-y,-z
loop_
_atom_site_type_symbol
_atom_site_label
_atom_site_fract_x
_atom_site_fract_y
_atom_site_fract_z
Si Si1 0.014614 0.994178 0.723319
Si Si2 0.329030 0.571358 0.245121
Si Si3 0.557917 0.761075 0.658178
Si Si4 0.488446 0.477369 0.231567
Si Si5 0.186875 0.169530 0.967615
Si Si6 0.670414 0.127974 0.031752
Si Si7 0.054688 0.725613 0.163117
Si Si8 0.633757 0.035348 0.328885
O O1 0.998697 0.167351 0.805729
O O2 0.033633 0.819122 0.437043
O O3 0.129685 0.081034 0.786162
O O4 0.897736 0.914023 0.877057
O O5 0.382929 0.525986 0.301959
O O6 0.216790 0.397554 0.150297
O O7 0.286635 0.757981 0.499961
O O8 0.435296 0.624281 0.053716
O O9 0.583325 0.664786 0.380081
O O10 0.579436 0.650369 0.677980
O O11 0.416458 0.746035 0.791834
O O12 0.647438 0.969584 0.771038
O O13 0.312465 0.123330 0.812144
O O14 0.635230 0.023963 0.133054
O O15 0.806242 0.250192 0.994460
O O16 0.000000 0.500000 0.000000
O O17 0.500000 0.000000 0.500000
#
# Coordination Sequence:
#
# PCOD8011255 Si02
#       8
#     2   2   2   2   2   2   2   2
#     4  10  26  48  69 102 127 181 232 284 336 389
#     4  11  23  39  66  95 134 179 222 269 337 403
#     4  10  22  38  65  93 141 171 220 274 344 404
#     4  10  21  39  57  99 132 178 218 263 329 411
#     4  11  25  44  72  97 138 174 231 282 332 404
#     4  11  23  41  64 100 133 177 224 280 338 407
#     4  11  26  48  73  97 136 178 234 284 342 395
#     4  12  24  42  68 100 140 179 220 276 347 406
#
# _framework density 22.21125
#
# number of rings (size 3 to 8) (size 9 to 14) (size 15 to 20)
#    0.000    1.250    2.500    3.000    3.500    4.000 
#    4.500    2.500    0.000    0.000    0.000    0.000 
#    0.000    0.000    0.000    0.000    0.000    0.000 
#
# Total GULP energy -198398.822857 kJ/mol
# GULP energy per Si atom -12399.926429 kJ/mol
# Density = 2.216070 g / cm^3
# Si number density = 22.211250 Si / 1000 Ang^3
#
#
#
# Elastic Constant Matrix: (Units=GPa)
#
#
# Indices 1 2 3 4 5 6 
#
# 1 84.6285 37.5947 32.4159 -5.5162 12.8673 6.0939
# 2 37.5947 78.9061 30.1462 14.0319 5.2917 14.6682
# 3 32.4159 30.1462 103.0307 21.0460 20.3499 2.4851
# 4 -5.5162 14.0319 21.0460 41.3030 2.3207 0.3302
# 5 12.8673 5.2917 20.3499 2.3207 34.4335 -0.0617
# 6 6.0939 14.6682 2.4851 0.3302 -0.0617 31.4078
#
#
#
# Elastic Compliance Matrix: (Units=1/GPa)
#
#
# Indices 1 2 3 4 5 6 
#
# 1 0.018029 -0.008222 -0.004110 0.007490 -0.003549 0.000581
# 2 -0.008222 0.019833 -0.001955 -0.006872 0.001630 -0.007437
# 3 -0.004110 -0.001955 0.014131 -0.006750 -0.006059 0.000651
# 4 0.007490 -0.006872 -0.006750 0.030961 0.000163 0.001965
# 5 -0.003549 0.001630 -0.006059 0.000163 0.033688 0.000471
# 6 0.000581 -0.007437 0.000651 0.001965 0.000471 0.035128
#
#
# Mechanical properties :
#
#
# Convention : Reuss Voigt Hill
#
# Bulk Modulus (GPa) = 42.69991 51.87542 47.28767
# Shear Modulus (GPa) = 26.57486 32.52277 29.54881
#
# Velocity S-wave (km/s) = 3.46274 3.83070 3.65136
# Velocity P-wave (km/s) = 5.93748 6.55529 6.25402
#
# Compressibility (1/GPa) = 0.02341925
#
# Stress axis : x y z
#
# Youngs Moduli (GPa) = 55.46702 50.42208 70.76817
#
# Poissons Ratio (x) = 0.41455 0.29084
# Poissons Ratio (y) = 0.45603 0.13835
# Poissons Ratio (z) = 0.22796 0.09858
#
# Static dielectric constant tensor:
#      x y z
#    x 3.972190 -0.059260 0.268090 
#    y -0.059260 3.879000 0.221250 
#    z 0.268090 0.221250 4.358670 
# 
# 
# High freq. dielectric constant tensor:
#      x y z
#    x 1.869080 -0.005830 0.020830 
#    y -0.005830 1.869810 0.011860 
#    z 0.020830 0.011860 1.891370 
# 
# From -- ./inp_files/277691.got.cif
#   From: 2010.06.25/outbox.cif.g09.slc.cpg/sg2_139_cif.got.tgz:277691.got - 2010.06.27 13:26:56.
