data_PCOD8011357
_publ_section_title
;
Structure prediction by ZEFSAII (Michael W. Deem and Ramdas Pophale) SiO2 
 PCOD8011357
Probable space group: P -1
;
_chemical_formula_sum "Si O2"
_cell_formula_units_Z 16
_cell_length_a 13.642790
_cell_length_b 9.389790
_cell_length_c 19.747331
_cell_angle_alpha 58.013779
_cell_angle_beta 25.699739
_cell_angle_gamma 48.786751
_cell_volume 809.218685
_symmetry_space_group_name_H-M "P -1"
_symmetry_group_IT_number 2
_symmetry_cell_setting 'triclinic'
loop_
_space_group_symop_operation_xyz
x,y,z
-x,-y,-z
loop_
_atom_site_type_symbol
_atom_site_label
_atom_site_fract_x
_atom_site_fract_y
_atom_site_fract_z
Si Si1 0.068226 0.186098 0.864246
Si Si2 0.768120 0.449737 0.652089
Si Si3 0.221253 0.673633 0.711111
Si Si4 0.484322 0.743418 0.414617
Si Si5 0.763583 0.814984 0.863149
Si Si6 0.593766 0.504409 0.013947
Si Si7 0.012958 0.011694 0.568079
Si Si8 0.263194 0.765358 0.815482
O O1 0.239529 0.287375 0.728864
O O2 0.254954 0.968405 0.778142
O O3 0.828648 0.290745 0.936198
O O4 0.964311 0.216630 0.998232
O O5 0.645564 0.457803 0.799031
O O6 0.862290 0.234781 0.623554
O O7 0.549160 0.595684 0.699580
O O8 0.000000 0.500000 0.500000
O O9 0.318162 0.792302 0.574942
O O10 0.450709 0.453120 0.615208
O O11 0.190460 0.735273 0.792753
O O12 0.940725 0.721578 0.843483
O O13 0.315142 0.921030 0.424600
O O14 0.905006 0.880112 0.703011
O O15 0.691814 0.659322 0.918007
O O16 0.500000 0.000000 0.000000
O O17 0.500000 0.500000 0.000000
O O18 0.000000 0.000000 0.500000
#
# Coordination Sequence:
#
# PCOD8011357 Si02
#       8
#     2   2   2   2   2   2   2   2
#     4  10  22  42  60  91 124 158 210 248 299 373
#     4  11  24  43  60  94 131 162 212 256 301 375
#     4  10  22  39  63  90 123 158 199 254 309 358
#     4  10  21  39  60  89 124 155 202 252 297 369
#     4  11  23  43  63  93 127 158 213 260 303 379
#     4  11  25  42  66  91 125 168 206 256 314 368
#     4  11  24  39  65  94 124 166 205 253 317 364
#     4  10  23  40  63  90 123 164 203 252 307 362
#
# _framework density 19.772158000000001
#
# number of rings (size 3 to 8) (size 9 to 14) (size 15 to 20)
#    0.000    1.500    2.500    1.500    3.500    3.000 
#    0.000    0.000    0.000    0.000    0.000    0.000 
#    0.000    0.000    0.000    0.000    0.000    0.000 
#
# Total GULP energy -198344.098051 kJ/mol
# GULP energy per Si atom -12396.506128 kJ/mol
# Density = 1.972716 g / cm^3
# Si number density = 19.772158 Si / 1000 Ang^3
#
#
#
# Elastic Constant Matrix: (Units=GPa)
#
#
# Indices 1 2 3 4 5 6 
#
# 1 187.4260 63.9568 70.0388 5.8324 12.2644 -6.3925
# 2 63.9568 124.2615 45.7393 12.4951 0.6721 -7.7135
# 3 70.0388 45.7393 95.3166 -0.2836 -4.6271 5.1625
# 4 5.8324 12.4951 -0.2836 40.9977 2.0675 -9.2113
# 5 12.2644 0.6721 -4.6271 2.0675 24.1453 -5.2093
# 6 -6.3925 -7.7135 5.1625 -9.2113 -5.2093 23.7506
#
#
#
# Elastic Compliance Matrix: (Units=1/GPa)
#
#
# Indices 1 2 3 4 5 6 
#
# 1 0.008553 -0.002233 -0.005548 0.000062 -0.004981 0.001714
# 2 -0.002233 0.011014 -0.003770 -0.002425 0.000975 0.003069
# 3 -0.005548 -0.003770 0.016895 0.000672 0.005018 -0.005029
# 4 0.000062 -0.002425 0.000672 0.027299 -0.000090 0.009651
# 5 -0.004981 0.000975 0.005018 -0.000090 0.046631 0.008078
# 6 0.001714 0.003069 -0.005029 0.009651 0.008078 0.050170
#
#
# Mechanical properties :
#
#
# Convention : Reuss Voigt Hill
#
# Bulk Modulus (GPa) = 74.85248 85.16376 80.00812
# Shear Modulus (GPa) = 26.57912 32.93000 29.75456
#
# Velocity S-wave (km/s) = 3.67041 4.08545 3.88348
# Velocity P-wave (km/s) = 7.47678 8.08830 7.78854
#
# Compressibility (1/GPa) = 0.01335961
#
# Stress axis : x y z
#
# Youngs Moduli (GPa) = 116.91830 90.79533 59.18894
#
# Poissons Ratio (x) = 0.20275 0.32836
# Poissons Ratio (y) = 0.26108 0.22317
# Poissons Ratio (z) = 0.64862 0.34234
#
# Static dielectric constant tensor:
#      x y z
#    x 3.500760 -0.156100 -0.083610 
#    y -0.156100 3.742000 0.089100 
#    z -0.083610 0.089100 3.641100 
# 
# 
# High freq. dielectric constant tensor:
#      x y z
#    x 1.767240 -0.009470 -0.005570 
#    y -0.009470 1.787530 0.008740 
#    z -0.005570 0.008740 1.778180 
# 
# From -- ./inp_files/272389.got.cif
#   From: 2010.06.25/outbox.cif.g09.slc.cpg/sg2_137_cif.got.tgz:272389.got - 2010.06.27 13:26:56.
