data_PCOD8011372
_publ_section_title
;
Structure prediction by ZEFSAII (Michael W. Deem and Ramdas Pophale) SiO2 
 PCOD8011372
Probable space group: P -1
;
_chemical_formula_sum "Si O2"
_cell_formula_units_Z 16
_cell_length_a 9.174406
_cell_length_b 12.214961
_cell_length_c 11.455438
_cell_angle_alpha 133.393329
_cell_angle_beta 102.461067
_cell_angle_gamma 59.444407
_cell_volume 784.818841
_symmetry_space_group_name_H-M "P -1"
_symmetry_group_IT_number 2
_symmetry_cell_setting 'triclinic'
loop_
_space_group_symop_operation_xyz
x,y,z
-x,-y,-z
loop_
_atom_site_type_symbol
_atom_site_label
_atom_site_fract_x
_atom_site_fract_y
_atom_site_fract_z
Si Si1 0.614320 0.563565 0.997371
Si Si2 0.254167 0.311257 0.482937
Si Si3 0.124722 0.577600 0.457117
Si Si4 0.154303 0.878576 0.598165
Si Si5 0.826936 0.193439 0.714896
Si Si6 0.559582 0.068817 0.212296
Si Si7 0.386352 0.281289 0.123056
Si Si8 0.522044 0.811116 0.353191
O O1 0.796131 0.383832 0.883056
O O2 0.547027 0.641654 0.912246
O O3 0.500000 0.500000 0.000000
O O4 0.632450 0.707992 0.181349
O O5 0.190287 0.487232 0.527531
O O6 0.372618 0.140796 0.296590
O O7 0.374500 0.309046 0.607011
O O8 0.084929 0.315279 0.508302
O O9 0.184157 0.720237 0.569932
O O10 0.209502 0.436000 0.263510
O O11 0.122119 0.831594 0.429468
O O12 0.317488 0.905617 0.657729
O O13 0.978343 0.059279 0.729303
O O14 0.663325 0.168313 0.682224
O O15 0.533865 0.185481 0.177465
O O16 0.648944 0.865809 0.045504
O O17 0.500000 0.000000 0.500000
#
# Coordination Sequence:
#
# PCOD8011372 Si02
#       8
#     2   2   2   2   2   2   2   2
#     4  10  22  38  59  86 126 160 195 255 303 360
#     4  10  21  39  60  94 115 162 206 247 305 364
#     4  10  22  39  65  85 127 153 204 262 298 362
#     4  11  21  38  61  88 118 162 197 252 303 357
#     4  10  22  38  55  88 126 151 204 244 301 364
#     4  10  22  39  68  88 123 157 207 255 305 370
#     4  10  21  41  61  94 120 159 204 258 307 357
#     4  11  21  37  63  87 120 163 202 244 300 373
#
# _framework density 20.386870999999999
#
# number of rings (size 3 to 8) (size 9 to 14) (size 15 to 20)
#    0.000    1.750    2.500    1.500    0.000    6.000 
#    0.000    1.250    0.000   15.750    0.000    0.000 
#    0.000    0.000    0.000    0.000    0.000    0.000 
#
# Total GULP energy -198277.493122 kJ/mol
# GULP energy per Si atom -12392.343320 kJ/mol
# Density = 2.034047 g / cm^3
# Si number density = 20.386871 Si / 1000 Ang^3
#
#
#
# Elastic Constant Matrix: (Units=GPa)
#
#
# Indices 1 2 3 4 5 6 
#
# 1 85.6694 40.3554 35.9609 9.3683 -6.6968 -5.4030
# 2 40.3554 106.3164 53.5767 9.5265 -10.6860 1.7506
# 3 35.9609 53.5767 126.3588 17.7917 -8.2600 -6.1752
# 4 9.3683 9.5265 17.7917 38.4019 4.9671 -4.5095
# 5 -6.6968 -10.6860 -8.2600 4.9671 22.9309 -0.7285
# 6 -5.4030 1.7506 -6.1752 -4.5095 -0.7285 31.4992
#
#
#
# Elastic Compliance Matrix: (Units=1/GPa)
#
#
# Indices 1 2 3 4 5 6 
#
# 1 0.015053 -0.004420 -0.001926 -0.001687 0.002080 0.002257
# 2 -0.004420 0.013765 -0.004296 -0.001116 0.003740 -0.002439
# 3 -0.001926 -0.004296 0.011027 -0.003677 0.002255 0.001596
# 4 -0.001687 -0.001116 -0.003677 0.029929 -0.008721 0.003135
# 5 0.002080 0.003740 0.002255 -0.008721 0.048676 0.000468
# 6 0.002257 -0.002439 0.001596 0.003135 0.000468 0.033042
#
#
# Mechanical properties :
#
#
# Convention : Reuss Voigt Hill
#
# Bulk Modulus (GPa) = 53.87826 64.23673 59.05750
# Shear Modulus (GPa) = 27.93904 31.12983 29.53443
#
# Velocity S-wave (km/s) = 3.70597 3.91187 3.81031
# Velocity P-wave (km/s) = 6.69310 7.20978 6.95623
#
# Compressibility (1/GPa) = 0.01856036
#
# Stress axis : x y z
#
# Youngs Moduli (GPa) = 66.43304 72.65016 90.68873
#
# Poissons Ratio (x) = 0.32112 0.17466
# Poissons Ratio (y) = 0.29364 0.38958
# Poissons Ratio (z) = 0.12795 0.31209
#
# Static dielectric constant tensor:
#      x y z
#    x 3.444740 -0.010320 -0.337010 
#    y -0.010320 3.937860 0.155580 
#    z -0.337010 0.155580 4.298630 
# 
# 
# High freq. dielectric constant tensor:
#      x y z
#    x 1.765740 0.007420 -0.019870 
#    y 0.007420 1.812100 0.010260 
#    z -0.019870 0.010260 1.802620 
# 
# From -- ./inp_files/393128.got.cif
#   From: 2010.06.25/outbox.cif.g09.slc.cpg/sg2_197_cif.got.tgz:393128.got - 2010.06.27 13:26:56.
