data_PCOD8011948
_publ_section_title
;
Structure prediction by ZEFSAII (Michael W. Deem and Ramdas Pophale) SiO2 
 PCOD8011948
Probable space group: P -1
;
_chemical_formula_sum "Si O2"
_cell_formula_units_Z 16
_cell_length_a 11.777240
_cell_length_b 15.476783
_cell_length_c 8.517039
_cell_angle_alpha 106.902181
_cell_angle_beta 127.560901
_cell_angle_gamma 39.789239
_cell_volume 737.668981
_symmetry_space_group_name_H-M "P -1"
_symmetry_group_IT_number 2
_symmetry_cell_setting 'triclinic'
loop_
_space_group_symop_operation_xyz
x,y,z
-x,-y,-z
loop_
_atom_site_type_symbol
_atom_site_label
_atom_site_fract_x
_atom_site_fract_y
_atom_site_fract_z
Si Si1 0.365132 0.958737 0.954857
Si Si2 0.960754 0.725607 0.664296
Si Si3 0.838146 0.099967 0.061137
Si Si4 0.212130 0.012994 0.503189
Si Si5 0.773966 0.478212 0.505988
Si Si6 0.634447 0.376270 0.924243
Si Si7 0.182934 0.238089 0.926761
Si Si8 0.695118 0.722736 0.650703
O O1 0.298426 0.921178 0.012548
O O2 0.252178 0.991728 0.710486
O O3 0.271703 0.101731 0.008753
O O4 0.640487 0.823019 0.097427
O O5 0.826475 0.866125 0.524181
O O6 0.777866 0.750753 0.602383
O O7 0.119434 0.587894 0.611540
O O8 0.115381 0.699419 0.917997
O O9 0.988913 0.062317 0.312590
O O10 0.652706 0.265300 0.944557
O O11 0.000000 0.000000 0.000000
O O12 0.422530 0.865557 0.508814
O O13 0.519174 0.556605 0.329536
O O14 0.763500 0.588604 0.592387
O O15 0.928746 0.353516 0.702648
O O16 0.500000 0.500000 0.000000
O O17 0.184496 0.313739 0.101389
#
# Coordination Sequence:
#
# PCOD8011948 Si02
#       8
#     2   2   2   2   2   2   2   2
#     4  10  22  42  63  92 126 165 214 253 316 372
#     4  10  21  39  65  91 127 169 209 257 316 370
#     4  11  23  38  68  95 124 160 211 267 306 368
#     4  10  21  41  61  91 125 167 208 254 315 377
#     4  11  21  42  62  89 130 166 211 256 318 378
#     4   9  22  41  60  90 128 162 204 254 313 375
#     4  10  23  40  64  91 127 171 206 262 312 373
#     4  11  23  37  63  96 128 159 216 264 309 372
#
# _framework density 21.689945000000002
#
# number of rings (size 3 to 8) (size 9 to 14) (size 15 to 20)
#    0.000    1.750    1.250    2.250    3.500    4.000 
#    0.000    0.625    0.000    0.000    0.000    0.000 
#    0.000    0.000    0.000    0.000    0.000    0.000 
#
# Total GULP energy -198377.187702 kJ/mol
# GULP energy per Si atom -12398.574231 kJ/mol
# Density = 2.164058 g / cm^3
# Si number density = 21.689945 Si / 1000 Ang^3
#
#
#
# Elastic Constant Matrix: (Units=GPa)
#
#
# Indices 1 2 3 4 5 6 
#
# 1 56.7058 42.4210 -14.4260 8.1328 -2.7715 6.2579
# 2 42.4210 127.7856 36.3375 2.4951 -3.2679 12.7804
# 3 -14.4260 36.3375 106.7429 -7.6760 6.3705 -0.9147
# 4 8.1328 2.4951 -7.6760 34.4600 0.9215 5.7677
# 5 -2.7715 -3.2679 6.3705 0.9215 16.4247 2.8645
# 6 6.2579 12.7804 -0.9147 5.7677 2.8645 20.5544
#
#
#
# Elastic Compliance Matrix: (Units=1/GPa)
#
#
# Indices 1 2 3 4 5 6 
#
# 1 0.028900 -0.011671 0.007580 -0.004286 -0.000148 0.000019
# 2 -0.011671 0.014368 -0.006712 0.001211 0.004586 -0.006658
# 3 0.007580 -0.006712 0.013137 0.001294 -0.005728 0.002886
# 4 -0.004286 0.001211 0.001294 0.031619 -0.001350 -0.008075
# 5 -0.000148 0.004586 -0.005728 -0.001350 0.066144 -0.011901
# 6 0.000019 -0.006658 0.002886 -0.008075 -0.011901 0.056838
#
#
# Mechanical properties :
#
#
# Convention : Reuss Voigt Hill
#
# Bulk Modulus (GPa) = 28.73770 46.65547 37.69658
# Shear Modulus (GPa) = 20.47387 29.41461 24.94424
#
# Velocity S-wave (km/s) = 3.07568 3.68658 3.39490
# Velocity P-wave (km/s) = 5.08834 6.29905 5.72578
#
# Compressibility (1/GPa) = 0.03479750
#
# Stress axis : x y z
#
# Youngs Moduli (GPa) = 34.60253 69.59717 76.11918
#
# Poissons Ratio (x) = 0.81228 -0.57695
# Poissons Ratio (y) = 0.40385 0.51094
# Poissons Ratio (z) = -0.26227 0.46716
#
# Static dielectric constant tensor:
#      x y z
#    x 3.575470 -0.035700 0.370390 
#    y -0.035700 4.044730 -0.015540 
#    z 0.370390 -0.015540 4.379450 
# 
# 
# High freq. dielectric constant tensor:
#      x y z
#    x 1.814850 0.000740 0.016150 
#    y 0.000740 1.867640 0.003840 
#    z 0.016150 0.003840 1.873230 
# 
# From -- ./inp_files/208459.got.cif
#   From: 2010.06.25/outbox.cif.g09.slc.cpg/sg2_105_cif.got.tgz:208459.got - 2010.06.27 13:26:56.
