data_PCOD8011392
_publ_section_title
;
Structure prediction by ZEFSAII (Michael W. Deem and Ramdas Pophale) SiO2 
 PCOD8011392
Probable space group: P -1
;
_chemical_formula_sum "Si O2"
_cell_formula_units_Z 16
_cell_length_a 8.801648
_cell_length_b 8.352780
_cell_length_c 12.458617
_cell_angle_alpha 114.410808
_cell_angle_beta 86.778858
_cell_angle_gamma 72.778287
_cell_volume 779.695862
_symmetry_space_group_name_H-M "P -1"
_symmetry_group_IT_number 2
_symmetry_cell_setting 'triclinic'
loop_
_space_group_symop_operation_xyz
x,y,z
-x,-y,-z
loop_
_atom_site_type_symbol
_atom_site_label
_atom_site_fract_x
_atom_site_fract_y
_atom_site_fract_z
Si Si1 0.663541 0.566398 0.143215
Si Si2 0.394764 0.668195 0.479917
Si Si3 0.697836 0.716147 0.409551
Si Si4 0.695159 0.345974 0.752877
Si Si5 0.050017 0.788443 0.905063
Si Si6 0.121121 0.695589 0.637333
Si Si7 0.121017 0.056004 0.434317
Si Si8 0.848991 0.580047 0.948793
O O1 0.710172 0.671920 0.270318
O O2 0.477067 0.579938 0.157597
O O3 0.786955 0.348165 0.079030
O O4 0.692359 0.661041 0.056478
O O5 0.500000 0.500000 0.500000
O O6 0.508750 0.785056 0.473092
O O7 0.332716 0.592118 0.353905
O O8 0.242359 0.780347 0.591729
O O9 0.806953 0.529651 0.418664
O O10 0.759438 0.886683 0.475670
O O11 0.820132 0.430266 0.826466
O O12 0.774959 0.120321 0.691349
O O13 0.087591 0.790670 0.779487
O O14 0.890443 0.731789 0.916258
O O15 0.000000 0.000000 0.000000
O O16 0.958430 0.767811 0.592567
O O17 0.000000 0.000000 0.500000
O O18 0.000000 0.500000 0.000000
#
# Coordination Sequence:
#
# PCOD8011392 Si02
#       8
#     2   2   2   2   2   2   2   2
#     4   9  21  42  69  84 125 170 207 263 313 375
#     4   9  19  39  64  87 123 165 202 254 316 388
#     4   9  21  40  62  92 124 167 208 249 330 370
#     4  11  23  41  62  98 128 162 216 256 321 378
#     4  10  23  41  63  93 117 165 220 260 305 376
#     4  10  21  39  61  86 129 164 201 262 317 373
#     4  12  25  35  61  99 132 159 208 267 305 391
#     4  10  23  41  68  88 123 171 208 263 316 368
#
# _framework density 20.520821999999999
#
# number of rings (size 3 to 8) (size 9 to 14) (size 15 to 20)
#    0.000    2.000    1.250    1.500    8.750    4.000 
#    2.250    0.625    0.000    0.000    0.000    0.000 
#    0.000    0.000    0.000    0.000    0.000    0.000 
#
# Total GULP energy -198260.282576 kJ/mol
# GULP energy per Si atom -12391.267661 kJ/mol
# Density = 2.047412 g / cm^3
# Si number density = 20.520822 Si / 1000 Ang^3
#
#
#
# Elastic Constant Matrix: (Units=GPa)
#
#
# Indices 1 2 3 4 5 6 
#
# 1 120.9493 52.6027 77.8887 9.4840 1.6558 17.5916
# 2 52.6027 62.3940 51.0163 6.3521 -0.1962 9.1690
# 3 77.8887 51.0163 129.6802 0.2690 -5.9583 26.0852
# 4 9.4840 6.3521 0.2690 37.6153 5.7649 7.5312
# 5 1.6558 -0.1962 -5.9583 5.7649 50.4232 -2.3750
# 6 17.5916 9.1690 26.0852 7.5312 -2.3750 34.4573
#
#
#
# Elastic Compliance Matrix: (Units=1/GPa)
#
#
# Indices 1 2 3 4 5 6 
#
# 1 0.016264 -0.008056 -0.006482 -0.002363 -0.001099 -0.000812
# 2 -0.008056 0.028338 -0.006786 -0.003197 0.000052 0.002411
# 3 -0.006482 -0.006786 0.015870 0.004017 0.001240 -0.007691
# 4 -0.002363 -0.003197 0.004017 0.029728 -0.003222 -0.007703
# 5 -0.001099 0.000052 0.001240 -0.003222 0.020465 0.001723
# 6 -0.000812 0.002411 -0.007691 -0.007703 0.001723 0.036420
#
#
# Mechanical properties :
#
#
# Convention : Reuss Voigt Hill
#
# Bulk Modulus (GPa) = 56.09907 75.11543 65.60725
# Shear Modulus (GPa) = 25.55294 33.26688 29.40991
#
# Velocity S-wave (km/s) = 3.53260 4.03069 3.78984
# Velocity P-wave (km/s) = 6.63596 7.63845 7.15478
#
# Compressibility (1/GPa) = 0.01782561
#
# Stress axis : x y z
#
# Youngs Moduli (GPa) = 61.48592 35.28779 63.01324
#
# Poissons Ratio (x) = 0.28426 0.40843
# Poissons Ratio (y) = 0.49530 0.42761
# Poissons Ratio (z) = 0.39853 0.23946
#
# Static dielectric constant tensor:
#      x y z
#    x 3.962850 0.155900 -0.258270 
#    y 0.155900 3.635830 -0.365720 
#    z -0.258270 -0.365720 3.828940 
# 
# 
# High freq. dielectric constant tensor:
#      x y z
#    x 1.814310 -0.002710 -0.010350 
#    y -0.002710 1.783070 -0.020150 
#    z -0.010350 -0.020150 1.804510 
# 
# From -- ./inp_files/234161.got.cif
#   From: 2010.06.25/outbox.cif.g09.slc.cpg/sg2_118_cif.got.tgz:234161.got - 2010.06.27 13:26:56.
