data_PCOD8011202
_publ_section_title
;
Structure prediction by ZEFSAII (Michael W. Deem and Ramdas Pophale) SiO2 
 PCOD8011202
Probable space group: P -1
;
_chemical_formula_sum "Si O2"
_cell_formula_units_Z 12
_cell_length_a 12.640094
_cell_length_b 8.686837
_cell_length_c 8.610534
_cell_angle_alpha 94.296916
_cell_angle_beta 140.053935
_cell_angle_gamma 67.711837
_cell_volume 523.312462
_symmetry_space_group_name_H-M "P -1"
_symmetry_group_IT_number 2
_symmetry_cell_setting 'triclinic'
loop_
_space_group_symop_operation_xyz
x,y,z
-x,-y,-z
loop_
_atom_site_type_symbol
_atom_site_label
_atom_site_fract_x
_atom_site_fract_y
_atom_site_fract_z
Si Si1 0.518802 0.310541 0.514954
Si Si2 0.431790 0.811257 0.791611
Si Si3 0.136993 0.033360 0.054577
Si Si4 0.834842 0.663330 0.737172
Si Si5 0.928139 0.182877 0.518138
Si Si6 0.206064 0.231567 0.638018
O O1 0.500000 0.500000 0.500000
O O2 0.527198 0.232573 0.347520
O O3 0.346998 0.348874 0.432482
O O4 0.692259 0.165302 0.804655
O O5 0.302685 0.728101 0.709553
O O6 0.309405 0.023700 0.692348
O O7 0.638868 0.730652 0.099560
O O8 0.208154 0.144558 0.240368
O O9 0.030889 0.147260 0.795118
O O10 0.000000 0.000000 0.000000
O O11 0.870553 0.645150 0.591367
O O12 0.000000 0.500000 0.000000
O O13 0.011199 0.291329 0.523496
O O14 0.000000 0.000000 0.500000
#
# Coordination Sequence:
#
# PCOD8011202 Si02
#       6
#     2   2   2   2   2   2
#     4  12  26  44  69 105 144 188 242 292 349 428
#     4  10  21  42  71 106 135 184 235 291 361 425
#     4  12  22  44  74 101 142 188 237 293 353 425
#     4  12  27  46  70 104 141 189 243 297 356 422
#     4  10  21  38  70 104 139 180 231 287 362 424
#     4  10  22  43  72 103 139 183 238 293 365 422
#
# _framework density 22.930848999999998
#
# number of rings (size 3 to 8) (size 9 to 14) (size 15 to 20)
#    0.000    1.000    3.333    3.500    7.000    0.000 
#    0.000    5.833    0.000    0.000    0.000    0.000 
#    0.000    0.000    0.000    0.000    0.000    0.000 
#
# Total GULP energy -148696.946383 kJ/mol
# GULP energy per Si atom -12391.412199 kJ/mol
# Density = 2.287866 g / cm^3
# Si number density = 22.930849 Si / 1000 Ang^3
#
#
#
# Elastic Constant Matrix: (Units=GPa)
#
#
# Indices 1 2 3 4 5 6 
#
# 1 203.0997 18.2355 77.6840 7.6967 4.9505 34.0299
# 2 18.2355 70.0192 27.7906 2.7884 3.4159 16.4458
# 3 77.6840 27.7906 133.8687 2.3298 6.6321 23.4413
# 4 7.6967 2.7884 2.3298 38.1915 -2.4971 0.0157
# 5 4.9505 3.4159 6.6321 -2.4971 47.2966 10.4357
# 6 34.0299 16.4458 23.4413 0.0157 10.4357 35.2656
#
#
#
# Elastic Compliance Matrix: (Units=1/GPa)
#
#
# Indices 1 2 3 4 5 6 
#
# 1 0.007022 0.000709 -0.003344 -0.001212 0.000745 -0.005104
# 2 0.000709 0.016807 -0.002701 -0.001166 0.000549 -0.006888
# 3 -0.003344 -0.002701 0.010391 0.000213 -0.000392 -0.002304
# 4 -0.001212 -0.001166 0.000213 0.026587 0.001327 0.001168
# 5 0.000745 0.000549 -0.000392 0.001327 0.022797 -0.007461
# 6 -0.005104 -0.006888 -0.002304 0.001168 -0.007461 0.040232
#
#
# Mechanical properties :
#
#
# Convention : Reuss Voigt Hill
#
# Bulk Modulus (GPa) = 42.46846 72.71198 57.59022
# Shear Modulus (GPa) = 35.12307 43.03592 39.07949
#
# Velocity S-wave (km/s) = 3.91793 4.33687 4.13271
# Velocity P-wave (km/s) = 6.24719 7.54029 6.92399
#
# Compressibility (1/GPa) = 0.02354689
#
# Stress axis : x y z
#
# Youngs Moduli (GPa) = 142.40787 59.49965 96.24060
#
# Poissons Ratio (x) = -0.04220 0.32185
# Poissons Ratio (y) = -0.10100 0.25997
# Poissons Ratio (z) = 0.47625 0.16072
#
# Static dielectric constant tensor:
#      x y z
#    x 4.731490 0.050440 0.180220 
#    y 0.050440 4.091420 0.352230 
#    z 0.180220 0.352230 4.313600 
# 
# 
# High freq. dielectric constant tensor:
#      x y z
#    x 1.928370 0.004630 0.007260 
#    y 0.004630 1.894690 0.015120 
#    z 0.007260 0.015120 1.907640 
# 
# From -- ./inp_files/160149.got.cif
#   From: 2010.06.25/outbox.cif.g09.slc.cpg/sg2_81_cif.got.tgz:160149.got - 2010.06.27 13:26:56.
