data_PCOD8011637
_publ_section_title
;
Structure prediction by ZEFSAII (Michael W. Deem and Ramdas Pophale) SiO2 
 PCOD8011637
Probable space group: P -1
;
_chemical_formula_sum "Si O2"
_cell_formula_units_Z 16
_cell_length_a 5.980541
_cell_length_b 14.885820
_cell_length_c 8.535498
_cell_angle_alpha 91.457638
_cell_angle_beta 87.290977
_cell_angle_gamma 81.652288
_cell_volume 750.582826
_symmetry_space_group_name_H-M "P -1"
_symmetry_group_IT_number 2
_symmetry_cell_setting 'triclinic'
loop_
_space_group_symop_operation_xyz
x,y,z
-x,-y,-z
loop_
_atom_site_type_symbol
_atom_site_label
_atom_site_fract_x
_atom_site_fract_y
_atom_site_fract_z
Si Si1 0.955431 0.643269 0.424937
Si Si2 0.858724 0.208038 0.049802
Si Si3 0.433704 0.331691 0.147702
Si Si4 0.143584 0.213656 0.334056
Si Si5 0.586746 0.076839 0.895455
Si Si6 0.687770 0.513749 0.618868
Si Si7 0.239561 0.255311 0.853492
Si Si8 0.250427 0.018827 0.425445
O O1 0.024036 0.721477 0.541491
O O2 0.851322 0.573978 0.534528
O O3 0.772353 0.689905 0.306624
O O4 0.179363 0.585320 0.338475
O O5 0.025299 0.178900 0.185324
O O6 0.696629 0.298679 0.109792
O O7 0.741147 0.121178 0.014234
O O8 0.988654 0.233026 0.891980
O O9 0.348829 0.265813 0.277533
O O10 0.408457 0.435129 0.216388
O O11 0.303298 0.323944 0.988175
O O12 0.240601 0.125911 0.422931
O O13 0.401388 0.158563 0.840308
O O14 0.729909 0.031950 0.743573
O O15 0.500000 0.000000 0.000000
O O16 0.500000 0.500000 0.500000
O O17 0.500000 0.000000 0.500000
O O18 0.000000 0.000000 0.500000
#
# Coordination Sequence:
#
# PCOD8011637 Si02
#       8
#     2   2   2   2   2   2   2   2
#     4  10  22  40  62  89 126 164 212 269 335 401
#     4  10  21  39  66  89 121 172 220 267 331 401
#     4   9  20  39  61  91 123 163 216 269 329 402
#     4  10  22  41  64  87 127 172 218 271 337 405
#     4  11  25  43  67  93 135 178 232 279 340 413
#     4  10  21  39  63  90 121 164 213 265 334 411
#     4  10  22  40  62  93 125 168 216 270 334 395
#     4  12  29  45  66 103 141 179 233 293 351 407
#
# _framework density 21.316769000000001
#
# number of rings (size 3 to 8) (size 9 to 14) (size 15 to 20)
#    0.000    1.750    0.000    3.750    7.000    4.500 
#    0.000    1.250    0.000    0.000    0.000    0.000 
#    0.000    0.000    0.000    0.000    0.000    0.000 
#
# Total GULP energy -198220.630658 kJ/mol
# GULP energy per Si atom -12388.789416 kJ/mol
# Density = 2.126825 g / cm^3
# Si number density = 21.316769 Si / 1000 Ang^3
#
#
#
# Elastic Constant Matrix: (Units=GPa)
#
#
# Indices 1 2 3 4 5 6 
#
# 1 87.9255 32.0498 17.1066 9.7434 -0.9247 -15.8697
# 2 32.0498 142.3612 51.4009 20.7365 1.9546 -21.6119
# 3 17.1066 51.4009 89.1061 13.3306 -6.5216 -6.5092
# 4 9.7434 20.7365 13.3306 44.5018 -9.0319 3.3785
# 5 -0.9247 1.9546 -6.5216 -9.0319 29.3665 7.0126
# 6 -15.8697 -21.6119 -6.5092 3.3785 7.0126 18.6073
#
#
#
# Elastic Compliance Matrix: (Units=1/GPa)
#
#
# Indices 1 2 3 4 5 6 
#
# 1 0.014847 0.000398 -0.001551 -0.005203 -0.005202 0.015488
# 2 0.000398 0.012980 -0.005753 -0.007565 -0.008774 0.018083
# 3 -0.001551 -0.005753 0.014871 -0.000140 0.004678 -0.004540
# 4 -0.005203 -0.007565 -0.000140 0.032411 0.016321 -0.025310
# 5 -0.005202 -0.008774 0.004678 0.016321 0.048726 -0.034318
# 6 0.015488 0.018083 -0.004540 -0.025310 -0.034318 0.103895
#
#
# Mechanical properties :
#
#
# Convention : Reuss Voigt Hill
#
# Bulk Modulus (GPa) = 34.61946 57.83413 46.22679
# Shear Modulus (GPa) = 19.90678 33.08414 26.49546
#
# Velocity S-wave (km/s) = 3.05922 3.94385 3.52936
# Velocity P-wave (km/s) = 5.36229 6.92303 6.19203
#
# Compressibility (1/GPa) = 0.02888549
#
# Stress axis : x y z
#
# Youngs Moduli (GPa) = 67.35260 77.04402 67.24656
#
# Poissons Ratio (x) = -0.03066 0.10429
# Poissons Ratio (y) = -0.02680 0.38688
# Poissons Ratio (z) = 0.10445 0.44324
#
# Static dielectric constant tensor:
#      x y z
#    x 4.126580 -0.037040 -0.143670 
#    y -0.037040 4.508040 0.250580 
#    z -0.143670 0.250580 3.962830 
# 
# 
# High freq. dielectric constant tensor:
#      x y z
#    x 1.830540 -0.008210 0.002560 
#    y -0.008210 1.848150 0.019460 
#    z 0.002560 0.019460 1.837990 
# 
# From -- ./inp_files/49272.got.cif
#   From: 2010.06.25/outbox.cif.g09.slc.cpg/sg2_25_cif.got.tgz:49272.got - 2010.06.27 13:26:56.
