data_PCOD8011048
_publ_section_title
;
Structure prediction by ZEFSAII (Michael W. Deem and Ramdas Pophale) SiO2 
 PCOD8011048
Probable space group: P -1
;
_chemical_formula_sum "Si O2"
_cell_formula_units_Z 16
_cell_length_a 15.334959
_cell_length_b 13.579462
_cell_length_c 23.381713
_cell_angle_alpha 24.147842
_cell_angle_beta 158.587971
_cell_angle_gamma 146.430321
_cell_volume 722.837081
_symmetry_space_group_name_H-M "P -1"
_symmetry_group_IT_number 2
_symmetry_cell_setting 'triclinic'
loop_
_space_group_symop_operation_xyz
x,y,z
-x,-y,-z
loop_
_atom_site_type_symbol
_atom_site_label
_atom_site_fract_x
_atom_site_fract_y
_atom_site_fract_z
Si Si1 0.017074 0.397426 0.655869
Si Si2 0.097134 0.908519 0.458237
Si Si3 0.826264 0.864109 0.428545
Si Si4 0.279244 0.719094 0.014944
Si Si5 0.521134 0.221086 0.437657
Si Si6 0.033734 0.662284 0.209252
Si Si7 0.589773 0.925951 0.999483
Si Si8 0.614833 0.978988 0.744220
O O1 0.099596 0.664188 0.550710
O O2 0.046721 0.331934 0.776240
O O3 0.169204 0.212846 0.804680
O O4 0.744318 0.376343 0.481243
O O5 0.352190 0.935231 0.631065
O O6 0.905373 0.856461 0.415489
O O7 0.992843 0.152579 0.231227
O O8 0.842363 0.590507 0.605184
O O9 0.000000 0.000000 0.500000
O O10 0.556767 0.995042 0.190541
O O11 0.288754 0.426333 0.184210
O O12 0.451534 0.757606 0.045931
O O13 0.364787 0.833157 0.065510
O O14 0.500000 0.000000 0.500000
O O15 0.551633 0.081105 0.589535
O O16 0.794701 0.730046 0.988513
O O17 0.240053 0.836533 0.229110
#
# Coordination Sequence:
#
# PCOD8011048 Si02
#       8
#     2   2   2   2   2   2   2   2
#     4  10  22  39  67  93 117 157 210 248 305 364
#     4  10  23  39  65  94 116 161 208 252 303 361
#     4  10  22  38  62  94 123 156 201 255 306 356
#     4  10  22  41  60  87 128 159 197 253 308 351
#     4  11  25  42  60  90 125 165 202 246 302 368
#     4   9  21  43  62  85 126 164 195 255 307 360
#     4  10  21  38  66  92 120 158 200 257 304 356
#     4  10  22  40  65  84 122 162 204 247 302 362
#
# _framework density 22.135003000000001
#
# number of rings (size 3 to 8) (size 9 to 14) (size 15 to 20)
#    0.000    2.000    0.000    3.750    7.000    3.500 
#    2.250    0.625    0.000    0.000    0.000    0.000 
#    0.000    0.000    0.000    0.000    0.000    0.000 
#
# Total GULP energy -198247.127382 kJ/mol
# GULP energy per Si atom -12390.445461 kJ/mol
# Density = 2.208462 g / cm^3
# Si number density = 22.135003 Si / 1000 Ang^3
#
#
#
# Elastic Constant Matrix: (Units=GPa)
#
#
# Indices 1 2 3 4 5 6 
#
# 1 19.4660 2.9680 12.8618 -15.1416 4.1601 -0.3447
# 2 2.9680 96.8127 53.3772 -1.0434 2.3967 -5.0605
# 3 12.8618 53.3772 162.8229 -8.9180 -12.1891 -6.4162
# 4 -15.1416 -1.0434 -8.9180 41.5177 -1.9539 5.4528
# 5 4.1601 2.3967 -12.1891 -1.9539 28.2318 -0.1500
# 6 -0.3447 -5.0605 -6.4162 5.4528 -0.1500 25.8918
#
#
#
# Elastic Compliance Matrix: (Units=1/GPa)
#
#
# Indices 1 2 3 4 5 6 
#
# 1 0.079770 0.001388 -0.006424 0.027965 -0.012743 -0.006222
# 2 0.001388 0.012965 -0.004576 -0.000504 -0.003308 0.001506
# 3 -0.006424 -0.004576 0.008543 -0.000556 0.004992 0.001283
# 4 0.027965 -0.000504 -0.000556 0.035014 -0.001933 -0.007249
# 5 -0.012743 -0.003308 0.004992 -0.001933 0.039607 0.001057
# 6 -0.006222 0.001506 0.001283 -0.007249 0.001057 0.040684
#
#
# Mechanical properties :
#
#
# Convention : Reuss Voigt Hill
#
# Bulk Modulus (GPa) = 12.18708 46.39063 29.28886
# Shear Modulus (GPa) = 19.00012 33.12124 26.06068
#
# Velocity S-wave (km/s) = 2.93298 3.87244 3.43498
# Velocity P-wave (km/s) = 4.12160 6.40296 5.38449
#
# Compressibility (1/GPa) = 0.08205409
#
# Stress axis : x y z
#
# Youngs Moduli (GPa) = 12.53609 77.13331 117.05717
#
# Poissons Ratio (x) = -0.10704 0.75193
# Poissons Ratio (y) = -0.01740 0.53561
# Poissons Ratio (z) = 0.08053 0.35293
#
# Static dielectric constant tensor:
#      x y z
#    x 3.989580 -0.042740 -0.038990 
#    y -0.042740 4.145830 0.134640 
#    z -0.038990 0.134640 4.592710 
# 
# 
# High freq. dielectric constant tensor:
#      x y z
#    x 1.840590 -0.001040 -0.007140 
#    y -0.001040 1.865370 0.001620 
#    z -0.007140 0.001620 1.896800 
# 
# From -- ./inp_files/299190.got.cif
#   From: 2010.06.25/outbox.cif.g09.slc.cpg/sg2_150_cif.got.tgz:299190.got - 2010.06.27 13:26:56.
