data_PCOD8011108
_publ_section_title
;
Structure prediction by ZEFSAII (Michael W. Deem and Ramdas Pophale) SiO2 
 PCOD8011108
Probable space group: P -1
;
_chemical_formula_sum "Si O2"
_cell_formula_units_Z 16
_cell_length_a 11.520436
_cell_length_b 11.171138
_cell_length_c 17.263492
_cell_angle_alpha 119.012165
_cell_angle_beta 22.457812
_cell_angle_gamma 118.688498
_cell_volume 738.837917
_symmetry_space_group_name_H-M "P -1"
_symmetry_group_IT_number 2
_symmetry_cell_setting 'triclinic'
loop_
_space_group_symop_operation_xyz
x,y,z
-x,-y,-z
loop_
_atom_site_type_symbol
_atom_site_label
_atom_site_fract_x
_atom_site_fract_y
_atom_site_fract_z
Si Si1 0.619504 0.127624 0.914016
Si Si2 0.586934 0.085513 0.592811
Si Si3 0.129023 0.306472 0.308846
Si Si4 0.648974 0.002808 0.700570
Si Si5 0.437296 0.700020 0.700381
Si Si6 0.722970 0.793995 0.403565
Si Si7 0.759637 0.524249 0.557534
Si Si8 0.212449 0.308186 0.836298
O O1 0.518893 0.090545 0.876992
O O2 0.982069 0.159363 0.711089
O O3 0.466579 0.266467 0.071068
O O4 0.500000 0.000000 0.000000
O O5 0.580530 0.076180 0.686333
O O6 0.291462 0.160963 0.774341
O O7 0.895622 0.171022 0.400817
O O8 0.573294 0.933342 0.514918
O O9 0.124549 0.360177 0.416099
O O10 0.031107 0.424227 0.346883
O O11 0.489960 0.848881 0.753640
O O12 0.000000 0.000000 0.500000
O O13 0.483999 0.705509 0.580126
O O14 0.675965 0.597687 0.553081
O O15 0.095685 0.645960 0.921038
O O16 0.803257 0.704790 0.252052
O O17 0.468915 0.428370 0.740048
#
# Coordination Sequence:
#
# PCOD8011108 Si02
#       8
#     2   2   2   2   2   2   2   2
#     4  12  20  36  64  99 124 155 203 258 324 374
#     4  10  21  40  62  93 126 158 202 264 319 372
#     4  10  21  38  67  91 120 166 205 264 318 361
#     4  11  20  37  64  94 126 154 201 264 323 368
#     4  11  23  40  65  89 126 172 207 260 308 372
#     4  11  23  38  64  98 124 161 207 258 318 381
#     4  10  22  42  63  86 127 171 216 250 308 372
#     4  11  24  42  62  88 127 176 210 250 308 378
#
# _framework density 21.655629999999999
#
# number of rings (size 3 to 8) (size 9 to 14) (size 15 to 20)
#    0.000    1.250    3.750    3.750    0.000    2.500 
#    4.500    0.625    2.750    0.000    0.000    0.000 
#    0.000    0.000    0.000    0.000    0.000    0.000 
#
# Total GULP energy -198408.130920 kJ/mol
# GULP energy per Si atom -12400.508182 kJ/mol
# Density = 2.160634 g / cm^3
# Si number density = 21.655630 Si / 1000 Ang^3
#
#
#
# Elastic Constant Matrix: (Units=GPa)
#
#
# Indices 1 2 3 4 5 6 
#
# 1 78.6738 17.9974 29.1102 9.0034 5.3500 -15.9072
# 2 17.9974 63.9997 16.0355 14.9952 -0.1336 -16.4502
# 3 29.1102 16.0355 78.3047 11.7630 7.1373 -11.2359
# 4 9.0034 14.9952 11.7630 30.9378 -4.3284 -12.2169
# 5 5.3500 -0.1336 7.1373 -4.3284 34.7116 4.2910
# 6 -15.9072 -16.4502 -11.2359 -12.2169 4.2910 34.6421
#
#
#
# Elastic Compliance Matrix: (Units=1/GPa)
#
#
# Indices 1 2 3 4 5 6 
#
# 1 0.016084 -0.001999 -0.004595 -0.000247 -0.002207 0.005132
# 2 -0.001999 0.019470 -0.001415 -0.006138 -0.000809 0.005804
# 3 -0.004595 -0.001415 0.015846 -0.003907 -0.003213 0.001377
# 4 -0.000247 -0.006138 -0.003907 0.041353 0.004776 0.009697
# 5 -0.002207 -0.000809 -0.003213 0.004776 0.030970 -0.004592
# 6 0.005132 0.005804 0.001377 0.009697 -0.004592 0.038414
#
#
# Mechanical properties :
#
#
# Convention : Reuss Voigt Hill
#
# Bulk Modulus (GPa) = 28.26382 38.58493 33.42438
# Shear Modulus (GPa) = 26.32253 30.58066 28.45159
#
# Velocity S-wave (km/s) = 3.49019 3.76191 3.62860
# Velocity P-wave (km/s) = 5.41496 6.06016 5.74662
#
# Compressibility (1/GPa) = 0.03538092
#
# Stress axis : x y z
#
# Youngs Moduli (GPa) = 62.17194 51.36038 63.10631
#
# Poissons Ratio (x) = 0.10269 0.29000
# Poissons Ratio (y) = 0.12430 0.08931
# Poissons Ratio (z) = 0.28570 0.07269
#
# Static dielectric constant tensor:
#      x y z
#    x 4.116990 -0.040220 -0.091280 
#    y -0.040220 4.038320 0.123910 
#    z -0.091280 0.123910 3.822710 
# 
# 
# High freq. dielectric constant tensor:
#      x y z
#    x 1.847680 -0.004500 -0.009200 
#    y -0.004500 1.855860 0.008560 
#    z -0.009200 0.008560 1.836780 
# 
# From -- ./inp_files/185877.got.cif
#   From: 2010.06.25/outbox.cif.g09.slc.cpg/sg2_93_cif.got.tgz:185877.got - 2010.06.27 13:26:56.
