data_PCOD8011186
_publ_section_title
;
Structure prediction by ZEFSAII (Michael W. Deem and Ramdas Pophale) SiO2 
 PCOD8011186
Probable space group: P -1
;
_chemical_formula_sum "Si O2"
_cell_formula_units_Z 14
_cell_length_a 20.108288
_cell_length_b 9.110477
_cell_length_c 5.122924
_cell_angle_alpha 83.703244
_cell_angle_beta 73.809823
_cell_angle_gamma 123.091032
_cell_volume 713.969177
_symmetry_space_group_name_H-M "P -1"
_symmetry_group_IT_number 2
_symmetry_cell_setting 'triclinic'
loop_
_space_group_symop_operation_xyz
x,y,z
-x,-y,-z
loop_
_atom_site_type_symbol
_atom_site_label
_atom_site_fract_x
_atom_site_fract_y
_atom_site_fract_z
Si Si1 0.193250 0.737664 0.710654
Si Si2 0.071801 0.816541 0.995044
Si Si3 0.409830 0.467328 0.613884
Si Si4 0.255740 0.125133 0.613933
Si Si5 0.796216 0.439367 0.774165
Si Si6 0.978776 0.802688 0.596862
Si Si7 0.661105 0.511529 0.806006
O O1 0.100143 0.684055 0.922269
O O2 0.179240 0.637530 0.473439
O O3 0.260151 0.960224 0.544097
O O4 0.229591 0.680207 0.910817
O O5 0.002676 0.784311 0.866107
O O6 0.158960 0.031383 0.852611
O O7 0.031399 0.772078 0.335923
O O8 0.500000 0.500000 0.500000
O O9 0.330167 0.246702 0.727808
O O10 0.402435 0.551405 0.868027
O O11 0.401399 0.572465 0.363124
O O12 0.272840 0.262825 0.332210
O O13 0.876427 0.649796 0.703909
O O14 0.713335 0.427431 0.783713
O O15 0.000000 0.000000 0.500000
#
# Coordination Sequence:
#
# PCOD8011186 Si02
#       7
#     2   2   2   2   2   2   2
#     4  10  24  39  61  86 121 168 201 242 303 352
#     4  10  23  39  57  84 119 163 200 247 292 341
#     4  10  21  38  69  96 113 151 200 250 296 360
#     4   8  23  37  66  84 122 153 202 241 301 348
#     4  12  24  39  60  90 121 166 199 248 301 348
#     4  12  25  37  59  86 124 155 215 249 296 335
#     4  10  22  38  65  88 126 148 201 245 301 353
#
# _framework density 19.608689999999999
#
# number of rings (size 3 to 8) (size 9 to 14) (size 15 to 20)
#    1.714    0.000    0.000    4.286    6.000    3.429 
#    0.000    0.000    0.000    5.143    0.000    0.000 
#    0.000    0.000    0.000    0.000    0.000    0.000 
#
# Total GULP energy -173506.841341 kJ/mol
# GULP energy per Si atom -12393.345810 kJ/mol
# Density = 1.956406 g / cm^3
# Si number density = 19.608690 Si / 1000 Ang^3
#
#
#
# Elastic Constant Matrix: (Units=GPa)
#
#
# Indices 1 2 3 4 5 6 
#
# 1 95.7849 3.2156 11.6123 -2.4799 4.0565 0.4133
# 2 3.2156 41.1712 10.5136 6.5327 6.7288 -13.6690
# 3 11.6123 10.5136 78.0598 16.9738 4.9838 0.6693
# 4 -2.4799 6.5327 16.9738 16.3554 -6.0536 5.0696
# 5 4.0565 6.7288 4.9838 -6.0536 39.0979 -0.1241
# 6 0.4133 -13.6690 0.6693 5.0696 -0.1241 30.1614
#
#
#
# Elastic Compliance Matrix: (Units=1/GPa)
#
#
# Indices 1 2 3 4 5 6 
#
# 1 0.010970 -0.001814 -0.002687 0.005927 0.000428 -0.001907
# 2 -0.001814 0.037203 0.001736 -0.027512 -0.010628 0.021427
# 3 -0.002687 0.001736 0.018536 -0.023955 -0.006078 0.004414
# 4 0.005927 -0.027512 -0.023955 0.117002 0.025189 -0.031581
# 5 0.000428 -0.010628 -0.006078 0.025189 0.032008 -0.008790
# 6 -0.001907 0.021427 0.004414 -0.031581 -0.008790 0.048066
#
#
# Mechanical properties :
#
#
# Convention : Reuss Voigt Hill
#
# Bulk Modulus (GPa) = 16.34541 29.52210 22.93376
# Shear Modulus (GPa) = 17.25867 29.76792 23.51329
#
# Velocity S-wave (km/s) = 2.96996 3.90050 3.46660
# Velocity P-wave (km/s) = 4.48495 5.94757 5.26727
#
# Compressibility (1/GPa) = 0.06117926
#
# Stress axis : x y z
#
# Youngs Moduli (GPa) = 91.15529 26.87923 53.94980
#
# Poissons Ratio (x) = 0.04876 0.14498
# Poissons Ratio (y) = 0.16537 -0.09367
# Poissons Ratio (z) = 0.24496 -0.04667
#
# Static dielectric constant tensor:
#      x y z
#    x 3.417060 -0.066300 0.123890 
#    y -0.066300 3.388680 0.094620 
#    z 0.123890 0.094620 3.571820 
# 
# 
# High freq. dielectric constant tensor:
#      x y z
#    x 1.759570 -0.004780 0.012470 
#    y -0.004780 1.743720 0.012440 
#    z 0.012470 0.012440 1.763420 
# 
# From -- ./inp_files/103830.got.cif
#   From: 2010.06.25/outbox.cif.g09.slc.cpg/sg2_52_cif.got.tgz:103830.got - 2010.06.27 13:26:56.
