data_PCOD8011570
_publ_section_title
;
Structure prediction by ZEFSAII (Michael W. Deem and Ramdas Pophale) SiO2 
 PCOD8011570
Probable space group: P -1
;
_chemical_formula_sum "Si O2"
_cell_formula_units_Z 14
_cell_length_a 18.620218
_cell_length_b 14.897931
_cell_length_c 8.578910
_cell_angle_alpha 82.861867
_cell_angle_beta 71.195617
_cell_angle_gamma 20.371430
_cell_volume 660.080966
_symmetry_space_group_name_H-M "P -1"
_symmetry_group_IT_number 2
_symmetry_cell_setting 'triclinic'
loop_
_space_group_symop_operation_xyz
x,y,z
-x,-y,-z
loop_
_atom_site_type_symbol
_atom_site_label
_atom_site_fract_x
_atom_site_fract_y
_atom_site_fract_z
Si Si1 0.376903 0.355501 0.710308
Si Si2 0.193869 0.458150 0.248080
Si Si3 0.510123 0.271511 0.065218
Si Si4 0.287970 0.919877 0.694953
Si Si5 0.938879 0.166186 0.937959
Si Si6 0.007684 0.674119 0.683410
Si Si7 0.784873 0.764213 0.719008
O O1 0.165032 0.646648 0.898692
O O2 0.251793 0.427144 0.663004
O O3 0.520835 0.271609 0.536117
O O4 0.563428 0.082918 0.743644
O O5 0.064552 0.621997 0.471871
O O6 0.317746 0.219086 0.172126
O O7 0.973686 0.723556 0.214751
O O8 0.431029 0.256125 0.103640
O O9 0.269654 0.606679 0.104091
O O10 0.753728 0.019156 0.840081
O O11 0.569716 0.223642 0.212155
O O12 0.202748 0.911200 0.744019
O O13 0.000000 0.000000 0.000000
O O14 0.938144 0.646872 0.770735
O O15 0.000000 0.500000 0.500000
#
# Coordination Sequence:
#
# PCOD8011570 Si02
#       7
#     2   2   2   2   2   2   2
#     4  12  22  42  67  90 132 168 206 256 314 370
#     4  10  22  39  62  90 131 169 212 248 300 370
#     4  11  22  41  66  91 126 163 211 261 307 370
#     4  11  22  41  67  95 122 164 208 261 312 372
#     4  11  26  46  68  93 120 161 212 265 320 377
#     4  11  21  38  62  91 128 173 199 252 312 358
#     4  10  21  39  62  93 131 173 211 247 301 366
#
# _framework density 21.209520000000001
#
# number of rings (size 3 to 8) (size 9 to 14) (size 15 to 20)
#    0.000    1.143    7.143    0.000    0.000    5.143 
#    0.000    2.143    0.000    0.000    0.000    0.000 
#    0.000    0.000    0.000    0.000    0.000    0.000 
#
# Total GULP energy -173471.630620 kJ/mol
# GULP energy per Si atom -12390.830759 kJ/mol
# Density = 2.116125 g / cm^3
# Si number density = 21.209520 Si / 1000 Ang^3
#
#
#
# Elastic Constant Matrix: (Units=GPa)
#
#
# Indices 1 2 3 4 5 6 
#
# 1 77.4339 56.2684 11.4838 -12.3111 -13.3065 2.6080
# 2 56.2684 92.8968 28.6178 -18.6784 -6.9951 -4.8897
# 3 11.4838 28.6178 72.2879 -4.0856 -13.9117 -0.7632
# 4 -12.3111 -18.6784 -4.0856 31.7008 -2.9222 -3.9665
# 5 -13.3065 -6.9951 -13.9117 -2.9222 33.3270 -5.0463
# 6 2.6080 -4.8897 -0.7632 -3.9665 -5.0463 44.3692
#
#
#
# Elastic Compliance Matrix: (Units=1/GPa)
#
#
# Indices 1 2 3 4 5 6 
#
# 1 0.025647 -0.015893 0.003893 0.001605 0.008352 -0.002099
# 2 -0.015893 0.024007 -0.007122 0.007242 -0.003076 0.003755
# 3 0.003893 -0.007122 0.017476 0.000269 0.007401 0.000153
# 4 0.001605 0.007242 0.000269 0.037650 0.006300 0.004791
# 5 0.008352 -0.003076 0.007401 0.006300 0.036952 0.004063
# 6 -0.002099 0.003755 0.000153 0.004791 0.004063 0.023968
#
#
# Mechanical properties :
#
#
# Convention : Reuss Voigt Hill
#
# Bulk Modulus (GPa) = 34.61850 48.37317 41.49583
# Shear Modulus (GPa) = 23.41132 31.62929 27.52030
#
# Velocity S-wave (km/s) = 3.32597 3.86590 3.60605
# Velocity P-wave (km/s) = 5.57737 6.54092 6.07827
#
# Compressibility (1/GPa) = 0.02888629
#
# Stress axis : x y z
#
# Youngs Moduli (GPa) = 38.99159 41.65437 57.22159
#
# Poissons Ratio (x) = 0.66199 -0.22278
# Poissons Ratio (y) = 0.61968 0.40756
# Poissons Ratio (z) = -0.15181 0.29668
#
# Static dielectric constant tensor:
#      x y z
#    x 3.759370 -0.276650 -0.336310 
#    y -0.276650 3.801330 -0.001200 
#    z -0.336310 -0.001200 4.098950 
# 
# 
# High freq. dielectric constant tensor:
#      x y z
#    x 1.823190 -0.025560 -0.017420 
#    y -0.025560 1.819300 0.004990 
#    z -0.017420 0.004990 1.848370 
# 
# From -- ./inp_files/313919.got.cif
#   From: 2010.06.25/outbox.cif.g09.slc.cpg/sg2_157_cif.got.tgz:313919.got - 2010.06.27 13:26:56.
