data_PCOD8011431
_publ_section_title
;
Structure prediction by ZEFSAII (Michael W. Deem and Ramdas Pophale) SiO2 
 PCOD8011431
Probable space group: P -1
;
_chemical_formula_sum "Si O2"
_cell_formula_units_Z 16
_cell_length_a 13.443430
_cell_length_b 16.764668
_cell_length_c 7.540131
_cell_angle_alpha 105.697846
_cell_angle_beta 82.556022
_cell_angle_gamma 36.119933
_cell_volume 761.611141
_symmetry_space_group_name_H-M "P -1"
_symmetry_group_IT_number 2
_symmetry_cell_setting 'triclinic'
loop_
_space_group_symop_operation_xyz
x,y,z
-x,-y,-z
loop_
_atom_site_type_symbol
_atom_site_label
_atom_site_fract_x
_atom_site_fract_y
_atom_site_fract_z
Si Si1 0.430096 0.750355 0.654587
Si Si2 0.250781 0.320393 0.798014
Si Si3 0.833855 0.303901 0.815082
Si Si4 0.435944 0.159886 0.287604
Si Si5 0.243556 0.218321 0.050300
Si Si6 0.583035 0.331785 0.030977
Si Si7 0.820259 0.066149 0.533962
Si Si8 0.808031 0.467943 0.174213
O O1 0.484546 0.804071 0.732714
O O2 0.245597 0.881305 0.626231
O O3 0.642408 0.551964 0.405913
O O4 0.361264 0.746884 0.838109
O O5 0.329760 0.220112 0.538434
O O6 0.321220 0.366009 0.806851
O O7 0.356321 0.191330 0.854387
O O8 0.000000 0.500000 0.000000
O O9 0.731009 0.304162 0.952535
O O10 0.665757 0.458604 0.799305
O O11 0.898643 0.330674 0.946740
O O12 0.061699 0.108613 0.561331
O O13 0.255384 0.264845 0.252290
O O14 0.639540 0.954686 0.074970
O O15 0.994733 0.380861 0.178609
O O16 0.623422 0.231985 0.809782
O O17 0.000000 0.000000 0.500000
#
# Coordination Sequence:
#
# PCOD8011431 Si02
#       8
#     2   2   2   2   2   2   2   2
#     4  11  23  40  65  91 127 169 205 264 313 372
#     4   9  20  36  60  83 117 164 196 249 309 361
#     4  10  21  42  65  90 128 165 211 262 305 381
#     4  10  22  38  61  89 125 156 209 257 303 372
#     4  10  21  40  59  89 122 161 204 258 308 366
#     4  10  23  43  64  92 127 168 210 258 318 367
#     4  10  22  43  63  90 127 163 209 265 309 368
#     4  10  21  39  61  90 124 159 212 253 306 377
#
# _framework density 21.008095999999998
#
# number of rings (size 3 to 8) (size 9 to 14) (size 15 to 20)
#    0.000    2.000    1.250    1.125    1.750    7.000 
#    6.750    2.500    0.000    0.000    0.000    0.000 
#    0.000    0.000    0.000    0.000    0.000    0.000 
#
# Total GULP energy -198275.981732 kJ/mol
# GULP energy per Si atom -12392.248858 kJ/mol
# Density = 2.096028 g / cm^3
# Si number density = 21.008096 Si / 1000 Ang^3
#
#
#
# Elastic Constant Matrix: (Units=GPa)
#
#
# Indices 1 2 3 4 5 6 
#
# 1 77.2408 27.6164 24.7722 -5.6836 21.8866 -4.1076
# 2 27.6164 105.1405 36.8496 -6.7511 11.4663 1.4207
# 3 24.7722 36.8496 89.5758 -7.1182 13.9467 8.8762
# 4 -5.6836 -6.7511 -7.1182 29.1627 6.0152 6.6144
# 5 21.8866 11.4663 13.9467 6.0152 38.4072 0.2772
# 6 -4.1076 1.4207 8.8762 6.6144 0.2772 29.9494
#
#
#
# Elastic Compliance Matrix: (Units=1/GPa)
#
#
# Indices 1 2 3 4 5 6 
#
# 1 0.017567 -0.002621 -0.002361 0.003508 -0.008938 0.002542
# 2 -0.002621 0.011734 -0.003846 0.001461 -0.000841 -0.000091
# 3 -0.002361 -0.003846 0.014820 0.004223 -0.003510 -0.005434
# 4 0.003508 0.001461 0.004223 0.040667 -0.010267 -0.009726
# 5 -0.008938 -0.000841 -0.003510 -0.010267 0.034251 0.001805
# 6 0.002542 -0.000091 -0.005434 -0.009726 0.001805 0.037484
#
#
# Mechanical properties :
#
#
# Convention : Reuss Voigt Hill
#
# Bulk Modulus (GPa) = 37.78784 50.04816 43.91800
# Shear Modulus (GPa) = 27.32224 31.68512 29.50368
#
# Velocity S-wave (km/s) = 3.61024 3.88781 3.75159
# Velocity P-wave (km/s) = 5.95019 6.63539 6.30211
#
# Compressibility (1/GPa) = 0.02646354
#
# Stress axis : x y z
#
# Youngs Moduli (GPa) = 56.92521 85.21995 67.47860
#
# Poissons Ratio (x) = 0.22335 0.15934
# Poissons Ratio (y) = 0.14919 0.25955
# Poissons Ratio (z) = 0.13442 0.32779
#
# Static dielectric constant tensor:
#      x y z
#    x 3.823170 0.242340 0.140850 
#    y 0.242340 4.164570 0.166010 
#    z 0.140850 0.166010 4.011770 
# 
# 
# High freq. dielectric constant tensor:
#      x y z
#    x 1.821770 0.000450 0.017540 
#    y 0.000450 1.827590 0.012020 
#    z 0.017540 0.012020 1.815440 
# 
# From -- ./inp_files/99816.got.cif
#   From: 2010.06.25/outbox.cif.g09.slc.cpg/sg2_50_cif.got.tgz:99816.got - 2010.06.27 13:26:56.
