data_PCOD8011859
_publ_section_title
;
Structure prediction by ZEFSAII (Michael W. Deem and Ramdas Pophale) SiO2 
 PCOD8011859
Probable space group: P -1
;
_chemical_formula_sum "Si O2"
_cell_formula_units_Z 16
_cell_length_a 8.921463
_cell_length_b 12.160302
_cell_length_c 15.189885
_cell_angle_alpha 130.955776
_cell_angle_beta 65.996314
_cell_angle_gamma 141.095360
_cell_volume 762.838637
_symmetry_space_group_name_H-M "P -1"
_symmetry_group_IT_number 2
_symmetry_cell_setting 'triclinic'
loop_
_space_group_symop_operation_xyz
x,y,z
-x,-y,-z
loop_
_atom_site_type_symbol
_atom_site_label
_atom_site_fract_x
_atom_site_fract_y
_atom_site_fract_z
Si Si1 0.187872 0.721363 0.690576
Si Si2 0.604966 0.710800 0.939012
Si Si3 0.956728 0.194598 0.070437
Si Si4 0.686855 0.937181 0.740016
Si Si5 0.070698 0.389959 0.960152
Si Si6 0.969302 0.688072 0.559933
Si Si7 0.861845 0.820629 0.511131
Si Si8 0.558704 0.596836 0.700470
O O1 0.464327 0.900300 0.754353
O O2 0.077434 0.490852 0.575589
O O3 0.021315 0.686610 0.787228
O O4 0.181329 0.809467 0.646631
O O5 0.812590 0.762259 0.970632
O O6 0.363877 0.565573 0.980691
O O7 0.535314 0.569069 0.796072
O O8 0.707656 0.937184 0.005865
O O9 0.959360 0.294619 0.034400
O O10 0.687304 0.820817 0.600597
O O11 0.652123 0.822137 0.777468
O O12 0.941145 0.190591 0.820306
O O13 0.000000 0.500000 0.000000
O O14 0.039177 0.857650 0.559734
O O15 0.729683 0.581626 0.614295
O O16 0.703722 0.591949 0.382093
O O17 0.000000 0.000000 0.500000
#
# Coordination Sequence:
#
# PCOD8011859 Si02
#       8
#     2   2   2   2   2   2   2   2
#     4  11  21  39  69  92 130 169 221 267 330 396
#     4  11  24  44  69  95 132 173 226 270 326 398
#     4  11  25  44  68  95 130 183 217 267 341 387
#     4  11  22  40  65  94 131 172 223 269 324 392
#     4  12  27  43  64 102 134 171 225 278 327 390
#     4  10  21  39  64  95 124 169 217 265 328 391
#     4  11  22  38  63  98 131 172 219 267 326 392
#     4  11  19  42  66  96 124 175 222 259 326 394
#
# _framework density 20.974292999999999
#
# number of rings (size 3 to 8) (size 9 to 14) (size 15 to 20)
#    0.000    1.000    5.000    2.625    1.750    2.000 
#    0.000    4.375    0.000    0.000    0.000    0.000 
#    0.000    0.000    0.000    0.000    0.000    0.000 
#
# Total GULP energy -198377.663670 kJ/mol
# GULP energy per Si atom -12398.603979 kJ/mol
# Density = 2.092655 g / cm^3
# Si number density = 20.974293 Si / 1000 Ang^3
#
#
#
# Elastic Constant Matrix: (Units=GPa)
#
#
# Indices 1 2 3 4 5 6 
#
# 1 102.3156 40.7784 26.4208 1.1546 -1.6065 -11.1252
# 2 40.7784 106.3438 32.4219 3.6567 0.0317 -13.2443
# 3 26.4208 32.4219 99.3111 -1.2467 -2.6097 -8.6309
# 4 1.1546 3.6567 -1.2467 31.9065 -1.3766 7.6059
# 5 -1.6065 0.0317 -2.6097 -1.3766 29.3560 -0.9285
# 6 -11.1252 -13.2443 -8.6309 7.6059 -0.9285 38.5932
#
#
#
# Elastic Compliance Matrix: (Units=1/GPa)
#
#
# Indices 1 2 3 4 5 6 
#
# 1 0.011961 -0.003798 -0.001773 -0.000486 0.000537 0.001857
# 2 -0.003798 0.012120 -0.002737 -0.002057 -0.000471 0.002846
# 3 -0.001773 -0.002737 0.011559 0.000626 0.000996 0.001035
# 4 -0.000486 -0.002057 0.000626 0.033409 0.001368 -0.007257
# 5 0.000537 -0.000471 0.000996 0.001368 0.034272 0.000771
# 6 0.001857 0.002846 0.001035 -0.007257 0.000771 0.029104
#
#
# Mechanical properties :
#
#
# Convention : Reuss Voigt Hill
#
# Bulk Modulus (GPa) = 52.56725 56.35695 54.46210
# Shear Modulus (GPa) = 32.17910 33.86110 33.02010
#
# Velocity S-wave (km/s) = 3.92116 4.02233 3.97207
# Velocity P-wave (km/s) = 6.75409 6.96420 6.85995
#
# Compressibility (1/GPa) = 0.01902325
#
# Stress axis : x y z
#
# Youngs Moduli (GPa) = 83.60430 82.50974 86.51617
#
# Poissons Ratio (x) = 0.31340 0.15337
# Poissons Ratio (y) = 0.31755 0.23680
# Poissons Ratio (z) = 0.14821 0.22583
#
# Static dielectric constant tensor:
#      x y z
#    x 3.883520 -0.068980 0.058030 
#    y -0.068980 3.646360 0.328050 
#    z 0.058030 0.328050 3.743890 
# 
# 
# High freq. dielectric constant tensor:
#      x y z
#    x 1.828250 -0.011620 0.001620 
#    y -0.011620 1.795890 -0.006350 
#    z 0.001620 -0.006350 1.833260 
# 
# From -- ./inp_files/256040.got.cif
#   From: 2010.06.25/outbox.cif.g09.slc.cpg/sg2_129_cif.got.tgz:256040.got - 2010.06.27 13:26:56.
