data_PCOD8011342
_publ_section_title
;
Structure prediction by ZEFSAII (Michael W. Deem and Ramdas Pophale) SiO2 
 PCOD8011342
Probable space group: P -1
;
_chemical_formula_sum "Si O2"
_cell_formula_units_Z 12
_cell_length_a 11.608029
_cell_length_b 8.965801
_cell_length_c 13.743243
_cell_angle_alpha 101.115110
_cell_angle_beta 148.955606
_cell_angle_gamma 100.196467
_cell_volume 533.207196
_symmetry_space_group_name_H-M "P -1"
_symmetry_group_IT_number 2
_symmetry_cell_setting 'triclinic'
loop_
_space_group_symop_operation_xyz
x,y,z
-x,-y,-z
loop_
_atom_site_type_symbol
_atom_site_label
_atom_site_fract_x
_atom_site_fract_y
_atom_site_fract_z
Si Si1 0.201252 0.741911 0.016528
Si Si2 0.275423 0.726533 0.407646
Si Si3 0.372193 0.126603 0.136473
Si Si4 0.126061 0.889182 0.174896
Si Si5 0.683013 0.423418 0.227606
Si Si6 0.330455 0.226631 0.751392
O O1 0.891456 0.509836 0.749215
O O2 0.195671 0.799240 0.129796
O O3 0.498939 0.775299 0.215840
O O4 0.205246 0.889136 0.964501
O O5 0.335357 0.780339 0.573300
O O6 0.077218 0.775201 0.227005
O O7 0.581010 0.864851 0.580264
O O8 0.433947 0.240250 0.096347
O O9 0.166577 0.141115 0.057645
O O10 0.714631 0.618006 0.285688
O O11 0.000000 0.500000 0.500000
O O12 0.565220 0.318180 0.023197
O O13 0.000000 0.000000 0.500000
#
# Coordination Sequence:
#
# PCOD8011342 Si02
#       6
#     2   2   2   2   2   2
#     4  11  22  40  65  93 125 165 212 257 313 380
#     4  10  21  39  60  87 127 165 204 255 312 370
#     4  11  24  40  63  95 127 163 209 260 315 376
#     4  10  23  40  61  92 128 165 205 256 316 375
#     4  11  25  46  68  94 131 169 213 269 323 377
#     4  11  26  45  68  96 127 170 218 265 320 382
#
# _framework density 22.505322
#
# number of rings (size 3 to 8) (size 9 to 14) (size 15 to 20)
#    0.000    1.333    0.000    5.500    0.000   16.000 
#    0.000    1.667    0.000    0.000    0.000    0.000 
#    0.000    0.000    0.000    0.000    0.000    0.000 
#
# Total GULP energy -148720.638211 kJ/mol
# GULP energy per Si atom -12393.386518 kJ/mol
# Density = 2.245410 g / cm^3
# Si number density = 22.505322 Si / 1000 Ang^3
#
#
#
# Elastic Constant Matrix: (Units=GPa)
#
#
# Indices 1 2 3 4 5 6 
#
# 1 88.5296 56.4279 34.2032 0.8782 9.4221 -14.4435
# 2 56.4279 181.6908 74.9488 22.5901 0.2425 8.2602
# 3 34.2032 74.9488 111.7401 15.8390 0.3981 -6.1459
# 4 0.8782 22.5901 15.8390 48.5132 4.8990 7.1108
# 5 9.4221 0.2425 0.3981 4.8990 17.5176 -3.4458
# 6 -14.4435 8.2602 -6.1459 7.1108 -3.4458 41.5663
#
#
#
# Elastic Compliance Matrix: (Units=1/GPa)
#
#
# Indices 1 2 3 4 5 6 
#
# 1 0.017073 -0.005119 -0.001851 0.002761 -0.008765 0.005477
# 2 -0.005119 0.009494 -0.004653 -0.002541 0.002712 -0.003694
# 3 -0.001851 -0.004653 0.013175 -0.002733 0.002090 0.002870
# 4 0.002761 -0.002541 -0.002733 0.024091 -0.008872 -0.003796
# 5 -0.008765 0.002712 0.002090 -0.008872 0.064909 0.003623
# 6 0.005477 -0.003694 0.002870 -0.003796 0.003623 0.028069
#
#
# Mechanical properties :
#
#
# Convention : Reuss Voigt Hill
#
# Bulk Modulus (GPa) = 60.62905 79.23558 69.93231
# Shear Modulus (GPa) = 26.94606 35.94479 31.44543
#
# Velocity S-wave (km/s) = 3.46398 4.00079 3.74203
# Velocity P-wave (km/s) = 6.55723 7.52501 7.05773
#
# Compressibility (1/GPa) = 0.01649374
#
# Stress axis : x y z
#
# Youngs Moduli (GPa) = 58.57235 105.33402 75.90150
#
# Poissons Ratio (x) = 0.53925 0.14050
# Poissons Ratio (y) = 0.29986 0.35320
# Poissons Ratio (z) = 0.10842 0.49016
#
# Static dielectric constant tensor:
#      x y z
#    x 3.977120 0.190990 0.082080 
#    y 0.190990 4.408350 0.158200 
#    z 0.082080 0.158200 4.098150 
# 
# 
# High freq. dielectric constant tensor:
#      x y z
#    x 1.876150 0.014140 0.009010 
#    y 0.014140 1.909190 0.004640 
#    z 0.009010 0.004640 1.885590 
# 
# From -- ./inp_files/300786.got.cif
#   From: 2010.06.25/outbox.cif.g09.slc.cpg/sg2_151_cif.got.tgz:300786.got - 2010.06.27 13:26:56.
