data_PCOD8011516
_publ_section_title
;
Structure prediction by ZEFSAII (Michael W. Deem and Ramdas Pophale) SiO2 
 PCOD8011516
Probable space group: P -1
;
_chemical_formula_sum "Si O2"
_cell_formula_units_Z 16
_cell_length_a 5.113249
_cell_length_b 27.165733
_cell_length_c 5.261553
_cell_angle_alpha 75.477155
_cell_angle_beta 118.918838
_cell_angle_gamma 107.001160
_cell_volume 606.521428
_symmetry_space_group_name_H-M "P -1"
_symmetry_group_IT_number 2
_symmetry_cell_setting 'triclinic'
loop_
_space_group_symop_operation_xyz
x,y,z
-x,-y,-z
loop_
_atom_site_type_symbol
_atom_site_label
_atom_site_fract_x
_atom_site_fract_y
_atom_site_fract_z
Si Si1 0.187837 0.519887 0.813754
Si Si2 0.588929 0.359182 0.244576
Si Si3 0.547215 0.764702 0.360521
Si Si4 0.954783 0.783453 0.947337
Si Si5 0.802000 0.867896 0.136302
Si Si6 0.211066 0.323394 0.618449
Si Si7 0.793489 0.113842 0.273366
Si Si8 0.141686 0.981213 0.842714
O O1 0.244713 0.581493 0.757544
O O2 0.000000 0.500000 0.500000
O O3 0.500000 0.500000 0.000000
O O4 0.000000 0.500000 0.000000
O O5 0.407284 0.347701 0.437253
O O6 0.858830 0.326309 0.407387
O O7 0.356151 0.350064 0.909457
O O8 0.594676 0.827323 0.292061
O O9 0.736482 0.737630 0.269955
O O10 0.178840 0.744471 0.186196
O O11 0.657184 0.748632 0.713064
O O12 0.909336 0.827429 0.059007
O O13 0.125996 0.823049 0.756373
O O14 0.068642 0.905139 0.375716
O O15 0.576005 0.903299 0.869508
O O16 0.917172 0.083122 0.129696
O O17 0.000000 0.000000 0.500000
O O18 0.500000 0.000000 0.000000
O O19 0.000000 0.000000 0.000000
#
# Coordination Sequence:
#
# PCOD8011516 Si02
#       8
#     2   2   2   2   2   2   2   2
#     4  12  24  44  72 100 137 180 234 296 345 409
#     4  12  26  45  68 104 137 186 231 283 354 409
#     4  10  23  37  60  92 122 174 217 269 329 392
#     4  10  21  39  62  89 123 162 224 267 326 389
#     4  10  21  39  63  90 123 163 221 267 326 389
#     4  12  26  44  69  98 144 181 227 283 340 423
#     4  10  23  39  63  93 123 168 213 276 325 388
#     4  12  28  49  73 105 139 181 225 277 343 419
#
# _framework density 26.379944999999999
#
# number of rings (size 3 to 8) (size 9 to 14) (size 15 to 20)
#    0.000    1.000    0.000    6.000    7.000    0.000 
#    0.000    0.000    0.000    0.000    0.000    0.000 
#    0.000    0.000    0.000    0.000    0.000    0.000 
#
# Total GULP energy -198299.254722 kJ/mol
# GULP energy per Si atom -12393.703420 kJ/mol
# Density = 2.631990 g / cm^3
# Si number density = 26.379945 Si / 1000 Ang^3
#
#
#
# Elastic Constant Matrix: (Units=GPa)
#
#
# Indices 1 2 3 4 5 6 
#
# 1 118.9072 -10.8618 83.8238 0.9918 22.6500 -24.0075
# 2 -10.8618 100.9136 34.1967 -2.1169 1.8013 -6.9596
# 3 83.8238 34.1967 241.4605 33.6150 41.3250 -19.3807
# 4 0.9918 -2.1169 33.6150 41.5213 -0.9473 -11.3104
# 5 22.6500 1.8013 41.3250 -0.9473 61.8281 -6.5075
# 6 -24.0075 -6.9596 -19.3807 -11.3104 -6.5075 40.2557
#
#
#
# Elastic Compliance Matrix: (Units=1/GPa)
#
#
# Indices 1 2 3 4 5 6 
#
# 1 0.014770 0.004349 -0.005932 0.006996 -0.000562 0.008579
# 2 0.004349 0.012013 -0.003698 0.004722 0.001063 0.004389
# 3 -0.005932 -0.003698 0.008151 -0.007532 -0.003593 -0.002950
# 4 0.006996 0.004722 -0.007532 0.033458 0.004048 0.011417
# 5 -0.000562 0.001063 -0.003593 0.004048 0.019058 0.002337
# 6 0.008579 0.004389 -0.002950 0.011417 0.002337 0.032882
#
#
# Mechanical properties :
#
#
# Convention : Reuss Voigt Hill
#
# Bulk Modulus (GPa) = 41.03261 75.06652 58.04956
# Shear Modulus (GPa) = 35.96606 52.32919 44.14762
#
# Velocity S-wave (km/s) = 3.69641 4.45868 4.09532
# Velocity P-wave (km/s) = 5.81431 7.41782 6.66447
#
# Compressibility (1/GPa) = 0.02437086
#
# Stress axis : x y z
#
# Youngs Moduli (GPa) = 67.70455 83.24004 122.67899
#
# Poissons Ratio (x) = -0.36197 0.72779
# Poissons Ratio (y) = -0.29442 0.45368
# Poissons Ratio (z) = 0.40165 0.30783
#
# Static dielectric constant tensor:
#      x y z
#    x 5.149270 0.685640 -0.038510 
#    y 0.685640 6.645500 -0.858800 
#    z -0.038510 -0.858800 6.549950 
# 
# 
# High freq. dielectric constant tensor:
#      x y z
#    x 2.075900 0.005220 0.003320 
#    y 0.005220 2.065140 -0.004790 
#    z 0.003320 -0.004790 2.091200 
# 
# From -- ./inp_files/14523.got.cif
#   From: 2010.06.25/outbox.cif.g09.slc.cpg/sg2_8_cif.got.tgz:14523.got - 2010.06.27 13:26:56.
