data_PCOD8011945
_publ_section_title
;
Structure prediction by ZEFSAII (Michael W. Deem and Ramdas Pophale) SiO2 
 PCOD8011945
Probable space group: P -1
;
_chemical_formula_sum "Si O2"
_cell_formula_units_Z 16
_cell_length_a 9.153772
_cell_length_b 8.313011
_cell_length_c 14.455924
_cell_angle_alpha 69.027590
_cell_angle_beta 47.495517
_cell_angle_gamma 68.010950
_cell_volume 743.062441
_symmetry_space_group_name_H-M "P -1"
_symmetry_group_IT_number 2
_symmetry_cell_setting 'triclinic'
loop_
_space_group_symop_operation_xyz
x,y,z
-x,-y,-z
loop_
_atom_site_type_symbol
_atom_site_label
_atom_site_fract_x
_atom_site_fract_y
_atom_site_fract_z
Si Si1 0.083801 0.419594 0.884043
Si Si2 0.109669 0.977657 0.555958
Si Si3 0.768389 0.101785 0.819131
Si Si4 0.355065 0.630160 0.601839
Si Si5 0.330068 0.159766 0.956473
Si Si6 0.872092 0.465913 0.693023
Si Si7 0.726838 0.686846 0.536097
Si Si8 0.290802 0.444975 0.076774
O O1 0.204376 0.540613 0.746741
O O2 0.233072 0.238685 0.884986
O O3 0.883393 0.392827 0.919633
O O4 0.000000 0.500000 0.000000
O O5 0.238645 0.782848 0.553461
O O6 0.246726 0.124834 0.476202
O O7 0.000000 0.000000 0.500000
O O8 0.951954 0.007143 0.699611
O O9 0.565657 0.088696 0.851462
O O10 0.769927 0.302921 0.798239
O O11 0.775077 0.000857 0.935246
O O12 0.500000 0.500000 0.500000
O O13 0.498223 0.711004 0.594447
O O14 0.312528 0.290136 0.025631
O O15 0.766983 0.543065 0.628714
O O16 0.810374 0.607928 0.772642
O O17 0.113274 0.395666 0.595570
O O18 0.500000 0.500000 0.000000
#
# Coordination Sequence:
#
# PCOD8011945 Si02
#       8
#     2   2   2   2   2   2   2   2
#     4  10  23  40  64  96 132 169 222 271 334 396
#     4  11  26  42  65  99 137 176 226 278 340 401
#     4  10  21  40  63  87 136 171 222 268 336 395
#     4  12  26  44  72 101 134 178 231 283 339 405
#     4  10  21  39  65  91 126 181 217 271 333 400
#     4  10  21  40  64  98 128 177 219 280 330 400
#     4  10  24  41  69  91 138 176 227 275 344 395
#     4  11  21  37  64  93 127 165 225 272 328 399
#
# _framework density 21.532511
#
# number of rings (size 3 to 8) (size 9 to 14) (size 15 to 20)
#    0.000    1.500    1.250    3.375   12.250    0.000 
#    0.000    0.625    0.000    0.000    0.000    0.000 
#    0.000    0.000    0.000    0.000    0.000    0.000 
#
# Total GULP energy -198279.575448 kJ/mol
# GULP energy per Si atom -12392.473466 kJ/mol
# Density = 2.148350 g / cm^3
# Si number density = 21.532511 Si / 1000 Ang^3
#
#
#
# Elastic Constant Matrix: (Units=GPa)
#
#
# Indices 1 2 3 4 5 6 
#
# 1 144.7262 40.0177 50.5751 -20.4084 -11.5486 -26.4941
# 2 40.0177 105.5102 42.6828 -18.4118 -2.3627 -19.7942
# 3 50.5751 42.6828 105.3748 -15.5282 -4.0365 -1.7628
# 4 -20.4084 -18.4118 -15.5282 41.4014 1.4010 7.8277
# 5 -11.5486 -2.3627 -4.0365 1.4010 25.1243 -1.1565
# 6 -26.4941 -19.7942 -1.7628 7.8277 -1.1565 36.7660
#
#
#
# Elastic Compliance Matrix: (Units=1/GPa)
#
#
# Indices 1 2 3 4 5 6 
#
# 1 0.010358 -0.000551 -0.004197 0.001876 0.004239 0.006700
# 2 -0.000551 0.013106 -0.004528 0.002736 0.000369 0.005871
# 3 -0.004197 -0.004528 0.013525 0.002002 -0.000536 -0.005257
# 4 0.001876 0.002736 0.002002 0.027615 -0.000235 -0.002966
# 5 0.004239 0.000369 -0.000536 -0.000235 0.041924 0.004596
# 6 0.006700 0.005871 -0.005257 -0.002966 0.004596 0.035712
#
#
# Mechanical properties :
#
#
# Convention : Reuss Voigt Hill
#
# Bulk Modulus (GPa) = 54.24427 69.12916 61.68672
# Shear Modulus (GPa) = 29.95111 35.48071 32.71591
#
# Velocity S-wave (km/s) = 3.73362 4.06368 3.90214
# Velocity P-wave (km/s) = 6.62065 7.36154 7.00090
#
# Compressibility (1/GPa) = 0.01843513
#
# Stress axis : x y z
#
# Youngs Moduli (GPa) = 96.54274 76.30188 73.93607
#
# Poissons Ratio (x) = 0.04208 0.31032
# Poissons Ratio (y) = 0.05324 0.33482
# Poissons Ratio (z) = 0.40520 0.34553
#
# Static dielectric constant tensor:
#      x y z
#    x 5.540510 -0.316280 0.485910 
#    y -0.316280 4.027460 0.008610 
#    z 0.485910 0.008610 4.383950 
# 
# 
# High freq. dielectric constant tensor:
#      x y z
#    x 1.848610 -0.015830 -0.005650 
#    y -0.015830 1.834010 0.002050 
#    z -0.005650 0.002050 1.860810 
# 
# From -- ./inp_files/494592.got.cif
#   From: 2010.06.25/outbox.cif.g09.slc.cpg/sg2_248_cif.got.tgz:494592.got - 2010.06.27 13:26:56.
