data_PCOD8011086
_publ_section_title
;
Structure prediction by ZEFSAII (Michael W. Deem and Ramdas Pophale) SiO2 
 PCOD8011086
Probable space group: P -1
;
_chemical_formula_sum "Si O2"
_cell_formula_units_Z 14
_cell_length_a 15.504843
_cell_length_b 15.290128
_cell_length_c 20.756528
_cell_angle_alpha 18.053589
_cell_angle_beta 25.910449
_cell_angle_gamma 26.027905
_cell_volume 631.237416
_symmetry_space_group_name_H-M "P -1"
_symmetry_group_IT_number 2
_symmetry_cell_setting 'triclinic'
loop_
_space_group_symop_operation_xyz
x,y,z
-x,-y,-z
loop_
_atom_site_type_symbol
_atom_site_label
_atom_site_fract_x
_atom_site_fract_y
_atom_site_fract_z
Si Si1 0.232625 0.777572 0.494900
Si Si2 0.513602 0.611016 0.015739
Si Si3 0.825784 0.299913 0.609114
Si Si4 0.578567 0.428047 0.240317
Si Si5 0.376147 0.264689 0.672143
Si Si6 0.286398 0.248169 0.342554
Si Si7 0.300732 0.107694 0.101234
O O1 0.244347 0.446962 0.694431
O O2 0.375707 0.758203 0.475469
O O3 0.352199 0.906949 0.270801
O O4 0.000000 0.000000 0.500000
O O5 0.630483 0.440408 0.120627
O O6 0.375659 0.426525 0.208636
O O7 0.680725 0.651126 0.822868
O O8 0.358288 0.935423 0.912911
O O9 0.660119 0.351580 0.742858
O O10 0.717628 0.571102 0.444621
O O11 0.043857 0.323494 0.469685
O O12 0.873217 0.977863 0.765209
O O13 0.596846 0.100204 0.481178
O O14 0.740844 0.550611 0.087279
O O15 0.500000 0.000000 0.000000
#
# Coordination Sequence:
#
# PCOD8011086 Si02
#       7
#     2   2   2   2   2   2   2
#     4  10  21  38  66  99 128 172 220 262 323 402
#     4  11  24  46  69  92 132 178 221 277 328 376
#     4  10  23  42  66  97 133 172 216 269 335 391
#     4  11  22  45  66  93 133 173 216 278 326 387
#     4  10  21  40  64  95 135 166 208 278 322 383
#     4  11  26  46  64  97 132 173 229 274 320 387
#     4   9  20  37  62  94 131 164 206 262 336 383
#
# _framework density 22.178659
#
# number of rings (size 3 to 8) (size 9 to 14) (size 15 to 20)
#    0.000    1.714    2.857    0.429    4.000    1.714 
#    5.143    0.000    0.000    0.000    0.000    0.000 
#    0.000    0.000    0.000    0.000    0.000    0.000 
#
# Total GULP energy -173437.171372 kJ/mol
# GULP energy per Si atom -12388.369384 kJ/mol
# Density = 2.212818 g / cm^3
# Si number density = 22.178659 Si / 1000 Ang^3
#
#
#
# Elastic Constant Matrix: (Units=GPa)
#
#
# Indices 1 2 3 4 5 6 
#
# 1 72.0222 29.6555 36.3022 -10.9609 1.7443 7.0697
# 2 29.6555 97.7461 30.8658 -13.2883 -8.2737 -10.2805
# 3 36.3022 30.8658 117.1808 -20.7495 -14.5959 10.7471
# 4 -10.9609 -13.2883 -20.7495 33.9361 19.3366 -6.5566
# 5 1.7443 -8.2737 -14.5959 19.3366 33.5572 1.7769
# 6 7.0697 -10.2805 10.7471 -6.5566 1.7769 26.4703
#
#
#
# Elastic Compliance Matrix: (Units=1/GPa)
#
#
# Indices 1 2 3 4 5 6 
#
# 1 0.019292 -0.004762 -0.004373 0.004784 -0.006645 -0.003595
# 2 -0.004762 0.013859 -0.002233 0.004351 -0.000272 0.008657
# 3 -0.004373 -0.002233 0.011675 0.001771 0.003960 -0.004266
# 4 0.004784 0.004351 0.001771 0.053990 -0.030316 0.015101
# 5 -0.006645 -0.000272 0.003960 -0.030316 0.049841 -0.010794
# 6 -0.003595 0.008657 -0.004266 0.015101 -0.010794 0.048298
#
#
# Mechanical properties :
#
#
# Convention : Reuss Voigt Hill
#
# Bulk Modulus (GPa) = 45.26916 53.39958 49.33437
# Shear Modulus (GPa) = 22.02114 31.46776 26.74445
#
# Velocity S-wave (km/s) = 3.15445 3.77082 3.47632
# Velocity P-wave (km/s) = 5.80714 6.56415 6.19721
#
# Compressibility (1/GPa) = 0.02209009
#
# Stress axis : x y z
#
# Youngs Moduli (GPa) = 51.83598 72.15271 85.65477
#
# Poissons Ratio (x) = 0.34362 0.37456
# Poissons Ratio (y) = 0.24686 0.19124
# Poissons Ratio (z) = 0.22667 0.16109
#
# Static dielectric constant tensor:
#      x y z
#    x 4.102780 0.366350 -0.261190 
#    y 0.366350 3.840150 -0.131960 
#    z -0.261190 -0.131960 4.327800 
# 
# 
# High freq. dielectric constant tensor:
#      x y z
#    x 1.870970 0.019360 -0.002480 
#    y 0.019360 1.850180 -0.012350 
#    z -0.002480 -0.012350 1.878830 
# 
# From -- ./inp_files/598079.got.cif
#   From: 2010.06.25/outbox.cif.g09.slc.cpg/sg2_300_cif.got.tgz:598079.got - 2010.06.27 13:26:56.
