data_PCOD8011143
_publ_section_title
;
Structure prediction by ZEFSAII (Michael W. Deem and Ramdas Pophale) SiO2 
 PCOD8011143
Probable space group: P -1
;
_chemical_formula_sum "Si O2"
_cell_formula_units_Z 16
_cell_length_a 12.284010
_cell_length_b 8.916620
_cell_length_c 12.483034
_cell_angle_alpha 48.879473
_cell_angle_beta 128.527559
_cell_angle_gamma 112.332007
_cell_volume 804.769841
_symmetry_space_group_name_H-M "P -1"
_symmetry_group_IT_number 2
_symmetry_cell_setting 'triclinic'
loop_
_space_group_symop_operation_xyz
x,y,z
-x,-y,-z
loop_
_atom_site_type_symbol
_atom_site_label
_atom_site_fract_x
_atom_site_fract_y
_atom_site_fract_z
Si Si1 0.212975 0.137596 0.638311
Si Si2 0.634752 0.098989 0.988300
Si Si3 0.264264 0.789532 0.411937
Si Si4 0.383229 0.052004 0.187159
Si Si5 0.422720 0.410153 0.726168
Si Si6 0.710968 0.554401 0.143540
Si Si7 0.976657 0.497127 0.611038
Si Si8 0.690513 0.111149 0.372579
O O1 0.344944 0.278123 0.652745
O O2 0.072394 0.277225 0.492346
O O3 0.206011 0.020131 0.577587
O O4 0.231332 0.974511 0.823972
O O5 0.587456 0.336373 0.862373
O O6 0.661607 0.046025 0.905993
O O7 0.500000 0.000000 0.000000
O O8 0.404638 0.642826 0.574149
O O9 0.134810 0.665374 0.351102
O O10 0.236488 0.879543 0.471113
O O11 0.286781 0.965017 0.260497
O O12 0.543859 0.006170 0.337044
O O13 0.358549 0.292088 0.056650
O O14 0.337360 0.372700 0.801635
O O15 0.663356 0.331106 0.200346
O O16 0.875705 0.562675 0.217959
O O17 0.000000 0.500000 0.500000
#
# Coordination Sequence:
#
# PCOD8011143 Si02
#       8
#     2   2   2   2   2   2   2   2
#     4  10  18  33  61  86 109 143 200 237 272 330
#     4  10  16  32  57  86 113 144 188 238 277 335
#     4  10  24  36  57  89 115 158 182 232 302 332
#     4  12  21  36  59  89 122 142 190 243 290 342
#     4   9  16  35  55  82 110 145 193 225 280 339
#     4  11  21  36  62  82 111 156 197 235 271 333
#     4  11  19  41  61  81 113 153 205 232 262 351
#     4  11  21  37  57  87 117 151 184 236 294 346
#
# _framework density 19.881460000000001
#
# number of rings (size 3 to 8) (size 9 to 14) (size 15 to 20)
#    0.000    1.500    8.750    0.750    0.000    2.500 
#    0.000    0.000    0.000    0.750    0.000    0.000 
#    0.000    0.000    0.000    0.000    0.000    0.000 
#
# Total GULP energy -198287.042443 kJ/mol
# GULP energy per Si atom -12392.940153 kJ/mol
# Density = 1.983621 g / cm^3
# Si number density = 19.881460 Si / 1000 Ang^3
#
#
#
# Elastic Constant Matrix: (Units=GPa)
#
#
# Indices 1 2 3 4 5 6 
#
# 1 72.2331 38.4384 38.5431 -11.9776 -2.8066 -6.8203
# 2 38.4384 87.8589 23.6719 -7.0014 -5.8508 -25.9923
# 3 38.5431 23.6719 73.1494 -7.4346 -6.5575 -10.9051
# 4 -11.9776 -7.0014 -7.4346 24.4666 4.1363 4.5500
# 5 -2.8066 -5.8508 -6.5575 4.1363 37.2782 -3.8312
# 6 -6.8203 -25.9923 -10.9051 4.5500 -3.8312 35.7236
#
#
#
# Elastic Compliance Matrix: (Units=1/GPa)
#
#
# Indices 1 2 3 4 5 6 
#
# 1 0.025336 -0.009824 -0.010655 0.008174 -0.003129 -0.006940
# 2 -0.009824 0.019441 0.001019 -0.002098 0.004089 0.013287
# 3 -0.010655 0.001019 0.020005 -0.000404 0.003460 0.005236
# 4 0.008174 -0.002098 -0.000404 0.046323 -0.005602 -0.006591
# 5 -0.003129 0.004089 0.003460 -0.005602 0.029210 0.007280
# 6 -0.006940 0.013287 0.005236 -0.006591 0.007280 0.039554
#
#
# Mechanical properties :
#
#
# Convention : Reuss Voigt Hill
#
# Bulk Modulus (GPa) = 38.66649 48.28313 43.47481
# Shear Modulus (GPa) = 21.98694 28.33287 25.15991
#
# Velocity S-wave (km/s) = 3.32912 3.77913 3.56124
# Velocity P-wave (km/s) = 5.85390 6.58640 6.23092
#
# Compressibility (1/GPa) = 0.02586219
#
# Stress axis : x y z
#
# Youngs Moduli (GPa) = 39.47026 51.43761 49.98817
#
# Poissons Ratio (x) = 0.50531 0.53261
# Poissons Ratio (y) = 0.38774 -0.05093
# Poissons Ratio (z) = 0.42055 -0.05241
#
# Static dielectric constant tensor:
#      x y z
#    x -2.411670 -2.469200 -3.571620 
#    y -2.469200 2.802050 -1.772960 
#    z -3.571620 -1.772960 1.257340 
# 
# 
# High freq. dielectric constant tensor:
#      x y z
#    x 1.740260 -0.021460 0.015080 
#    y -0.021460 1.770580 -0.012860 
#    z 0.015080 -0.012860 1.764280 
# 
# From -- ./inp_files/418978.got.cif
#   From: 2010.06.25/outbox.cif.g09.slc.cpg/sg2_210_cif.got.tgz:418978.got - 2010.06.27 13:26:56.
