data_PCOD8011944
_publ_section_title
;
Structure prediction by ZEFSAII (Michael W. Deem and Ramdas Pophale) SiO2 
 PCOD8011944
Probable space group: P -1
;
_chemical_formula_sum "Si O2"
_cell_formula_units_Z 16
_cell_length_a 8.603819
_cell_length_b 17.003405
_cell_length_c 11.096247
_cell_angle_alpha 56.854013
_cell_angle_beta 95.655902
_cell_angle_gamma 138.854962
_cell_volume 735.712936
_symmetry_space_group_name_H-M "P -1"
_symmetry_group_IT_number 2
_symmetry_cell_setting 'triclinic'
loop_
_space_group_symop_operation_xyz
x,y,z
-x,-y,-z
loop_
_atom_site_type_symbol
_atom_site_label
_atom_site_fract_x
_atom_site_fract_y
_atom_site_fract_z
Si Si1 0.686959 0.999163 0.895426
Si Si2 0.349888 0.011656 0.837324
Si Si3 0.524062 0.860135 0.753112
Si Si4 0.212881 0.365705 0.518835
Si Si5 0.129866 0.217837 0.399083
Si Si6 0.020222 0.739766 0.864653
Si Si7 0.894796 0.390831 0.467389
Si Si8 0.327378 0.610310 0.772192
O O1 0.428199 0.942758 0.928531
O O2 0.621606 0.889981 0.875495
O O3 0.972955 0.200535 0.723371
O O4 0.716464 0.968160 0.057549
O O5 0.074250 0.857280 0.859052
O O6 0.586876 0.188931 0.635130
O O7 0.324505 0.852032 0.745832
O O8 0.340073 0.682292 0.832037
O O9 0.803300 0.018679 0.559193
O O10 0.500000 0.500000 0.500000
O O11 0.255541 0.329676 0.432021
O O12 0.133867 0.432853 0.423854
O O13 0.344251 0.239863 0.370095
O O14 0.152454 0.305859 0.222085
O O15 0.827099 0.564333 0.060967
O O16 0.863482 0.439919 0.306223
O O17 0.000000 0.500000 0.500000
#
# Coordination Sequence:
#
# PCOD8011944 Si02
#       8
#     2   2   2   2   2   2   2   2
#     4   8  18  35  63  90 115 169 198 254 296 379
#     4   9  19  37  63  88 124 157 215 240 310 375
#     4  10  21  40  65  92 127 160 211 261 320 361
#     4  10  21  39  65  91 126 166 209 253 305 383
#     4  11  23  42  64  90 126 173 213 248 317 381
#     4  11  23  40  68  93 122 171 214 257 307 381
#     4  11  24  39  64  96 125 164 207 261 319 366
#     4  12  25  40  64  96 131 159 208 272 315 362
#
# _framework density 21.747613999999999
#
# number of rings (size 3 to 8) (size 9 to 14) (size 15 to 20)
#    0.000    1.750    0.000    4.500    8.750    0.000 
#    0.000    0.000    2.750    3.000    0.000    0.000 
#    0.000    0.000    0.000    0.000    0.000    0.000 
#
# Total GULP energy -198358.671866 kJ/mol
# GULP energy per Si atom -12397.416992 kJ/mol
# Density = 2.169812 g / cm^3
# Si number density = 21.747614 Si / 1000 Ang^3
#
#
#
# Elastic Constant Matrix: (Units=GPa)
#
#
# Indices 1 2 3 4 5 6 
#
# 1 73.7631 29.3792 16.6568 5.3743 -6.8447 7.9124
# 2 29.3792 141.7303 45.5631 -0.6898 5.4497 -9.8649
# 3 16.6568 45.5631 83.0493 9.6084 5.8646 4.8516
# 4 5.3743 -0.6898 9.6084 31.5932 -3.0653 0.7134
# 5 -6.8447 5.4497 5.8646 -3.0653 25.2630 -1.9028
# 6 7.9124 -9.8649 4.8516 0.7134 -1.9028 41.4378
#
#
#
# Elastic Compliance Matrix: (Units=1/GPa)
#
#
# Indices 1 2 3 4 5 6 
#
# 1 0.016161 -0.003364 -0.001325 -0.001864 0.004924 -0.003474
# 2 -0.003364 0.009649 -0.004967 0.002087 -0.001329 0.003424
# 3 -0.001325 -0.004967 0.016060 -0.005075 -0.003850 -0.002899
# 4 -0.001864 0.002087 -0.005075 0.033964 0.004424 0.001065
# 5 0.004924 -0.001329 -0.003850 0.004424 0.042716 0.001079
# 6 -0.003474 0.003424 -0.002899 0.001065 0.001079 0.025982
#
#
# Mechanical properties :
#
#
# Convention : Reuss Voigt Hill
#
# Bulk Modulus (GPa) = 44.32850 53.52676 48.92763
# Shear Modulus (GPa) = 29.17761 33.45503 31.31632
#
# Velocity S-wave (km/s) = 3.66682 3.92641 3.79884
# Velocity P-wave (km/s) = 6.19313 6.72471 6.46439
#
# Compressibility (1/GPa) = 0.02255885
#
# Stress axis : x y z
#
# Youngs Moduli (GPa) = 61.87581 103.63383 62.26598
#
# Poissons Ratio (x) = 0.34866 0.08249
# Poissons Ratio (y) = 0.20817 0.30926
# Poissons Ratio (z) = 0.08198 0.51473
#
# Static dielectric constant tensor:
#      x y z
#    x 3.886320 -0.132830 -0.203280 
#    y -0.132830 4.294970 0.165770 
#    z -0.203280 0.165770 3.773540 
# 
# 
# High freq. dielectric constant tensor:
#      x y z
#    x 1.829600 -0.007180 -0.012700 
#    y -0.007180 1.880270 0.004420 
#    z -0.012700 0.004420 1.845900 
# 
# From -- ./inp_files/403018.got.cif
#   From: 2010.06.25/outbox.cif.g09.slc.cpg/sg2_202_cif.got.tgz:403018.got - 2010.06.27 13:26:56.
