data_PCOD8011120
_publ_section_title
;
Structure prediction by ZEFSAII (Michael W. Deem and Ramdas Pophale) SiO2 
 PCOD8011120
Probable space group: P -1
;
_chemical_formula_sum "Si O2"
_cell_formula_units_Z 16
_cell_length_a 21.378573
_cell_length_b 18.457175
_cell_length_c 9.422374
_cell_angle_alpha 145.135520
_cell_angle_beta 151.813847
_cell_angle_gamma 26.947742
_cell_volume 785.255819
_symmetry_space_group_name_H-M "P -1"
_symmetry_group_IT_number 2
_symmetry_cell_setting 'triclinic'
loop_
_space_group_symop_operation_xyz
x,y,z
-x,-y,-z
loop_
_atom_site_type_symbol
_atom_site_label
_atom_site_fract_x
_atom_site_fract_y
_atom_site_fract_z
Si Si1 0.155401 0.484224 0.618372
Si Si2 0.613510 0.624970 0.355063
Si Si3 0.927537 0.171191 0.688458
Si Si4 0.154424 0.241005 0.402003
Si Si5 0.197416 0.860170 0.138695
Si Si6 0.577766 0.047898 0.346360
Si Si7 0.700938 0.340828 0.255262
Si Si8 0.675470 0.373612 0.725423
O O1 0.219227 0.454886 0.535593
O O2 0.195132 0.322472 0.497635
O O3 0.957580 0.637086 0.493996
O O4 0.255307 0.525615 0.977804
O O5 0.564676 0.787412 0.589997
O O6 0.643796 0.512159 0.364165
O O7 0.458420 0.652039 0.999209
O O8 0.825654 0.301239 0.568588
O O9 0.794944 0.212346 0.611356
O O10 0.000000 0.000000 0.500000
O O11 0.072392 0.173293 0.044977
O O12 0.331013 0.091119 0.576870
O O13 0.288642 0.941387 0.449779
O O14 0.308347 0.700199 0.205179
O O15 0.199706 0.796093 0.886010
O O16 0.000000 0.000000 0.000000
O O17 0.500000 0.000000 0.000000
O O18 0.500000 0.500000 0.500000
#
# Coordination Sequence:
#
# PCOD8011120 Si02
#       8
#     2   2   2   2   2   2   2   2
#     4  10  21  43  66  89 130 168 212 266 330 384
#     4  10  21  40  65  93 127 170 212 270 318 386
#     4  11  22  40  61  94 129 167 211 264 325 389
#     4  10  24  43  64  91 132 170 210 271 326 396
#     4  11  22  43  69  95 133 174 221 275 329 392
#     4  11  26  43  63  93 135 171 214 270 338 391
#     4  10  21  38  67  94 128 163 221 269 320 379
#     4  11  23  36  67  98 122 167 220 269 320 385
#
# _framework density 20.375526000000001
#
# number of rings (size 3 to 8) (size 9 to 14) (size 15 to 20)
#    0.000    1.500    1.250    4.500    5.250    2.500 
#    4.500    1.250    0.000    0.000    0.000    0.000 
#    0.000    0.000    0.000    0.000    0.000    0.000 
#
# Total GULP energy -198320.334624 kJ/mol
# GULP energy per Si atom -12395.020914 kJ/mol
# Density = 2.032915 g / cm^3
# Si number density = 20.375526 Si / 1000 Ang^3
#
#
#
# Elastic Constant Matrix: (Units=GPa)
#
#
# Indices 1 2 3 4 5 6 
#
# 1 93.4093 19.0500 20.7220 11.8681 3.4857 -9.0756
# 2 19.0500 94.6316 38.9139 15.6436 -0.7112 3.6791
# 3 20.7220 38.9139 88.7236 4.4810 -14.0333 4.3475
# 4 11.8681 15.6436 4.4810 34.3210 6.2704 -6.0035
# 5 3.4857 -0.7112 -14.0333 6.2704 28.2500 -1.7133
# 6 -9.0756 3.6791 4.3475 -6.0035 -1.7133 35.4690
#
#
#
# Elastic Compliance Matrix: (Units=1/GPa)
#
#
# Indices 1 2 3 4 5 6 
#
# 1 0.012223 -0.001054 -0.002763 -0.002453 -0.002177 0.003055
# 2 -0.001054 0.014123 -0.005781 -0.005431 -0.001303 -0.002008
# 3 -0.002763 -0.005781 0.015812 -0.000232 0.007999 -0.001698
# 4 -0.002453 -0.005431 -0.000232 0.034794 -0.007339 0.005499
# 5 -0.002177 -0.001303 0.007999 -0.007339 0.041197 -0.000655
# 6 0.003055 -0.002008 -0.001698 0.005499 -0.000655 0.030291
#
#
# Mechanical properties :
#
#
# Convention : Reuss Voigt Hill
#
# Bulk Modulus (GPa) = 43.55057 48.23736 45.89397
# Shear Modulus (GPa) = 28.52418 32.81322 30.66870
#
# Velocity S-wave (km/s) = 3.74561 4.01736 3.88387
# Velocity P-wave (km/s) = 6.33455 6.72640 6.53342
#
# Compressibility (1/GPa) = 0.02296181
#
# Stress axis : x y z
#
# Youngs Moduli (GPa) = 81.81149 70.80622 63.24320
#
# Poissons Ratio (x) = 0.07464 0.17472
# Poissons Ratio (y) = 0.08624 0.36564
# Poissons Ratio (z) = 0.22601 0.40936
#
# Static dielectric constant tensor:
#      x y z
#    x 4.032600 -0.095280 -0.008090 
#    y -0.095280 3.769700 0.124140 
#    z -0.008090 0.124140 3.539210 
# 
# 
# High freq. dielectric constant tensor:
#      x y z
#    x 1.796970 -0.005680 -0.004720 
#    y -0.005680 1.813740 0.005880 
#    z -0.004720 0.005880 1.783820 
# 
# From -- ./inp_files/348974.got.cif
#   From: 2010.06.25/outbox.cif.g09.slc.cpg/sg2_175_cif.got.tgz:348974.got - 2010.06.27 13:26:56.
