data_PCOD8011234
_publ_section_title
;
Structure prediction by ZEFSAII (Michael W. Deem and Ramdas Pophale) SiO2 
 PCOD8011234
Probable space group: P -1
;
_chemical_formula_sum "Si O2"
_cell_formula_units_Z 16
_cell_length_a 11.631006
_cell_length_b 16.111597
_cell_length_c 11.316401
_cell_angle_alpha 56.740793
_cell_angle_beta 34.801959
_cell_angle_gamma 79.678971
_cell_volume 832.839442
_symmetry_space_group_name_H-M "P -1"
_symmetry_group_IT_number 2
_symmetry_cell_setting 'triclinic'
loop_
_space_group_symop_operation_xyz
x,y,z
-x,-y,-z
loop_
_atom_site_type_symbol
_atom_site_label
_atom_site_fract_x
_atom_site_fract_y
_atom_site_fract_z
Si Si1 0.223012 0.728224 0.153710
Si Si2 0.735361 0.057985 0.173727
Si Si3 0.742346 0.840120 0.256144
Si Si4 0.183780 0.452976 0.713775
Si Si5 0.709422 0.362020 0.075477
Si Si6 0.487588 0.334897 0.884905
Si Si7 0.268517 0.417778 0.179637
Si Si8 0.579564 0.679809 0.304784
O O1 0.404403 0.735342 0.094658
O O2 0.954741 0.661775 0.483503
O O3 0.296532 0.859883 0.953156
O O4 0.226215 0.655533 0.096428
O O5 0.500000 0.000000 0.500000
O O6 0.744158 0.959162 0.169518
O O7 0.987591 0.132634 0.978613
O O8 0.569500 0.745534 0.577459
O O9 0.622856 0.784039 0.273223
O O10 0.299342 0.523869 0.435196
O O11 0.296414 0.559135 0.636553
O O12 0.251263 0.359996 0.758244
O O13 0.891096 0.366955 0.016454
O O14 0.760841 0.492905 0.944827
O O15 0.349078 0.268638 0.930220
O O16 0.295599 0.329862 0.141311
O O17 0.500000 0.500000 0.000000
#
# Coordination Sequence:
#
# PCOD8011234 Si02
#       8
#     2   2   2   2   2   2   2   2
#     4  12  23  39  60  92 129 160 206 260 309 366
#     4  11  25  46  65  92 116 160 221 274 302 352
#     4  11  24  42  68  90 121 164 215 258 316 355
#     4   9  19  37  59  88 139 162 201 243 299 376
#     4  12  21  36  62  99 127 163 200 256 311 377
#     4  10  21  39  55  90 133 164 196 248 296 380
#     4  12  21  33  59  91 129 166 192 240 326 374
#     4   9  20  41  58  91 130 170 205 246 303 379
#
# _framework density 19.211385
#
# number of rings (size 3 to 8) (size 9 to 14) (size 15 to 20)
#    0.750    0.500    3.750    3.375    0.000    0.500 
#    2.250    0.625    0.000    1.500    0.000    0.000 
#    0.000    0.000    0.000    0.000    0.000    0.000 
#
# Total GULP energy -198303.248009 kJ/mol
# GULP energy per Si atom -12393.953001 kJ/mol
# Density = 1.916766 g / cm^3
# Si number density = 19.211385 Si / 1000 Ang^3
#
#
#
# Elastic Constant Matrix: (Units=GPa)
#
#
# Indices 1 2 3 4 5 6 
#
# 1 125.6362 57.6771 45.7811 5.2943 3.4509 -12.5096
# 2 57.6771 98.6716 40.3303 2.5451 9.2844 -4.6034
# 3 45.7811 40.3303 124.3643 11.1775 -0.1993 -7.3880
# 4 5.2943 2.5451 11.1775 29.0326 -2.0520 6.4639
# 5 3.4509 9.2844 -0.1993 -2.0520 27.1295 -0.9426
# 6 -12.5096 -4.6034 -7.3880 6.4639 -0.9426 44.3094
#
#
#
# Elastic Compliance Matrix: (Units=1/GPa)
#
#
# Indices 1 2 3 4 5 6 
#
# 1 0.011734 -0.005877 -0.002142 -0.001333 0.000491 0.002550
# 2 -0.005877 0.015095 -0.002847 0.000702 -0.004413 -0.000762
# 3 -0.002142 -0.002847 0.010146 -0.003483 0.001104 0.001323
# 4 -0.001333 0.000702 -0.003483 0.037549 0.002525 -0.006308
# 5 0.000491 -0.004413 0.001104 0.002525 0.038518 0.000315
# 6 0.002550 -0.000762 0.001323 -0.006308 0.000315 0.024357
#
#
# Mechanical properties :
#
#
# Convention : Reuss Voigt Hill
#
# Bulk Modulus (GPa) = 65.59969 70.69436 68.14703
# Shear Modulus (GPa) = 30.44836 33.75321 32.10078
#
# Velocity S-wave (km/s) = 3.98541 4.19613 4.09213
# Velocity P-wave (km/s) = 7.44301 7.76883 7.60767
#
# Compressibility (1/GPa) = 0.01524397
#
# Stress axis : x y z
#
# Youngs Moduli (GPa) = 85.21950 66.24696 98.56014
#
# Poissons Ratio (x) = 0.38930 0.21110
# Poissons Ratio (y) = 0.50079 0.28064
# Poissons Ratio (z) = 0.18253 0.18863
#
# Static dielectric constant tensor:
#      x y z
#    x 3.577580 -0.087770 -0.049650 
#    y -0.087770 3.326830 0.046800 
#    z -0.049650 0.046800 3.492360 
# 
# 
# High freq. dielectric constant tensor:
#      x y z
#    x 1.749660 -0.012200 -0.002290 
#    y -0.012200 1.741080 0.013830 
#    z -0.002290 0.013830 1.733030 
# 
# From -- ./inp_files/71404.got.cif
#   From: 2010.06.25/outbox.cif.g09.slc.cpg/sg2_36_cif.got.tgz:71404.got - 2010.06.27 13:26:56.
