data_PCOD8011559
_publ_section_title
;
Structure prediction by ZEFSAII (Michael W. Deem and Ramdas Pophale) SiO2 
 PCOD8011559
Probable space group: P -1
;
_chemical_formula_sum "Si O2"
_cell_formula_units_Z 14
_cell_length_a 16.477644
_cell_length_b 5.068656
_cell_length_c 21.667926
_cell_angle_alpha 83.501108
_cell_angle_beta 24.530811
_cell_angle_gamma 96.749264
_cell_volume 630.935815
_symmetry_space_group_name_H-M "P -1"
_symmetry_group_IT_number 2
_symmetry_cell_setting 'triclinic'
loop_
_space_group_symop_operation_xyz
x,y,z
-x,-y,-z
loop_
_atom_site_type_symbol
_atom_site_label
_atom_site_fract_x
_atom_site_fract_y
_atom_site_fract_z
Si Si1 0.807717 0.974021 0.287219
Si Si2 0.110626 0.582727 0.355412
Si Si3 0.673844 0.420821 0.311862
Si Si4 0.569485 0.238981 0.256617
Si Si5 0.596888 0.692074 0.865532
Si Si6 0.685140 0.614306 0.050800
Si Si7 0.352310 0.589714 0.373492
O O1 0.791637 0.781232 0.241822
O O2 0.603045 0.753258 0.482154
O O3 0.784121 0.265698 0.279556
O O4 0.054007 0.089224 0.146478
O O5 0.187907 0.336913 0.299359
O O6 0.000000 0.500000 0.500000
O O7 0.909879 0.507383 0.448268
O O8 0.319026 0.943951 0.193627
O O9 0.727385 0.401820 0.203285
O O10 0.355634 0.294308 0.406219
O O11 0.475405 0.872017 0.330300
O O12 0.708379 0.398194 0.092601
O O13 0.500000 0.500000 0.000000
O O14 0.404723 0.555695 0.948288
O O15 0.500643 0.699125 0.202998
#
# Coordination Sequence:
#
# PCOD8011559 Si02
#       7
#     2   2   2   2   2   2   2
#     4  10  23  39  63  86 128 162 198 263 317 385
#     4  12  22  44  70  91 131 178 220 270 320 396
#     4  10  22  42  60  92 119 166 210 244 325 387
#     4  10  21  39  62  92 126 155 220 259 301 388
#     4  12  27  44  66 102 135 172 221 275 336 390
#     4  10  25  40  63  92 128 161 215 265 323 369
#     4  10  22  37  62  95 119 167 213 258 311 373
#
# _framework density 22.189263
#
# number of rings (size 3 to 8) (size 9 to 14) (size 15 to 20)
#    0.857    0.571    1.429    3.429    2.000    3.429 
#    0.000    0.000    0.000    0.000    0.000    0.000 
#    0.000    0.000    0.000    0.000    0.000    0.000 
#
# Total GULP energy -173513.383617 kJ/mol
# GULP energy per Si atom -12393.813116 kJ/mol
# Density = 2.213876 g / cm^3
# Si number density = 22.189263 Si / 1000 Ang^3
#
#
#
# Elastic Constant Matrix: (Units=GPa)
#
#
# Indices 1 2 3 4 5 6 
#
# 1 72.3094 -4.6901 27.6605 -3.3857 5.9410 20.0887
# 2 -4.6901 87.8704 9.1896 -8.7563 -2.9101 10.7045
# 3 27.6605 9.1896 89.9733 -5.9998 -21.7745 8.3959
# 4 -3.3857 -8.7563 -5.9998 27.0642 0.1902 -3.1213
# 5 5.9410 -2.9101 -21.7745 0.1902 40.0509 -2.2407
# 6 20.0887 10.7045 8.3959 -3.1213 -2.2407 32.8468
#
#
#
# Elastic Compliance Matrix: (Units=1/GPa)
#
#
# Indices 1 2 3 4 5 6 
#
# 1 0.020992 0.003225 -0.007421 0.000642 -0.007614 -0.012451
# 2 0.003225 0.012715 -0.001753 0.003513 -0.000826 -0.005391
# 3 -0.007421 -0.001753 0.015891 0.002180 0.009710 0.001917
# 4 0.000642 0.003513 0.002180 0.038834 0.001255 0.001681
# 5 -0.007614 -0.000826 0.009710 0.001255 0.031575 0.004717
# 6 -0.012451 -0.005391 0.001917 0.001681 0.004717 0.039808
#
#
# Mechanical properties :
#
#
# Convention : Reuss Voigt Hill
#
# Bulk Modulus (GPa) = 26.52406 34.94145 30.73276
# Shear Modulus (GPa) = 27.13272 34.52527 30.82899
#
# Velocity S-wave (km/s) = 3.50063 3.94883 3.73146
# Velocity P-wave (km/s) = 5.32153 6.04749 5.69609
#
# Compressibility (1/GPa) = 0.03770162
#
# Stress axis : x y z
#
# Youngs Moduli (GPa) = 47.63693 78.64562 62.92779
#
# Poissons Ratio (x) = -0.25365 0.46698
# Poissons Ratio (y) = -0.15364 0.11030
# Poissons Ratio (z) = 0.35351 0.13785
#
# Static dielectric constant tensor:
#      x y z
#    x 3.729700 0.011870 0.075550 
#    y 0.011870 3.774080 0.148580 
#    z 0.075550 0.148580 3.409690 
# 
# 
# High freq. dielectric constant tensor:
#      x y z
#    x 1.864280 0.002610 -0.011600 
#    y 0.002610 1.880080 0.003640 
#    z -0.011600 0.003640 1.856040 
# 
# From -- ./inp_files/596643.got.cif
#   From: 2010.06.25/outbox.cif.g09.slc.cpg/sg2_299_cif.got.tgz:596643.got - 2010.06.27 13:26:56.
