data_PCOD8011519
_publ_section_title
;
Structure prediction by ZEFSAII (Michael W. Deem and Ramdas Pophale) SiO2 
 PCOD8011519
Probable space group: P -1
;
_chemical_formula_sum "Si O2"
_cell_formula_units_Z 14
_cell_length_a 13.068804
_cell_length_b 21.230741
_cell_length_c 7.235622
_cell_angle_alpha 63.218533
_cell_angle_beta 63.165690
_cell_angle_gamma 20.245251
_cell_volume 617.512877
_symmetry_space_group_name_H-M "P -1"
_symmetry_group_IT_number 2
_symmetry_cell_setting 'triclinic'
loop_
_space_group_symop_operation_xyz
x,y,z
-x,-y,-z
loop_
_atom_site_type_symbol
_atom_site_label
_atom_site_fract_x
_atom_site_fract_y
_atom_site_fract_z
Si Si1 0.973643 0.246904 0.856584
Si Si2 0.703357 0.707095 0.410707
Si Si3 0.495055 0.601791 0.967996
Si Si4 0.548056 0.285087 0.489671
Si Si5 0.543655 0.840010 0.974202
Si Si6 0.113389 0.294679 0.451858
Si Si7 0.690755 0.177149 0.911683
O O1 0.722885 0.335887 0.866662
O O2 0.094355 0.222758 0.614807
O O3 0.824821 0.384244 0.947060
O O4 0.238966 0.053323 0.990305
O O5 0.436543 0.800780 0.508975
O O6 0.658096 0.797187 0.469733
O O7 0.000000 0.500000 0.500000
O O8 0.729995 0.722262 0.162553
O O9 0.523225 0.645985 0.041889
O O10 0.357202 0.710081 0.743250
O O11 0.752371 0.168219 0.661510
O O12 0.212096 0.486524 0.568153
O O13 0.749817 0.773145 0.771277
O O14 0.468774 0.808367 0.975373
O O15 0.000000 0.000000 0.000000
#
# Coordination Sequence:
#
# PCOD8011519 Si02
#       7
#     2   2   2   2   2   2   2
#     4  10  22  41  62  90 128 170 203 249 311 372
#     4   9  20  38  61  94 125 160 205 252 316 361
#     4  10  21  43  63  84 133 164 201 259 304 369
#     4   9  21  38  63  94 118 161 207 253 315 366
#     4  11  22  40  65  96 127 157 209 263 302 369
#     4  10  21  39  62  89 126 166 204 250 310 370
#     4  11  22  40  66  95 119 159 214 258 312 361
#
# _framework density 22.671592
#
# number of rings (size 3 to 8) (size 9 to 14) (size 15 to 20)
#    0.000    2.000    1.429    1.286    0.000   10.857 
#    2.571   10.714    0.000    0.000    0.000    0.000 
#    0.000    0.000    0.000    0.000    0.000    0.000 
#
# Total GULP energy -173567.438731 kJ/mol
# GULP energy per Si atom -12397.674195 kJ/mol
# Density = 2.261999 g / cm^3
# Si number density = 22.671592 Si / 1000 Ang^3
#
#
#
# Elastic Constant Matrix: (Units=GPa)
#
#
# Indices 1 2 3 4 5 6 
#
# 1 87.6331 40.4143 67.5729 -11.2892 -5.4474 14.1223
# 2 40.4143 60.6965 32.4274 -14.2593 -4.6740 7.9508
# 3 67.5729 32.4274 139.0409 -15.8320 -11.6992 -0.3388
# 4 -11.2892 -14.2593 -15.8320 28.2179 -9.0122 0.6073
# 5 -5.4474 -4.6740 -11.6992 -9.0122 38.0287 -7.1143
# 6 14.1223 7.9508 -0.3388 0.6073 -7.1143 27.4256
#
#
#
# Elastic Compliance Matrix: (Units=1/GPa)
#
#
# Indices 1 2 3 4 5 6 
#
# 1 0.025940 -0.010851 -0.010609 -0.001912 -0.003428 -0.011190
# 2 -0.010851 0.026322 0.000709 0.010732 0.004222 -0.001177
# 3 -0.010609 0.000709 0.013191 0.004983 0.005045 0.006619
# 4 -0.001912 0.010732 0.004983 0.047316 0.013883 0.000488
# 5 -0.003428 0.004222 0.005045 0.013883 0.032814 0.008808
# 6 -0.011190 -0.001177 0.006619 0.000488 0.008808 0.044921
#
#
# Mechanical properties :
#
#
# Convention : Reuss Voigt Hill
#
# Bulk Modulus (GPa) = 41.75373 63.13331 52.44352
# Shear Modulus (GPa) = 20.83414 28.53150 24.68282
#
# Velocity S-wave (km/s) = 3.03471 3.55134 3.30314
# Velocity P-wave (km/s) = 5.54401 6.68755 6.14245
#
# Compressibility (1/GPa) = 0.02394996
#
# Stress axis : x y z
#
# Youngs Moduli (GPa) = 38.55024 37.99051 75.80991
#
# Poissons Ratio (x) = 0.41225 0.80430
# Poissons Ratio (y) = 0.41833 -0.05376
# Poissons Ratio (z) = 0.40900 -0.02694
#
# Static dielectric constant tensor:
#      x y z
#    x 4.413270 0.211600 -0.046820 
#    y 0.211600 3.941520 -0.128880 
#    z -0.046820 -0.128880 4.098930 
# 
# 
# High freq. dielectric constant tensor:
#      x y z
#    x 1.892050 0.006640 -0.014060 
#    y 0.006640 1.880030 -0.007450 
#    z -0.014060 -0.007450 1.893050 
# 
# From -- ./inp_files/100996.got.cif
#   From: 2010.06.25/outbox.cif.g09.slc.cpg/sg2_51_cif.got.tgz:100996.got - 2010.06.27 13:26:56.
