data_PCOD8011832
_publ_section_title
;
Structure prediction by ZEFSAII (Michael W. Deem and Ramdas Pophale) SiO2 
 PCOD8011832
Probable space group: P -1
;
_chemical_formula_sum "Si O2"
_cell_formula_units_Z 16
_cell_length_a 14.914112
_cell_length_b 11.927810
_cell_length_c 11.402008
_cell_angle_alpha 99.219756
_cell_angle_beta 33.496348
_cell_angle_gamma 122.707985
_cell_volume 735.016088
_symmetry_space_group_name_H-M "P -1"
_symmetry_group_IT_number 2
_symmetry_cell_setting 'triclinic'
loop_
_space_group_symop_operation_xyz
x,y,z
-x,-y,-z
loop_
_atom_site_type_symbol
_atom_site_label
_atom_site_fract_x
_atom_site_fract_y
_atom_site_fract_z
Si Si1 0.005582 0.143058 0.144013
Si Si2 0.396597 0.391380 0.410779
Si Si3 0.912196 0.029947 0.818856
Si Si4 0.179579 0.830936 0.439113
Si Si5 0.507258 0.357164 0.522501
Si Si6 0.421340 0.136380 0.061549
Si Si7 0.622560 0.945821 0.330092
Si Si8 0.353131 0.502990 0.074051
O O1 0.887267 0.185689 0.353147
O O2 0.825725 0.015075 0.213810
O O3 0.038733 0.062535 0.188669
O O4 0.263232 0.296050 0.825314
O O5 0.499517 0.355193 0.389233
O O6 0.301142 0.456378 0.593655
O O7 0.607060 0.522189 0.106258
O O8 0.169107 0.226859 0.555951
O O9 0.792487 0.944304 0.809699
O O10 0.734276 0.014076 0.090421
O O11 0.293039 0.005018 0.288039
O O12 0.380426 0.837964 0.215038
O O13 0.935012 0.660760 0.609928
O O14 0.560455 0.258221 0.496026
O O15 0.558400 0.320730 0.985799
O O16 0.500000 0.000000 0.500000
O O17 0.500000 0.500000 0.000000
#
# Coordination Sequence:
#
# PCOD8011832 Si02
#       8
#     2   2   2   2   2   2   2   2
#     4  11  19  40  66  91 123 167 216 266 316 384
#     4  11  21  39  67  92 129 161 221 273 315 376
#     4  11  21  40  64  94 125 169 221 263 318 385
#     4  11  24  45  66  96 134 170 216 272 338 384
#     4  10  21  39  64  93 123 167 213 266 322 378
#     4  11  26  43  66  95 135 175 213 275 328 391
#     4  11  22  38  63  94 130 168 213 261 328 394
#     4  12  25  42  69  99 127 175 226 267 320 387
#
# _framework density 21.768232000000001
#
# number of rings (size 3 to 8) (size 9 to 14) (size 15 to 20)
#    0.000    1.000    3.750    4.125    1.750    1.500 
#    0.000    0.625    0.000    0.000    0.000    0.000 
#    0.000    0.000    0.000    0.000    0.000    0.000 
#
# Total GULP energy -198346.301339 kJ/mol
# GULP energy per Si atom -12396.643834 kJ/mol
# Density = 2.171869 g / cm^3
# Si number density = 21.768232 Si / 1000 Ang^3
#
#
#
# Elastic Constant Matrix: (Units=GPa)
#
#
# Indices 1 2 3 4 5 6 
#
# 1 74.7559 13.4805 14.8327 2.1812 7.6749 0.2092
# 2 13.4805 97.6868 11.6107 -7.7500 1.2501 -10.0933
# 3 14.8327 11.6107 71.7047 1.4826 13.1170 -5.1835
# 4 2.1812 -7.7500 1.4826 40.4190 8.1514 -1.3838
# 5 7.6749 1.2501 13.1170 8.1514 31.4196 -0.6440
# 6 0.2092 -10.0933 -5.1835 -1.3838 -0.6440 38.4835
#
#
#
# Elastic Compliance Matrix: (Units=1/GPa)
#
#
# Indices 1 2 3 4 5 6 
#
# 1 0.014427 -0.001830 -0.002313 -0.000603 -0.002348 -0.000931
# 2 -0.001830 0.011122 -0.001261 0.002381 -0.000028 0.002842
# 3 -0.002313 -0.001261 0.015863 0.000596 -0.006126 0.001737
# 4 -0.000603 0.002381 0.000596 0.026691 -0.007089 0.001549
# 5 -0.002348 -0.000028 -0.006126 -0.007089 0.036789 -0.000459
# 6 -0.000931 0.002842 0.001737 0.001549 -0.000459 0.027018
#
#
# Mechanical properties :
#
#
# Convention : Reuss Voigt Hill
#
# Bulk Modulus (GPa) = 32.67593 35.99947 34.33770
# Shear Modulus (GPa) = 32.69701 35.67934 34.18817
#
# Velocity S-wave (km/s) = 3.87984 4.05292 3.96732
# Velocity P-wave (km/s) = 5.92573 6.20282 6.06586
#
# Compressibility (1/GPa) = 0.03060356
#
# Stress axis : x y z
#
# Youngs Moduli (GPa) = 69.31388 89.91116 63.04092
#
# Poissons Ratio (x) = 0.16453 0.14583
# Poissons Ratio (y) = 0.12684 0.07949
# Poissons Ratio (z) = 0.16035 0.11337
#
# Static dielectric constant tensor:
#      x y z
#    x 3.817780 0.164780 0.297220 
#    y 0.164780 4.128930 -0.068040 
#    z 0.297220 -0.068040 4.165210 
# 
# 
# High freq. dielectric constant tensor:
#      x y z
#    x 1.847730 0.011690 0.018860 
#    y 0.011690 1.871030 -0.006270 
#    z 0.018860 -0.006270 1.849010 
# 
# From -- ./inp_files/452454.got.cif
#   From: 2010.06.25/outbox.cif.g09.slc.cpg/sg2_227_cif.got.tgz:452454.got - 2010.06.27 13:26:56.
