data_PCOD8011001
_publ_section_title
;
Structure prediction by ZEFSAII (Michael W. Deem and Ramdas Pophale) SiO2 
 PCOD8011001
Probable space group: P -1
;
_chemical_formula_sum "Si O2"
_cell_formula_units_Z 14
_cell_length_a 12.854553
_cell_length_b 8.646457
_cell_length_c 17.895398
_cell_angle_alpha 148.478507
_cell_angle_beta 135.888278
_cell_angle_gamma 58.351281
_cell_volume 702.674009
_symmetry_space_group_name_H-M "P -1"
_symmetry_group_IT_number 2
_symmetry_cell_setting 'triclinic'
loop_
_space_group_symop_operation_xyz
x,y,z
-x,-y,-z
loop_
_atom_site_type_symbol
_atom_site_label
_atom_site_fract_x
_atom_site_fract_y
_atom_site_fract_z
Si Si1 0.331820 0.012037 0.391598
Si Si2 0.027254 0.948731 0.292602
Si Si3 0.664244 0.428785 0.482191
Si Si4 0.968940 0.255849 0.535140
Si Si5 0.915393 0.056806 0.119581
Si Si6 0.326662 0.141992 0.202201
Si Si7 0.153863 0.714358 0.049522
O O1 0.348082 0.322373 0.482983
O O2 0.500000 0.000000 0.500000
O O3 0.264053 0.726251 0.183753
O O4 0.209477 0.995939 0.389332
O O5 0.927292 0.988945 0.185268
O O6 0.960258 0.613351 0.153705
O O7 0.005350 0.191699 0.442136
O O8 0.506111 0.169564 0.293083
O O9 0.695537 0.577100 0.641946
O O10 0.791110 0.254431 0.451623
O O11 0.074493 0.588546 0.745384
O O12 0.000000 0.000000 0.500000
O O13 0.058616 0.972920 0.117309
O O14 0.757516 0.853944 0.919504
O O15 0.255846 0.813980 0.069356
#
# Coordination Sequence:
#
# PCOD8011001 Si02
#       7
#     2   2   2   2   2   2   2
#     4  10  21  38  65  96 128 159 211 264 321 357
#     4  11  24  40  66  94 133 158 215 261 311 384
#     4  10  23  40  61  96 128 165 209 266 309 380
#     4  12  25  42  63  93 129 174 208 252 321 380
#     4  11  21  40  65  93 123 167 214 261 311 367
#     4  10  21  39  67  88 128 160 212 262 318 352
#     4  10  21  39  61  99 122 161 217 259 301 380
#
# _framework density 19.923888999999999
#
# number of rings (size 3 to 8) (size 9 to 14) (size 15 to 20)
#    0.000    1.429    4.286    3.429    6.000    2.286 
#    0.000    5.000    0.000    0.000    0.000    0.000 
#    0.000    0.000    0.000    0.000    0.000    0.000 
#
# Total GULP energy -173588.583976 kJ/mol
# GULP energy per Si atom -12399.184570 kJ/mol
# Density = 1.987854 g / cm^3
# Si number density = 19.923889 Si / 1000 Ang^3
#
#
#
# Elastic Constant Matrix: (Units=GPa)
#
#
# Indices 1 2 3 4 5 6 
#
# 1 120.5743 40.4972 57.5301 -12.5705 14.2179 -11.4252
# 2 40.4972 112.1589 53.9850 -7.9125 3.7436 -7.7784
# 3 57.5301 53.9850 123.4592 -15.0783 9.3665 -9.3240
# 4 -12.5705 -7.9125 -15.0783 42.7038 5.4179 8.8001
# 5 14.2179 3.7436 9.3665 5.4179 22.8674 3.9962
# 6 -11.4252 -7.7784 -9.3240 8.8001 3.9962 29.1036
#
#
#
# Elastic Compliance Matrix: (Units=1/GPa)
#
#
# Indices 1 2 3 4 5 6 
#
# 1 0.012057 -0.001947 -0.003761 0.002027 -0.006697 0.003315
# 2 -0.001947 0.011670 -0.004220 -0.000211 0.000914 0.000941
# 3 -0.003761 -0.004220 0.012299 0.002616 -0.002790 0.000928
# 4 0.002027 -0.000211 0.002616 0.027019 -0.007733 -0.005530
# 5 -0.006697 0.000914 -0.002790 -0.007733 0.052135 -0.008099
# 6 0.003315 0.000941 0.000928 -0.005530 -0.008099 0.038994
#
#
# Mechanical properties :
#
#
# Convention : Reuss Voigt Hill
#
# Bulk Modulus (GPa) = 61.84033 73.35744 67.59888
# Shear Modulus (GPa) = 27.86752 32.54694 30.20723
#
# Velocity S-wave (km/s) = 3.74398 4.04612 3.89798
# Velocity P-wave (km/s) = 7.05659 7.66335 7.36622
#
# Compressibility (1/GPa) = 0.01617068
#
# Stress axis : x y z
#
# Youngs Moduli (GPa) = 82.93799 85.69148 81.30742
#
# Poissons Ratio (x) = 0.16682 0.30582
# Poissons Ratio (y) = 0.16146 0.34309
# Poissons Ratio (z) = 0.31195 0.36159
#
# Static dielectric constant tensor:
#      x y z
#    x 3.650370 0.345290 -0.042400 
#    y 0.345290 2.549940 0.173760 
#    z -0.042400 0.173760 3.753310 
# 
# 
# High freq. dielectric constant tensor:
#      x y z
#    x 1.775850 0.017280 0.010730 
#    y 0.017280 1.764390 -0.006530 
#    z 0.010730 -0.006530 1.780970 
# 
# From -- ./inp_files/159572.got.cif
#   From: 2010.06.25/outbox.cif.g09.slc.cpg/sg2_80_cif.got.tgz:159572.got - 2010.06.27 13:26:56.
