data_PCOD8011962
_publ_section_title
;
Structure prediction by ZEFSAII (Michael W. Deem and Ramdas Pophale) SiO2 
 PCOD8011962
Probable space group: P -1
;
_chemical_formula_sum "Si O2"
_cell_formula_units_Z 16
_cell_length_a 17.031425
_cell_length_b 5.281349
_cell_length_c 11.840695
_cell_angle_alpha 93.408314
_cell_angle_beta 49.928591
_cell_angle_gamma 66.884899
_cell_volume 671.826140
_symmetry_space_group_name_H-M "P -1"
_symmetry_group_IT_number 2
_symmetry_cell_setting 'triclinic'
loop_
_space_group_symop_operation_xyz
x,y,z
-x,-y,-z
loop_
_atom_site_type_symbol
_atom_site_label
_atom_site_fract_x
_atom_site_fract_y
_atom_site_fract_z
Si Si1 0.791365 0.262746 0.388146
Si Si2 0.085699 0.317526 0.310300
Si Si3 0.995818 0.630218 0.179369
Si Si4 0.588665 0.197940 0.481141
Si Si5 0.615594 0.636963 0.743012
Si Si6 0.755019 0.402700 0.837815
Si Si7 0.480651 0.301033 0.807244
Si Si8 0.811141 0.606697 0.185980
O O1 0.690174 0.184826 0.466852
O O2 0.730885 0.528260 0.546173
O O3 0.808448 0.349651 0.249348
O O4 0.926348 0.979128 0.300100
O O5 0.009833 0.414623 0.264329
O O6 0.184110 0.406163 0.207993
O O7 0.000000 0.500000 0.500000
O O8 0.144296 0.961411 0.266098
O O9 0.900499 0.669769 0.173722
O O10 0.129707 0.511165 0.996536
O O11 0.500000 0.500000 0.500000
O O12 0.502490 0.177491 0.653587
O O13 0.667543 0.903208 0.317652
O O14 0.670067 0.495401 0.809682
O O15 0.528928 0.519963 0.787992
O O16 0.540712 0.006052 0.826686
O O17 0.667139 0.489723 0.030378
#
# Coordination Sequence:
#
# PCOD8011962 Si02
#       8
#     2   2   2   2   2   2   2   2
#     4  10  21  39  65  92 124 179 223 271 334 395
#     4  12  28  46  66 102 134 177 221 283 346 390
#     4  10  24  40  65  92 131 172 235 272 324 403
#     4  10  23  39  61  98 134 168 214 278 341 401
#     4  11  22  42  70  96 134 176 227 272 326 412
#     4  12  26  43  70  99 134 178 220 279 343 389
#     4  11  23  43  66 101 133 178 223 271 332 408
#     4  10  21  42  65  92 125 179 226 270 332 393
#
# _framework density 23.815684000000001
#
# number of rings (size 3 to 8) (size 9 to 14) (size 15 to 20)
#    0.000    1.250    1.250    3.750    5.250    1.500 
#    0.000    0.000    0.000    0.000    0.000    0.000 
#    0.000    0.000    0.000    0.000    0.000    0.000 
#
# Total GULP energy -198316.001717 kJ/mol
# GULP energy per Si atom -12394.750107 kJ/mol
# Density = 2.376148 g / cm^3
# Si number density = 23.815684 Si / 1000 Ang^3
#
#
#
# Elastic Constant Matrix: (Units=GPa)
#
#
# Indices 1 2 3 4 5 6 
#
# 1 31.0853 10.4055 11.8810 1.4241 -7.2438 -2.3122
# 2 10.4055 127.7235 27.6153 8.0611 -2.7762 -18.2867
# 3 11.8810 27.6153 163.1354 -0.3577 -0.8089 -17.9868
# 4 1.4241 8.0611 -0.3577 45.4699 1.2761 -5.1673
# 5 -7.2438 -2.7762 -0.8089 1.2761 13.9873 -3.9197
# 6 -2.3122 -18.2867 -17.9868 -5.1673 -3.9197 41.2419
#
#
#
# Elastic Compliance Matrix: (Units=1/GPa)
#
#
# Indices 1 2 3 4 5 6 
#
# 1 0.038532 -0.001847 -0.002157 -0.001217 0.020182 0.002166
# 2 -0.001847 0.008789 -0.000973 -0.001173 0.001789 0.003392
# 3 -0.002157 -0.000973 0.006719 0.000576 -0.000296 0.002422
# 4 -0.001217 -0.001173 0.000576 0.022565 -0.002250 0.002277
# 5 0.020182 0.001789 -0.000296 -0.002250 0.085182 0.009610
# 6 0.002166 0.003392 0.002422 0.002277 0.009610 0.028128
#
#
# Mechanical properties :
#
#
# Convention : Reuss Voigt Hill
#
# Bulk Modulus (GPa) = 22.68354 46.86086 34.77220
# Shear Modulus (GPa) = 23.30311 38.27598 30.78955
#
# Velocity S-wave (km/s) = 3.13146 4.01331 3.59949
# Velocity P-wave (km/s) = 4.75605 6.41831 5.64866
#
# Compressibility (1/GPa) = 0.04408483
#
# Stress axis : x y z
#
# Youngs Moduli (GPa) = 25.95224 113.78081 148.84229
#
# Poissons Ratio (x) = 0.21017 0.32111
# Poissons Ratio (y) = 0.04794 0.14481
# Poissons Ratio (z) = 0.05599 0.11070
#
# Static dielectric constant tensor:
#      x y z
#    x 3.996560 -0.046080 0.009810 
#    y -0.046080 4.235790 0.103690 
#    z 0.009810 0.103690 5.173420 
# 
# 
# High freq. dielectric constant tensor:
#      x y z
#    x 1.919330 -0.003770 -0.004940 
#    y -0.003770 1.947630 0.002640 
#    z -0.004940 0.002640 1.972220 
# 
# From -- ./inp_files/85103.got.cif
#   From: 2010.06.25/outbox.cif.g09.slc.cpg/sg2_43_cif.got.tgz:85103.got - 2010.06.27 13:26:56.
