data_PCOD8011785
_publ_section_title
;
Structure prediction by ZEFSAII (Michael W. Deem and Ramdas Pophale) SiO2 
 PCOD8011785
Probable space group: P -1
;
_chemical_formula_sum "Si O2"
_cell_formula_units_Z 14
_cell_length_a 18.837932
_cell_length_b 7.899914
_cell_length_c 15.383360
_cell_angle_alpha 122.221138
_cell_angle_beta 20.044604
_cell_angle_gamma 122.026522
_cell_volume 660.401123
_symmetry_space_group_name_H-M "P -1"
_symmetry_group_IT_number 2
_symmetry_cell_setting 'triclinic'
loop_
_space_group_symop_operation_xyz
x,y,z
-x,-y,-z
loop_
_atom_site_type_symbol
_atom_site_label
_atom_site_fract_x
_atom_site_fract_y
_atom_site_fract_z
Si Si1 0.379535 0.859063 0.165645
Si Si2 0.147688 0.514173 0.710946
Si Si3 0.363059 0.963724 0.562705
Si Si4 0.480837 0.165613 0.823741
Si Si5 0.936613 0.708183 0.597328
Si Si6 0.271802 0.387361 0.720698
Si Si7 0.302341 0.417408 0.325679
O O1 0.448693 0.953887 0.205948
O O2 0.136957 0.866389 0.426200
O O3 0.470340 0.646330 0.982027
O O4 0.500000 0.000000 0.000000
O O5 0.221705 0.753668 0.683698
O O6 0.226089 0.402404 0.674819
O O7 0.228415 0.386247 0.502267
O O8 0.895854 0.497403 0.000558
O O9 0.517275 0.952497 0.300478
O O10 0.500000 0.000000 0.500000
O O11 0.244268 0.158402 0.727938
O O12 0.667132 0.346176 0.661002
O O13 0.248650 0.225308 0.113440
O O14 0.876271 0.692853 0.560704
O O15 0.000000 0.500000 0.500000
O O16 0.500000 0.500000 0.500000
#
# Coordination Sequence:
#
# PCOD8011785 Si02
#       7
#     2   2   2   2   2   2   2
#     4  11  23  39  59  92 126 158 197 256 309 361
#     4  10  24  43  65  94 126 169 211 262 319 375
#     4  11  23  44  66  94 129 169 212 262 318 378
#     4  10  22  40  61  92 122 158 213 250 300 379
#     4  11  19  39  65  86 120 166 200 248 310 370
#     4  11  23  44  65  91 130 165 215 265 314 373
#     4  10  21  39  64  90 120 158 211 248 304 380
#
# _framework density 21.199237
#
# number of rings (size 3 to 8) (size 9 to 14) (size 15 to 20)
#    0.000    1.429    4.286    1.286    2.000    4.571 
#    5.143    0.000    0.000    0.000    0.000    0.000 
#    0.000    0.000    0.000    0.000    0.000    0.000 
#
# Total GULP energy -173440.423623 kJ/mol
# GULP energy per Si atom -12388.601687 kJ/mol
# Density = 2.115099 g / cm^3
# Si number density = 21.199237 Si / 1000 Ang^3
#
#
#
# Elastic Constant Matrix: (Units=GPa)
#
#
# Indices 1 2 3 4 5 6 
#
# 1 163.6376 28.3051 74.0130 7.2135 9.8023 2.3699
# 2 28.3051 46.4752 1.7780 -3.7810 -8.9062 -10.9174
# 3 74.0130 1.7780 132.1868 -6.5844 -7.8935 20.9605
# 4 7.2135 -3.7810 -6.5844 30.6559 4.3336 3.0336
# 5 9.8023 -8.9062 -7.8935 4.3336 42.4505 2.2838
# 6 2.3699 -10.9174 20.9605 3.0336 2.2838 36.9615
#
#
#
# Elastic Compliance Matrix: (Units=1/GPa)
#
#
# Indices 1 2 3 4 5 6 
#
# 1 0.010911 -0.007302 -0.006789 -0.004390 -0.004955 0.001660
# 2 -0.007302 0.029142 0.003363 0.004327 0.007643 0.006341
# 3 -0.006789 0.003363 0.012867 0.004783 0.004529 -0.006540
# 4 -0.004390 0.004327 0.004783 0.035701 -0.000616 -0.004045
# 5 -0.004955 0.007643 0.004529 -0.000616 0.027297 -0.001629
# 6 0.001660 0.006341 -0.006540 -0.004045 -0.001629 0.032963
#
#
# Mechanical properties :
#
#
# Convention : Reuss Voigt Hill
#
# Bulk Modulus (GPa) = 31.78281 61.16576 46.47429
# Shear Modulus (GPa) = 27.65099 37.89383 32.77241
#
# Velocity S-wave (km/s) = 3.61548 4.23248 3.93609
# Velocity P-wave (km/s) = 5.69683 7.26641 6.52896
#
# Compressibility (1/GPa) = 0.03146355
#
# Stress axis : x y z
#
# Youngs Moduli (GPa) = 91.65058 34.31498 77.72000
#
# Poissons Ratio (x) = 0.25058 0.52762
# Poissons Ratio (y) = 0.66926 -0.26137
# Poissons Ratio (z) = 0.62219 -0.11540
#
# Static dielectric constant tensor:
#      x y z
#    x 3.812250 -0.364670 0.184190 
#    y -0.364670 3.452180 -0.083770 
#    z 0.184190 -0.083770 3.989490 
# 
# 
# High freq. dielectric constant tensor:
#      x y z
#    x 1.842680 -0.014330 0.006130 
#    y -0.014330 1.819170 -0.003340 
#    z 0.006130 -0.003340 1.836820 
# 
# From -- ./inp_files/36295.got.cif
#   From: 2010.06.25/outbox.cif.g09.slc.cpg/sg2_19_cif.got.tgz:36295.got - 2010.06.27 13:26:56.
