data_PCOD8011553
_publ_section_title
;
Structure prediction by ZEFSAII (Michael W. Deem and Ramdas Pophale) SiO2 
 PCOD8011553
Probable space group: P -1
;
_chemical_formula_sum "Si O2"
_cell_formula_units_Z 14
_cell_length_a 6.588816
_cell_length_b 11.564379
_cell_length_c 10.266241
_cell_angle_alpha 57.974397
_cell_angle_beta 83.505164
_cell_angle_gamma 69.257118
_cell_volume 617.445670
_symmetry_space_group_name_H-M "P -1"
_symmetry_group_IT_number 2
_symmetry_cell_setting 'triclinic'
loop_
_space_group_symop_operation_xyz
x,y,z
-x,-y,-z
loop_
_atom_site_type_symbol
_atom_site_label
_atom_site_fract_x
_atom_site_fract_y
_atom_site_fract_z
Si Si1 0.844619 0.198994 0.508691
Si Si2 0.297102 0.501623 0.098906
Si Si3 0.591935 0.179100 0.781000
Si Si4 0.395729 0.480486 0.725530
Si Si5 0.829151 0.674390 0.976218
Si Si6 0.296246 0.972616 0.590401
Si Si7 0.570566 0.063612 0.116207
O O1 0.781724 0.136997 0.684741
O O2 0.761631 0.372941 0.418205
O O3 0.740340 0.152054 0.418492
O O4 0.102441 0.128238 0.512233
O O5 0.386596 0.496956 0.243014
O O6 0.218654 0.365811 0.145897
O O7 0.500000 0.500000 0.000000
O O8 0.083238 0.647382 0.002381
O O9 0.473241 0.353585 0.686714
O O10 0.414594 0.103170 0.802564
O O11 0.683744 0.119559 0.954865
O O12 0.250027 0.436357 0.867567
O O13 0.689035 0.840506 0.920119
O O14 0.325087 0.911791 0.771658
O O15 0.500000 0.000000 0.500000
#
# Coordination Sequence:
#
# PCOD8011553 Si02
#       7
#     2   2   2   2   2   2   2
#     4  11  24  43  67  97 127 168 218 261 319 388
#     4   9  18  35  58  93 122 164 215 257 320 365
#     4  10  22  44  64  95 129 170 211 263 319 383
#     4  10  21  39  62  91 130 162 206 265 319 382
#     4   9  19  37  60  92 124 165 212 265 316 369
#     4  11  24  44  67  96 127 171 216 266 319 369
#     4  10  21  43  68  88 133 167 211 268 314 380
#
# _framework density 22.674059
#
# number of rings (size 3 to 8) (size 9 to 14) (size 15 to 20)
#    0.000    2.000    1.429    1.286    0.000    6.286 
#   15.429    0.714    0.000    0.000    0.000    0.000 
#    0.000    0.000    0.000    0.000    0.000    0.000 
#
# Total GULP energy -173500.945603 kJ/mol
# GULP energy per Si atom -12392.924686 kJ/mol
# Density = 2.262245 g / cm^3
# Si number density = 22.674059 Si / 1000 Ang^3
#
#
#
# Elastic Constant Matrix: (Units=GPa)
#
#
# Indices 1 2 3 4 5 6 
#
# 1 112.9122 41.1775 38.5865 3.4154 8.2657 -18.8945
# 2 41.1775 134.5464 54.8587 -0.9308 4.5103 -7.5991
# 3 38.5865 54.8587 107.4219 11.9125 5.5346 7.2908
# 4 3.4154 -0.9308 11.9125 42.2103 1.5227 2.7855
# 5 8.2657 4.5103 5.5346 1.5227 20.5789 -1.3284
# 6 -18.8945 -7.5991 7.2908 2.7855 -1.3284 15.7198
#
#
#
# Elastic Compliance Matrix: (Units=1/GPa)
#
#
# Indices 1 2 3 4 5 6 
#
# 1 0.014813 -0.000856 -0.006020 -0.000743 -0.002792 0.020078
# 2 -0.000856 0.010323 -0.005544 0.001453 -0.000131 0.006263
# 3 -0.006020 -0.005544 0.015851 -0.002941 -0.001502 -0.016873
# 4 -0.000743 0.001453 -0.002941 0.024880 -0.001286 -0.003344
# 5 -0.002792 -0.000131 -0.001502 -0.001286 0.050356 0.001761
# 6 0.020078 0.006263 -0.016873 -0.003344 0.001761 0.099341
#
#
# Mechanical properties :
#
#
# Convention : Reuss Voigt Hill
#
# Bulk Modulus (GPa) = 61.93137 69.34731 65.63934
# Shear Modulus (GPa) = 20.34287 30.38565 25.36426
#
# Velocity S-wave (km/s) = 2.99856 3.66472 3.34825
# Velocity P-wave (km/s) = 6.27388 6.96834 6.63020
#
# Compressibility (1/GPa) = 0.01614691
#
# Stress axis : x y z
#
# Youngs Moduli (GPa) = 67.51014 96.87124 63.08686
#
# Poissons Ratio (x) = 0.08296 0.37977
# Poissons Ratio (y) = 0.05782 0.34973
# Poissons Ratio (z) = 0.40640 0.53702
#
# Static dielectric constant tensor:
#      x y z
#    x 4.072850 0.062930 0.229890 
#    y 0.062930 4.373070 0.282870 
#    z 0.229890 0.282870 3.982750 
# 
# 
# High freq. dielectric constant tensor:
#      x y z
#    x 1.872110 -0.002990 0.002670 
#    y -0.002990 1.911580 0.009090 
#    z 0.002670 0.009090 1.876650 
# 
# From -- ./inp_files/362649.got.cif
#   From: 2010.06.25/outbox.cif.g09.slc.cpg/sg2_182_cif.got.tgz:362649.got - 2010.06.27 13:26:56.
