data_PCOD8011257
_publ_section_title
;
Structure prediction by ZEFSAII (Michael W. Deem and Ramdas Pophale) SiO2 
 PCOD8011257
Probable space group: P -1
;
_chemical_formula_sum "Si O2"
_cell_formula_units_Z 16
_cell_length_a 8.897718
_cell_length_b 9.097239
_cell_length_c 17.076839
_cell_angle_alpha 70.219570
_cell_angle_beta 124.286256
_cell_angle_gamma 132.190523
_cell_volume 844.388336
_symmetry_space_group_name_H-M "P -1"
_symmetry_group_IT_number 2
_symmetry_cell_setting 'triclinic'
loop_
_space_group_symop_operation_xyz
x,y,z
-x,-y,-z
loop_
_atom_site_type_symbol
_atom_site_label
_atom_site_fract_x
_atom_site_fract_y
_atom_site_fract_z
Si Si1 0.184940 0.192866 0.603135
Si Si2 0.272909 0.637157 0.059820
Si Si3 0.798256 0.212411 0.844293
Si Si4 0.676893 0.453355 0.066467
Si Si5 0.318767 0.558279 0.331097
Si Si6 0.044976 0.785839 0.606371
Si Si7 0.548581 0.219142 0.228180
Si Si8 0.528938 0.517739 0.753510
O O1 0.408891 0.284712 0.594738
O O2 0.272536 0.317026 0.687970
O O3 0.006277 0.210025 0.501392
O O4 0.068457 0.963119 0.627153
O O5 0.339681 0.803519 0.114139
O O6 0.372862 0.522512 0.136096
O O7 0.370720 0.703683 0.987440
O O8 0.000000 0.500000 0.000000
O O9 0.764693 0.318309 0.745945
O O10 0.071926 0.336531 0.914248
O O11 0.689975 0.988950 0.830014
O O12 0.669748 0.366186 0.163603
O O13 0.500000 0.500000 0.000000
O O14 0.293796 0.417059 0.278596
O O15 0.167312 0.426445 0.383612
O O16 0.281396 0.816858 0.677815
O O17 0.487876 0.310138 0.261492
#
# Coordination Sequence:
#
# PCOD8011257 Si02
#       8
#     2   2   2   2   2   2   2   2
#     4   9  21  37  60  86 113 146 193 238 275 337
#     4   9  18  37  59  77 113 148 186 238 274 328
#     4  10  21  39  58  82 117 149 187 235 278 333
#     4  11  22  38  59  84 114 151 189 232 285 338
#     4   9  18  38  56  81 111 150 182 233 277 331
#     4  11  19  36  66  84 107 151 198 227 282 342
#     4  12  22  37  58  86 117 151 185 236 288 333
#     4   9  20  38  53  80 126 144 181 243 286 323
#
# _framework density 18.948629
#
# number of rings (size 3 to 8) (size 9 to 14) (size 15 to 20)
#    0.750    1.250    3.750    0.375    0.000    1.500 
#    2.250    0.000    0.000    2.250    0.000    0.000 
#    0.000    0.000    0.000    0.000    0.000    0.000 
#
# Total GULP energy -198243.019024 kJ/mol
# GULP energy per Si atom -12390.188689 kJ/mol
# Density = 1.890550 g / cm^3
# Si number density = 18.948629 Si / 1000 Ang^3
#
#
#
# Elastic Constant Matrix: (Units=GPa)
#
#
# Indices 1 2 3 4 5 6 
#
# 1 63.2613 24.1628 26.8382 -0.8880 6.1614 -10.2713
# 2 24.1628 83.0536 21.3272 11.8525 -1.2198 -9.6664
# 3 26.8382 21.3272 98.9525 5.3918 19.5390 -11.2959
# 4 -0.8880 11.8525 5.3918 19.7483 1.6330 -0.5906
# 5 6.1614 -1.2198 19.5390 1.6330 25.0378 3.3505
# 6 -10.2713 -9.6664 -11.2959 -0.5906 3.3505 29.6801
#
#
#
# Elastic Compliance Matrix: (Units=1/GPa)
#
#
# Indices 1 2 3 4 5 6 
#
# 1 0.020501 -0.005385 -0.003482 0.005534 -0.003557 0.004527
# 2 -0.005385 0.015740 -0.002000 -0.009420 0.004018 0.001861
# 3 -0.003482 -0.002000 0.014278 -0.001810 -0.010903 0.004772
# 4 0.005534 -0.009420 -0.001810 0.057367 -0.004118 -0.000235
# 5 -0.003557 0.004018 -0.010903 -0.004118 0.051116 -0.009924
# 6 0.004527 0.001861 0.004772 -0.000235 -0.009924 0.038797
#
#
# Mechanical properties :
#
#
# Convention : Reuss Voigt Hill
#
# Bulk Modulus (GPa) = 34.74027 43.32485 39.03256
# Shear Modulus (GPa) = 21.82184 26.42250 24.12217
#
# Velocity S-wave (km/s) = 3.39725 3.73826 3.57183
# Velocity P-wave (km/s) = 5.81052 6.44568 6.13632
#
# Compressibility (1/GPa) = 0.02878504
#
# Stress axis : x y z
#
# Youngs Moduli (GPa) = 48.77875 63.53041 70.03982
#
# Poissons Ratio (x) = 0.34212 0.24388
# Poissons Ratio (y) = 0.26268 0.14005
# Poissons Ratio (z) = 0.16985 0.12704
#
# Static dielectric constant tensor:
#      x y z
#    x 3.397230 -0.071640 0.032000 
#    y -0.071640 3.277800 0.157580 
#    z 0.032000 0.157580 3.603620 
# 
# 
# High freq. dielectric constant tensor:
#      x y z
#    x 1.718980 -0.005890 0.015670 
#    y -0.005890 1.712900 0.008270 
#    z 0.015670 0.008270 1.748220 
# 
# From -- ./inp_files/556149.got.cif
#   From: 2010.06.25/outbox.cif.g09.slc.cpg/sg2_279_cif.got.tgz:556149.got - 2010.06.27 13:26:56.
