data_PCOD8011607
_publ_section_title
;
Structure prediction by ZEFSAII (Michael W. Deem and Ramdas Pophale) SiO2 
 PCOD8011607
Probable space group: P -1
;
_chemical_formula_sum "Si O2"
_cell_formula_units_Z 12
_cell_length_a 13.068977
_cell_length_b 12.931547
_cell_length_c 10.373071
_cell_angle_alpha 145.141963
_cell_angle_beta 35.437432
_cell_angle_gamma 125.892273
_cell_volume 562.750414
_symmetry_space_group_name_H-M "P -1"
_symmetry_group_IT_number 2
_symmetry_cell_setting 'triclinic'
loop_
_space_group_symop_operation_xyz
x,y,z
-x,-y,-z
loop_
_atom_site_type_symbol
_atom_site_label
_atom_site_fract_x
_atom_site_fract_y
_atom_site_fract_z
Si Si1 0.901949 0.698383 0.645588
Si Si2 0.915742 0.287286 0.267132
Si Si3 0.135442 0.556454 0.019020
Si Si4 0.212785 0.906082 0.193422
Si Si5 0.730512 0.821171 0.377229
Si Si6 0.652397 0.068017 0.203116
O O1 0.845962 0.509599 0.547134
O O2 0.019025 0.760375 0.702788
O O3 0.022999 0.678252 0.373385
O O4 0.718471 0.857825 0.973261
O O5 0.746072 0.201798 0.326299
O O6 0.078365 0.200351 0.912943
O O7 0.248398 0.686617 0.966805
O O8 0.272781 0.370267 0.741276
O O9 0.000000 0.500000 0.000000
O O10 0.302671 0.009042 0.314790
O O11 0.308196 0.922175 0.977971
O O12 0.000000 0.000000 0.500000
O O13 0.566120 0.864255 0.486341
#
# Coordination Sequence:
#
# PCOD8011607 Si02
#       6
#     2   2   2   2   2   2
#     4  10  21  39  63  86 116 160 195 239 294 350
#     4  10  22  42  60  84 120 157 197 239 294 346
#     4  11  20  38  64  86 118 156 193 239 296 348
#     4  12  20  37  61  87 118 154 193 241 290 345
#     4  11  24  38  60  92 117 153 200 242 290 348
#     4  12  23  38  62  89 119 154 198 243 292 346
#
# _framework density 21.323839
#
# number of rings (size 3 to 8) (size 9 to 14) (size 15 to 20)
#    0.000    1.000    5.000    2.000    0.000    2.667 
#    0.000    7.500    0.000    0.000    0.000    0.000 
#    0.000    0.000    0.000    0.000    0.000    0.000 
#
# Total GULP energy -148866.870266 kJ/mol
# GULP energy per Si atom -12405.572522 kJ/mol
# Density = 2.127531 g / cm^3
# Si number density = 21.323839 Si / 1000 Ang^3
#
#
#
# Elastic Constant Matrix: (Units=GPa)
#
#
# Indices 1 2 3 4 5 6 
#
# 1 136.6246 35.6981 48.8762 23.2061 -3.9955 -0.3371
# 2 35.6981 74.3704 25.3318 29.8075 -8.3512 -5.8165
# 3 48.8762 25.3318 47.9097 27.3343 -2.5533 4.5639
# 4 23.2061 29.8075 27.3343 33.6142 -6.0259 2.0797
# 5 -3.9955 -8.3512 -2.5533 -6.0259 48.0773 -0.0422
# 6 -0.3371 -5.8165 4.5639 2.0797 -0.0422 35.8909
#
#
#
# Elastic Compliance Matrix: (Units=1/GPa)
#
#
# Indices 1 2 3 4 5 6 
#
# 1 0.012309 -0.003359 -0.014397 0.006205 0.000453 0.001043
# 2 -0.003359 0.022666 0.002338 -0.019723 0.001314 0.004489
# 3 -0.014397 0.002338 0.056423 -0.038187 -0.002584 -0.004721
# 4 0.006205 -0.019723 -0.038187 0.074969 0.004456 -0.002621
# 5 0.000453 0.001314 -0.002584 0.004456 0.021487 0.000313
# 6 0.001043 0.004489 -0.004721 -0.002621 0.000313 0.029352
#
#
# Mechanical properties :
#
#
# Convention : Reuss Voigt Hill
#
# Bulk Modulus (GPa) = 16.51197 53.19077 34.85137
# Shear Modulus (GPa) = 18.64072 33.44973 26.04522
#
# Velocity S-wave (km/s) = 2.95985 3.96492 3.49866
# Velocity P-wave (km/s) = 4.40922 6.77932 5.71841
#
# Compressibility (1/GPa) = 0.06056211
#
# Stress axis : x y z
#
# Youngs Moduli (GPa) = 81.23982 44.11897 17.72332
#
# Poissons Ratio (x) = 0.14820 0.25516
# Poissons Ratio (y) = 0.27289 -0.04143
# Poissons Ratio (z) = 1.16958 -0.10314
#
# Static dielectric constant tensor:
#      x y z
#    x 4.036030 -0.121580 0.092510 
#    y -0.121580 3.983250 0.283960 
#    z 0.092510 0.283960 3.880520 
# 
# 
# High freq. dielectric constant tensor:
#      x y z
#    x 1.846690 -0.010720 0.012850 
#    y -0.010720 1.837500 0.020980 
#    z 0.012850 0.020980 1.825560 
# 
# From -- ./inp_files/158642.got.cif
#   From: 2010.06.25/outbox.cif.g09.slc.cpg/sg2_80_cif.got.tgz:158642.got - 2010.06.27 13:26:56.
