data_PCOD8011415
_publ_section_title
;
Structure prediction by ZEFSAII (Michael W. Deem and Ramdas Pophale) SiO2 
 PCOD8011415
Probable space group: P -1
;
_chemical_formula_sum "Si O2"
_cell_formula_units_Z 16
_cell_length_a 8.439004
_cell_length_b 17.057585
_cell_length_c 11.468372
_cell_angle_alpha 75.965164
_cell_angle_beta 39.135138
_cell_angle_gamma 101.351254
_cell_volume 786.117561
_symmetry_space_group_name_H-M "P -1"
_symmetry_group_IT_number 2
_symmetry_cell_setting 'triclinic'
loop_
_space_group_symop_operation_xyz
x,y,z
-x,-y,-z
loop_
_atom_site_type_symbol
_atom_site_label
_atom_site_fract_x
_atom_site_fract_y
_atom_site_fract_z
Si Si1 0.631623 0.060783 0.021513
Si Si2 0.720598 0.874901 0.404358
Si Si3 0.617215 0.339115 0.227371
Si Si4 0.708010 0.124988 0.536461
Si Si5 0.689210 0.482477 0.734072
Si Si6 0.895395 0.939539 0.700431
Si Si7 0.355141 0.499990 0.705332
Si Si8 0.234981 0.339513 0.242983
O O1 0.495126 0.125741 0.064665
O O2 0.480073 0.975153 0.239430
O O3 0.017833 0.136890 0.791510
O O4 0.500000 0.000000 0.000000
O O5 0.446001 0.766068 0.661746
O O6 0.552252 0.897388 0.398620
O O7 0.924957 0.975237 0.331786
O O8 0.564751 0.390227 0.347914
O O9 0.377361 0.310043 0.270048
O O10 0.972708 0.415418 0.944571
O O11 0.011819 0.135354 0.306714
O O12 0.870404 0.235302 0.464439
O O13 0.478428 0.468781 0.750439
O O14 0.809175 0.579346 0.712806
O O15 0.000000 0.500000 0.500000
O O16 0.458264 0.380964 0.984310
O O17 0.000000 0.000000 0.500000
O O18 0.500000 0.500000 0.500000
#
# Coordination Sequence:
#
# PCOD8011415 Si02
#       8
#     2   2   2   2   2   2   2   2
#     4   9  19  37  58  80 115 154 194 238 290 354
#     4  11  21  37  59  88 119 154 196 247 298 350
#     4  10  21  39  62  85 120 159 198 242 304 360
#     4  11  21  37  59  88 118 155 195 249 297 350
#     4  10  21  39  61  89 119 153 199 250 299 358
#     4   9  19  37  58  80 115 154 193 237 289 354
#     4  10  21  39  61  89 118 154 199 249 299 359
#     4  10  21  39  62  85 120 161 196 243 304 359
#
# _framework density 20.353190000000001
#
# number of rings (size 3 to 8) (size 9 to 14) (size 15 to 20)
#    0.000    2.000    0.000    4.500    0.000    3.000 
#   15.750    0.000    0.000    0.000    0.000    0.000 
#    0.000    0.000    0.000    0.000    0.000    0.000 
#
# Total GULP energy -198217.057084 kJ/mol
# GULP energy per Si atom -12388.566068 kJ/mol
# Density = 2.030686 g / cm^3
# Si number density = 20.353190 Si / 1000 Ang^3
#
#
#
# Elastic Constant Matrix: (Units=GPa)
#
#
# Indices 1 2 3 4 5 6 
#
# 1 145.6736 41.3345 37.4959 7.4583 -11.5357 -8.3576
# 2 41.3345 65.5318 29.0196 10.3931 -1.7792 -3.0150
# 3 37.4959 29.0196 65.9070 10.8676 -2.9472 2.6961
# 4 7.4583 10.3931 10.8676 38.9911 -3.6504 -4.0927
# 5 -11.5357 -1.7792 -2.9472 -3.6504 34.5126 6.9414
# 6 -8.3576 -3.0150 2.6961 -4.0927 6.9414 31.7971
#
#
#
# Elastic Compliance Matrix: (Units=1/GPa)
#
#
# Indices 1 2 3 4 5 6 
#
# 1 0.009213 -0.004242 -0.003475 0.000750 0.002258 0.001918
# 2 -0.004242 0.021373 -0.006622 -0.003031 -0.001485 0.001407
# 3 -0.003475 -0.006622 0.020873 -0.003738 0.000677 -0.003940
# 4 0.000750 -0.003031 -0.003738 0.027899 0.002048 0.003370
# 5 0.002258 -0.001485 0.000677 0.002048 0.031163 -0.006144
# 6 0.001918 0.001407 -0.003940 0.003370 -0.006144 0.034196
#
#
# Mechanical properties :
#
#
# Convention : Reuss Voigt Hill
#
# Bulk Modulus (GPa) = 43.89312 54.75695 49.32503
# Shear Modulus (GPa) = 27.62617 32.34432 29.98525
#
# Velocity S-wave (km/s) = 3.68820 3.99074 3.84245
# Velocity P-wave (km/s) = 6.30473 6.94237 6.63122
#
# Compressibility (1/GPa) = 0.02278262
#
# Stress axis : x y z
#
# Youngs Moduli (GPa) = 108.54107 46.78868 47.90824
#
# Poissons Ratio (x) = 0.19847 0.16648
# Poissons Ratio (y) = 0.46041 0.31723
# Poissons Ratio (z) = 0.37717 0.30981
#
# Static dielectric constant tensor:
#      x y z
#    x 3.941860 -0.312500 -0.284500 
#    y -0.312500 4.071540 0.558850 
#    z -0.284500 0.558850 3.980240 
# 
# 
# High freq. dielectric constant tensor:
#      x y z
#    x 1.814280 -0.005890 -0.008040 
#    y -0.005890 1.787660 0.009290 
#    z -0.008040 0.009290 1.788970 
# 
# From -- ./inp_files/402054.got.cif
#   From: 2010.06.25/outbox.cif.g09.slc.cpg/sg2_202_cif.got.tgz:402054.got - 2010.06.27 13:26:56.
