data_PCOD8011321
_publ_section_title
;
Structure prediction by ZEFSAII (Michael W. Deem and Ramdas Pophale) SiO2 
 PCOD8011321
Probable space group: P -1
;
_chemical_formula_sum "Si O2"
_cell_formula_units_Z 16
_cell_length_a 12.544376
_cell_length_b 14.536839
_cell_length_c 7.534330
_cell_angle_alpha 88.252595
_cell_angle_beta 57.715517
_cell_angle_gamma 47.078918
_cell_volume 716.838809
_symmetry_space_group_name_H-M "P -1"
_symmetry_group_IT_number 2
_symmetry_cell_setting 'triclinic'
loop_
_space_group_symop_operation_xyz
x,y,z
-x,-y,-z
loop_
_atom_site_type_symbol
_atom_site_label
_atom_site_fract_x
_atom_site_fract_y
_atom_site_fract_z
Si Si1 0.918495 0.758523 0.712238
Si Si2 0.079688 0.042097 0.775940
Si Si3 0.729932 0.891049 0.518969
Si Si4 0.472468 0.292184 0.521567
Si Si5 0.387297 0.452913 0.256161
Si Si6 0.469943 0.603766 0.245328
Si Si7 0.977010 0.115838 0.249616
Si Si8 0.287653 0.213900 0.796561
O O1 0.768031 0.821441 0.678701
O O2 0.149545 0.613234 0.455501
O O3 0.871523 0.891403 0.812404
O O4 0.878509 0.708149 0.907311
O O5 0.298119 0.876319 0.655008
O O6 0.957877 0.030372 0.778300
O O7 0.118930 0.107023 0.613520
O O8 0.952058 0.145495 0.057073
O O9 0.793095 0.788046 0.309640
O O10 0.494980 0.050837 0.696495
O O11 0.434976 0.339582 0.347369
O O12 0.423485 0.409548 0.679573
O O13 0.312680 0.306600 0.725555
O O14 0.519608 0.466174 0.201894
O O15 0.454183 0.388730 0.001069
O O16 0.229409 0.754067 0.466901
#
# Coordination Sequence:
#
# PCOD8011321 Si02
#       8
#     2   2   2   2   2   2   2   2
#     4  11  22  38  61  88 118 156 195 242 286 346
#     4   9  18  38  59  89 121 151 191 240 296 351
#     4  10  21  39  60  84 121 154 191 242 295 344
#     4  10  21  39  62  83 118 160 188 241 290 341
#     4  10  22  40  59  88 119 151 199 235 287 349
#     4   9  20  41  59  85 119 155 195 236 288 348
#     4   9  18  37  58  91 120 146 194 241 292 347
#     4  10  22  40  60  86 116 154 200 236 292 349
#
# _framework density 22.320222000000001
#
# number of rings (size 3 to 8) (size 9 to 14) (size 15 to 20)
#    0.000    2.250    1.250    0.750    0.000    3.000 
#   27.000    1.250    0.000    0.000    0.000    0.000 
#    0.000    0.000    0.000    0.000    0.000    0.000 
#
# Total GULP energy -198317.844130 kJ/mol
# GULP energy per Si atom -12394.865258 kJ/mol
# Density = 2.226942 g / cm^3
# Si number density = 22.320222 Si / 1000 Ang^3
#
#
#
# Elastic Constant Matrix: (Units=GPa)
#
#
# Indices 1 2 3 4 5 6 
#
# 1 81.0137 26.7199 38.3787 -20.3981 -5.8173 8.1461
# 2 26.7199 46.0021 22.9389 -17.2900 8.3720 4.0141
# 3 38.3787 22.9389 148.5986 -11.7914 2.5242 4.8212
# 4 -20.3981 -17.2900 -11.7914 28.5068 -0.8716 -1.4620
# 5 -5.8173 8.3720 2.5242 -0.8716 28.0766 -10.5467
# 6 8.1461 4.0141 4.8212 -1.4620 -10.5467 18.3227
#
#
#
# Elastic Compliance Matrix: (Units=1/GPa)
#
#
# Indices 1 2 3 4 5 6 
#
# 1 0.018840 -0.007344 -0.003151 0.007805 0.005898 -0.001921
# 2 -0.007344 0.036736 -0.001885 0.015092 -0.016581 -0.012627
# 3 -0.003151 -0.001885 0.007866 -0.000228 -0.001158 -0.000941
# 4 0.007805 0.015092 -0.000228 0.049399 -0.003025 -0.004516
# 5 0.005898 -0.016581 -0.001158 -0.003025 0.053838 0.032063
# 6 -0.001921 -0.012627 -0.000941 -0.004516 0.032063 0.076541
#
#
# Mechanical properties :
#
#
# Convention : Reuss Voigt Hill
#
# Bulk Modulus (GPa) = 25.85169 50.18772 38.01970
# Shear Modulus (GPa) = 17.80156 27.48633 22.64395
#
# Velocity S-wave (km/s) = 2.82716 3.51302 3.18858
# Velocity P-wave (km/s) = 4.71852 6.24413 5.53415
#
# Compressibility (1/GPa) = 0.03868220
#
# Stress axis : x y z
#
# Youngs Moduli (GPa) = 53.07754 27.22157 127.12249
#
# Poissons Ratio (x) = 0.19992 0.40053
# Poissons Ratio (y) = 0.38981 0.23965
# Poissons Ratio (z) = 0.16723 0.05132
#
# Static dielectric constant tensor:
#      x y z
#    x 4.244460 0.381780 -0.005140 
#    y 0.381780 3.543830 -0.024870 
#    z -0.005140 -0.024870 4.138400 
# 
# 
# High freq. dielectric constant tensor:
#      x y z
#    x 1.874970 0.017840 -0.003510 
#    y 0.017840 1.838840 -0.006300 
#    z -0.003510 -0.006300 1.896670 
# 
# From -- ./inp_files/77821.got.cif
#   From: 2010.06.25/outbox.cif.g09.slc.cpg/sg2_39_cif.got.tgz:77821.got - 2010.06.27 13:26:56.
