data_PCOD8011684
_publ_section_title
;
Structure prediction by ZEFSAII (Michael W. Deem and Ramdas Pophale) SiO2 
 PCOD8011684
Probable space group: P -1
;
_chemical_formula_sum "Si O2"
_cell_formula_units_Z 16
_cell_length_a 6.011917
_cell_length_b 6.589517
_cell_length_c 20.547317
_cell_angle_alpha 93.524589
_cell_angle_beta 62.683770
_cell_angle_gamma 91.718912
_cell_volume 721.854671
_symmetry_space_group_name_H-M "P -1"
_symmetry_group_IT_number 2
_symmetry_cell_setting 'triclinic'
loop_
_space_group_symop_operation_xyz
x,y,z
-x,-y,-z
loop_
_atom_site_type_symbol
_atom_site_label
_atom_site_fract_x
_atom_site_fract_y
_atom_site_fract_z
Si Si1 0.873416 0.672959 0.336730
Si Si2 0.435030 0.932233 0.847527
Si Si3 0.262438 0.615517 0.959841
Si Si4 0.374368 0.462369 0.411860
Si Si5 0.962591 0.793649 0.464566
Si Si6 0.664983 0.287056 0.903580
Si Si7 0.213485 0.260442 0.790557
Si Si8 0.355076 0.418894 0.266020
O O1 0.661744 0.517844 0.387381
O O2 0.938158 0.824887 0.390408
O O3 0.782514 0.799347 0.288135
O O4 0.109927 0.540736 0.279697
O O5 0.242261 0.793463 0.912327
O O6 0.629946 0.792278 0.779178
O O7 0.596537 0.070268 0.877394
O O8 0.273790 0.061985 0.820786
O O9 0.473198 0.455497 0.905134
O O10 0.351862 0.722389 0.016397
O O11 0.000000 0.500000 0.000000
O O12 0.291452 0.304604 0.475074
O O13 0.341673 0.364318 0.342983
O O14 0.205590 0.661973 0.444483
O O15 0.000000 0.000000 0.500000
O O16 0.945279 0.349535 0.848126
O O17 0.407652 0.441001 0.780487
#
# Coordination Sequence:
#
# PCOD8011684 Si02
#       8
#     2   2   2   2   2   2   2   2
#     4  10  21  42  65  90 129 169 207 257 315 372
#     4  12  24  41  66  95 126 163 209 257 309 372
#     4  11  25  46  67  92 129 166 204 258 314 369
#     4   9  21  39  61  91 124 164 210 255 311 371
#     4  10  21  39  63  92 126 163 209 263 311 364
#     4  11  25  42  66  95 125 163 210 255 311 373
#     4  11  24  42  63  93 128 165 209 257 309 374
#     4  10  23  43  64  89 129 168 206 260 313 369
#
# _framework density 22.165123999999999
#
# number of rings (size 3 to 8) (size 9 to 14) (size 15 to 20)
#    0.000    1.500    0.000    4.500    0.000   11.500 
#    0.000    6.250    0.000    0.000    0.000    0.000 
#    0.000    0.000    0.000    0.000    0.000    0.000 
#
# Total GULP energy -198447.083809 kJ/mol
# GULP energy per Si atom -12402.942738 kJ/mol
# Density = 2.211468 g / cm^3
# Si number density = 22.165124 Si / 1000 Ang^3
#
#
#
# Elastic Constant Matrix: (Units=GPa)
#
#
# Indices 1 2 3 4 5 6 
#
# 1 121.6170 61.9360 60.1915 3.0529 -9.4760 2.9756
# 2 61.9360 121.9500 79.2573 16.7606 11.3487 7.7099
# 3 60.1915 79.2573 131.2926 8.2104 -1.2532 -0.7104
# 4 3.0529 16.7606 8.2104 40.9064 6.7361 12.6574
# 5 -9.4760 11.3487 -1.2532 6.7361 58.5415 -3.0673
# 6 2.9756 7.7099 -0.7104 12.6574 -3.0673 23.8747
#
#
#
# Elastic Compliance Matrix: (Units=1/GPa)
#
#
# Indices 1 2 3 4 5 6 
#
# 1 0.012228 -0.004827 -0.002750 0.001295 0.002687 -0.000388
# 2 -0.004827 0.016742 -0.007763 -0.003057 -0.004047 -0.003935
# 3 -0.002750 -0.007763 0.013652 -0.000837 0.001653 0.003912
# 4 0.001295 -0.003057 -0.000837 0.031433 -0.003688 -0.016337
# 5 0.002687 -0.004047 0.001653 -0.003688 0.019045 0.005424
# 6 -0.000388 -0.003935 0.003912 -0.016337 0.005424 0.052679
#
#
# Mechanical properties :
#
#
# Convention : Reuss Voigt Hill
#
# Bulk Modulus (GPa) = 83.71945 86.40323 85.06134
# Shear Modulus (GPa) = 27.71022 36.22951 31.96987
#
# Velocity S-wave (km/s) = 3.53961 4.04732 3.80195
# Velocity P-wave (km/s) = 7.38634 7.80431 7.59820
#
# Compressibility (1/GPa) = 0.01194466
#
# Stress axis : x y z
#
# Youngs Moduli (GPa) = 81.78084 59.72944 73.24674
#
# Poissons Ratio (x) = 0.28830 0.20140
# Poissons Ratio (y) = 0.39473 0.56859
# Poissons Ratio (z) = 0.22486 0.46366
#
# Static dielectric constant tensor:
#      x y z
#    x 4.051690 0.010130 0.083930 
#    y 0.010130 3.685780 0.019130 
#    z 0.083930 0.019130 4.406820 
# 
# 
# High freq. dielectric constant tensor:
#      x y z
#    x 1.877720 0.004880 0.007960 
#    y 0.004880 1.847190 0.002370 
#    z 0.007960 0.002370 1.902370 
# 
# From -- ./inp_files/47675.got.cif
#   From: 2010.06.25/outbox.cif.g09.slc.cpg/sg2_24_cif.got.tgz:47675.got - 2010.06.27 13:26:56.
