data_PCOD8011935
_publ_section_title
;
Structure prediction by ZEFSAII (Michael W. Deem and Ramdas Pophale) SiO2 
 PCOD8011935
Probable space group: P -1
;
_chemical_formula_sum "Si O2"
_cell_formula_units_Z 16
_cell_length_a 9.458449
_cell_length_b 17.862487
_cell_length_c 12.171962
_cell_angle_alpha 46.601401
_cell_angle_beta 96.399833
_cell_angle_gamma 133.811214
_cell_volume 775.727985
_symmetry_space_group_name_H-M "P -1"
_symmetry_group_IT_number 2
_symmetry_cell_setting 'triclinic'
loop_
_space_group_symop_operation_xyz
x,y,z
-x,-y,-z
loop_
_atom_site_type_symbol
_atom_site_label
_atom_site_fract_x
_atom_site_fract_y
_atom_site_fract_z
Si Si1 0.050812 0.096525 0.014163
Si Si2 0.440226 0.079068 0.877862
Si Si3 0.599625 0.939048 0.733423
Si Si4 0.774574 0.260569 0.512148
Si Si5 0.276921 0.669589 0.792268
Si Si6 0.388114 0.317626 0.190851
Si Si7 0.961856 0.946694 0.379625
Si Si8 0.600099 0.332270 0.828582
O O1 0.382335 0.294669 0.859238
O O2 0.893075 0.948479 0.252513
O O3 0.000000 0.000000 0.000000
O O4 0.891616 0.108697 0.976647
O O5 0.614696 0.210569 0.651207
O O6 0.539147 0.223437 0.828770
O O7 0.500000 0.000000 0.000000
O O8 0.468155 0.869998 0.670481
O O9 0.895351 0.074706 0.602922
O O10 0.623587 0.061353 0.673172
O O11 0.419676 0.749986 0.981781
O O12 0.740221 0.317242 0.350965
O O13 0.092958 0.435389 0.389275
O O14 0.372896 0.613557 0.882084
O O15 0.000000 0.500000 0.000000
O O16 0.136063 0.140173 0.266295
O O17 0.500000 0.500000 0.000000
O O18 0.308239 0.247525 0.381090
#
# Coordination Sequence:
#
# PCOD8011935 Si02
#       8
#     2   2   2   2   2   2   2   2
#     4   9  20  40  67  86 126 166 200 260 314 368
#     4  11  22  41  66  93 124 164 211 263 319 367
#     4  10  21  39  65  90 126 166 204 257 312 373
#     4  12  23  39  69  91 130 167 206 265 316 364
#     4  11  23  40  61  94 127 162 209 251 310 377
#     4  10  22  40  61  89 123 161 200 255 301 367
#     4   9  20  39  63  88 120 159 208 242 309 370
#     4  10  21  42  64  92 125 166 212 254 312 381
#
# _framework density 20.625785
#
# number of rings (size 3 to 8) (size 9 to 14) (size 15 to 20)
#    0.000    1.750    2.500    1.500    1.750    0.000 
#    6.750    0.625    5.500    0.000    0.000    0.000 
#    0.000    0.000    0.000    0.000    0.000    0.000 
#
# Total GULP energy -198254.592317 kJ/mol
# GULP energy per Si atom -12390.912020 kJ/mol
# Density = 2.057884 g / cm^3
# Si number density = 20.625785 Si / 1000 Ang^3
#
#
#
# Elastic Constant Matrix: (Units=GPa)
#
#
# Indices 1 2 3 4 5 6 
#
# 1 131.7487 47.5826 58.3011 -6.7046 -13.2960 10.6536
# 2 47.5826 87.1879 43.5877 22.8122 -1.0655 5.0403
# 3 58.3011 43.5877 100.5543 14.1829 -11.2610 -0.9238
# 4 -6.7046 22.8122 14.1829 34.9955 -6.9390 -5.6855
# 5 -13.2960 -1.0655 -11.2610 -6.9390 31.7695 2.6724
# 6 10.6536 5.0403 -0.9238 -5.6855 2.6724 33.0700
#
#
#
# Elastic Compliance Matrix: (Units=1/GPa)
#
#
# Indices 1 2 3 4 5 6 
#
# 1 0.014247 -0.007465 -0.005881 0.010840 0.006185 -0.002252
# 2 -0.007465 0.021609 -0.003590 -0.015942 -0.006888 -0.003173
# 3 -0.005881 -0.003590 0.015771 -0.004490 0.001863 0.001960
# 4 0.010840 -0.015942 -0.004490 0.046185 0.012012 0.005782
# 5 0.006185 -0.006888 0.001863 0.012012 0.037272 -0.001837
# 6 -0.002252 -0.003173 0.001960 0.005782 -0.001837 0.032645
#
#
# Mechanical properties :
#
#
# Convention : Reuss Voigt Hill
#
# Bulk Modulus (GPa) = 56.32846 68.71486 62.52166
# Shear Modulus (GPa) = 24.09386 31.30164 27.69775
#
# Velocity S-wave (km/s) = 3.42152 3.89986 3.66849
# Velocity P-wave (km/s) = 6.55577 7.32570 6.95140
#
# Compressibility (1/GPa) = 0.01775301
#
# Stress axis : x y z
#
# Youngs Moduli (GPa) = 70.19093 46.27658 63.40702
#
# Poissons Ratio (x) = 0.34547 0.37291
# Poissons Ratio (y) = 0.52400 0.22766
# Poissons Ratio (z) = 0.41281 0.16615
#
# Static dielectric constant tensor:
#      x y z
#    x 4.019790 0.128410 -0.254570 
#    y 0.128410 3.957420 0.383740 
#    z -0.254570 0.383740 3.854980 
# 
# 
# High freq. dielectric constant tensor:
#      x y z
#    x 1.817170 0.001960 -0.022520 
#    y 0.001960 1.811120 0.027290 
#    z -0.022520 0.027290 1.790550 
# 
# From -- ./inp_files/350235.got.cif
#   From: 2010.06.25/outbox.cif.g09.slc.cpg/sg2_176_cif.got.tgz:350235.got - 2010.06.27 13:26:56.
