data_PCOD8011807
_publ_section_title
;
Structure prediction by ZEFSAII (Michael W. Deem and Ramdas Pophale) SiO2 
 PCOD8011807
Probable space group: P -1
;
_chemical_formula_sum "Si O2"
_cell_formula_units_Z 14
_cell_length_a 14.063784
_cell_length_b 13.924526
_cell_length_c 7.141406
_cell_angle_alpha 86.895337
_cell_angle_beta 101.040956
_cell_angle_gamma 31.127588
_cell_volume 640.673553
_symmetry_space_group_name_H-M "P -1"
_symmetry_group_IT_number 2
_symmetry_cell_setting 'triclinic'
loop_
_space_group_symop_operation_xyz
x,y,z
-x,-y,-z
loop_
_atom_site_type_symbol
_atom_site_label
_atom_site_fract_x
_atom_site_fract_y
_atom_site_fract_z
Si Si1 0.180283 0.128899 0.188941
Si Si2 0.780479 0.258242 0.510185
Si Si3 0.031048 0.867064 0.774468
Si Si4 0.732409 0.769501 0.574842
Si Si5 0.417253 0.167210 0.853117
Si Si6 0.760460 0.573012 0.887168
Si Si7 0.612197 0.505459 0.765095
O O1 0.157464 0.040929 0.264747
O O2 0.151545 0.232870 0.334656
O O3 0.391133 0.949082 0.167367
O O4 0.977609 0.327534 0.968795
O O5 0.676452 0.427782 0.584663
O O6 0.616780 0.338312 0.318366
O O7 0.904057 0.210335 0.407158
O O8 0.932602 0.060357 0.720158
O O9 0.228086 0.682072 0.005913
O O10 0.758820 0.710127 0.377248
O O11 0.788642 0.636935 0.753821
O O12 0.500000 0.000000 0.500000
O O13 0.303060 0.336251 0.938785
O O14 0.500000 0.000000 0.000000
O O15 0.592320 0.639060 0.761983
#
# Coordination Sequence:
#
# PCOD8011807 Si02
#       7
#     2   2   2   2   2   2   2
#     4  10  23  43  63  95 132 161 215 265 306 391
#     4  10  22  43  69  89 132 167 212 268 326 377
#     4  10  22  43  64  99 126 167 215 264 323 382
#     4  10  21  39  64  91 128 163 211 259 308 384
#     4  11  23  41  63  90 127 172 208 256 320 372
#     4  11  23  43  63  95 128 165 214 260 320 380
#     4  10  23  42  66  96 128 165 215 268 317 391
#
# _framework density 21.852003
#
# number of rings (size 3 to 8) (size 9 to 14) (size 15 to 20)
#    0.000    1.714    2.857    1.286    4.000    2.857 
#   23.143    0.000    0.000    0.000    0.000    0.000 
#    0.000    0.000    0.000    0.000    0.000    0.000 
#
# Total GULP energy -173484.317479 kJ/mol
# GULP energy per Si atom -12391.736963 kJ/mol
# Density = 2.180227 g / cm^3
# Si number density = 21.852003 Si / 1000 Ang^3
#
#
#
# Elastic Constant Matrix: (Units=GPa)
#
#
# Indices 1 2 3 4 5 6 
#
# 1 50.2562 -10.0612 20.1894 6.1721 -3.7530 -3.2710
# 2 -10.0612 45.4249 7.6998 6.4110 -0.7936 -1.4276
# 3 20.1894 7.6998 85.3191 10.7661 0.7743 2.2684
# 4 6.1721 6.4110 10.7661 38.2326 0.7705 7.1663
# 5 -3.7530 -0.7936 0.7743 0.7705 29.6116 8.8603
# 6 -3.2710 -1.4276 2.2684 7.1663 8.8603 26.6118
#
#
#
# Elastic Compliance Matrix: (Units=1/GPa)
#
#
# Indices 1 2 3 4 5 6 
#
# 1 0.024819 0.007330 -0.006119 -0.004380 0.002306 0.004377
# 2 0.007330 0.025074 -0.003456 -0.005119 0.000724 0.003678
# 3 -0.006119 -0.003456 0.013781 -0.002054 -0.000787 -0.001297
# 4 -0.004380 -0.005119 -0.002054 0.029989 0.001320 -0.009153
# 5 0.002306 0.000724 -0.000787 0.001320 0.037827 -0.012560
# 6 0.004377 0.003678 -0.001297 -0.009153 -0.012560 0.045070
#
#
# Mechanical properties :
#
#
# Convention : Reuss Voigt Hill
#
# Bulk Modulus (GPa) = 16.89616 24.07292 20.48454
# Shear Modulus (GPa) = 24.90313 29.76933 27.33623
#
# Velocity S-wave (km/s) = 3.37950 3.69496 3.54074
# Velocity P-wave (km/s) = 4.79342 5.40776 5.10983
#
# Compressibility (1/GPa) = 0.05918504
#
# Stress axis : x y z
#
# Youngs Moduli (GPa) = 40.29207 39.88130 72.56121
#
# Poissons Ratio (x) = -0.29234 0.44401
# Poissons Ratio (y) = -0.29535 0.25077
# Poissons Ratio (z) = 0.24655 0.13783
#
# Static dielectric constant tensor:
#      x y z
#    x 3.696010 -0.000850 -0.232980 
#    y -0.000850 3.862680 0.138320 
#    z -0.232980 0.138320 3.272160 
# 
# 
# High freq. dielectric constant tensor:
#      x y z
#    x 1.861230 -0.000370 0.003240 
#    y -0.000370 1.856700 -0.005550 
#    z 0.003240 -0.005550 1.862470 
# 
# From -- ./inp_files/98131.got.cif
#   From: 2010.06.25/outbox.cif.g09.slc.cpg/sg2_50_cif.got.tgz:98131.got - 2010.06.27 13:26:56.
