data_PCOD8011999
_publ_section_title
;
Structure prediction by ZEFSAII (Michael W. Deem and Ramdas Pophale) SiO2 
 PCOD8011999
Probable space group: P -1
;
_chemical_formula_sum "Si O2"
_cell_formula_units_Z 14
_cell_length_a 8.971159
_cell_length_b 10.028435
_cell_length_c 9.126853
_cell_angle_alpha 51.802715
_cell_angle_beta 83.158827
_cell_angle_gamma 81.630116
_cell_volume 637.980555
_symmetry_space_group_name_H-M "P -1"
_symmetry_group_IT_number 2
_symmetry_cell_setting 'triclinic'
loop_
_space_group_symop_operation_xyz
x,y,z
-x,-y,-z
loop_
_atom_site_type_symbol
_atom_site_label
_atom_site_fract_x
_atom_site_fract_y
_atom_site_fract_z
Si Si1 0.910862 0.974540 0.748749
Si Si2 0.491715 0.668160 0.793333
Si Si3 0.616522 0.377581 0.482430
Si Si4 0.659026 0.062416 0.905470
Si Si5 0.204743 0.195162 0.396920
Si Si6 0.763309 0.090637 0.195147
Si Si7 0.048888 0.630008 0.529753
O O1 0.863600 0.943519 0.607216
O O2 0.066060 0.857870 0.840474
O O3 0.780900 0.921277 0.912629
O O4 0.939920 0.170995 0.650298
O O5 0.468558 0.638327 0.647226
O O6 0.651158 0.744773 0.742630
O O7 0.352246 0.791353 0.777466
O O8 0.500000 0.500000 0.000000
O O9 0.500000 0.500000 0.500000
O O10 0.636813 0.205098 0.687868
O O11 0.782217 0.444292 0.389951
O O12 0.725382 0.120391 0.010132
O O13 0.500000 0.000000 0.000000
O O14 0.079923 0.356256 0.336447
O O15 0.249100 0.100524 0.610473
O O16 0.000000 0.500000 0.500000
#
# Coordination Sequence:
#
# PCOD8011999 Si02
#       7
#     2   2   2   2   2   2   2
#     4  10  22  41  65  95 129 169 214 262 316 381
#     4  12  25  42  63  95 130 169 214 267 321 379
#     4  11  23  42  61  88 129 168 205 259 318 376
#     4  11  22  38  61  93 123 161 209 258 308 372
#     4  11  22  43  69  95 127 171 214 263 320 381
#     4  11  21  39  65  93 125 167 213 261 315 382
#     4  10  21  39  65  95 127 167 212 262 319 375
#
# _framework density 21.944241000000002
#
# number of rings (size 3 to 8) (size 9 to 14) (size 15 to 20)
#    0.000    1.143    0.000    8.571    0.000    2.286 
#    0.000    7.143    0.000    0.000    0.000    0.000 
#    0.000    0.000    0.000    0.000    0.000    0.000 
#
# Total GULP energy -173458.120219 kJ/mol
# GULP energy per Si atom -12389.865730 kJ/mol
# Density = 2.189430 g / cm^3
# Si number density = 21.944241 Si / 1000 Ang^3
#
#
#
# Elastic Constant Matrix: (Units=GPa)
#
#
# Indices 1 2 3 4 5 6 
#
# 1 209.6047 66.9644 44.6522 1.9934 -16.5407 -29.2951
# 2 66.9644 138.1635 33.5255 24.0321 -1.1334 -9.2860
# 3 44.6522 33.5255 113.4765 15.7953 5.3886 8.9124
# 4 1.9934 24.0321 15.7953 32.5165 3.2267 -1.9149
# 5 -16.5407 -1.1334 5.3886 3.2267 32.9391 12.1454
# 6 -29.2951 -9.2860 8.9124 -1.9149 12.1454 54.6606
#
#
#
# Elastic Compliance Matrix: (Units=1/GPa)
#
#
# Indices 1 2 3 4 5 6 
#
# 1 0.006882 -0.002995 -0.002604 0.003016 0.002304 0.003198
# 2 -0.002995 0.010082 -0.000840 -0.006816 -0.000386 0.000092
# 3 -0.002604 -0.000840 0.011049 -0.004622 -0.001525 -0.003163
# 4 0.003016 -0.006816 -0.004622 0.038327 -0.002898 0.003199
# 5 0.002304 -0.000386 -0.001525 -0.002898 0.034366 -0.006319
# 6 0.003198 0.000092 -0.003163 0.003199 -0.006319 0.022056
#
#
# Mechanical properties :
#
#
# Convention : Reuss Voigt Hill
#
# Bulk Modulus (GPa) = 66.06843 83.50319 74.78581
# Shear Modulus (GPa) = 35.54012 45.09675 40.31843
#
# Velocity S-wave (km/s) = 4.02875 4.53820 4.29104
# Velocity P-wave (km/s) = 7.19818 8.09910 7.66189
#
# Compressibility (1/GPa) = 0.01513582
#
# Stress axis : x y z
#
# Youngs Moduli (GPa) = 145.29702 99.19008 90.50265
#
# Poissons Ratio (x) = 0.29704 0.23566
# Poissons Ratio (y) = 0.43512 0.07605
# Poissons Ratio (z) = 0.37833 0.08335
#
# Static dielectric constant tensor:
#      x y z
#    x 5.086220 -0.435330 -0.228060 
#    y -0.435330 4.108620 0.377840 
#    z -0.228060 0.377840 4.376980 
# 
# 
# High freq. dielectric constant tensor:
#      x y z
#    x 1.906260 -0.018360 -0.005840 
#    y -0.018360 1.856510 0.026180 
#    z -0.005840 0.026180 1.838280 
# 
# From -- ./inp_files/156808.got.cif
#   From: 2010.06.25/outbox.cif.g09.slc.cpg/sg2_79_cif.got.tgz:156808.got - 2010.06.27 13:26:56.
