data_PCOD8011316
_publ_section_title
;
Structure prediction by ZEFSAII (Michael W. Deem and Ramdas Pophale) SiO2 
 PCOD8011316
Probable space group: P -1
;
_chemical_formula_sum "Si O2"
_cell_formula_units_Z 14
_cell_length_a 6.540747
_cell_length_b 14.252393
_cell_length_c 8.889988
_cell_angle_alpha 89.940969
_cell_angle_beta 122.534303
_cell_angle_gamma 107.300166
_cell_volume 653.946600
_symmetry_space_group_name_H-M "P -1"
_symmetry_group_IT_number 2
_symmetry_cell_setting 'triclinic'
loop_
_space_group_symop_operation_xyz
x,y,z
-x,-y,-z
loop_
_atom_site_type_symbol
_atom_site_label
_atom_site_fract_x
_atom_site_fract_y
_atom_site_fract_z
Si Si1 0.224993 0.209574 0.916185
Si Si2 0.973047 0.736366 0.453516
Si Si3 0.229428 0.413988 0.387683
Si Si4 0.315924 0.414522 0.093984
Si Si5 0.829268 0.067461 0.962538
Si Si6 0.117370 0.462594 0.728004
Si Si7 0.367223 0.886823 0.817631
O O1 0.166626 0.209830 0.714456
O O2 0.948864 0.160207 0.894964
O O3 0.362236 0.322355 0.028665
O O4 0.426505 0.153225 0.019284
O O5 0.784138 0.682241 0.517826
O O6 0.043981 0.650442 0.391629
O O7 0.230809 0.817956 0.623624
O O8 0.500000 0.500000 0.500000
O O9 0.164462 0.378734 0.189994
O O10 0.022359 0.459976 0.371777
O O11 0.597430 0.499744 0.235139
O O12 0.146041 0.459613 0.920477
O O13 0.527617 0.998028 0.814321
O O14 0.842175 0.107301 0.140430
O O15 0.000000 0.000000 0.000000
#
# Coordination Sequence:
#
# PCOD8011316 Si02
#       7
#     2   2   2   2   2   2   2
#     4  10  22  40  61  90 123 152 202 243 298 355
#     4  11  23  40  59  92 120 157 204 250 289 355
#     4  12  23  36  57  84 123 163 206 246 294 345
#     4  10  21  39  60  82 119 164 201 252 295 347
#     4   9  20  43  66  90 118 154 191 240 304 365
#     4  10  22  40  57  83 121 160 207 250 296 346
#     4  10  21  41  68  86 120 156 189 247 303 353
#
# _framework density 21.408476
#
# number of rings (size 3 to 8) (size 9 to 14) (size 15 to 20)
#    0.000    1.714    1.429    2.571    2.000    0.571 
#    7.714    6.429    0.000    0.000    0.000    0.000 
#    0.000    0.000    0.000    0.000    0.000    0.000 
#
# Total GULP energy -173538.968028 kJ/mol
# GULP energy per Si atom -12395.640573 kJ/mol
# Density = 2.135975 g / cm^3
# Si number density = 21.408476 Si / 1000 Ang^3
#
#
#
# Elastic Constant Matrix: (Units=GPa)
#
#
# Indices 1 2 3 4 5 6 
#
# 1 84.3016 16.2969 37.9052 -0.5151 -18.3064 2.1121
# 2 16.2969 76.1975 39.2464 11.5447 -0.2540 9.5118
# 3 37.9052 39.2464 121.8080 10.0034 -8.4199 2.4686
# 4 -0.5151 11.5447 10.0034 37.9681 4.2589 -1.7919
# 5 -18.3064 -0.2540 -8.4199 4.2589 29.1386 -5.7114
# 6 2.1121 9.5118 2.4686 -1.7919 -5.7114 33.8666
#
#
#
# Elastic Compliance Matrix: (Units=1/GPa)
#
#
# Indices 1 2 3 4 5 6 
#
# 1 0.015838 -0.001648 -0.003870 0.000792 0.008959 0.001310
# 2 -0.001648 0.017146 -0.004773 -0.003915 -0.002678 -0.005024
# 3 -0.003870 -0.004773 0.011148 -0.001627 0.001158 0.000879
# 4 0.000792 -0.003915 -0.001627 0.028487 -0.003770 0.002040
# 5 0.008959 -0.002678 0.001158 -0.003770 0.042186 0.007024
# 6 0.001310 -0.005024 0.000879 0.002040 0.007024 0.032085
#
#
# Mechanical properties :
#
#
# Convention : Reuss Voigt Hill
#
# Bulk Modulus (GPa) = 42.46376 52.13380 47.29878
# Shear Modulus (GPa) = 28.51873 32.78524 30.65199
#
# Velocity S-wave (km/s) = 3.65379 3.91757 3.78798
# Velocity P-wave (km/s) = 6.13826 6.69836 6.42442
#
# Compressibility (1/GPa) = 0.02354949
#
# Stress axis : x y z
#
# Youngs Moduli (GPa) = 63.13795 58.32198 89.70359
#
# Poissons Ratio (x) = 0.09610 0.34716
# Poissons Ratio (y) = 0.10404 0.42820
# Poissons Ratio (z) = 0.24435 0.27840
#
# Static dielectric constant tensor:
#      x y z
#    x 3.790320 0.429890 -0.348140 
#    y 0.429890 3.976590 0.070590 
#    z -0.348140 0.070590 3.899720 
# 
# 
# High freq. dielectric constant tensor:
#      x y z
#    x 1.823100 0.012140 -0.021480 
#    y 0.012140 1.846780 0.006650 
#    z -0.021480 0.006650 1.839420 
# 
# From -- ./inp_files/34814.got.cif
#   From: 2010.06.25/outbox.cif.g09.slc.cpg/sg2_18_cif.got.tgz:34814.got - 2010.06.27 13:26:56.
