data_PCOD8011105
_publ_section_title
;
Structure prediction by ZEFSAII (Michael W. Deem and Ramdas Pophale) SiO2 
 PCOD8011105
Probable space group: P -1
;
_chemical_formula_sum "Si O2"
_cell_formula_units_Z 16
_cell_length_a 8.923263
_cell_length_b 7.865662
_cell_length_c 16.762490
_cell_angle_alpha 56.485047
_cell_angle_beta 131.382669
_cell_angle_gamma 106.914500
_cell_volume 730.809129
_symmetry_space_group_name_H-M "P -1"
_symmetry_group_IT_number 2
_symmetry_cell_setting 'triclinic'
loop_
_space_group_symop_operation_xyz
x,y,z
-x,-y,-z
loop_
_atom_site_type_symbol
_atom_site_label
_atom_site_fract_x
_atom_site_fract_y
_atom_site_fract_z
Si Si1 0.005703 0.130023 0.348159
Si Si2 0.351285 0.461365 0.645746
Si Si3 0.016318 0.285301 0.485428
Si Si4 0.747904 0.239060 0.894120
Si Si5 0.343255 0.550151 0.862525
Si Si6 0.873099 0.776616 0.059322
Si Si7 0.378740 0.195632 0.366423
Si Si8 0.306817 0.368897 0.131615
O O1 0.061965 0.185764 0.442594
O O2 0.783391 0.231065 0.220304
O O3 0.157919 0.223787 0.318547
O O4 0.012331 0.883453 0.411703
O O5 0.189794 0.558420 0.630476
O O6 0.508804 0.274438 0.782770
O O7 0.493957 0.618245 0.618348
O O8 0.214881 0.391564 0.545082
O O9 0.811967 0.414442 0.933262
O O10 0.885219 0.252884 0.859005
O O11 0.797074 0.006627 0.003831
O O12 0.192751 0.373233 0.855838
O O13 0.468840 0.566042 0.821735
O O14 0.500000 0.500000 0.000000
O O15 0.784158 0.726134 0.953670
O O16 0.339548 0.193206 0.257386
O O17 0.500000 0.000000 0.500000
#
# Coordination Sequence:
#
# PCOD8011105 Si02
#       8
#     2   2   2   2   2   2   2   2
#     4  11  22  39  65  92 122 168 215 259 313 386
#     4  10  21  41  61  93 128 162 205 271 316 375
#     4  10  23  39  65  90 125 166 211 262 324 371
#     4  10  21  38  67  90 132 164 208 264 314 378
#     4  10  22  38  64  95 123 163 214 259 314 378
#     4  10  22  41  63  96 125 170 213 256 317 379
#     4  11  22  39  63  92 124 165 213 257 318 381
#     4  10  22  40  65  88 130 166 210 264 313 374
#
# _framework density 21.893542
#
# number of rings (size 3 to 8) (size 9 to 14) (size 15 to 20)
#    0.000    1.750    1.250    3.375    5.250    2.000 
#    0.000    3.750   13.750    0.000    0.000    0.000 
#    0.000    0.000    0.000    0.000    0.000    0.000 
#
# Total GULP energy -198239.100220 kJ/mol
# GULP energy per Si atom -12389.943764 kJ/mol
# Density = 2.184371 g / cm^3
# Si number density = 21.893542 Si / 1000 Ang^3
#
#
#
# Elastic Constant Matrix: (Units=GPa)
#
#
# Indices 1 2 3 4 5 6 
#
# 1 119.6318 7.3597 12.8843 -20.2000 0.2265 13.4280
# 2 7.3597 65.0233 8.4170 -3.7233 2.5990 -2.1976
# 3 12.8843 8.4170 54.3014 -14.8303 6.1865 -9.5773
# 4 -20.2000 -3.7233 -14.8303 32.0595 -0.3085 6.3445
# 5 0.2265 2.5990 6.1865 -0.3085 43.1689 -6.4759
# 6 13.4280 -2.1976 -9.5773 6.3445 -6.4759 34.7005
#
#
#
# Elastic Compliance Matrix: (Units=1/GPa)
#
#
# Indices 1 2 3 4 5 6 
#
# 1 0.010390 -0.000768 -0.001405 0.006959 -0.000634 -0.005848
# 2 -0.000768 0.015786 -0.002017 0.000296 -0.000568 0.000580
# 3 -0.001405 -0.002017 0.022416 0.008307 -0.002327 0.004649
# 4 0.006959 0.000296 0.008307 0.041075 -0.002197 -0.008301
# 5 -0.000634 -0.000568 -0.002327 -0.002197 0.024193 0.004484
# 6 -0.005848 0.000580 0.004649 -0.008301 0.004484 0.034755
#
#
# Mechanical properties :
#
#
# Convention : Reuss Voigt Hill
#
# Bulk Modulus (GPa) = 24.86768 32.91982 28.89375
# Shear Modulus (GPa) = 29.34289 36.00550 32.67419
#
# Velocity S-wave (km/s) = 3.66492 4.05973 3.86737
# Velocity P-wave (km/s) = 5.41220 6.08639 5.75917
#
# Compressibility (1/GPa) = 0.04021284
#
# Stress axis : x y z
#
# Youngs Moduli (GPa) = 96.24573 63.34583 44.61181
#
# Poissons Ratio (x) = 0.04865 0.06267
# Poissons Ratio (y) = 0.07391 0.08997
# Poissons Ratio (z) = 0.13521 0.12775
#
# Static dielectric constant tensor:
#      x y z
#    x 4.478310 0.287080 0.096450 
#    y 0.287080 4.002140 -0.317890 
#    z 0.096450 -0.317890 4.058500 
# 
# 
# High freq. dielectric constant tensor:
#      x y z
#    x 1.872110 0.015250 0.019590 
#    y 0.015250 1.848470 -0.011160 
#    z 0.019590 -0.011160 1.858400 
# 
# From -- ./inp_files/556006.got.cif
#   From: 2010.06.25/outbox.cif.g09.slc.cpg/sg2_279_cif.got.tgz:556006.got - 2010.06.27 13:26:56.
