data_PCOD8011125
_publ_section_title
;
Structure prediction by ZEFSAII (Michael W. Deem and Ramdas Pophale) SiO2 
 PCOD8011125
Probable space group: P -1
;
_chemical_formula_sum "Si O2"
_cell_formula_units_Z 16
_cell_length_a 15.941739
_cell_length_b 8.938811
_cell_length_c 11.594716
_cell_angle_alpha 116.689443
_cell_angle_beta 149.004899
_cell_angle_gamma 59.354120
_cell_volume 731.737513
_symmetry_space_group_name_H-M "P -1"
_symmetry_group_IT_number 2
_symmetry_cell_setting 'triclinic'
loop_
_space_group_symop_operation_xyz
x,y,z
-x,-y,-z
loop_
_atom_site_type_symbol
_atom_site_label
_atom_site_fract_x
_atom_site_fract_y
_atom_site_fract_z
Si Si1 0.160906 0.070403 0.234742
Si Si2 0.240456 0.485939 0.836651
Si Si3 0.797912 0.743187 0.879928
Si Si4 0.165003 0.589689 0.333312
Si Si5 0.574798 0.234774 0.222742
Si Si6 0.594104 0.295811 0.015067
Si Si7 0.110018 0.402267 0.427036
Si Si8 0.482119 0.972531 0.716041
O O1 0.221511 0.130941 0.207855
O O2 0.093457 0.220967 0.299627
O O3 0.329575 0.943376 0.446244
O O4 0.000000 0.000000 0.000000
O O5 0.253241 0.680852 0.880239
O O6 0.235310 0.375136 0.675024
O O7 0.077367 0.490101 0.720695
O O8 0.399501 0.385231 0.064079
O O9 0.788300 0.552342 0.762937
O O10 0.652590 0.830852 0.829178
O O11 0.979461 0.720136 0.144933
O O12 0.298993 0.700681 0.522474
O O13 0.182428 0.503203 0.449741
O O14 0.653094 0.197299 0.172489
O O15 0.548511 0.064692 0.197641
O O16 0.500000 0.500000 0.000000
O O17 0.494459 0.173201 0.788401
#
# Coordination Sequence:
#
# PCOD8011125 Si02
#       8
#     2   2   2   2   2   2   2   2
#     4  11  24  40  60  88 129 165 205 258 318 363
#     4  10  21  38  67  96 120 164 215 250 313 383
#     4  10  24  41  62  91 125 169 214 258 310 371
#     4  10  21  42  65  89 131 167 206 262 318 368
#     4  11  22  39  66  94 126 165 208 259 319 371
#     4  10  22  40  65  93 124 168 206 254 320 373
#     4  10  21  39  64  91 125 165 208 258 307 379
#     4  12  25  41  65  94 132 162 213 263 307 378
#
# _framework density 21.865765
#
# number of rings (size 3 to 8) (size 9 to 14) (size 15 to 20)
#    0.000    1.500    1.250    3.750    7.000    1.500 
#    0.000    0.625    0.000    0.000    0.000    0.000 
#    0.000    0.000    0.000    0.000    0.000    0.000 
#
# Total GULP energy -198311.077063 kJ/mol
# GULP energy per Si atom -12394.442316 kJ/mol
# Density = 2.181600 g / cm^3
# Si number density = 21.865765 Si / 1000 Ang^3
#
#
#
# Elastic Constant Matrix: (Units=GPa)
#
#
# Indices 1 2 3 4 5 6 
#
# 1 62.6765 29.7671 17.6388 2.9985 -1.4289 3.9614
# 2 29.7671 77.9146 34.6547 1.2309 4.4383 5.5076
# 3 17.6388 34.6547 138.4718 3.8378 7.1116 1.0102
# 4 2.9985 1.2309 3.8378 41.0577 6.4458 3.8914
# 5 -1.4289 4.4383 7.1116 6.4458 26.7641 -2.2852
# 6 3.9614 5.5076 1.0102 3.8914 -2.2852 36.4964
#
#
#
# Elastic Compliance Matrix: (Units=1/GPa)
#
#
# Indices 1 2 3 4 5 6 
#
# 1 0.019830 -0.007309 -0.000793 -0.001528 0.002790 -0.000690
# 2 -0.007309 0.017375 -0.003285 0.000950 -0.002800 -0.002014
# 3 -0.000793 -0.003285 0.008234 -0.000396 -0.001565 0.000298
# 4 -0.001528 0.000950 -0.000396 0.025812 -0.006618 -0.003133
# 5 0.002790 -0.002800 -0.001565 -0.006618 0.040276 0.003390
# 6 -0.000690 -0.002014 0.000298 -0.003133 0.003390 0.028317
#
#
# Mechanical properties :
#
#
# Convention : Reuss Voigt Hill
#
# Bulk Modulus (GPa) = 44.12196 49.24269 46.68232
# Shear Modulus (GPa) = 29.38187 33.99713 31.68950
#
# Velocity S-wave (km/s) = 3.66968 3.94739 3.81106
# Velocity P-wave (km/s) = 6.17882 6.58370 6.38447
#
# Compressibility (1/GPa) = 0.02266445
#
# Stress axis : x y z
#
# Youngs Moduli (GPa) = 50.42912 57.55339 121.44813
#
# Poissons Ratio (x) = 0.42069 0.09626
# Poissons Ratio (y) = 0.36861 0.39898
# Poissons Ratio (z) = 0.03997 0.18907
#
# Static dielectric constant tensor:
#      x y z
#    x 4.170500 0.224800 0.098270 
#    y 0.224800 3.747300 0.102150 
#    z 0.098270 0.102150 4.114310 
# 
# 
# High freq. dielectric constant tensor:
#      x y z
#    x 1.862520 0.014120 0.002730 
#    y 0.014120 1.837590 0.002120 
#    z 0.002730 0.002120 1.875530 
# 
# From -- ./inp_files/461582.got.cif
#   From: 2010.06.25/outbox.cif.g09.slc.cpg/sg2_231_cif.got.tgz:461582.got - 2010.06.27 13:26:56.
