data_PCOD8011517
_publ_section_title
;
Structure prediction by ZEFSAII (Michael W. Deem and Ramdas Pophale) SiO2 
 PCOD8011517
Probable space group: P -1
;
_chemical_formula_sum "Si O2"
_cell_formula_units_Z 16
_cell_length_a 16.509145
_cell_length_b 18.230499
_cell_length_c 13.565681
_cell_angle_alpha 47.713565
_cell_angle_beta 152.542825
_cell_angle_gamma 151.702513
_cell_volume 774.761942
_symmetry_space_group_name_H-M "P -1"
_symmetry_group_IT_number 2
_symmetry_cell_setting 'triclinic'
loop_
_space_group_symop_operation_xyz
x,y,z
-x,-y,-z
loop_
_atom_site_type_symbol
_atom_site_label
_atom_site_fract_x
_atom_site_fract_y
_atom_site_fract_z
Si Si1 0.431661 0.818727 0.907909
Si Si2 0.069784 0.531238 0.432254
Si Si3 0.866926 0.022923 0.702232
Si Si4 0.501159 0.888317 0.132198
Si Si5 0.739006 0.763210 0.882570
Si Si6 0.702674 0.158911 0.843714
Si Si7 0.847427 0.835225 0.322105
Si Si8 0.755993 0.570414 0.957881
O O1 0.122028 0.645934 0.668699
O O2 0.530150 0.975857 0.848079
O O3 0.361694 0.765388 0.997644
O O4 0.722214 0.887175 0.128249
O O5 0.433195 0.674289 0.678072
O O6 0.000000 0.500000 0.500000
O O7 0.965704 0.590001 0.226883
O O8 0.044637 0.147677 0.685242
O O9 0.895698 0.916749 0.838861
O O10 0.499258 0.880269 0.423466
O O11 0.017821 0.146836 0.848037
O O12 0.294412 0.774697 0.111407
O O13 0.864284 0.027509 0.414780
O O14 0.500000 0.000000 0.000000
O O15 0.676286 0.630984 0.879542
O O16 0.055464 0.311171 0.045180
O O17 0.576613 0.633028 0.250014
#
# Coordination Sequence:
#
# PCOD8011517 Si02
#       8
#     2   2   2   2   2   2   2   2
#     4  10  21  39  65  88 124 168 206 251 315 368
#     4  11  25  41  60  96 131 159 209 256 308 371
#     4  10  22  40  60  89 124 168 209 254 304 382
#     4   9  20  38  65  88 120 164 207 253 311 372
#     4  11  23  39  63  88 128 166 211 253 313 360
#     4  10  21  41  62  92 124 162 210 258 309 366
#     4  10  21  39  62  89 124 157 211 254 312 372
#     4  11  24  39  63  94 125 162 207 260 308 367
#
# _framework density 20.651503999999999
#
# number of rings (size 3 to 8) (size 9 to 14) (size 15 to 20)
#    0.000    1.750    1.250    2.625    7.000    2.500 
#    0.000    5.000    2.750    0.000    0.000    0.000 
#    0.000    0.000    0.000    0.000    0.000    0.000 
#
# Total GULP energy -198344.592732 kJ/mol
# GULP energy per Si atom -12396.537046 kJ/mol
# Density = 2.060450 g / cm^3
# Si number density = 20.651504 Si / 1000 Ang^3
#
#
#
# Elastic Constant Matrix: (Units=GPa)
#
#
# Indices 1 2 3 4 5 6 
#
# 1 114.7869 41.0562 35.7178 17.3382 -10.0241 4.7415
# 2 41.0562 73.0287 14.3187 2.6502 -7.8642 5.0039
# 3 35.7178 14.3187 65.1288 3.6611 -11.1801 7.3342
# 4 17.3382 2.6502 3.6611 22.9387 -3.9210 5.9881
# 5 -10.0241 -7.8642 -11.1801 -3.9210 40.0570 0.6371
# 6 4.7415 5.0039 7.3342 5.9881 0.6371 30.5956
#
#
#
# Elastic Compliance Matrix: (Units=1/GPa)
#
#
# Indices 1 2 3 4 5 6 
#
# 1 0.014389 -0.006723 -0.006196 -0.009781 -0.000442 0.002278
# 2 -0.006723 0.017710 0.000273 0.004112 0.002317 -0.002773
# 3 -0.006196 0.000273 0.019776 0.003452 0.004434 -0.004593
# 4 -0.009781 0.004112 0.003452 0.053526 0.004731 -0.010559
# 5 -0.000442 0.002317 0.004434 0.004731 0.027055 -0.002863
# 6 0.002278 -0.002773 -0.004593 -0.010559 -0.002863 0.036012
#
#
# Mechanical properties :
#
#
# Convention : Reuss Voigt Hill
#
# Bulk Modulus (GPa) = 37.61915 48.34776 42.98345
# Shear Modulus (GPa) = 24.67647 29.50840 27.09243
#
# Velocity S-wave (km/s) = 3.46048 3.78415 3.62593
# Velocity P-wave (km/s) = 5.84998 6.52343 6.19586
#
# Compressibility (1/GPa) = 0.02658221
#
# Stress axis : x y z
#
# Youngs Moduli (GPa) = 69.49695 56.46537 50.56533
#
# Poissons Ratio (x) = 0.37964 0.31329
# Poissons Ratio (y) = 0.46726 -0.01378
# Poissons Ratio (z) = 0.43059 -0.01539
#
# Static dielectric constant tensor:
#      x y z
#    x 4.064470 0.109280 0.030920 
#    y 0.109280 3.531170 -0.096090 
#    z 0.030920 -0.096090 3.856420 
# 
# 
# High freq. dielectric constant tensor:
#      x y z
#    x 1.814370 0.005070 0.003850 
#    y 0.005070 1.794350 -0.006950 
#    z 0.003850 -0.006950 1.814450 
# 
# From -- ./inp_files/201111.got.cif
#   From: 2010.06.25/outbox.cif.g09.slc.cpg/sg2_101_cif.got.tgz:201111.got - 2010.06.27 13:26:56.
