data_PCOD8011529
_publ_section_title
;
Structure prediction by ZEFSAII (Michael W. Deem and Ramdas Pophale) SiO2 
 PCOD8011529
Probable space group: P -1
;
_chemical_formula_sum "Si O2"
_cell_formula_units_Z 16
_cell_length_a 8.545362
_cell_length_b 26.572502
_cell_length_c 26.900925
_cell_angle_alpha 169.272565
_cell_angle_beta 42.000196
_cell_angle_gamma 137.338415
_cell_volume 760.142039
_symmetry_space_group_name_H-M "P -1"
_symmetry_group_IT_number 2
_symmetry_cell_setting 'triclinic'
loop_
_space_group_symop_operation_xyz
x,y,z
-x,-y,-z
loop_
_atom_site_type_symbol
_atom_site_label
_atom_site_fract_x
_atom_site_fract_y
_atom_site_fract_z
Si Si1 0.150969 0.428622 0.608365
Si Si2 0.625521 0.027240 0.944443
Si Si3 0.256594 0.056803 0.975082
Si Si4 0.577488 0.894184 0.580868
Si Si5 0.379405 0.435761 0.117873
Si Si6 0.927024 0.936522 0.399880
Si Si7 0.374645 0.578065 0.055641
Si Si8 0.472014 0.615822 0.438352
O O1 0.294813 0.391331 0.589499
O O2 0.880960 0.456296 0.712295
O O3 0.189604 0.192910 0.330091
O O4 0.233717 0.691388 0.814036
O O5 0.419278 0.020891 0.948274
O O6 0.500000 0.000000 0.000000
O O7 0.317273 0.338063 0.206122
O O8 0.293257 0.830899 0.706952
O O9 0.000000 0.000000 0.000000
O O10 0.547559 0.686211 0.339968
O O11 0.533134 0.701863 0.451865
O O12 0.841665 0.014477 0.640353
O O13 0.412178 0.153388 0.866025
O O14 0.439692 0.380950 0.993002
O O15 0.726204 0.137312 0.628631
O O16 0.834114 0.630991 0.114799
O O17 0.000000 0.000000 0.500000
O O18 0.500000 0.500000 0.000000
#
# Coordination Sequence:
#
# PCOD8011529 Si02
#       8
#     2   2   2   2   2   2   2   2
#     4  10  23  41  61  89 129 164 202 264 314 378
#     4  10  21  39  62  90 121 162 207 249 318 378
#     4  10  21  39  63  90 124 157 206 262 306 376
#     4  12  25  41  68  94 129 173 216 268 327 387
#     4  12  24  43  63  96 131 166 220 270 320 386
#     4  12  23  46  68  94 134 173 220 276 329 382
#     4  12  26  44  67 100 130 172 228 272 327 391
#     4  10  23  42  60  93 125 165 208 252 326 380
#
# _framework density 21.048697000000001
#
# number of rings (size 3 to 8) (size 9 to 14) (size 15 to 20)
#    0.000    1.000    2.500    3.750    1.750    3.000 
#    4.500    0.000    0.000    0.000    0.000    0.000 
#    0.000    0.000    0.000    0.000    0.000    0.000 
#
# Total GULP energy -198353.593300 kJ/mol
# GULP energy per Si atom -12397.099581 kJ/mol
# Density = 2.100079 g / cm^3
# Si number density = 21.048697 Si / 1000 Ang^3
#
#
#
# Elastic Constant Matrix: (Units=GPa)
#
#
# Indices 1 2 3 4 5 6 
#
# 1 -27.9320 322.5484 361.2396 239.4109 235.8586 108.2940
# 2 322.5484 -679.4928 -970.2534 -732.9765 -762.4477 -340.6934
# 3 361.2396 -970.2534-1102.2795 -884.5413 -922.4855 -419.5414
# 4 239.4109 -732.9765 -884.5413 -601.1214 -644.6525 -305.7761
# 5 235.8586 -762.4477 -922.4855 -644.6525 -629.3889 -310.5027
# 6 108.2940 -340.6934 -419.5414 -305.7761 -310.5027 -105.1631
#
#
#
# Elastic Compliance Matrix: (Units=1/GPa)
#
#
# Indices 1 2 3 4 5 6 
#
# 1 0.020228 -0.004380 -0.000357 0.003408 0.006947 0.006026
# 2 -0.004380 0.007632 -0.003155 -0.002423 -0.002095 -0.003415
# 3 -0.000357 -0.003155 0.007232 -0.004423 -0.001416 -0.001957
# 4 0.003408 -0.002423 -0.004423 0.023579 -0.013268 -0.000382
# 5 0.006947 -0.002095 -0.001416 -0.013268 0.020760 -0.003125
# 6 0.006026 -0.003415 -0.001957 -0.000382 -0.003125 0.025904
#
#
# Mechanical properties :
#
#
# Convention : Reuss Voigt Hill
#
# Bulk Modulus (GPa) = 51.79693 -264.73723 -106.47015
# Shear Modulus (GPa) = 39.19909 -368.68395 -164.74243
#
# Velocity S-wave (km/s) = 4.32012 -13.24907 -8.85648
# Velocity P-wave (km/s) = 7.03891 18.97623 12.46096
#
# Compressibility (1/GPa) = 0.01930616
#
# Stress axis : x y z
#
# Youngs Moduli (GPa) = 49.43760 131.03581 138.27578
#
# Poissons Ratio (x) = 0.57395 0.04941
# Poissons Ratio (y) = 0.21654 0.43626
# Poissons Ratio (z) = 0.01766 0.41342
#
# Static dielectric constant tensor:
#      x y z
#    x 3.715850 -0.004810 -0.050310 
#    y -0.004810 3.693900 0.054620 
#    z -0.050310 0.054620 4.061940 
# 
# 
# High freq. dielectric constant tensor:
#      x y z
#    x 1.819540 0.001160 -0.003640 
#    y 0.001160 1.834180 0.001770 
#    z -0.003640 0.001770 1.848030 
# 
# From -- ./inp_files/223338.got.cif
#   From: 2010.06.25/outbox.cif.g09.slc.cpg/sg2_112_cif.got.tgz:223338.got - 2010.06.27 13:26:56.
