data_PCOD8011611
_publ_section_title
;
Structure prediction by ZEFSAII (Michael W. Deem and Ramdas Pophale) SiO2 
 PCOD8011611
Probable space group: P -1
;
_chemical_formula_sum "Si O2"
_cell_formula_units_Z 10
_cell_length_a 5.259339
_cell_length_b 6.550173
_cell_length_c 14.807794
_cell_angle_alpha 111.454965
_cell_angle_beta 76.206007
_cell_angle_gamma 74.077945
_cell_volume 422.588535
_symmetry_space_group_name_H-M "P -1"
_symmetry_group_IT_number 2
_symmetry_cell_setting 'triclinic'
loop_
_space_group_symop_operation_xyz
x,y,z
-x,-y,-z
loop_
_atom_site_type_symbol
_atom_site_label
_atom_site_fract_x
_atom_site_fract_y
_atom_site_fract_z
Si Si1 0.669170 0.602303 0.568196
Si Si2 0.684120 0.863178 0.284688
Si Si3 0.479022 0.717970 0.971339
Si Si4 0.283898 0.581923 0.266607
Si Si5 0.898605 0.785931 0.059392
O O1 0.500000 0.500000 0.500000
O O2 0.636925 0.537220 0.662525
O O3 0.000000 0.500000 0.500000
O O4 0.524755 0.886838 0.614923
O O5 0.486688 0.721976 0.257133
O O6 0.827709 0.889694 0.182944
O O7 0.943426 0.742235 0.314317
O O8 0.639042 0.622941 0.848346
O O9 0.383107 0.111179 0.964165
O O10 0.500000 0.500000 0.000000
O O11 0.140325 0.866348 0.011155
O O12 0.000000 0.500000 0.000000
#
# Coordination Sequence:
#
# PCOD8011611 Si02
#       5
#     2   2   2   2   2
#     4  12  30  50  64  98 136 166 240 294 308 390
#     4  12  23  42  74  97 131 182 218 264 346 392
#     4  10  16  32  61  96 134 164 200 264 313 397
#     4  12  23  42  74  97 131 182 218 264 346 392
#     4  10  16  32  61  96 134 164 200 264 313 397
#
# _framework density 23.663682000000001
#
# number of rings (size 3 to 8) (size 9 to 14) (size 15 to 20)
#    0.000    0.800    8.000    2.400    0.000    4.800 
#    0.000    2.000    0.000    0.000    0.000    0.000 
#    0.000    0.000    0.000    0.000    0.000    0.000 
#
# Total GULP energy -124013.293725 kJ/mol
# GULP energy per Si atom -12401.329373 kJ/mol
# Density = 2.360982 g / cm^3
# Si number density = 23.663682 Si / 1000 Ang^3
#
#
#
# Elastic Constant Matrix: (Units=GPa)
#
#
# Indices 1 2 3 4 5 6 
#
# 1 208.0667 31.1412 14.5026 0.6243 3.5005 7.8411
# 2 31.1412 54.7125 24.3655 -1.5093 5.5008 -15.9213
# 3 14.5026 24.3655 85.0748 -13.8064 8.6684 17.1889
# 4 0.6243 -1.5093 -13.8064 32.4694 -7.9326 12.2020
# 5 3.5005 5.5008 8.6684 -7.9326 45.6566 -9.5029
# 6 7.8411 -15.9213 17.1889 12.2020 -9.5029 31.4715
#
#
#
# Elastic Compliance Matrix: (Units=1/GPa)
#
#
# Indices 1 2 3 4 5 6 
#
# 1 0.006129 -0.008156 0.004351 0.004865 -0.001634 -0.010409
# 2 -0.008156 0.053877 -0.032670 -0.032718 0.007579 0.062106
# 3 0.004351 -0.032670 0.037169 0.031934 -0.008936 -0.052992
# 4 0.004865 -0.032718 0.031934 0.064925 -0.004034 -0.061596
# 5 -0.001634 0.007579 -0.008936 -0.004034 0.025967 0.018527
# 6 -0.010409 0.062106 -0.052992 -0.061596 0.018527 0.124206
#
#
# Mechanical properties :
#
#
# Convention : Reuss Voigt Hill
#
# Bulk Modulus (GPa) = 41.28313 54.20804 47.74559
# Shear Modulus (GPa) = 12.71297 40.44249 26.57773
#
# Velocity S-wave (km/s) = 2.32035 4.13855 3.35497
# Velocity P-wave (km/s) = 4.96612 6.76715 5.93534
#
# Compressibility (1/GPa) = 0.02422297
#
# Stress axis : x y z
#
# Youngs Moduli (GPa) = 163.16246 18.56068 26.90411
#
# Poissons Ratio (x) = 0.15139 -0.11705
# Poissons Ratio (y) = 1.33082 0.87896
# Poissons Ratio (z) = -0.70984 0.60638
#
# Static dielectric constant tensor:
#      x y z
#    x 3.649180 -0.203350 0.030670 
#    y -0.203350 4.279600 -0.055130 
#    z 0.030670 -0.055130 4.218220 
# 
# 
# High freq. dielectric constant tensor:
#      x y z
#    x 1.976660 -0.012840 -0.000830 
#    y -0.012840 1.949410 -0.004140 
#    z -0.000830 -0.004140 1.931600 
# 
# From -- ./inp_files/3913.got.cif
#   From: 2010.06.25/outbox.cif.g09.slc.cpg/sg2_2_cif.got.tgz:3913.got - 2010.06.27 13:26:56.
