data_PCOD8011735
_publ_section_title
;
Structure prediction by ZEFSAII (Michael W. Deem and Ramdas Pophale) SiO2 
 PCOD8011735
Probable space group: P -1
;
_chemical_formula_sum "Si O2"
_cell_formula_units_Z 16
_cell_length_a 16.233183
_cell_length_b 12.041867
_cell_length_c 15.887925
_cell_angle_alpha 26.764836
_cell_angle_beta 37.001845
_cell_angle_gamma 54.328946
_cell_volume 738.717667
_symmetry_space_group_name_H-M "P -1"
_symmetry_group_IT_number 2
_symmetry_cell_setting 'triclinic'
loop_
_space_group_symop_operation_xyz
x,y,z
-x,-y,-z
loop_
_atom_site_type_symbol
_atom_site_label
_atom_site_fract_x
_atom_site_fract_y
_atom_site_fract_z
Si Si1 0.286415 0.642893 0.690553
Si Si2 0.684119 0.363240 0.789543
Si Si3 0.126825 0.322986 0.420649
Si Si4 0.118037 0.285734 0.907739
Si Si5 0.408644 0.248912 0.681913
Si Si6 0.115602 0.613871 0.532879
Si Si7 0.829375 0.867305 0.763305
Si Si8 0.351340 0.229589 0.190258
O O1 0.208725 0.512047 0.752726
O O2 0.461330 0.690338 0.536022
O O3 0.296585 0.945826 0.481610
O O4 0.188229 0.427770 0.988828
O O5 0.816943 0.509340 0.652124
O O6 0.764162 0.461528 0.565376
O O7 0.538804 0.415654 0.897645
O O8 0.623589 0.034531 0.053847
O O9 0.277646 0.391558 0.193000
O O10 0.030205 0.449128 0.365353
O O11 0.023215 0.991310 0.749477
O O12 0.245804 0.219885 0.802272
O O13 0.056010 0.418526 0.796828
O O14 0.500000 0.500000 0.500000
O O15 0.190977 0.943278 0.275476
O O16 0.710872 0.835286 0.809198
O O17 0.000000 0.000000 0.500000
#
# Coordination Sequence:
#
# PCOD8011735 Si02
#       8
#     2   2   2   2   2   2   2   2
#     4  10  21  39  63  96 135 165 210 278 330 381
#     4  11  25  46  66  94 134 181 218 268 325 392
#     4  12  25  46  64  93 139 175 222 269 322 396
#     4  11  22  38  66  98 128 171 216 267 335 382
#     4   9  19  40  63  94 128 164 210 269 331 375
#     4  12  24  40  68  98 131 171 221 271 323 392
#     4  12  23  40  67 103 135 165 220 276 332 386
#     4  11  25  42  70  96 130 177 220 271 331 387
#
# _framework density 21.659154999999998
#
# number of rings (size 3 to 8) (size 9 to 14) (size 15 to 20)
#    0.000    1.000    5.000    1.500    3.500    2.000 
#    0.000    0.000    0.000    3.750    0.000    0.000 
#    0.000    0.000    0.000    0.000    0.000    0.000 
#
# Total GULP energy -198247.077323 kJ/mol
# GULP energy per Si atom -12390.442333 kJ/mol
# Density = 2.160986 g / cm^3
# Si number density = 21.659155 Si / 1000 Ang^3
#
#
#
# Elastic Constant Matrix: (Units=GPa)
#
#
# Indices 1 2 3 4 5 6 
#
# 1 83.4009 14.2910 26.3136 15.1162 -1.3768 -12.7139
# 2 14.2910 78.1385 23.4118 26.8252 -5.9465 1.1709
# 3 26.3136 23.4118 65.6675 22.5878 4.7163 -12.4188
# 4 15.1162 26.8252 22.5878 29.8873 2.0245 -2.3628
# 5 -1.3768 -5.9465 4.7163 2.0245 34.2574 -5.4850
# 6 -12.7139 1.1709 -12.4188 -2.3628 -5.4850 25.6663
#
#
#
# Elastic Compliance Matrix: (Units=1/GPa)
#
#
# Indices 1 2 3 4 5 6 
#
# 1 0.014819 -0.000025 -0.003430 -0.004579 0.002253 0.005742
# 2 -0.000025 0.019374 -0.002066 -0.016298 0.004210 -0.002497
# 3 -0.003430 -0.002066 0.023675 -0.013541 -0.001634 0.008255
# 4 -0.004579 -0.016298 -0.013541 0.060710 -0.005317 -0.003624
# 5 0.002253 0.004210 -0.001634 -0.005317 0.031575 0.006392
# 6 0.005742 -0.002497 0.008255 -0.003624 0.006392 0.046946
#
#
# Mechanical properties :
#
#
# Convention : Reuss Voigt Hill
#
# Bulk Modulus (GPa) = 21.35529 39.47107 30.41318
# Shear Modulus (GPa) = 22.34623 28.84156 25.59390
#
# Velocity S-wave (km/s) = 3.21553 3.65308 3.44127
# Velocity P-wave (km/s) = 4.86490 6.00472 5.46461
#
# Compressibility (1/GPa) = 0.04682681
#
# Stress axis : x y z
#
# Youngs Moduli (GPa) = 67.47947 51.61502 42.23808
#
# Poissons Ratio (x) = 0.00130 0.14488
# Poissons Ratio (y) = 0.00170 0.08725
# Poissons Ratio (z) = 0.23146 0.10662
#
# Static dielectric constant tensor:
#      x y z
#    x 3.245760 0.671610 -0.114520 
#    y 0.671610 2.089970 0.386260 
#    z -0.114520 0.386260 4.020560 
# 
# 
# High freq. dielectric constant tensor:
#      x y z
#    x 1.841930 -0.011220 -0.004130 
#    y -0.011220 1.848830 0.016310 
#    z -0.004130 0.016310 1.848350 
# 
# From -- ./inp_files/427805.got.cif
#   From: 2010.06.25/outbox.cif.g09.slc.cpg/sg2_214_cif.got.tgz:427805.got - 2010.06.27 13:26:56.
