data_PCOD8011099
_publ_section_title
;
Structure prediction by ZEFSAII (Michael W. Deem and Ramdas Pophale) SiO2 
 PCOD8011099
Probable space group: P -1
;
_chemical_formula_sum "Si O2"
_cell_formula_units_Z 16
_cell_length_a 13.568651
_cell_length_b 11.320590
_cell_length_c 8.457928
_cell_angle_alpha 61.200525
_cell_angle_beta 80.456344
_cell_angle_gamma 40.750518
_cell_volume 696.672542
_symmetry_space_group_name_H-M "P -1"
_symmetry_group_IT_number 2
_symmetry_cell_setting 'triclinic'
loop_
_space_group_symop_operation_xyz
x,y,z
-x,-y,-z
loop_
_atom_site_type_symbol
_atom_site_label
_atom_site_fract_x
_atom_site_fract_y
_atom_site_fract_z
Si Si1 0.830689 0.251138 0.388485
Si Si2 0.474021 0.582463 0.716282
Si Si3 0.247676 0.220894 0.669984
Si Si4 0.065791 0.402403 0.283937
Si Si5 0.051895 0.657406 0.907571
Si Si6 0.723116 0.511889 0.549990
Si Si7 0.359232 0.827946 0.906631
Si Si8 0.021888 0.133728 0.906202
O O1 0.696026 0.278104 0.401699
O O2 0.822642 0.343294 0.490686
O O3 0.814225 0.375005 0.166425
O O4 0.000000 0.000000 0.500000
O O5 0.566876 0.586778 0.574882
O O6 0.452791 0.683884 0.819392
O O7 0.576455 0.335435 0.864547
O O8 0.101623 0.370805 0.737930
O O9 0.332550 0.277292 0.612292
O O10 0.192135 0.241661 0.492905
O O11 0.381384 0.965396 0.844797
O O12 0.044186 0.289748 0.257794
O O13 0.130029 0.447788 0.113924
O O14 0.935888 0.858452 0.933177
O O15 0.853108 0.383210 0.740819
O O16 0.165367 0.016239 0.822718
O O17 0.000000 0.000000 0.000000
#
# Coordination Sequence:
#
# PCOD8011099 Si02
#       8
#     2   2   2   2   2   2   2   2
#     4  12  27  44  72 101 135 179 236 289 346 416
#     4  11  27  46  66  99 143 181 232 290 349 417
#     4  11  21  42  70  99 139 185 230 286 345 409
#     4  10  21  38  67 104 141 171 228 293 336 402
#     4  11  22  38  66 106 138 173 229 291 339 397
#     4  12  24  45  69 103 143 183 230 288 343 410
#     4  11  24  43  70  99 138 183 234 282 349 410
#     4  12  21  40  71 102 134 186 230 274 341 411
#
# _framework density 22.966313
#
# number of rings (size 3 to 8) (size 9 to 14) (size 15 to 20)
#    0.000    0.750    5.000    3.375    3.500    0.500 
#    0.000    0.625    0.000    0.000    0.000    0.000 
#    0.000    0.000    0.000    0.000    0.000    0.000 
#
# Total GULP energy -198360.448717 kJ/mol
# GULP energy per Si atom -12397.528045 kJ/mol
# Density = 2.291404 g / cm^3
# Si number density = 22.966313 Si / 1000 Ang^3
#
#
#
# Elastic Constant Matrix: (Units=GPa)
#
#
# Indices 1 2 3 4 5 6 
#
# 1 129.0299 58.4369 60.1975 -8.8556 -28.2882 0.4528
# 2 58.4369 114.7307 44.8162 -1.7671 -13.7780 17.5920
# 3 60.1975 44.8162 72.3238 5.2102 -23.9065 -1.5285
# 4 -8.8556 -1.7671 5.2102 42.7040 5.4684 -3.2472
# 5 -28.2882 -13.7780 -23.9065 5.4684 44.0899 3.5000
# 6 0.4528 17.5920 -1.5285 -3.2472 3.5000 44.9512
#
#
#
# Elastic Compliance Matrix: (Units=1/GPa)
#
#
# Indices 1 2 3 4 5 6 
#
# 1 0.014504 -0.003554 -0.009244 0.003726 0.002642 0.000994
# 2 -0.003554 0.013533 -0.005826 0.000229 -0.000812 -0.005379
# 3 -0.009244 -0.005826 0.028379 -0.006510 0.008267 0.002224
# 4 0.003726 0.000229 -0.006510 0.025698 -0.004402 0.001851
# 5 0.002642 -0.000812 0.008267 -0.004402 0.029312 -0.002028
# 6 0.000994 -0.005379 0.002224 0.001851 -0.002028 0.024709
#
#
# Mechanical properties :
#
#
# Convention : Reuss Voigt Hill
#
# Bulk Modulus (GPa) = 52.16949 71.44287 61.80618
# Shear Modulus (GPa) = 27.81304 36.52459 32.16881
#
# Velocity S-wave (km/s) = 3.48377 3.99225 3.74665
# Velocity P-wave (km/s) = 6.24077 7.24058 6.75918
#
# Compressibility (1/GPa) = 0.01916829
#
# Stress axis : x y z
#
# Youngs Moduli (GPa) = 68.94730 73.89380 35.23690
#
# Poissons Ratio (x) = 0.26265 0.32572
# Poissons Ratio (y) = 0.24507 0.20529
# Poissons Ratio (z) = 0.63732 0.43050
#
# Static dielectric constant tensor:
#      x y z
#    x 4.279610 0.239900 -0.426010 
#    y 0.239900 4.142450 0.163610 
#    z -0.426010 0.163610 4.272420 
# 
# 
# High freq. dielectric constant tensor:
#      x y z
#    x 1.907240 0.025200 -0.033700 
#    y 0.025200 1.903410 0.017780 
#    z -0.033700 0.017780 1.897580 
# 
# From -- ./inp_files/306746.got.cif
#   From: 2010.06.25/outbox.cif.g09.slc.cpg/sg2_154_cif.got.tgz:306746.got - 2010.06.27 13:26:56.
