data_PCOD8011538
_publ_section_title
;
Structure prediction by ZEFSAII (Michael W. Deem and Ramdas Pophale) SiO2 
 PCOD8011538
Probable space group: P -1
;
_chemical_formula_sum "Si O2"
_cell_formula_units_Z 16
_cell_length_a 17.783690
_cell_length_b 27.269266
_cell_length_c 14.681064
_cell_angle_alpha 18.889736
_cell_angle_beta 149.955058
_cell_angle_gamma 160.770805
_cell_volume 733.017693
_symmetry_space_group_name_H-M "P -1"
_symmetry_group_IT_number 2
_symmetry_cell_setting 'triclinic'
loop_
_space_group_symop_operation_xyz
x,y,z
-x,-y,-z
loop_
_atom_site_type_symbol
_atom_site_label
_atom_site_fract_x
_atom_site_fract_y
_atom_site_fract_z
Si Si1 0.743126 0.716641 0.321491
Si Si2 0.297107 0.427968 0.860037
Si Si3 0.809232 0.323402 0.686770
Si Si4 0.646184 0.512477 0.389413
Si Si5 0.012157 0.490832 0.258550
Si Si6 0.336568 0.032913 0.147409
Si Si7 0.239553 0.999136 0.899982
Si Si8 0.868027 0.521103 0.881797
O O1 0.500000 0.500000 0.500000
O O2 0.711849 0.681006 0.242116
O O3 0.918396 0.724638 0.531651
O O4 0.831408 0.955644 0.016945
O O5 0.354855 0.653897 0.522371
O O6 0.290867 0.368306 0.852809
O O7 0.500000 0.500000 0.000000
O O8 0.043787 0.197635 0.046095
O O9 0.936827 0.396032 0.789157
O O10 0.000000 0.500000 0.500000
O O11 0.678638 0.066429 0.972663
O O12 0.777001 0.455199 0.646457
O O13 0.364995 0.253688 0.554686
O O14 0.771127 0.204977 0.508952
O O15 0.975071 0.599813 0.957723
O O16 0.593810 0.262848 0.052964
O O17 0.340754 0.024769 0.057616
O O18 0.000000 0.500000 0.000000
#
# Coordination Sequence:
#
# PCOD8011538 Si02
#       8
#     2   2   2   2   2   2   2   2
#     4  10  21  39  62  90 128 170 206 250 324 374
#     4  10  23  42  61  95 127 156 213 265 302 378
#     4   9  19  40  67  84 124 164 202 257 317 364
#     4  11  21  41  69  84 128 171 202 254 322 371
#     4  11  21  39  65  95 124 163 216 257 309 377
#     4  11  21  40  64  89 128 170 203 257 318 372
#     4  11  20  42  69  87 121 169 212 249 319 372
#     4  11  21  39  61  94 128 159 215 264 297 378
#
# _framework density 21.827579
#
# number of rings (size 3 to 8) (size 9 to 14) (size 15 to 20)
#    0.000    1.500    7.500    0.375    0.000    3.000 
#    9.000    3.750    0.000    0.000    0.000    0.000 
#    0.000    0.000    0.000    0.000    0.000    0.000 
#
# Total GULP energy -198327.296136 kJ/mol
# GULP energy per Si atom -12395.456008 kJ/mol
# Density = 2.177790 g / cm^3
# Si number density = 21.827579 Si / 1000 Ang^3
#
#
#
# Elastic Constant Matrix: (Units=GPa)
#
#
# Indices 1 2 3 4 5 6 
#
# 1 129.4665 36.1487 32.4399 15.4935 9.7602 -34.0826
# 2 36.1487 97.0716 25.1652 26.1170 -0.0102 -18.5016
# 3 32.4399 25.1652 67.0271 15.6103 7.5936 -19.9484
# 4 15.4935 26.1170 15.6103 37.6584 -1.2421 -5.6335
# 5 9.7602 -0.0102 7.5936 -1.2421 25.5226 -7.5820
# 6 -34.0826 -18.5016 -19.9484 -5.6335 -7.5820 43.7061
#
#
#
# Elastic Compliance Matrix: (Units=1/GPa)
#
#
# Indices 1 2 3 4 5 6 
#
# 1 0.010681 -0.001906 -0.002141 -0.001332 -0.001708 0.006077
# 2 -0.001906 0.014151 -0.001917 -0.007735 0.001803 0.002945
# 3 -0.002141 -0.001917 0.019927 -0.005389 -0.003811 0.005258
# 4 -0.001332 -0.007735 -0.005389 0.034547 0.003270 -0.001753
# 5 -0.001708 0.001803 -0.003811 0.003270 0.042772 0.005534
# 6 0.006077 0.002945 0.005258 -0.001753 0.005534 0.032000
#
#
# Mechanical properties :
#
#
# Convention : Reuss Voigt Hill
#
# Bulk Modulus (GPa) = 30.45941 53.45254 41.95597
# Shear Modulus (GPa) = 28.25685 34.69818 31.47752
#
# Velocity S-wave (km/s) = 3.60189 3.99137 3.80162
# Velocity P-wave (km/s) = 5.59312 6.76632 6.20749
#
# Compressibility (1/GPa) = 0.03283057
#
# Stress axis : x y z
#
# Youngs Moduli (GPa) = 93.62788 70.66631 50.18280
#
# Poissons Ratio (x) = 0.13467 0.10746
# Poissons Ratio (y) = 0.17843 0.09619
# Poissons Ratio (z) = 0.20050 0.13546
#
# Static dielectric constant tensor:
#      x y z
#    x 4.164350 0.340460 0.680130 
#    y 0.340460 3.385590 -0.516630 
#    z 0.680130 -0.516630 4.091530 
# 
# 
# High freq. dielectric constant tensor:
#      x y z
#    x 1.877590 -0.005740 -0.004190 
#    y -0.005740 1.840940 -0.008170 
#    z -0.004190 -0.008170 1.837330 
# 
# From -- ./inp_files/333378.got.cif
#   From: 2010.06.25/outbox.cif.g09.slc.cpg/sg2_167_cif.got.tgz:333378.got - 2010.06.27 13:26:56.
