data_PCOD8011706
_publ_section_title
;
Structure prediction by ZEFSAII (Michael W. Deem and Ramdas Pophale) SiO2 
 PCOD8011706
Probable space group: P -1
;
_chemical_formula_sum "Si O2"
_cell_formula_units_Z 16
_cell_length_a 8.705860
_cell_length_b 13.225142
_cell_length_c 17.291396
_cell_angle_alpha 154.223364
_cell_angle_beta 104.915773
_cell_angle_gamma 70.334104
_cell_volume 810.175821
_symmetry_space_group_name_H-M "P -1"
_symmetry_group_IT_number 2
_symmetry_cell_setting 'triclinic'
loop_
_space_group_symop_operation_xyz
x,y,z
-x,-y,-z
loop_
_atom_site_type_symbol
_atom_site_label
_atom_site_fract_x
_atom_site_fract_y
_atom_site_fract_z
Si Si1 0.334415 0.534707 0.549661
Si Si2 0.334414 0.920432 0.935387
Si Si3 0.698178 0.294477 0.057394
Si Si4 0.698185 0.916765 0.679685
Si Si5 0.868040 0.185809 0.561935
Si Si6 0.050055 0.360913 0.161467
Si Si7 0.494930 0.814095 0.438030
Si Si8 0.050058 0.737431 0.537984
O O1 0.500000 0.500000 0.500000
O O2 0.353039 0.664465 0.721489
O O3 0.299129 0.281698 0.391038
O O4 0.186260 0.696727 0.593473
O O5 0.299133 0.890277 0.999621
O O6 0.500000 0.000000 0.000000
O O7 0.186254 0.113036 0.009784
O O8 0.579743 0.551116 0.236704
O O9 0.880678 0.317659 0.080243
O O10 0.637827 0.176950 0.892314
O O11 0.579762 0.892091 0.577687
O O12 0.880687 0.894595 0.657183
O O13 0.892943 0.454797 0.763070
O O14 0.689952 0.176439 0.558809
O O15 0.892946 0.120376 0.428651
O O16 0.000000 0.000000 0.500000
O O17 0.026692 0.480393 0.326800
O O18 0.500000 0.000000 0.500000
#
# Coordination Sequence:
#
# PCOD8011706 Si02
#       8
#     2   2   2   2   2   2   2   2
#     4  12  23  38  60  95 138 177 222 275 334 400
#     4  12  23  38  60  95 138 177 222 275 334 400
#     4  12  24  42  67  97 134 175 222 273 336 398
#     4  12  24  42  67  97 134 175 222 273 336 398
#     4  10  22  42  70  94 130 178 219 272 337 390
#     4  10  21  39  63  93 129 171 222 268 332 390
#     4  12  24  46  72  98 134 174 225 280 331 398
#     4  10  21  39  63  93 129 171 222 268 332 390
#
# _framework density 19.748799999999999
#
# number of rings (size 3 to 8) (size 9 to 14) (size 15 to 20)
#    0.750    0.000    2.500    6.750    0.000    0.500 
#    0.000    1.250    0.000    5.250    0.000    0.000 
#    0.000    0.000    0.000    0.000    0.000    0.000 
#
# Total GULP energy -198415.617418 kJ/mol
# GULP energy per Si atom -12400.976089 kJ/mol
# Density = 1.970385 g / cm^3
# Si number density = 19.748800 Si / 1000 Ang^3
#
#
#
# Elastic Constant Matrix: (Units=GPa)
#
#
# Indices 1 2 3 4 5 6 
#
# 1 178.7467 70.3562 50.9083 5.3922 -7.0007 1.7074
# 2 70.3562 129.3839 45.1480 9.2756 -0.5055 2.9014
# 3 50.9083 45.1480 138.5887 -10.9831 -0.0301 -7.4520
# 4 5.3922 9.2756 -10.9831 32.5292 -3.5374 2.3322
# 5 -7.0007 -0.5055 -0.0301 -3.5374 29.1471 2.7067
# 6 1.7074 2.9014 -7.4520 2.3322 2.7067 41.5087
#
#
#
# Elastic Compliance Matrix: (Units=1/GPa)
#
#
# Indices 1 2 3 4 5 6 
#
# 1 0.007525 -0.003429 -0.001721 -0.000632 0.001712 -0.000455
# 2 -0.003429 0.010743 -0.002554 -0.003405 -0.000978 -0.000813
# 3 -0.001721 -0.002554 0.009082 0.003947 -0.000124 0.001666
# 4 -0.000632 -0.003405 0.003947 0.033668 0.003989 -0.001179
# 5 0.001712 -0.000978 -0.000124 0.003989 0.035424 -0.002558
# 6 -0.000455 -0.000813 0.001666 -0.001179 -0.002558 0.024699
#
#
# Mechanical properties :
#
#
# Convention : Reuss Voigt Hill
#
# Bulk Modulus (GPa) = 83.73950 86.61604 85.17777
# Shear Modulus (GPa) = 35.57914 39.32412 37.45163
#
# Velocity S-wave (km/s) = 4.24911 4.46715 4.35949
# Velocity P-wave (km/s) = 8.15890 8.40008 8.28037
#
# Compressibility (1/GPa) = 0.01194180
#
# Stress axis : x y z
#
# Youngs Moduli (GPa) = 132.89242 93.08064 110.10445
#
# Poissons Ratio (x) = 0.31918 0.18952
# Poissons Ratio (y) = 0.45570 0.28122
# Poissons Ratio (z) = 0.22874 0.23774
#
# Static dielectric constant tensor:
#      x y z
#    x 3.574640 0.112830 0.036970 
#    y 0.112830 3.550610 -0.032450 
#    z 0.036970 -0.032450 3.612560 
# 
# 
# High freq. dielectric constant tensor:
#      x y z
#    x 1.787510 0.002370 -0.001210 
#    y 0.002370 1.764830 -0.001340 
#    z -0.001210 -0.001340 1.768460 
# 
# From -- ./inp_files/332558.got.cif
#   From: 2010.06.25/outbox.cif.g09.slc.cpg/sg2_167_cif.got.tgz:332558.got - 2010.06.27 13:26:56.
