data_PCOD8011101
_publ_section_title
;
Structure prediction by ZEFSAII (Michael W. Deem and Ramdas Pophale) SiO2 
 PCOD8011101
Probable space group: P -1
;
_chemical_formula_sum "Si O2"
_cell_formula_units_Z 14
_cell_length_a 9.161177
_cell_length_b 11.037358
_cell_length_c 10.452987
_cell_angle_alpha 75.616261
_cell_angle_beta 149.699199
_cell_angle_gamma 108.527166
_cell_volume 504.894764
_symmetry_space_group_name_H-M "P -1"
_symmetry_group_IT_number 2
_symmetry_cell_setting 'triclinic'
loop_
_space_group_symop_operation_xyz
x,y,z
-x,-y,-z
loop_
_atom_site_type_symbol
_atom_site_label
_atom_site_fract_x
_atom_site_fract_y
_atom_site_fract_z
Si Si1 0.873356 0.056482 0.573101
Si Si2 0.407063 0.668430 0.685516
Si Si3 0.489669 0.427139 0.689591
Si Si4 0.248110 0.889673 0.790756
Si Si5 0.997024 0.306345 0.157122
Si Si6 0.242684 0.317067 0.801604
Si Si7 0.231813 0.096654 0.233766
O O1 0.714330 0.132546 0.327517
O O2 0.169520 0.161496 0.808047
O O3 0.666533 0.993144 0.552780
O O4 0.941231 0.933776 0.580909
O O5 0.542730 0.580671 0.710051
O O6 0.503107 0.817690 0.671237
O O7 0.054071 0.628905 0.414250
O O8 0.515591 0.633414 0.917851
O O9 0.339240 0.356534 0.720916
O O10 0.293327 0.388575 0.423924
O O11 0.810901 0.394098 0.916832
O O12 0.230927 0.755748 0.884230
O O13 0.500000 0.000000 0.000000
O O14 0.051113 0.193670 0.135688
O O15 0.000000 0.000000 0.000000
#
# Coordination Sequence:
#
# PCOD8011101 Si02
#       7
#     2   2   2   2   2   2   2
#     4  10  22  40  67 100 145 179 241 292 366 429
#     4  12  28  47  74 105 153 198 241 297 370 437
#     4  12  25  50  75 111 141 190 255 310 357 433
#     4  10  21  38  67 107 137 183 234 307 365 422
#     4  11  26  44  79 106 146 189 248 305 369 423
#     4  12  24  45  74 110 142 192 241 312 368 427
#     4  11  26  51  70 111 149 202 239 299 368 457
#
# _framework density 27.728549000000001
#
# number of rings (size 3 to 8) (size 9 to 14) (size 15 to 20)
#    0.000    0.857    2.857    3.429    6.000    2.857 
#    2.571    0.000    0.000    0.000    0.000    0.000 
#    0.000    0.000    0.000    0.000    0.000    0.000 
#
# Total GULP energy -173571.979164 kJ/mol
# GULP energy per Si atom -12397.998512 kJ/mol
# Density = 2.766544 g / cm^3
# Si number density = 27.728549 Si / 1000 Ang^3
#
#
#
# Elastic Constant Matrix: (Units=GPa)
#
#
# Indices 1 2 3 4 5 6 
#
# 1 80.5719 13.9772 16.8016 5.6734 -16.0577 3.5824
# 2 13.9772 109.4785 21.9376 7.1836 3.2758 -6.5065
# 3 16.8016 21.9376 172.0029 11.0905 3.2654 -16.9971
# 4 5.6734 7.1836 11.0905 41.4219 -11.3531 1.3157
# 5 -16.0577 3.2758 3.2654 -11.3531 24.2521 5.5914
# 6 3.5824 -6.5065 -16.9971 1.3157 5.5914 55.5408
#
#
#
# Elastic Compliance Matrix: (Units=1/GPa)
#
#
# Indices 1 2 3 4 5 6 
#
# 1 0.015777 -0.002359 -0.001962 0.002415 0.012909 -0.003251
# 2 -0.002359 0.009952 -0.000636 -0.002477 -0.004354 0.001620
# 3 -0.001962 -0.000636 0.006570 -0.002516 -0.003855 0.002510
# 4 0.002415 -0.002477 -0.002516 0.029692 0.017009 -0.003632
# 5 0.012909 -0.004354 -0.003855 0.017009 0.060940 -0.009060
# 6 -0.003251 0.001620 0.002510 -0.003632 -0.009060 0.020171
#
#
# Mechanical properties :
#
#
# Convention : Reuss Voigt Hill
#
# Bulk Modulus (GPa) = 44.67531 51.94290 48.30911
# Shear Modulus (GPa) = 31.15695 44.86542 38.01118
#
# Velocity S-wave (km/s) = 3.35571 4.02683 3.70649
# Velocity P-wave (km/s) = 5.58221 6.35561 5.98142
#
# Compressibility (1/GPa) = 0.02238373
#
# Stress axis : x y z
#
# Youngs Moduli (GPa) = 63.38348 100.48215 152.20235
#
# Poissons Ratio (x) = 0.23704 0.29867
# Poissons Ratio (y) = 0.14952 0.09686
# Poissons Ratio (z) = 0.12438 0.06394
#
# Static dielectric constant tensor:
#      x y z
#    x 5.498540 -0.280990 -0.141100 
#    y -0.280990 5.785920 -0.511230 
#    z -0.141100 -0.511230 4.952320 
# 
# 
# High freq. dielectric constant tensor:
#      x y z
#    x 2.147310 -0.010840 -0.004750 
#    y -0.010840 2.140110 -0.020410 
#    z -0.004750 -0.020410 2.116570 
# 
# From -- ./inp_files/187162.got.cif
#   From: 2010.06.25/outbox.cif.g09.slc.cpg/sg2_94_cif.got.tgz:187162.got - 2010.06.27 13:26:56.
