data_PCOD8011421
_publ_section_title
;
Structure prediction by ZEFSAII (Michael W. Deem and Ramdas Pophale) SiO2 
 PCOD8011421
Probable space group: P -1
;
_chemical_formula_sum "Si O2"
_cell_formula_units_Z 14
_cell_length_a 8.457854
_cell_length_b 19.271615
_cell_length_c 16.518955
_cell_angle_alpha 22.180556
_cell_angle_beta 126.733974
_cell_angle_gamma 137.798715
_cell_volume 640.523752
_symmetry_space_group_name_H-M "P -1"
_symmetry_group_IT_number 2
_symmetry_cell_setting 'triclinic'
loop_
_space_group_symop_operation_xyz
x,y,z
-x,-y,-z
loop_
_atom_site_type_symbol
_atom_site_label
_atom_site_fract_x
_atom_site_fract_y
_atom_site_fract_z
Si Si1 0.571655 0.950063 0.399617
Si Si2 0.572983 0.530070 0.082087
Si Si3 0.884831 0.128841 0.741390
Si Si4 0.755549 0.330462 0.160002
Si Si5 0.737468 0.352541 0.733477
Si Si6 0.183923 0.952786 0.007761
Si Si7 0.952037 0.338733 0.970030
O O1 0.548636 0.718116 0.643877
O O2 0.310473 0.891728 0.356984
O O3 0.642471 0.065279 0.387626
O O4 0.791816 0.128988 0.210946
O O5 0.500000 0.500000 0.000000
O O6 0.453170 0.642002 0.964928
O O7 0.877586 0.697521 0.995630
O O8 0.145218 0.390621 0.538520
O O9 0.772392 0.066649 0.863747
O O10 0.952943 0.960660 0.916165
O O11 0.000000 0.500000 0.000000
O O12 0.845449 0.406581 0.198707
O O13 0.443920 0.187012 0.800197
O O14 0.878855 0.268878 0.820091
O O15 0.773437 0.352199 0.841961
#
# Coordination Sequence:
#
# PCOD8011421 Si02
#       7
#     2   2   2   2   2   2   2
#     4  11  22  40  63  88 127 163 195 252 304 349
#     4  10  22  40  62  87 120 161 202 249 292 363
#     4  11  22  40  64  91 121 159 204 251 300 363
#     4   9  22  40  61  90 121 160 200 246 295 363
#     4  11  21  42  62  90 123 158 202 254 303 357
#     4  10  24  40  64  88 121 162 202 252 307 356
#     4  10  21  39  61  89 124 156 205 246 293 368
#
# _framework density 21.857112999999998
#
# number of rings (size 3 to 8) (size 9 to 14) (size 15 to 20)
#    0.000    1.714    2.857    0.857    2.000    7.429 
#    0.000    4.286    0.000    0.000    0.000    0.000 
#    0.000    0.000    0.000    0.000    0.000    0.000 
#
# Total GULP energy -173539.496114 kJ/mol
# GULP energy per Si atom -12395.678294 kJ/mol
# Density = 2.180737 g / cm^3
# Si number density = 21.857113 Si / 1000 Ang^3
#
#
#
# Elastic Constant Matrix: (Units=GPa)
#
#
# Indices 1 2 3 4 5 6 
#
# 1 84.8859 12.3110 19.0283 1.5552 2.8808 -0.5350
# 2 12.3110 50.3696 -3.5485 3.3071 10.0977 5.2325
# 3 19.0283 -3.5485 75.8869 -1.5921 0.6653 1.5067
# 4 1.5552 3.3071 -1.5921 22.0982 6.0302 0.4498
# 5 2.8808 10.0977 0.6653 6.0302 26.2738 -6.7013
# 6 -0.5350 5.2325 1.5067 0.4498 -6.7013 27.4133
#
#
#
# Elastic Compliance Matrix: (Units=1/GPa)
#
#
# Indices 1 2 3 4 5 6 
#
# 1 0.013098 -0.003644 -0.003502 -0.000811 0.000570 0.001296
# 2 -0.003644 0.023809 0.002264 -0.000084 -0.010663 -0.007345
# 3 -0.003502 0.002264 0.014239 0.001405 -0.001602 -0.001698
# 4 -0.000811 -0.000084 0.001405 0.048801 -0.012093 -0.003834
# 5 0.000570 -0.010663 -0.001602 -0.012093 0.048533 0.014197
# 6 0.001296 -0.007345 -0.001698 -0.003834 0.014197 0.041533
#
#
# Mechanical properties :
#
#
# Convention : Reuss Voigt Hill
#
# Bulk Modulus (GPa) = 24.16439 29.63601 26.90020
# Shear Modulus (GPa) = 23.41146 27.38050 25.39598
#
# Velocity S-wave (km/s) = 3.27634 3.54320 3.41238
# Velocity P-wave (km/s) = 5.03906 5.50703 5.27824
#
# Compressibility (1/GPa) = 0.04138320
#
# Stress axis : x y z
#
# Youngs Moduli (GPa) = 76.34912 42.00013 70.23052
#
# Poissons Ratio (x) = 0.15303 0.24597
# Poissons Ratio (y) = 0.27818 -0.15904
# Poissons Ratio (z) = 0.26740 -0.09511
#
# Static dielectric constant tensor:
#      x y z
#    x 4.530580 0.138870 0.167550 
#    y 0.138870 4.090730 -0.105060 
#    z 0.167550 -0.105060 3.880070 
# 
# 
# High freq. dielectric constant tensor:
#      x y z
#    x 1.869420 0.009420 -0.008870 
#    y 0.009420 1.854240 -0.004770 
#    z -0.008870 -0.004770 1.846250 
# 
# From -- ./inp_files/55241.got.cif
#   From: 2010.06.25/outbox.cif.g09.slc.cpg/sg2_28_cif.got.tgz:55241.got - 2010.06.27 13:26:56.
