data_PCOD8011270
_publ_section_title
;
Structure prediction by ZEFSAII (Michael W. Deem and Ramdas Pophale) SiO2 
 PCOD8011270
Probable space group: P -1
;
_chemical_formula_sum "Si O2"
_cell_formula_units_Z 14
_cell_length_a 12.612746
_cell_length_b 15.194031
_cell_length_c 12.242352
_cell_angle_alpha 72.295946
_cell_angle_beta 72.230054
_cell_angle_gamma 18.389356
_cell_volume 704.000080
_symmetry_space_group_name_H-M "P -1"
_symmetry_group_IT_number 2
_symmetry_cell_setting 'triclinic'
loop_
_space_group_symop_operation_xyz
x,y,z
-x,-y,-z
loop_
_atom_site_type_symbol
_atom_site_label
_atom_site_fract_x
_atom_site_fract_y
_atom_site_fract_z
Si Si1 0.902742 0.691819 0.863431
Si Si2 0.553569 0.099413 0.982664
Si Si3 0.107088 0.665616 0.642774
Si Si4 0.309238 0.829802 0.970234
Si Si5 0.734658 0.128821 0.502040
Si Si6 0.254301 0.833044 0.756305
Si Si7 0.525486 0.542722 0.190491
O O1 0.281614 0.359244 0.889596
O O2 0.890931 0.748311 0.725675
O O3 0.810843 0.837181 0.931527
O O4 0.641195 0.811845 0.901243
O O5 0.767334 0.009953 0.013764
O O6 0.411503 0.389059 0.580793
O O7 0.226909 0.627169 0.725612
O O8 0.887688 0.906916 0.548560
O O9 0.413437 0.764783 0.835102
O O10 0.586992 0.563447 0.060699
O O11 0.000000 0.000000 0.000000
O O12 0.611981 0.234461 0.375724
O O13 0.000000 0.000000 0.500000
O O14 0.383045 0.629580 0.814132
O O15 0.851665 0.154019 0.759646
#
# Coordination Sequence:
#
# PCOD8011270 Si02
#       7
#     2   2   2   2   2   2   2
#     4  10  22  37  61  85 112 151 190 244 280 334
#     4  10  21  39  58  86 118 146 190 233 293 338
#     4  12  21  34  59  79 113 145 193 240 281 327
#     4  10  23  36  59  87 120 153 180 232 293 358
#     4  12  22  35  54  80 114 156 188 239 277 332
#     4  11  23  36  50  80 119 152 186 219 286 345
#     4  11  20  34  54  81 115 146 182 230 286 339
#
# _framework density 19.886361000000001
#
# number of rings (size 3 to 8) (size 9 to 14) (size 15 to 20)
#    0.000    1.143    4.286    2.571    4.000    2.286 
#    0.000    0.000    0.000    1.714    0.000    0.000 
#    0.000    0.000    0.000    0.000    0.000    0.000 
#
# Total GULP energy -173545.910657 kJ/mol
# GULP energy per Si atom -12396.136476 kJ/mol
# Density = 1.984110 g / cm^3
# Si number density = 19.886361 Si / 1000 Ang^3
#
#
#
# Elastic Constant Matrix: (Units=GPa)
#
#
# Indices 1 2 3 4 5 6 
#
# 1 95.8326 17.4009 28.8647 -1.1714 -10.0207 3.0523
# 2 17.4009 64.9359 -0.2835 5.7597 -11.5921 14.9664
# 3 28.8647 -0.2835 127.0762 -0.1518 -9.1890 -5.8206
# 4 -1.1714 5.7597 -0.1518 26.4293 -0.6545 -8.7719
# 5 -10.0207 -11.5921 -9.1890 -0.6545 37.0611 -2.3185
# 6 3.0523 14.9664 -5.8206 -8.7719 -2.3185 21.9490
#
#
#
# Elastic Compliance Matrix: (Units=1/GPa)
#
#
# Indices 1 2 3 4 5 6 
#
# 1 0.011961 -0.003179 -0.002576 0.001439 0.001662 0.000572
# 2 -0.003179 0.022415 0.000253 -0.011112 0.004848 -0.018703
# 3 -0.002576 0.000253 0.008723 0.000940 0.001753 0.003060
# 4 0.001439 -0.011112 0.000940 0.049394 -0.000271 0.027338
# 5 0.001662 0.004848 0.001753 -0.000271 0.029373 -0.000077
# 6 0.000572 -0.018703 0.003060 0.027338 -0.000077 0.069963
#
#
# Mechanical properties :
#
#
# Convention : Reuss Voigt Hill
#
# Bulk Modulus (GPa) = 31.15856 42.20099 36.67978
# Shear Modulus (GPa) = 23.41570 33.21205 28.31388
#
# Velocity S-wave (km/s) = 3.43516 4.09111 3.77740
# Velocity P-wave (km/s) = 5.60679 6.60177 6.12452
#
# Compressibility (1/GPa) = 0.03209390
#
# Stress axis : x y z
#
# Youngs Moduli (GPa) = 83.60381 44.61373 114.63911
#
# Poissons Ratio (x) = 0.14184 0.29530
# Poissons Ratio (y) = 0.26580 -0.02897
# Poissons Ratio (z) = 0.21535 -0.01128
#
# Static dielectric constant tensor:
#      x y z
#    x 3.675230 0.137870 -0.013040 
#    y 0.137870 3.522120 -0.108100 
#    z -0.013040 -0.108100 4.191600 
# 
# 
# High freq. dielectric constant tensor:
#      x y z
#    x 1.750430 0.030020 -0.009360 
#    y 0.030020 1.776200 0.002540 
#    z -0.009360 0.002540 1.780740 
# 
# From -- ./inp_files/64298.got.cif
#   From: 2010.06.25/outbox.cif.g09.slc.cpg/sg2_33_cif.got.tgz:64298.got - 2010.06.27 13:26:56.
