data_PCOD8011827
_publ_section_title
;
Structure prediction by ZEFSAII (Michael W. Deem and Ramdas Pophale) SiO2 
 PCOD8011827
Probable space group: P -1
;
_chemical_formula_sum "Si O2"
_cell_formula_units_Z 16
_cell_length_a 14.527077
_cell_length_b 15.735287
_cell_length_c 10.016012
_cell_angle_alpha 77.661249
_cell_angle_beta 97.651121
_cell_angle_gamma 27.858553
_cell_volume 740.702245
_symmetry_space_group_name_H-M "P -1"
_symmetry_group_IT_number 2
_symmetry_cell_setting 'triclinic'
loop_
_space_group_symop_operation_xyz
x,y,z
-x,-y,-z
loop_
_atom_site_type_symbol
_atom_site_label
_atom_site_fract_x
_atom_site_fract_y
_atom_site_fract_z
Si Si1 0.632637 0.527518 0.785078
Si Si2 0.193609 0.956333 0.042211
Si Si3 0.794832 0.554144 0.944483
Si Si4 0.269122 0.777168 0.853413
Si Si5 0.585137 0.067873 0.028142
Si Si6 0.751884 0.751614 0.277459
Si Si7 0.316090 0.168237 0.276587
Si Si8 0.650440 0.274803 0.590797
O O1 0.797128 0.468277 0.880049
O O2 0.371229 0.743829 0.759177
O O3 0.512106 0.641902 0.574213
O O4 0.865567 0.244247 0.923178
O O5 0.278156 0.981463 0.024726
O O6 0.368214 0.760028 0.261653
O O7 0.253155 0.847650 0.960080
O O8 0.804231 0.627979 0.821476
O O9 0.520662 0.793152 0.903510
O O10 0.065218 0.319442 0.173259
O O11 0.500000 0.500000 0.000000
O O12 0.964578 0.008181 0.687704
O O13 0.316965 0.261371 0.839928
O O14 0.808777 0.794142 0.200105
O O15 0.000000 0.500000 0.500000
O O16 0.484648 0.001157 0.232272
O O17 0.500000 0.000000 0.500000
O O18 0.500000 0.500000 0.500000
#
# Coordination Sequence:
#
# PCOD8011827 Si02
#       8
#     2   2   2   2   2   2   2   2
#     4  12  25  44  72 103 139 182 235 296 351 427
#     4  12  25  45  71 103 139 182 237 293 352 432
#     4  10  22  41  63  97 132 180 225 281 344 404
#     4  12  24  49  74  98 140 187 231 294 371 422
#     4  10  22  41  64  95 134 179 227 278 346 411
#     4  10  21  39  64  93 134 179 220 279 344 408
#     4  10  21  39  64  92 136 177 224 277 338 413
#     4  12  26  47  72 104 140 184 240 297 364 426
#
# _framework density 21.601122
#
# number of rings (size 3 to 8) (size 9 to 14) (size 15 to 20)
#    0.000    1.000    3.750    3.000    0.000    6.000 
#    0.000    2.500    0.000    0.000    0.000    0.000 
#    0.000    0.000    0.000    0.000    0.000    0.000 
#
# Total GULP energy -198384.409204 kJ/mol
# GULP energy per Si atom -12399.025575 kJ/mol
# Density = 2.155196 g / cm^3
# Si number density = 21.601122 Si / 1000 Ang^3
#
#
#
# Elastic Constant Matrix: (Units=GPa)
#
#
# Indices 1 2 3 4 5 6 
#
# 1 110.9610 37.2306 58.2083 1.3808 -2.6666 5.9585
# 2 37.2306 120.8812 39.8662 2.3499 2.8070 9.7376
# 3 58.2083 39.8662 173.7507 3.3294 1.9401 13.7135
# 4 1.3808 2.3499 3.3294 43.2975 1.1211 3.2127
# 5 -2.6666 2.8070 1.9401 1.1211 35.2775 5.1646
# 6 5.9585 9.7376 13.7135 3.2127 5.1646 30.0397
#
#
#
# Elastic Compliance Matrix: (Units=1/GPa)
#
#
# Indices 1 2 3 4 5 6 
#
# 1 0.011637 -0.002502 -0.003323 0.000002 0.001291 -0.000202
# 2 -0.002502 0.009615 -0.001204 -0.000189 -0.000597 -0.001948
# 3 -0.003323 -0.001204 0.007328 -0.000221 -0.000224 -0.002234
# 4 0.000002 -0.000189 -0.000221 0.023301 -0.000382 -0.002265
# 5 0.001291 -0.000597 -0.000224 -0.000382 0.029240 -0.004947
# 6 -0.000202 -0.001948 -0.002234 -0.002265 -0.004947 0.036073
#
#
# Mechanical properties :
#
#
# Convention : Reuss Voigt Hill
#
# Bulk Modulus (GPa) = 68.86106 75.13369 71.99738
# Shear Modulus (GPa) = 36.74002 39.74213 38.24108
#
# Velocity S-wave (km/s) = 4.12860 4.29396 4.21209
# Velocity P-wave (km/s) = 7.39424 7.70986 7.55370
#
# Compressibility (1/GPa) = 0.01452200
#
# Stress axis : x y z
#
# Youngs Moduli (GPa) = 85.93586 104.00826 136.46659
#
# Poissons Ratio (x) = 0.26021 0.45345
# Poissons Ratio (y) = 0.21500 0.16428
# Poissons Ratio (z) = 0.28555 0.12521
#
# Static dielectric constant tensor:
#      x y z
#    x 3.857910 0.027300 -0.193070 
#    y 0.027300 4.355710 -0.143320 
#    z -0.193070 -0.143320 4.166630 
# 
# 
# High freq. dielectric constant tensor:
#      x y z
#    x 1.840380 0.001280 0.000800 
#    y 0.001280 1.868780 0.007500 
#    z 0.000800 0.007500 1.846650 
# 
# From -- ./inp_files/315111.got.cif
#   From: 2010.06.25/outbox.cif.g09.slc.cpg/sg2_158_cif.got.tgz:315111.got - 2010.06.27 13:26:56.
