data_PCOD8011830
_publ_section_title
;
Structure prediction by ZEFSAII (Michael W. Deem and Ramdas Pophale) SiO2 
 PCOD8011830
Probable space group: P -1
;
_chemical_formula_sum "Si O2"
_cell_formula_units_Z 14
_cell_length_a 16.786797
_cell_length_b 8.398389
_cell_length_c 19.106885
_cell_angle_alpha 138.008994
_cell_angle_beta 160.069349
_cell_angle_gamma 42.502213
_cell_volume 605.493124
_symmetry_space_group_name_H-M "P -1"
_symmetry_group_IT_number 2
_symmetry_cell_setting 'triclinic'
loop_
_space_group_symop_operation_xyz
x,y,z
-x,-y,-z
loop_
_atom_site_type_symbol
_atom_site_label
_atom_site_fract_x
_atom_site_fract_y
_atom_site_fract_z
Si Si1 0.794463 0.060964 0.007339
Si Si2 0.156129 0.606571 0.721837
Si Si3 0.367435 0.321801 0.663038
Si Si4 0.428888 0.292622 0.111085
Si Si5 0.674454 0.067504 0.608490
Si Si6 0.608562 0.748725 0.087114
Si Si7 0.742901 0.569350 0.840511
O O1 0.618500 0.281047 0.898367
O O2 0.650221 0.835323 0.818999
O O3 0.847428 0.147321 0.157134
O O4 0.049814 0.994749 0.157581
O O5 0.216610 0.380636 0.751409
O O6 0.875397 0.620517 0.468605
O O7 0.363625 0.626668 0.842093
O O8 0.373255 0.533724 0.680237
O O9 0.355905 0.071421 0.533100
O O10 0.251513 0.412287 0.064065
O O11 0.558581 0.030241 0.157775
O O12 0.290234 0.274052 0.916431
O O13 0.600467 0.357879 0.629782
O O14 0.500000 0.000000 0.500000
O O15 0.000000 0.500000 0.000000
#
# Coordination Sequence:
#
# PCOD8011830 Si02
#       7
#     2   2   2   2   2   2   2
#     4  10  21  41  63  89 128 167 201 258 315 368
#     4  10  21  42  64  90 126 166 208 250 318 375
#     4  11  23  39  64  94 124 164 210 256 312 379
#     4  11  21  39  65  94 126 162 211 258 316 365
#     4  10  21  39  64  93 122 160 215 262 308 367
#     4  10  22  40  65  94 125 166 208 261 309 375
#     4  10  21  41  65  89 126 168 203 258 316 368
#
# _framework density 23.121649000000001
#
# number of rings (size 3 to 8) (size 9 to 14) (size 15 to 20)
#    0.000    1.714    4.286    0.000    0.000    2.286 
#    0.000    4.286    0.000    0.000    0.000    0.000 
#    0.000    0.000    0.000    0.000    0.000    0.000 
#
# Total GULP energy -173492.507921 kJ/mol
# GULP energy per Si atom -12392.321994 kJ/mol
# Density = 2.306902 g / cm^3
# Si number density = 23.121649 Si / 1000 Ang^3
#
#
#
# Elastic Constant Matrix: (Units=GPa)
#
#
# Indices 1 2 3 4 5 6 
#
# 1 139.3584 39.3320 30.0258 -8.2620 23.4223 -23.1347
# 2 39.3320 137.9595 46.5366 19.9213 13.6574 2.3588
# 3 30.0258 46.5366 114.9646 -0.0996 11.3829 1.3959
# 4 -8.2620 19.9213 -0.0996 39.6442 1.5397 2.2452
# 5 23.4223 13.6574 11.3829 1.5397 32.8648 0.4363
# 6 -23.1347 2.3588 1.3959 2.2452 0.4363 39.4950
#
#
#
# Elastic Compliance Matrix: (Units=1/GPa)
#
#
# Indices 1 2 3 4 5 6 
#
# 1 0.010407 -0.002556 -0.001142 0.003342 -0.006198 0.006167
# 2 -0.002556 0.009982 -0.003267 -0.005427 -0.000919 -0.001659
# 3 -0.001142 -0.003267 0.010482 0.001541 -0.001519 -0.000915
# 4 0.003342 -0.005427 0.001541 0.028695 -0.002013 0.000618
# 5 -0.006198 -0.000919 -0.001519 -0.002013 0.035897 -0.003804
# 6 0.006167 -0.001659 -0.000915 0.000618 -0.003804 0.029071
#
#
# Mechanical properties :
#
#
# Convention : Reuss Voigt Hill
#
# Bulk Modulus (GPa) = 59.02651 69.34125 64.18388
# Shear Modulus (GPa) = 34.69563 40.82666 37.76115
#
# Velocity S-wave (km/s) = 3.87792 4.20662 4.04561
# Velocity P-wave (km/s) = 6.75538 7.32455 7.04571
#
# Compressibility (1/GPa) = 0.01694154
#
# Stress axis : x y z
#
# Youngs Moduli (GPa) = 96.09083 100.17753 95.40468
#
# Poissons Ratio (x) = 0.25609 0.10891
# Poissons Ratio (y) = 0.24565 0.31166
# Poissons Ratio (z) = 0.10969 0.32725
#
# Static dielectric constant tensor:
#      x y z
#    x 4.272590 -0.198600 0.261890 
#    y -0.198600 7.680660 1.859190 
#    z 0.261890 1.859190 4.705080 
# 
# 
# High freq. dielectric constant tensor:
#      x y z
#    x 1.924420 -0.029940 0.009570 
#    y -0.029940 1.941170 0.040820 
#    z 0.009570 0.040820 1.888830 
# 
# From -- ./inp_files/135178.got.cif
#   From: 2010.06.25/outbox.cif.g09.slc.cpg/sg2_68_cif.got.tgz:135178.got - 2010.06.27 13:26:56.
