data_PCOD8011346
_publ_section_title
;
Structure prediction by ZEFSAII (Michael W. Deem and Ramdas Pophale) SiO2 
 PCOD8011346
Probable space group: P -1
;
_chemical_formula_sum "Si O2"
_cell_formula_units_Z 16
_cell_length_a 15.675999
_cell_length_b 10.881344
_cell_length_c 11.963300
_cell_angle_alpha 68.220214
_cell_angle_beta 36.536527
_cell_angle_gamma 42.162516
_cell_volume 674.568691
_symmetry_space_group_name_H-M "P -1"
_symmetry_group_IT_number 2
_symmetry_cell_setting 'triclinic'
loop_
_space_group_symop_operation_xyz
x,y,z
-x,-y,-z
loop_
_atom_site_type_symbol
_atom_site_label
_atom_site_fract_x
_atom_site_fract_y
_atom_site_fract_z
Si Si1 0.754054 0.169269 0.522730
Si Si2 0.031921 0.184013 0.321131
Si Si3 0.021862 0.272962 0.547763
Si Si4 0.115540 0.246596 0.808789
Si Si5 0.200686 0.615766 0.721467
Si Si6 0.516756 0.999097 0.116920
Si Si7 0.556568 0.824824 0.362597
Si Si8 0.694983 0.609713 0.967226
O O1 0.702567 0.305116 0.424865
O O2 0.958674 0.083891 0.415951
O O3 0.850206 0.953798 0.457725
O O4 0.508080 0.340468 0.793402
O O5 0.939500 0.307391 0.495774
O O6 0.901928 0.360860 0.298288
O O7 0.322664 0.986364 0.071529
O O8 0.789431 0.487770 0.789612
O O9 0.227606 0.235812 0.348666
O O10 0.253427 0.263765 0.717528
O O11 0.910802 0.462365 0.876305
O O12 0.287881 0.037288 0.617283
O O13 0.009884 0.223274 0.019226
O O14 0.400860 0.363442 0.637755
O O15 0.601377 0.865865 0.186135
O O16 0.582165 0.843239 0.999459
#
# Coordination Sequence:
#
# PCOD8011346 Si02
#       8
#     2   2   2   2   2   2   2   2
#     4   9  24  43  62  89 122 171 207 245 307 362
#     4  10  22  43  67  88 123 166 207 254 305 360
#     4  11  23  43  63  92 125 162 209 254 302 365
#     4  11  21  35  63  93 123 161 200 249 311 367
#     4  10  21  39  60  88 118 163 200 248 295 362
#     4  11  21  41  65  94 124 159 204 257 312 356
#     4  11  20  37  62  93 126 156 203 251 306 371
#     4  11  23  39  64  92 127 164 198 254 315 358
#
# _framework density 23.718858999999998
#
# number of rings (size 3 to 8) (size 9 to 14) (size 15 to 20)
#    0.750    0.750    3.750    1.875    0.000    2.500 
#    0.000    5.000    0.000    0.000    0.000    0.000 
#    0.000    0.000    0.000    0.000    0.000    0.000 
#
# Total GULP energy -198321.725205 kJ/mol
# GULP energy per Si atom -12395.107825 kJ/mol
# Density = 2.366487 g / cm^3
# Si number density = 23.718859 Si / 1000 Ang^3
#
#
#
# Elastic Constant Matrix: (Units=GPa)
#
#
# Indices 1 2 3 4 5 6 
#
# 1 81.2010 8.2845 32.5247 0.2678 -6.1762 11.9966
# 2 8.2845 75.8779 55.5784 -2.3050 1.8285 -5.4867
# 3 32.5247 55.5784 183.7013 8.3928 -2.2720 22.8734
# 4 0.2678 -2.3050 8.3928 30.3631 1.9266 2.8435
# 5 -6.1762 1.8285 -2.2720 1.9266 49.1797 -8.1762
# 6 11.9966 -5.4867 22.8734 2.8435 -8.1762 31.5547
#
#
#
# Elastic Compliance Matrix: (Units=1/GPa)
#
#
# Indices 1 2 3 4 5 6 
#
# 1 0.013728 -0.000415 -0.001856 0.000647 0.001006 -0.003743
# 2 -0.000415 0.018831 -0.006751 0.002524 0.000192 0.008148
# 3 -0.001856 -0.006751 0.008753 -0.002242 -0.000615 -0.006770
# 4 0.000647 0.002524 -0.002242 0.034009 -0.001730 -0.001695
# 5 0.001006 0.000192 -0.000615 -0.001730 0.021459 0.005813
# 6 -0.003743 0.008148 -0.006770 -0.001695 0.005813 0.041097
#
#
# Mechanical properties :
#
#
# Convention : Reuss Voigt Hill
#
# Bulk Modulus (GPa) = 42.97809 59.28395 51.13102
# Shear Modulus (GPa) = 30.54801 38.51233 34.53017
#
# Velocity S-wave (km/s) = 3.59265 4.03389 3.81965
# Velocity P-wave (km/s) = 5.94716 6.83703 6.40756
#
# Compressibility (1/GPa) = 0.02326767
#
# Stress axis : x y z
#
# Youngs Moduli (GPa) = 72.84191 53.10480 114.25064
#
# Poissons Ratio (x) = 0.02201 0.21208
# Poissons Ratio (y) = 0.03019 0.77134
# Poissons Ratio (z) = 0.13521 0.35853
#
# Static dielectric constant tensor:
#      x y z
#    x 4.385800 -0.196700 0.077220 
#    y -0.196700 4.084750 -0.165960 
#    z 0.077220 -0.165960 4.444330 
# 
# 
# High freq. dielectric constant tensor:
#      x y z
#    x 1.956390 -0.026080 0.001580 
#    y -0.026080 1.928990 -0.020060 
#    z 0.001580 -0.020060 1.947990 
# 
# From -- ./inp_files/452337.got.cif
#   From: 2010.06.25/outbox.cif.g09.slc.cpg/sg2_227_cif.got.tgz:452337.got - 2010.06.27 13:26:56.
