data_PCOD8011764
_publ_section_title
;
Structure prediction by ZEFSAII (Michael W. Deem and Ramdas Pophale) SiO2 
 PCOD8011764
Probable space group: P -1
;
_chemical_formula_sum "Si O2"
_cell_formula_units_Z 14
_cell_length_a 6.268368
_cell_length_b 8.933034
_cell_length_c 19.796895
_cell_angle_alpha 127.584303
_cell_angle_beta 126.502575
_cell_angle_gamma 50.669974
_cell_volume 639.067714
_symmetry_space_group_name_H-M "P -1"
_symmetry_group_IT_number 2
_symmetry_cell_setting 'triclinic'
loop_
_space_group_symop_operation_xyz
x,y,z
-x,-y,-z
loop_
_atom_site_type_symbol
_atom_site_label
_atom_site_fract_x
_atom_site_fract_y
_atom_site_fract_z
Si Si1 0.706168 0.549630 0.996187
Si Si2 0.670443 0.124553 0.741002
Si Si3 0.724660 0.420560 0.724417
Si Si4 0.896548 0.327259 0.102791
Si Si5 0.233223 0.822347 0.695177
Si Si6 0.107802 0.045076 0.603132
Si Si7 0.606838 0.073767 0.864183
O O1 0.790313 0.350622 0.009156
O O2 0.618469 0.759838 0.081435
O O3 0.433238 0.586210 0.902791
O O4 0.000000 0.500000 0.000000
O O5 0.675757 0.321240 0.756766
O O6 0.396826 0.080942 0.654948
O O7 0.672599 0.172034 0.834779
O O8 0.957237 0.915328 0.718802
O O9 0.410307 0.581978 0.682275
O O10 0.947154 0.525374 0.809679
O O11 0.858819 0.252790 0.645168
O O12 0.088781 0.085228 0.087562
O O13 0.441146 0.938509 0.772322
O O14 0.146953 0.852821 0.607867
O O15 0.000000 0.000000 0.500000
#
# Coordination Sequence:
#
# PCOD8011764 Si02
#       7
#     2   2   2   2   2   2   2
#     4  11  24  39  60  89 120 156 200 246 296 350
#     4  10  21  39  64  86 117 157 197 242 295 353
#     4  10  22  40  62  90 120 155 199 244 296 351
#     4  10  23  40  60  87 119 155 199 248 295 346
#     4   9  21  38  61  90 118 157 202 242 289 347
#     4  10  22  40  61  89 125 157 191 241 295 352
#     4  10  22  41  61  86 120 157 200 245 293 349
#
# _framework density 21.906911999999998
#
# number of rings (size 3 to 8) (size 9 to 14) (size 15 to 20)
#    0.000    2.000    0.000    3.000    0.000   17.143 
#    0.000    1.429    0.000    2.571    0.000    0.000 
#    0.000    0.000    0.000    0.000    0.000    0.000 
#
# Total GULP energy -173529.468716 kJ/mol
# GULP energy per Si atom -12394.962051 kJ/mol
# Density = 2.185705 g / cm^3
# Si number density = 21.906912 Si / 1000 Ang^3
#
#
#
# Elastic Constant Matrix: (Units=GPa)
#
#
# Indices 1 2 3 4 5 6 
#
# 1 133.4363 80.3244 43.8420 -0.0527 -11.1268 -24.6691
# 2 80.3244 193.4395 53.3592 -26.9553 -19.8640 -20.6643
# 3 43.8420 53.3592 118.6564 -17.0172 -16.5188 -7.4313
# 4 -0.0527 -26.9553 -17.0172 19.4626 -5.2168 4.0929
# 5 -11.1268 -19.8640 -16.5188 -5.2168 24.4926 0.3505
# 6 -24.6691 -20.6643 -7.4313 4.0929 0.3505 32.0152
#
#
#
# Elastic Compliance Matrix: (Units=1/GPa)
#
#
# Indices 1 2 3 4 5 6 
#
# 1 0.013938 -0.006523 -0.004927 -0.016474 -0.005898 0.007557
# 2 -0.006523 0.011495 0.001907 0.020797 0.012075 0.000045
# 3 -0.004927 0.001907 0.013619 0.018256 0.012409 -0.001874
# 4 -0.016474 0.020797 0.018256 0.110274 0.045321 -0.009627
# 5 -0.005898 0.012075 0.012409 0.045321 0.065970 -0.000387
# 6 0.007557 0.000045 -0.001874 -0.009627 -0.000387 0.037887
#
#
# Mechanical properties :
#
#
# Convention : Reuss Voigt Hill
#
# Bulk Modulus (GPa) = 50.08380 88.95372 69.51876
# Shear Modulus (GPa) = 17.92607 33.06119 25.49363
#
# Velocity S-wave (km/s) = 2.86367 3.88901 3.41504
# Velocity P-wave (km/s) = 5.81772 7.80124 6.88132
#
# Compressibility (1/GPa) = 0.01996654
#
# Stress axis : x y z
#
# Youngs Moduli (GPa) = 71.74441 86.99684 73.42722
#
# Poissons Ratio (x) = 0.56745 0.36180
# Poissons Ratio (y) = 0.46797 -0.14005
# Poissons Ratio (z) = 0.35351 -0.16593
#
# Static dielectric constant tensor:
#      x y z
#    x 4.171110 -0.077660 0.051980 
#    y -0.077660 4.513970 -0.358100 
#    z 0.051980 -0.358100 3.815360 
# 
# 
# High freq. dielectric constant tensor:
#      x y z
#    x 1.871490 -0.010680 0.004580 
#    y -0.010680 1.876890 -0.008800 
#    z 0.004580 -0.008800 1.846580 
# 
# From -- ./inp_files/39126.got.cif
#   From: 2010.06.25/outbox.cif.g09.slc.cpg/sg2_20_cif.got.tgz:39126.got - 2010.06.27 13:26:56.
