data_PCOD8011116
_publ_section_title
;
Structure prediction by ZEFSAII (Michael W. Deem and Ramdas Pophale) SiO2 
 PCOD8011116
Probable space group: P -1
;
_chemical_formula_sum "Si O2"
_cell_formula_units_Z 16
_cell_length_a 8.575571
_cell_length_b 10.009996
_cell_length_c 15.072881
_cell_angle_alpha 135.220767
_cell_angle_beta 96.459752
_cell_angle_gamma 108.081258
_cell_volume 751.777125
_symmetry_space_group_name_H-M "P -1"
_symmetry_group_IT_number 2
_symmetry_cell_setting 'triclinic'
loop_
_space_group_symop_operation_xyz
x,y,z
-x,-y,-z
loop_
_atom_site_type_symbol
_atom_site_label
_atom_site_fract_x
_atom_site_fract_y
_atom_site_fract_z
Si Si1 0.165956 0.463760 0.979776
Si Si2 0.813215 0.491301 0.663450
Si Si3 0.247411 0.784623 0.811691
Si Si4 0.824147 0.521862 0.487839
Si Si5 0.569720 0.278655 0.041245
Si Si6 0.406341 0.557367 0.212773
Si Si7 0.024113 0.998144 0.353960
Si Si8 0.242918 0.977789 0.514184
O O1 0.324327 0.653804 0.013826
O O2 0.264286 0.490923 0.092022
O O3 0.080572 0.212130 0.818948
O O4 0.000000 0.500000 0.000000
O O5 0.711580 0.442890 0.537506
O O6 0.714116 0.561660 0.761494
O O7 0.804841 0.273175 0.596282
O O8 0.029919 0.700719 0.762494
O O9 0.294140 0.644063 0.679956
O O10 0.304556 0.756506 0.899596
O O11 0.363941 0.045321 0.908550
O O12 0.880131 0.774257 0.590455
O O13 0.000000 0.500000 0.500000
O O14 0.545959 0.476078 0.167303
O O15 0.535124 0.831016 0.366247
O O16 0.870812 0.980484 0.401366
O O17 0.183920 0.996133 0.419425
#
# Coordination Sequence:
#
# PCOD8011116 Si02
#       8
#     2   2   2   2   2   2   2   2
#     4  12  27  45  69  98 137 173 224 277 339 397
#     4  11  24  42  66  96 136 176 220 277 331 391
#     4  10  22  43  67  91 136 177 217 267 339 394
#     4  10  21  38  67  93 127 170 223 265 322 397
#     4  11  24  42  67  96 132 176 217 275 330 404
#     4  12  26  40  68 100 135 171 228 276 328 395
#     4  11  22  42  71  97 127 180 224 272 337 396
#     4  11  22  41  71  96 134 171 226 280 331 390
#
# _framework density 21.282903999999998
#
# number of rings (size 3 to 8) (size 9 to 14) (size 15 to 20)
#    0.000    1.000    3.750    3.750    5.250    0.500 
#    4.500    1.250    0.000    0.000    0.000    0.000 
#    0.000    0.000    0.000    0.000    0.000    0.000 
#
# Total GULP energy -198446.419608 kJ/mol
# GULP energy per Si atom -12402.901225 kJ/mol
# Density = 2.123446 g / cm^3
# Si number density = 21.282904 Si / 1000 Ang^3
#
#
#
# Elastic Constant Matrix: (Units=GPa)
#
#
# Indices 1 2 3 4 5 6 
#
# 1 62.0064 26.3993 9.3857 -2.5707 -3.0602 20.6206
# 2 26.3993 132.3332 27.4287 -6.9692 -9.7960 12.1752
# 3 9.3857 27.4287 79.8357 1.0073 6.4449 10.6424
# 4 -2.5707 -6.9692 1.0073 44.3765 -0.5397 -8.7103
# 5 -3.0602 -9.7960 6.4449 -0.5397 22.7571 -4.8872
# 6 20.6206 12.1752 10.6424 -8.7103 -4.8872 37.5445
#
#
#
# Elastic Compliance Matrix: (Units=1/GPa)
#
#
# Indices 1 2 3 4 5 6 
#
# 1 0.021096 -0.003410 0.000274 -0.001503 -0.001118 -0.011052
# 2 -0.003410 0.009274 -0.003282 0.001539 0.004663 0.000760
# 3 0.000274 -0.003282 0.014782 -0.001809 -0.006583 -0.004553
# 4 -0.001503 0.001539 -0.001809 0.024106 0.003010 0.006823
# 5 -0.001118 0.004663 -0.006583 0.003010 0.049476 0.008107
# 6 -0.011052 0.000760 -0.004553 0.006823 0.008107 0.036388
#
#
# Mechanical properties :
#
#
# Convention : Reuss Voigt Hill
#
# Bulk Modulus (GPa) = 30.94544 44.51140 37.72842
# Shear Modulus (GPa) = 27.97513 34.99971 31.48742
#
# Velocity S-wave (km/s) = 3.62946 4.05964 3.85056
# Velocity P-wave (km/s) = 5.66882 6.55239 6.12656
#
# Compressibility (1/GPa) = 0.03231494
#
# Stress axis : x y z
#
# Youngs Moduli (GPa) = 47.40255 107.83288 67.64810
#
# Poissons Ratio (x) = 0.36774 -0.01854
# Poissons Ratio (y) = 0.16166 0.22204
# Poissons Ratio (z) = -0.01299 0.35394
#
# Static dielectric constant tensor:
#      x y z
#    x 3.855740 0.319450 -0.170770 
#    y 0.319450 4.991710 -0.508620 
#    z -0.170770 -0.508620 4.291980 
# 
# 
# High freq. dielectric constant tensor:
#      x y z
#    x 1.818310 0.002910 -0.001560 
#    y 0.002910 1.847920 -0.007160 
#    z -0.001560 -0.007160 1.846980 
# 
# From -- ./inp_files/495741.got.cif
#   From: 2010.06.25/outbox.cif.g09.slc.cpg/sg2_248_cif.got.tgz:495741.got - 2010.06.27 13:26:56.
