data_PCOD8011508
_publ_section_title
;
Structure prediction by ZEFSAII (Michael W. Deem and Ramdas Pophale) SiO2 
 PCOD8011508
Probable space group: P -1
;
_chemical_formula_sum "Si O2"
_cell_formula_units_Z 14
_cell_length_a 16.237033
_cell_length_b 11.244696
_cell_length_c 16.308255
_cell_angle_alpha 38.945589
_cell_angle_beta 144.707202
_cell_angle_gamma 156.254739
_cell_volume 686.687260
_symmetry_space_group_name_H-M "P -1"
_symmetry_group_IT_number 2
_symmetry_cell_setting 'triclinic'
loop_
_space_group_symop_operation_xyz
x,y,z
-x,-y,-z
loop_
_atom_site_type_symbol
_atom_site_label
_atom_site_fract_x
_atom_site_fract_y
_atom_site_fract_z
Si Si1 0.475385 0.661562 0.340172
Si Si2 0.475106 0.744381 0.693221
Si Si3 0.107331 0.912548 0.660084
Si Si4 0.865667 0.404224 0.614872
Si Si5 0.551726 0.661995 0.037615
Si Si6 0.670235 0.226211 0.269371
Si Si7 0.016384 0.736816 0.867144
O O1 0.500000 0.500000 0.500000
O O2 0.223960 0.413067 0.234659
O O3 0.638746 0.831369 0.303868
O O4 0.525248 0.888605 0.318925
O O5 0.293042 0.602489 0.552026
O O6 0.496795 0.538922 0.822265
O O7 0.390217 0.752163 0.703554
O O8 0.721625 0.071724 0.696594
O O9 0.110505 0.877649 0.777669
O O10 0.965702 0.596659 0.675111
O O11 0.000000 0.000000 0.500000
O O12 0.065809 0.547927 0.639870
O O13 0.811753 0.992591 0.074202
O O14 0.500000 0.500000 0.000000
O O15 0.394227 0.686870 0.900681
O O16 0.000000 0.500000 0.000000
#
# Coordination Sequence:
#
# PCOD8011508 Si02
#       7
#     2   2   2   2   2   2   2
#     4  11  23  41  68  97 127 169 216 267 329 380
#     4  10  21  39  62  88 126 167 207 257 320 375
#     4  11  23  40  66  96 128 165 219 269 315 389
#     4  10  22  38  62  91 123 163 212 263 314 373
#     4  10  23  42  64  90 128 168 209 257 319 384
#     4  10  21  41  60  90 126 162 211 261 311 384
#     4  12  24  44  69  94 133 173 210 273 326 377
#
# _framework density 20.387737000000001
#
# number of rings (size 3 to 8) (size 9 to 14) (size 15 to 20)
#    0.000    1.429    2.857    2.143    4.000    1.143 
#    0.000    0.000    0.000    0.000    0.000    0.000 
#    0.000    0.000    0.000    0.000    0.000    0.000 
#
# Total GULP energy -173610.655201 kJ/mol
# GULP energy per Si atom -12400.761086 kJ/mol
# Density = 2.034133 g / cm^3
# Si number density = 20.387737 Si / 1000 Ang^3
#
#
#
# Elastic Constant Matrix: (Units=GPa)
#
#
# Indices 1 2 3 4 5 6 
#
# 1 65.7653 30.4934 11.4233 3.8975 -7.4164 1.7621
# 2 30.4934 147.7097 62.2542 7.5333 -2.3033 0.2172
# 3 11.4233 62.2542 131.2318 -21.0228 5.2965 -0.4352
# 4 3.8975 7.5333 -21.0228 40.3956 0.4356 4.7772
# 5 -7.4164 -2.3033 5.2965 0.4356 26.3596 -4.4928
# 6 1.7621 0.2172 -0.4352 4.7772 -4.4928 29.9382
#
#
#
# Elastic Compliance Matrix: (Units=1/GPa)
#
#
# Indices 1 2 3 4 5 6 
#
# 1 0.017406 -0.003313 -0.000337 -0.001276 0.004680 -0.000100
# 2 -0.003313 0.009847 -0.005116 -0.004300 0.001183 0.000913
# 3 -0.000337 -0.005116 0.011335 0.007083 -0.003172 -0.001385
# 4 -0.001276 -0.004300 0.007083 0.030009 -0.003524 -0.005108
# 5 0.004680 0.001183 -0.003172 -0.003524 0.041145 0.006407
# 6 -0.000100 0.000913 -0.001385 -0.005108 0.006407 0.035158
#
#
# Mechanical properties :
#
#
# Convention : Reuss Voigt Hill
#
# Bulk Modulus (GPa) = 47.49496 61.44985 54.47240
# Shear Modulus (GPa) = 29.50724 35.37441 32.44083
#
# Velocity S-wave (km/s) = 3.80847 4.16995 3.99330
# Velocity P-wave (km/s) = 6.53343 7.30689 6.93096
#
# Compressibility (1/GPa) = 0.02105487
#
# Stress axis : x y z
#
# Youngs Moduli (GPa) = 57.45033 101.55630 88.22462
#
# Poissons Ratio (x) = 0.33648 0.02973
# Poissons Ratio (y) = 0.19034 0.45138
# Poissons Ratio (z) = 0.01936 0.51959
#
# Static dielectric constant tensor:
#      x y z
#    x 3.521650 -0.041390 0.085310 
#    y -0.041390 3.903510 -0.098690 
#    z 0.085310 -0.098690 4.345110 
# 
# 
# High freq. dielectric constant tensor:
#      x y z
#    x 1.774690 -0.002640 0.004020 
#    y -0.002640 1.815930 -0.003700 
#    z 0.004020 -0.003700 1.814210 
# 
# From -- ./inp_files/224311.got.cif
#   From: 2010.06.25/outbox.cif.g09.slc.cpg/sg2_113_cif.got.tgz:224311.got - 2010.06.27 13:26:56.
