data_PCOD8011619
_publ_section_title
;
Structure prediction by ZEFSAII (Michael W. Deem and Ramdas Pophale) SiO2 
 PCOD8011619
Probable space group: P -1
;
_chemical_formula_sum "Si O2"
_cell_formula_units_Z 16
_cell_length_a 9.447863
_cell_length_b 13.269012
_cell_length_c 11.717539
_cell_angle_alpha 42.595898
_cell_angle_beta 56.344363
_cell_angle_gamma 78.545792
_cell_volume 768.293216
_symmetry_space_group_name_H-M "P -1"
_symmetry_group_IT_number 2
_symmetry_cell_setting 'triclinic'
loop_
_space_group_symop_operation_xyz
x,y,z
-x,-y,-z
loop_
_atom_site_type_symbol
_atom_site_label
_atom_site_fract_x
_atom_site_fract_y
_atom_site_fract_z
Si Si1 0.283468 0.629725 0.451293
Si Si2 0.988372 0.447762 0.178302
Si Si3 0.292597 0.419807 0.195425
Si Si4 0.885105 0.155984 0.793937
Si Si5 0.209737 0.908697 0.490797
Si Si6 0.559635 0.870656 0.284080
Si Si7 0.956968 0.939481 0.406566
Si Si8 0.260449 0.361857 0.517839
O O1 0.168338 0.717808 0.362354
O O2 0.466360 0.770691 0.296475
O O3 0.338514 0.508801 0.448576
O O4 0.164641 0.520935 0.700324
O O5 0.184259 0.517719 0.096327
O O6 0.919764 0.258886 0.361298
O O7 0.000000 0.500000 0.000000
O O8 0.199465 0.235294 0.353597
O O9 0.281786 0.439911 0.318769
O O10 0.500000 0.500000 0.000000
O O11 0.970891 0.053985 0.760139
O O12 0.045052 0.259350 0.723362
O O13 0.719819 0.034406 0.040210
O O14 0.420840 0.927954 0.372050
O O15 0.140224 0.011586 0.345634
O O16 0.156521 0.943648 0.614326
O O17 0.628171 0.756407 0.426024
#
# Coordination Sequence:
#
# PCOD8011619 Si02
#       8
#     2   2   2   2   2   2   2   2
#     4  11  22  42  65  93 125 169 214 262 309 379
#     4  10  21  39  63  88 122 161 207 258 307 369
#     4  10  22  39  60  88 124 165 202 250 316 380
#     4  11  21  41  65  91 128 168 211 257 323 376
#     4   9  19  37  61  86 119 158 205 255 307 362
#     4  11  23  39  64  99 123 162 218 268 303 380
#     4   9  18  39  60  85 120 161 200 255 311 367
#     4  11  24  42  63  92 136 165 202 268 329 369
#
# _framework density 20.825382000000001
#
# number of rings (size 3 to 8) (size 9 to 14) (size 15 to 20)
#    0.000    1.750    5.000    1.500    3.500    2.000 
#    4.500    2.500    0.000    0.000    0.000    0.000 
#    0.000    0.000    0.000    0.000    0.000    0.000 
#
# Total GULP energy -198220.523845 kJ/mol
# GULP energy per Si atom -12388.782740 kJ/mol
# Density = 2.077798 g / cm^3
# Si number density = 20.825382 Si / 1000 Ang^3
#
#
#
# Elastic Constant Matrix: (Units=GPa)
#
#
# Indices 1 2 3 4 5 6 
#
# 1 98.1633 22.7902 41.4324 6.3830 -3.5932 -10.3849
# 2 22.7902 88.1163 25.4158 21.7765 -1.4098 -15.7292
# 3 41.4324 25.4158 86.5759 21.9688 -10.8245 -13.4559
# 4 6.3830 21.7765 21.9688 15.7926 5.9194 -3.2640
# 5 -3.5932 -1.4098 -10.8245 5.9194 36.6135 2.6395
# 6 -10.3849 -15.7292 -13.4559 -3.2640 2.6395 25.2658
#
#
#
# Elastic Compliance Matrix: (Units=1/GPa)
#
#
# Indices 1 2 3 4 5 6 
#
# 1 0.014485 -0.005160 -0.010484 0.017597 -0.004716 -0.000076
# 2 -0.005160 0.022998 0.010065 -0.045119 0.009878 0.010696
# 3 -0.010484 0.010065 0.032441 -0.059463 0.017865 0.009686
# 4 0.017597 -0.045119 -0.059463 0.216352 -0.051183 -0.019228
# 5 -0.004716 0.009878 0.017865 -0.051183 0.040579 0.002874
# 6 -0.000076 0.010696 0.009686 -0.019228 0.002874 0.048581
#
#
# Mechanical properties :
#
#
# Convention : Reuss Voigt Hill
#
# Bulk Modulus (GPa) = 17.01701 50.23691 33.62696
# Shear Modulus (GPa) = 12.30968 27.74884 20.02926
#
# Velocity S-wave (km/s) = 2.43387 3.65424 3.10461
# Velocity P-wave (km/s) = 4.01090 6.47919 5.38828
#
# Compressibility (1/GPa) = 0.05876473
#
# Stress axis : x y z
#
# Youngs Moduli (GPa) = 69.03540 43.48190 30.82493
#
# Poissons Ratio (x) = 0.22439 0.32317
# Poissons Ratio (y) = 0.35625 -0.31024
# Poissons Ratio (z) = 0.72378 -0.43763
#
# Static dielectric constant tensor:
#      x y z
#    x 3.885460 -0.026020 -0.238110 
#    y -0.026020 3.822710 0.056030 
#    z -0.238110 0.056030 3.320340 
# 
# 
# High freq. dielectric constant tensor:
#      x y z
#    x 1.821890 0.001610 -0.013680 
#    y 0.001610 1.812540 0.008810 
#    z -0.013680 0.008810 1.788870 
# 
# From -- ./inp_files/398373.got.cif
#   From: 2010.06.25/outbox.cif.g09.slc.cpg/sg2_200_cif.got.tgz:398373.got - 2010.06.27 13:26:56.
