data_PCOD8011630
_publ_section_title
;
Structure prediction by ZEFSAII (Michael W. Deem and Ramdas Pophale) SiO2 
 PCOD8011630
Probable space group: P -1
;
_chemical_formula_sum "Si O2"
_cell_formula_units_Z 16
_cell_length_a 24.294728
_cell_length_b 8.793544
_cell_length_c 9.385883
_cell_angle_alpha 112.244122
_cell_angle_beta 139.883227
_cell_angle_gamma 98.033913
_cell_volume 830.221991
_symmetry_space_group_name_H-M "P -1"
_symmetry_group_IT_number 2
_symmetry_cell_setting 'triclinic'
loop_
_space_group_symop_operation_xyz
x,y,z
-x,-y,-z
loop_
_atom_site_type_symbol
_atom_site_label
_atom_site_fract_x
_atom_site_fract_y
_atom_site_fract_z
Si Si1 0.065699 0.812726 0.833067
Si Si2 0.156453 0.720881 0.738298
Si Si3 0.940728 0.852010 0.972992
Si Si4 0.627815 0.203831 0.753017
Si Si5 0.900863 0.232299 0.663060
Si Si6 0.457111 0.035044 0.785371
Si Si7 0.275312 0.061348 0.550853
Si Si8 0.319885 0.503430 0.789221
O O1 0.131841 0.833772 0.835579
O O2 0.930270 0.554834 0.500047
O O3 0.062450 0.003282 0.869615
O O4 0.144859 0.874976 0.148418
O O5 0.139836 0.783631 0.579556
O O6 0.294390 0.850115 0.075659
O O7 0.803166 0.601304 0.571493
O O8 0.027527 0.839878 0.213064
O O9 0.000000 0.000000 0.000000
O O10 0.500000 0.000000 0.500000
O O11 0.612754 0.188137 0.543273
O O12 0.683038 0.439939 0.029667
O O13 0.769447 0.051160 0.420237
O O14 0.000000 0.500000 0.000000
O O15 0.368934 0.060484 0.669661
O O16 0.569724 0.269363 0.004683
O O17 0.500000 0.000000 0.000000
O O18 0.332429 0.323313 0.751487
#
# Coordination Sequence:
#
# PCOD8011630 Si02
#       8
#     2   2   2   2   2   2   2   2
#     4  10  21  39  63  89 124 168 194 250 318 369
#     4  11  22  38  62  90 125 162 205 252 306 368
#     4  11  20  39  63  93 125 159 202 248 318 366
#     4  10  22  40  64  86 121 161 205 250 311 361
#     4  12  23  35  63  94 122 158 207 257 299 371
#     4  11  25  42  65  92 118 162 214 259 297 370
#     4  11  22  42  63  91 125 165 203 250 314 367
#     4  10  22  41  66  86 125 171 199 250 312 366
#
# _framework density 19.271954000000001
#
# number of rings (size 3 to 8) (size 9 to 14) (size 15 to 20)
#    0.000    1.250    5.000    1.875    5.250    0.500 
#    0.000    3.125    0.000    0.000    0.000    0.000 
#    0.000    0.000    0.000    0.000    0.000    0.000 
#
# Total GULP energy -198278.430951 kJ/mol
# GULP energy per Si atom -12392.401934 kJ/mol
# Density = 1.922809 g / cm^3
# Si number density = 19.271954 Si / 1000 Ang^3
#
#
#
# Elastic Constant Matrix: (Units=GPa)
#
#
# Indices 1 2 3 4 5 6 
#
# 1 146.9048 59.3403 63.5752 -4.4107 -4.3707 -10.9061
# 2 59.3403 83.5727 41.5965 -10.4908 -8.0759 9.5168
# 3 63.5752 41.5965 98.8079 -8.9443 -4.6710 10.9556
# 4 -4.4107 -10.4908 -8.9443 34.1441 1.1354 -1.6236
# 5 -4.3707 -8.0759 -4.6710 1.1354 44.7767 -2.7556
# 6 -10.9061 9.5168 10.9556 -1.6236 -2.7556 58.5687
#
#
#
# Elastic Compliance Matrix: (Units=1/GPa)
#
#
# Indices 1 2 3 4 5 6 
#
# 1 0.012199 -0.006539 -0.005747 -0.001723 -0.000277 0.004348
# 2 -0.006539 0.019240 -0.003029 0.004031 0.002194 -0.003562
# 3 -0.005747 -0.003029 0.015692 0.002266 0.000261 -0.003438
# 4 -0.001723 0.004031 0.002266 0.030872 -0.000021 -0.000545
# 5 -0.000277 0.002194 0.000261 -0.000021 0.022767 0.000614
# 6 0.004348 -0.003562 -0.003438 -0.000545 0.000614 0.019119
#
#
# Mechanical properties :
#
#
# Convention : Reuss Voigt Hill
#
# Bulk Modulus (GPa) = 60.60327 73.14547 66.87437
# Shear Modulus (GPa) = 32.04735 38.48279 35.26507
#
# Velocity S-wave (km/s) = 4.08229 4.47344 4.28233
# Velocity P-wave (km/s) = 7.33040 8.04481 7.69590
#
# Compressibility (1/GPa) = 0.01650076
#
# Stress axis : x y z
#
# Youngs Moduli (GPa) = 81.97702 51.97542 63.72640
#
# Poissons Ratio (x) = 0.33988 0.36624
# Poissons Ratio (y) = 0.53606 0.19300
# Poissons Ratio (z) = 0.47113 0.15741
#
# Static dielectric constant tensor:
#      x y z
#    x 3.217480 0.554130 -0.688170 
#    y 0.554130 2.541790 0.522960 
#    z -0.688170 0.522960 3.560710 
# 
# 
# High freq. dielectric constant tensor:
#      x y z
#    x 1.775290 -0.010020 0.002670 
#    y -0.010020 1.729870 0.000320 
#    z 0.002670 0.000320 1.758000 
# 
# From -- ./inp_files/181666.got.cif
#   From: 2010.06.25/outbox.cif.g09.slc.cpg/sg2_91_cif.got.tgz:181666.got - 2010.06.27 13:26:56.
