data_PCOD8011756
_publ_section_title
;
Structure prediction by ZEFSAII (Michael W. Deem and Ramdas Pophale) SiO2 
 PCOD8011756
Probable space group: P -1
;
_chemical_formula_sum "Si O2"
_cell_formula_units_Z 14
_cell_length_a 15.101473
_cell_length_b 9.560846
_cell_length_c 8.240707
_cell_angle_alpha 70.322835
_cell_angle_beta 39.154986
_cell_angle_gamma 87.777460
_cell_volume 656.083527
_symmetry_space_group_name_H-M "P -1"
_symmetry_group_IT_number 2
_symmetry_cell_setting 'triclinic'
loop_
_space_group_symop_operation_xyz
x,y,z
-x,-y,-z
loop_
_atom_site_type_symbol
_atom_site_label
_atom_site_fract_x
_atom_site_fract_y
_atom_site_fract_z
Si Si1 0.232253 0.477146 0.113833
Si Si2 0.901431 0.258492 0.230232
Si Si3 0.550941 0.563493 0.725162
Si Si4 0.904187 0.831900 0.775707
Si Si5 0.171085 0.504033 0.568764
Si Si6 0.633338 0.872573 0.307867
Si Si7 0.303931 0.813966 0.731335
O O1 0.114969 0.318377 0.256619
O O2 0.189814 0.478049 0.362813
O O3 0.403850 0.479679 0.851819
O O4 0.218753 0.633067 0.988583
O O5 0.826406 0.320560 0.461484
O O6 0.762654 0.151742 0.357049
O O7 0.001502 0.166773 0.196765
O O8 0.007382 0.389649 0.904884
O O9 0.697808 0.520731 0.495243
O O10 0.596347 0.755514 0.564886
O O11 0.500000 0.500000 0.000000
O O12 0.737380 0.821421 0.058602
O O13 0.000000 0.000000 0.500000
O O14 0.480419 0.850903 0.437830
O O15 0.716639 0.058030 0.164602
#
# Coordination Sequence:
#
# PCOD8011756 Si02
#       7
#     2   2   2   2   2   2   2
#     4  10  23  41  70  94 131 181 222 264 335 394
#     4  11  24  39  64  96 132 172 216 273 334 379
#     4   9  19  39  69  98 128 169 223 271 326 387
#     4  12  28  44  64 101 135 174 222 274 329 393
#     4  10  21  39  64 101 131 165 226 273 318 397
#     4  10  23  45  67  98 137 171 223 271 327 394
#     4  10  24  43  72  95 130 179 215 274 334 389
#
# _framework density 21.338747000000001
#
# number of rings (size 3 to 8) (size 9 to 14) (size 15 to 20)
#    0.000    1.714    1.429    1.714    6.000    5.143 
#    0.000    0.714    0.000    0.000    0.000    0.000 
#    0.000    0.000    0.000    0.000    0.000    0.000 
#
# Total GULP energy -173500.059069 kJ/mol
# GULP energy per Si atom -12392.861362 kJ/mol
# Density = 2.129018 g / cm^3
# Si number density = 21.338747 Si / 1000 Ang^3
#
#
#
# Elastic Constant Matrix: (Units=GPa)
#
#
# Indices 1 2 3 4 5 6 
#
# 1 129.8851 38.2114 40.8974 2.4109 -13.1456 3.0754
# 2 38.2114 95.6788 52.1358 -4.7290 -7.9340 9.6489
# 3 40.8974 52.1358 78.9447 -7.5129 0.0681 8.9465
# 4 2.4109 -4.7290 -7.5129 44.8325 -4.2811 -6.0591
# 5 -13.1456 -7.9340 0.0681 -4.2811 23.2272 3.6554
# 6 3.0754 9.6489 8.9465 -6.0591 3.6554 30.0780
#
#
#
# Elastic Compliance Matrix: (Units=1/GPa)
#
#
# Indices 1 2 3 4 5 6 
#
# 1 0.009992 -0.001149 -0.004497 -0.000940 0.005123 -0.000127
# 2 -0.001149 0.017485 -0.010590 0.000288 0.005878 -0.002998
# 3 -0.004497 -0.010590 0.022389 0.002115 -0.005571 -0.001699
# 4 -0.000940 0.000288 0.002115 0.023560 0.003317 0.003718
# 5 0.005123 0.005878 -0.005571 0.003317 0.049549 -0.006106
# 6 -0.000127 -0.002998 -0.001699 0.003718 -0.006106 0.036218
#
#
# Mechanical properties :
#
#
# Convention : Reuss Voigt Hill
#
# Bulk Modulus (GPa) = 57.49016 62.99977 60.24496
# Shear Modulus (GPa) = 25.32117 31.17848 28.24983
#
# Velocity S-wave (km/s) = 3.44849 3.82661 3.64246
# Velocity P-wave (km/s) = 6.54647 7.00797 6.78115
#
# Compressibility (1/GPa) = 0.01739428
#
# Stress axis : x y z
#
# Youngs Moduli (GPa) = 100.07954 57.19174 44.66429
#
# Poissons Ratio (x) = 0.06571 0.20086
# Poissons Ratio (y) = 0.11498 0.47300
# Poissons Ratio (z) = 0.45007 0.60566
#
# Static dielectric constant tensor:
#      x y z
#    x 4.066270 -0.332230 -0.277650 
#    y -0.332230 3.881750 0.108270 
#    z -0.277650 0.108270 3.909070 
# 
# 
# High freq. dielectric constant tensor:
#      x y z
#    x 1.848430 -0.020830 -0.015150 
#    y -0.020830 1.827670 0.005070 
#    z -0.015150 0.005070 1.831930 
# 
# From -- ./inp_files/196564.got.cif
#   From: 2010.06.25/outbox.cif.g09.slc.cpg/sg2_99_cif.got.tgz:196564.got - 2010.06.27 13:26:56.
