data_PCOD8011053
_publ_section_title
;
Structure prediction by ZEFSAII (Michael W. Deem and Ramdas Pophale) SiO2 
 PCOD8011053
Probable space group: P -1
;
_chemical_formula_sum "Si O2"
_cell_formula_units_Z 16
_cell_length_a 9.100403
_cell_length_b 14.287319
_cell_length_c 22.554570
_cell_angle_alpha 22.207358
_cell_angle_beta 134.006593
_cell_angle_gamma 135.508034
_cell_volume 770.224867
_symmetry_space_group_name_H-M "P -1"
_symmetry_group_IT_number 2
_symmetry_cell_setting 'triclinic'
loop_
_space_group_symop_operation_xyz
x,y,z
-x,-y,-z
loop_
_atom_site_type_symbol
_atom_site_label
_atom_site_fract_x
_atom_site_fract_y
_atom_site_fract_z
Si Si1 0.528036 0.750704 0.623639
Si Si2 0.219005 0.562188 0.892020
Si Si3 0.180675 0.146357 0.033321
Si Si4 0.753173 0.924859 0.463183
Si Si5 0.154830 0.527914 0.083011
Si Si6 0.908116 0.618724 0.248303
Si Si7 0.386993 0.876589 0.860820
Si Si8 0.723519 0.659666 0.492532
O O1 0.601977 0.812064 0.541230
O O2 0.714095 0.683618 0.752879
O O3 0.309344 0.528145 0.694949
O O4 0.500000 0.000000 0.500000
O O5 0.337602 0.622368 0.953235
O O6 0.966334 0.482426 0.882377
O O7 0.299784 0.815173 0.726287
O O8 0.259989 0.313438 0.016701
O O9 0.360608 0.011683 0.138421
O O10 0.124425 0.337767 0.856434
O O11 0.985009 0.899994 0.135648
O O12 0.704642 0.695749 0.536211
O O13 0.000000 0.000000 0.500000
O O14 0.326850 0.797747 0.958694
O O15 0.000000 0.500000 0.000000
O O16 0.080536 0.455062 0.401346
O O17 0.241530 0.060092 0.691856
O O18 0.500000 0.500000 0.500000
#
# Coordination Sequence:
#
# PCOD8011053 Si02
#       8
#     2   2   2   2   2   2   2   2
#     4  12  24  41  66  99 135 167 220 278 326 385
#     4  10  21  38  66  92 127 162 218 267 316 384
#     4  11  21  42  62  95 126 168 216 263 323 385
#     4  11  22  40  69  99 125 172 224 267 325 392
#     4  10  22  40  60  96 128 166 210 265 328 379
#     4  11  25  40  64  93 133 171 211 266 328 385
#     4  10  21  40  66  92 126 167 219 260 327 383
#     4  11  23  45  67  92 133 180 217 264 330 401
#
# _framework density 20.773153000000001
#
# number of rings (size 3 to 8) (size 9 to 14) (size 15 to 20)
#    0.000    1.250    3.750    2.625    3.500    0.000 
#    4.500    1.250    0.000    0.000    0.000    0.000 
#    0.000    0.000    0.000    0.000    0.000    0.000 
#
# Total GULP energy -198249.834564 kJ/mol
# GULP energy per Si atom -12390.614660 kJ/mol
# Density = 2.072587 g / cm^3
# Si number density = 20.773153 Si / 1000 Ang^3
#
#
#
# Elastic Constant Matrix: (Units=GPa)
#
#
# Indices 1 2 3 4 5 6 
#
# 1 137.5499 37.9223 64.9764 -3.3216 -16.7673 21.8868
# 2 37.9223 82.9909 21.7572 -8.6775 -4.9355 5.0713
# 3 64.9764 21.7572 105.3936 10.1978 -3.6909 5.5657
# 4 -3.3216 -8.6775 10.1978 37.2491 10.0856 3.3298
# 5 -16.7673 -4.9355 -3.6909 10.0856 41.2999 0.8899
# 6 21.8868 5.0713 5.5657 3.3298 0.8899 33.3162
#
#
#
# Elastic Compliance Matrix: (Units=1/GPa)
#
#
# Indices 1 2 3 4 5 6 
#
# 1 0.013261 -0.003294 -0.007155 0.001935 0.004036 -0.007316
# 2 -0.003294 0.014228 -0.001264 0.003544 -0.000613 -0.000128
# 3 -0.007155 -0.001264 0.014464 -0.004995 -0.000608 0.002992
# 4 0.001935 0.003544 -0.004995 0.031411 -0.006823 -0.003933
# 5 0.004036 -0.000613 -0.000608 -0.006823 0.027444 -0.002508
# 6 -0.007316 -0.000128 0.002992 -0.003933 -0.002508 0.034802
#
#
# Mechanical properties :
#
#
# Convention : Reuss Voigt Hill
#
# Bulk Modulus (GPa) = 53.97511 63.91627 58.94569
# Shear Modulus (GPa) = 30.26391 35.79161 33.02776
#
# Velocity S-wave (km/s) = 3.82105 4.15538 3.99171
# Velocity P-wave (km/s) = 6.74587 7.33882 7.04858
#
# Compressibility (1/GPa) = 0.01852706
#
# Stress axis : x y z
#
# Youngs Moduli (GPa) = 75.40817 70.28308 69.13519
#
# Poissons Ratio (x) = 0.23154 0.49467
# Poissons Ratio (y) = 0.24842 0.08738
# Poissons Ratio (z) = 0.53955 0.08883
#
# Static dielectric constant tensor:
#      x y z
#    x 4.259760 0.254900 -0.259010 
#    y 0.254900 3.861830 -0.019040 
#    z -0.259010 -0.019040 4.063780 
# 
# 
# High freq. dielectric constant tensor:
#      x y z
#    x 1.813110 0.021870 -0.003450 
#    y 0.021870 1.802900 0.006680 
#    z -0.003450 0.006680 1.821070 
# 
# From -- ./inp_files/608165.got.cif
#   From: 2010.06.25/outbox.cif.g09.slc.cpg/sg2_305_cif.got.tgz:608165.got - 2010.06.27 13:26:56.
