data_PCOD8011992
_publ_section_title
;
Structure prediction by ZEFSAII (Michael W. Deem and Ramdas Pophale) SiO2 
 PCOD8011992
Probable space group: P -1
;
_chemical_formula_sum "Si O2"
_cell_formula_units_Z 16
_cell_length_a 5.146755
_cell_length_b 10.136715
_cell_length_c 19.201418
_cell_angle_alpha 134.071348
_cell_angle_beta 79.776376
_cell_angle_gamma 100.692965
_cell_volume 705.575236
_symmetry_space_group_name_H-M "P -1"
_symmetry_group_IT_number 2
_symmetry_cell_setting 'triclinic'
loop_
_space_group_symop_operation_xyz
x,y,z
-x,-y,-z
loop_
_atom_site_type_symbol
_atom_site_label
_atom_site_fract_x
_atom_site_fract_y
_atom_site_fract_z
Si Si1 0.978509 0.090020 0.299116
Si Si2 0.446355 0.821045 0.754395
Si Si3 0.646528 0.533259 0.856013
Si Si4 0.908957 0.699377 0.219061
Si Si5 0.062494 0.780802 0.499687
Si Si6 0.721627 0.849499 0.415530
Si Si7 0.340236 0.512591 0.313690
Si Si8 0.287497 0.054107 0.975221
O O1 0.742654 0.181133 0.304168
O O2 0.017509 0.203782 0.410805
O O3 0.250106 0.110742 0.250949
O O4 0.899539 0.872296 0.231206
O O5 0.451245 0.613108 0.707030
O O6 0.321230 0.948937 0.863309
O O7 0.346057 0.443655 0.834859
O O8 0.765306 0.574373 0.786595
O O9 0.828738 0.405690 0.844748
O O10 0.662504 0.729636 0.965295
O O11 0.939176 0.779271 0.325527
O O12 0.119591 0.568653 0.400955
O O13 0.818064 0.836401 0.485439
O O14 0.313668 0.935944 0.525981
O O15 0.466418 0.714621 0.360946
O O16 0.500000 0.000000 0.000000
O O17 0.000000 0.000000 0.000000
#
# Coordination Sequence:
#
# PCOD8011992 Si02
#       8
#     2   2   2   2   2   2   2   2
#     4  11  27  46  64  95 144 188 214 262 332 408
#     4  12  28  46  66  96 140 180 219 267 337 415
#     4  11  22  40  71 105 123 166 224 297 333 373
#     4  10  21  42  68  98 135 172 225 276 331 381
#     4  10  21  39  65  94 132 178 224 272 327 379
#     4   9  20  36  63  98 128 167 227 289 315 371
#     4  11  23  37  68  95 138 162 232 271 340 380
#     4  12  25  45  73 102 134 166 222 282 343 391
#
# _framework density 22.676532000000002
#
# number of rings (size 3 to 8) (size 9 to 14) (size 15 to 20)
#    0.000    1.250    2.500    2.625    5.250    1.000 
#    0.000    3.750    0.000    0.000    0.000    0.000 
#    0.000    0.000    0.000    0.000    0.000    0.000 
#
# Total GULP energy -198357.541777 kJ/mol
# GULP energy per Si atom -12397.346361 kJ/mol
# Density = 2.262492 g / cm^3
# Si number density = 22.676532 Si / 1000 Ang^3
#
#
#
# Elastic Constant Matrix: (Units=GPa)
#
#
# Indices 1 2 3 4 5 6 
#
# 1 110.2668 28.4659 20.5997 6.6029 -1.8139 -13.3466
# 2 28.4659 50.7924 21.9395 2.6823 -14.4467 -4.8825
# 3 20.5997 21.9395 105.0936 13.6232 -17.8662 -4.4634
# 4 6.6029 2.6823 13.6232 31.9083 -7.1060 -1.9624
# 5 -1.8139 -14.4467 -17.8662 -7.1060 30.7114 8.1817
# 6 -13.3466 -4.8825 -4.4634 -1.9624 8.1817 43.1210
#
#
#
# Elastic Compliance Matrix: (Units=1/GPa)
#
#
# Indices 1 2 3 4 5 6 
#
# 1 0.011520 -0.006811 -0.001203 -0.002117 -0.004633 0.003453
# 2 -0.006811 0.027896 -0.002867 0.002896 0.012098 -0.001410
# 3 -0.001203 -0.002867 0.011565 -0.003444 0.004655 -0.000540
# 4 -0.002117 0.002896 -0.003444 0.034617 0.007379 -0.000509
# 5 -0.004633 0.012098 0.004655 0.007379 0.044439 -0.007678
# 6 0.003453 -0.001410 -0.000540 -0.000509 -0.007678 0.025477
#
#
# Mechanical properties :
#
#
# Convention : Reuss Voigt Hill
#
# Bulk Modulus (GPa) = 34.22426 45.35146 39.78786
# Shear Modulus (GPa) = 26.73571 34.15799 30.44685
#
# Velocity S-wave (km/s) = 3.43739 3.88534 3.66821
# Velocity P-wave (km/s) = 5.55691 6.33802 5.96028
#
# Compressibility (1/GPa) = 0.02921904
#
# Stress axis : x y z
#
# Youngs Moduli (GPa) = 86.80281 35.84744 86.47152
#
# Poissons Ratio (x) = 0.24415 0.10401
# Poissons Ratio (y) = 0.59121 0.24793
# Poissons Ratio (z) = 0.10440 0.10278
#
# Static dielectric constant tensor:
#      x y z
#    x 3.924440 -0.011700 -0.119140 
#    y -0.011700 4.089250 0.141590 
#    z -0.119140 0.141590 4.522440 
# 
# 
# High freq. dielectric constant tensor:
#      x y z
#    x 1.895410 -0.005800 -0.007660 
#    y -0.005800 1.886180 0.017310 
#    z -0.007660 0.017310 1.902600 
# 
# From -- ./inp_files/99602.got.cif
#   From: 2010.06.25/outbox.cif.g09.slc.cpg/sg2_50_cif.got.tgz:99602.got - 2010.06.27 13:26:56.
