data_PCOD8011050
_publ_section_title
;
Structure prediction by ZEFSAII (Michael W. Deem and Ramdas Pophale) SiO2 
 PCOD8011050
Probable space group: P -1
;
_chemical_formula_sum "Si O2"
_cell_formula_units_Z 16
_cell_length_a 11.345596
_cell_length_b 14.079299
_cell_length_c 13.829466
_cell_angle_alpha 41.253175
_cell_angle_beta 148.697188
_cell_angle_gamma 135.525491
_cell_volume 740.294234
_symmetry_space_group_name_H-M "P -1"
_symmetry_group_IT_number 2
_symmetry_cell_setting 'triclinic'
loop_
_space_group_symop_operation_xyz
x,y,z
-x,-y,-z
loop_
_atom_site_type_symbol
_atom_site_label
_atom_site_fract_x
_atom_site_fract_y
_atom_site_fract_z
Si Si1 0.207563 0.317923 0.938251
Si Si2 0.730540 0.497237 0.814079
Si Si3 0.325958 0.176901 0.488758
Si Si4 0.495543 0.797565 0.200652
Si Si5 0.502772 0.511407 0.140827
Si Si6 0.869388 0.013619 0.202787
Si Si7 0.112144 0.016886 0.171687
Si Si8 0.716048 0.249331 0.557524
O O1 0.335588 0.342243 0.904578
O O2 0.933260 0.300494 0.742980
O O3 0.293494 0.458171 0.959398
O O4 0.274028 0.180619 0.150532
O O5 0.711882 0.659129 0.647551
O O6 0.589713 0.379063 0.729946
O O7 0.612365 0.450106 0.870918
O O8 0.000000 0.500000 0.000000
O O9 0.436208 0.137284 0.695331
O O10 0.496039 0.170614 0.524551
O O11 0.097339 0.055428 0.397058
O O12 0.721002 0.851559 0.249085
O O13 0.280001 0.866620 0.964449
O O14 0.665036 0.390917 0.357624
O O15 0.928339 0.017606 0.127566
O O16 0.239285 0.880640 0.383886
O O17 0.000000 0.000000 0.000000
#
# Coordination Sequence:
#
# PCOD8011050 Si02
#       8
#     2   2   2   2   2   2   2   2
#     4  10  21  40  62  91 126 165 207 255 314 379
#     4  11  23  41  67  92 127 164 214 260 316 375
#     4  11  23  43  65  92 125 170 215 259 317 381
#     4  11  24  42  66  92 127 171 209 267 314 370
#     4  10  23  40  62  91 129 162 206 262 313 375
#     4  11  24  43  65  92 132 166 212 264 316 375
#     4  10  21  38  66  92 124 163 211 255 315 384
#     4  10  22  38  65  88 127 163 207 259 319 372
#
# _framework density 21.613026999999999
#
# number of rings (size 3 to 8) (size 9 to 14) (size 15 to 20)
#    0.000    1.500    1.250    4.125    5.250    2.000 
#    0.000    1.250    0.000    0.000    0.000    0.000 
#    0.000    0.000    0.000    0.000    0.000    0.000 
#
# Total GULP energy -198344.038679 kJ/mol
# GULP energy per Si atom -12396.502417 kJ/mol
# Density = 2.156384 g / cm^3
# Si number density = 21.613027 Si / 1000 Ang^3
#
#
#
# Elastic Constant Matrix: (Units=GPa)
#
#
# Indices 1 2 3 4 5 6 
#
# 1 88.6864 29.7888 19.9994 -7.7063 5.4613 12.3299
# 2 29.7888 102.8211 27.6332 10.2737 14.3087 10.4039
# 3 19.9994 27.6332 67.9108 10.4448 11.9049 8.8379
# 4 -7.7063 10.2737 10.4448 36.5027 -0.6287 -7.0170
# 5 5.4613 14.3087 11.9049 -0.6287 34.7281 2.2461
# 6 12.3299 10.4039 8.8379 -7.0170 2.2461 34.3365
#
#
#
# Elastic Compliance Matrix: (Units=1/GPa)
#
#
# Indices 1 2 3 4 5 6 
#
# 1 0.013795 -0.003437 -0.003137 0.004354 0.000546 -0.002251
# 2 -0.003437 0.012572 -0.002496 -0.004099 -0.003694 -0.002529
# 3 -0.003137 -0.002496 0.018989 -0.006238 -0.004844 -0.003963
# 4 0.004354 -0.004099 -0.006238 0.032804 0.003234 0.007777
# 5 0.000546 -0.003694 -0.004844 0.003234 0.031902 0.000744
# 6 -0.002251 -0.002529 -0.003963 0.007777 0.000744 0.033259
#
#
# Mechanical properties :
#
#
# Convention : Reuss Voigt Hill
#
# Bulk Modulus (GPa) = 36.74231 46.02900 41.38566
# Shear Modulus (GPa) = 29.31996 33.24658 31.28327
#
# Velocity S-wave (km/s) = 3.68718 3.92633 3.80863
# Velocity P-wave (km/s) = 5.92993 6.47285 6.20733
#
# Compressibility (1/GPa) = 0.02721658
#
# Stress axis : x y z
#
# Youngs Moduli (GPa) = 72.48970 79.54316 52.66196
#
# Poissons Ratio (x) = 0.27339 0.16518
# Poissons Ratio (y) = 0.24915 0.13145
# Poissons Ratio (z) = 0.22737 0.19855
#
# Static dielectric constant tensor:
#      x y z
#    x 3.877980 0.160980 0.015230 
#    y 0.160980 4.337630 -0.092710 
#    z 0.015230 -0.092710 4.079770 
# 
# 
# High freq. dielectric constant tensor:
#      x y z
#    x 1.848010 0.008810 -0.002640 
#    y 0.008810 1.859240 0.009730 
#    z -0.002640 0.009730 1.841460 
# 
# From -- ./inp_files/521513.got.cif
#   From: 2010.06.25/outbox.cif.g09.slc.cpg/sg2_261_cif.got.tgz:521513.got - 2010.06.27 13:26:56.
