data_PCOD8011558
_publ_section_title
;
Structure prediction by ZEFSAII (Michael W. Deem and Ramdas Pophale) SiO2 
 PCOD8011558
Probable space group: P -1
;
_chemical_formula_sum "Si O2"
_cell_formula_units_Z 16
_cell_length_a 17.780807
_cell_length_b 9.288514
_cell_length_c 8.738060
_cell_angle_alpha 130.338011
_cell_angle_beta 87.451447
_cell_angle_gamma 125.045348
_cell_volume 766.846942
_symmetry_space_group_name_H-M "P -1"
_symmetry_group_IT_number 2
_symmetry_cell_setting 'triclinic'
loop_
_space_group_symop_operation_xyz
x,y,z
-x,-y,-z
loop_
_atom_site_type_symbol
_atom_site_label
_atom_site_fract_x
_atom_site_fract_y
_atom_site_fract_z
Si Si1 0.572152 0.446537 0.465013
Si Si2 0.765047 0.617482 0.085895
Si Si3 0.518884 0.063572 0.720609
Si Si4 0.608700 0.812625 0.194574
Si Si5 0.252249 0.163342 0.033035
Si Si6 0.279848 0.163509 0.528881
Si Si7 0.038380 0.254905 0.765854
Si Si8 0.893201 0.225580 0.964317
O O1 0.500000 0.500000 0.500000
O O2 0.659300 0.602817 0.698136
O O3 0.632576 0.544062 0.363472
O O4 0.494119 0.132791 0.295988
O O5 0.793407 0.831630 0.355205
O O6 0.839706 0.569939 0.070339
O O7 0.638612 0.353827 0.935700
O O8 0.789590 0.737602 0.996412
O O9 0.424513 0.040383 0.756832
O O10 0.500000 0.000000 0.500000
O O11 0.662822 0.897087 0.416677
O O12 0.500000 0.500000 0.000000
O O13 0.693882 0.896031 0.120176
O O14 0.149397 0.893541 0.944284
O O15 0.205895 0.924405 0.247738
O O16 0.964829 0.174813 0.865173
O O17 0.041679 0.458731 0.810755
O O18 0.000000 0.000000 0.500000
#
# Coordination Sequence:
#
# PCOD8011558 Si02
#       8
#     2   2   2   2   2   2   2   2
#     4  11  23  36  57  88 135 169 214 258 306 380
#     4  11  23  40  66  91 127 170 218 262 315 390
#     4  12  23  37  60  96 132 178 214 251 321 382
#     4  11  20  39  61  89 137 173 206 254 310 386
#     4  10  22  42  62  95 130 166 213 262 317 386
#     4  10  21  39  62  92 125 170 210 263 322 380
#     4  11  24  46  71  93 125 165 219 277 331 383
#     4  10  24  44  70  94 124 164 217 276 333 376
#
# _framework density 20.864660000000001
#
# number of rings (size 3 to 8) (size 9 to 14) (size 15 to 20)
#    0.000    1.250    5.000    1.500    5.250    2.000 
#    0.000    0.625    0.000    0.000    0.000    0.000 
#    0.000    0.000    0.000    0.000    0.000    0.000 
#
# Total GULP energy -198320.219672 kJ/mol
# GULP energy per Si atom -12395.013729 kJ/mol
# Density = 2.081717 g / cm^3
# Si number density = 20.864660 Si / 1000 Ang^3
#
#
#
# Elastic Constant Matrix: (Units=GPa)
#
#
# Indices 1 2 3 4 5 6 
#
# 1 131.3919 45.5146 17.6692 -3.5124 -12.9580 -4.5192
# 2 45.5146 150.1198 33.2926 -3.2533 -14.3010 4.4965
# 3 17.6692 33.2926 62.0733 -0.0163 -12.7484 -0.4053
# 4 -3.5124 -3.2533 -0.0163 29.6520 -5.4215 -3.3548
# 5 -12.9580 -14.3010 -12.7484 -5.4215 24.7505 3.1299
# 6 -4.5192 4.4965 -0.4053 -3.3548 3.1299 34.2698
#
#
#
# Elastic Compliance Matrix: (Units=1/GPa)
#
#
# Indices 1 2 3 4 5 6 
#
# 1 0.008878 -0.002249 -0.000659 0.001535 0.003179 0.001318
# 2 -0.002249 0.008382 -0.003390 0.000898 0.002313 -0.001560
# 3 -0.000659 -0.003390 0.019783 0.001040 0.008120 -0.000048
# 4 0.001535 0.000898 0.001040 0.036037 0.009402 0.002766
# 5 0.003179 0.002313 0.008120 0.009402 0.050081 -0.003442
# 6 0.001318 -0.001560 -0.000048 0.002766 -0.003442 0.030143
#
#
# Mechanical properties :
#
#
# Convention : Reuss Voigt Hill
#
# Bulk Modulus (GPa) = 40.90491 59.61532 50.26012
# Shear Modulus (GPa) = 28.72723 34.20836 31.46780
#
# Velocity S-wave (km/s) = 3.71460 4.05351 3.88775
# Velocity P-wave (km/s) = 6.16807 7.10931 6.65535
#
# Compressibility (1/GPa) = 0.02444694
#
# Stress axis : x y z
#
# Youngs Moduli (GPa) = 112.63300 119.30887 50.54729
#
# Poissons Ratio (x) = 0.26833 0.03332
# Poissons Ratio (y) = 0.25332 0.17136
# Poissons Ratio (z) = 0.07424 0.40447
#
# Static dielectric constant tensor:
#      x y z
#    x 4.577040 -0.212790 -0.201560 
#    y -0.212790 4.161740 -0.053280 
#    z -0.201560 -0.053280 3.800340 
# 
# 
# High freq. dielectric constant tensor:
#      x y z
#    x 1.825650 0.002830 0.001630 
#    y 0.002830 1.816430 -0.005940 
#    z 0.001630 -0.005940 1.804860 
# 
# From -- ./inp_files/208019.got.cif
#   From: 2010.06.25/outbox.cif.g09.slc.cpg/sg2_105_cif.got.tgz:208019.got - 2010.06.27 13:26:56.
