data_PCOD8011196
_publ_section_title
;
Structure prediction by ZEFSAII (Michael W. Deem and Ramdas Pophale) SiO2 
 PCOD8011196
Probable space group: P -1
;
_chemical_formula_sum "Si O2"
_cell_formula_units_Z 16
_cell_length_a 16.553921
_cell_length_b 8.832911
_cell_length_c 14.211787
_cell_angle_alpha 143.950976
_cell_angle_beta 36.131004
_cell_angle_gamma 140.171985
_cell_volume 680.328145
_symmetry_space_group_name_H-M "P -1"
_symmetry_group_IT_number 2
_symmetry_cell_setting 'triclinic'
loop_
_space_group_symop_operation_xyz
x,y,z
-x,-y,-z
loop_
_atom_site_type_symbol
_atom_site_label
_atom_site_fract_x
_atom_site_fract_y
_atom_site_fract_z
Si Si1 0.893863 0.121813 0.605726
Si Si2 0.435681 0.249763 0.259507
Si Si3 0.445645 0.176174 0.512183
Si Si4 0.033793 0.743372 0.796718
Si Si5 0.720207 0.614293 0.868531
Si Si6 0.310007 0.032293 0.765116
Si Si7 0.156643 0.821998 0.520315
Si Si8 0.542800 0.795732 0.991069
O O1 0.918708 0.092586 0.456081
O O2 0.921186 0.439816 0.767667
O O3 0.727095 0.958357 0.701463
O O4 0.000000 0.000000 0.500000
O O5 0.459767 0.506670 0.435546
O O6 0.543209 0.101313 0.126250
O O7 0.479179 0.356933 0.165667
O O8 0.373878 0.181733 0.683721
O O9 0.559748 0.011853 0.319534
O O10 0.319841 0.042332 0.487695
O O11 0.057859 0.809376 0.696799
O O12 0.185295 0.751454 0.709538
O O13 0.000000 0.000000 0.000000
O O14 0.839921 0.484512 0.655775
O O15 0.581570 0.356394 0.895308
O O16 0.766428 0.794796 0.011020
O O17 0.692013 0.794286 0.899270
#
# Coordination Sequence:
#
# PCOD8011196 Si02
#       8
#     2   2   2   2   2   2   2   2
#     4  12  27  47  68  99 142 194 231 273 345 417
#     4  11  23  41  63 100 149 175 217 279 361 410
#     4  10  21  39  67 103 136 173 217 291 358 389
#     4  11  26  48  74  98 133 189 241 283 325 408
#     4  11  20  41  66 107 127 172 230 277 351 403
#     4  10  21  38  70 100 134 171 232 288 332 400
#     4  11  25  45  75  97 135 177 240 289 334 415
#     4  10  22  36  68 102 135 176 214 285 345 415
#
# _framework density 23.518063000000001
#
# number of rings (size 3 to 8) (size 9 to 14) (size 15 to 20)
#    0.000    1.250    2.500    3.375    5.250    1.500 
#    2.250    0.625    0.000    0.000    0.000    0.000 
#    0.000    0.000    0.000    0.000    0.000    0.000 
#
# Total GULP energy -198303.119726 kJ/mol
# GULP energy per Si atom -12393.944983 kJ/mol
# Density = 2.346454 g / cm^3
# Si number density = 23.518063 Si / 1000 Ang^3
#
#
#
# Elastic Constant Matrix: (Units=GPa)
#
#
# Indices 1 2 3 4 5 6 
#
# 1 162.0289 35.7539 49.5968 17.6934 -3.4317 -10.8027
# 2 35.7539 83.0063 41.3005 19.1910 5.0616 15.2249
# 3 49.5968 41.3005 143.1675 6.8361 16.2449 -7.1569
# 4 17.6934 19.1910 6.8361 37.4216 5.1025 12.2483
# 5 -3.4317 5.0616 16.2449 5.1025 24.8667 6.5097
# 6 -10.8027 15.2249 -7.1569 12.2483 6.5097 40.7332
#
#
#
# Elastic Compliance Matrix: (Units=1/GPa)
#
#
# Indices 1 2 3 4 5 6 
#
# 1 0.008004 -0.002340 -0.002080 -0.003664 0.002833 0.003281
# 2 -0.002340 0.017660 -0.004595 -0.005151 0.001918 -0.006786
# 3 -0.002080 -0.004595 0.009955 0.001289 -0.007078 0.003658
# 4 -0.003664 -0.005151 0.001289 0.034283 -0.005160 -0.008304
# 5 0.002833 0.001918 -0.007078 -0.005160 0.047808 -0.007298
# 6 0.003281 -0.006786 0.003658 -0.008304 -0.007298 0.032263
#
#
# Mechanical properties :
#
#
# Convention : Reuss Voigt Hill
#
# Bulk Modulus (GPa) = 56.85175 71.27836 64.06506
# Shear Modulus (GPa) = 28.75789 38.04106 33.39948
#
# Velocity S-wave (km/s) = 3.50065 4.02621 3.77259
# Velocity P-wave (km/s) = 6.36911 7.21024 6.80269
#
# Compressibility (1/GPa) = 0.01758961
#
# Stress axis : x y z
#
# Youngs Moduli (GPa) = 124.94288 56.62498 100.44835
#
# Poissons Ratio (x) = 0.13249 0.20895
# Poissons Ratio (y) = 0.29234 0.46154
# Poissons Ratio (z) = 0.25990 0.26018
#
# Static dielectric constant tensor:
#      x y z
#    x 4.680590 0.174000 0.099060 
#    y 0.174000 4.198870 0.059990 
#    z 0.099060 0.059990 4.122920 
# 
# 
# High freq. dielectric constant tensor:
#      x y z
#    x 1.949040 0.012220 0.012660 
#    y 0.012220 1.917340 0.002120 
#    z 0.012660 0.002120 1.929230 
# 
# From -- ./inp_files/537702.got.cif
#   From: 2010.06.25/outbox.cif.g09.slc.cpg/sg2_269_cif.got.tgz:537702.got - 2010.06.27 13:26:56.
