data_PCOD8011457
_publ_section_title
;
Structure prediction by ZEFSAII (Michael W. Deem and Ramdas Pophale) SiO2 
 PCOD8011457
Probable space group: P -1
;
_chemical_formula_sum "Si O2"
_cell_formula_units_Z 16
_cell_length_a 20.879117
_cell_length_b 17.474428
_cell_length_c 8.419729
_cell_angle_alpha 54.708815
_cell_angle_beta 63.692858
_cell_angle_gamma 18.239745
_cell_volume 714.728355
_symmetry_space_group_name_H-M "P -1"
_symmetry_group_IT_number 2
_symmetry_cell_setting 'triclinic'
loop_
_space_group_symop_operation_xyz
x,y,z
-x,-y,-z
loop_
_atom_site_type_symbol
_atom_site_label
_atom_site_fract_x
_atom_site_fract_y
_atom_site_fract_z
Si Si1 0.574385 0.017237 0.542394
Si Si2 0.730628 0.997298 0.568551
Si Si3 0.983725 0.871287 0.010841
Si Si4 0.506071 0.466713 0.214670
Si Si5 0.804119 0.246901 0.291148
Si Si6 0.685892 0.675502 0.850514
Si Si7 0.428819 0.320223 0.770967
Si Si8 0.137095 0.609125 0.486117
O O1 0.710408 0.942418 0.522482
O O2 0.511114 0.100898 0.327112
O O3 0.346781 0.291080 0.566738
O O4 0.725785 0.737454 0.747885
O O5 0.538252 0.315466 0.373858
O O6 0.673483 0.023141 0.772987
O O7 0.977301 0.733997 0.602394
O O8 0.078688 0.664799 0.053810
O O9 0.004242 0.828568 0.228787
O O10 0.124083 0.788706 0.906025
O O11 0.725956 0.209942 0.838839
O O12 0.715131 0.255374 0.329660
O O13 0.500000 0.500000 0.000000
O O14 0.599169 0.558968 0.222233
O O15 0.000000 0.000000 0.500000
O O16 0.594681 0.749076 0.028826
O O17 0.229704 0.569935 0.556948
#
# Coordination Sequence:
#
# PCOD8011457 Si02
#       8
#     2   2   2   2   2   2   2   2
#     4   9  21  43  69  88 125 166 220 265 320 386
#     4  11  23  40  61  93 130 167 208 264 318 384
#     4  10  23  42  68  89 129 172 217 267 324 385
#     4  12  26  39  65  98 132 172 220 259 317 396
#     4  11  25  43  63  94 129 176 217 269 324 374
#     4   9  20  44  67  93 122 168 214 272 322 381
#     4  10  23  38  63  89 131 162 211 268 324 379
#     4  10  21  39  61  93 125 170 214 260 319 389
#
# _framework density 22.386126999999998
#
# number of rings (size 3 to 8) (size 9 to 14) (size 15 to 20)
#    0.000    1.750    1.250    1.500    7.000    7.500 
#    0.000   11.875    0.000    0.000    0.000    0.000 
#    0.000    0.000    0.000    0.000    0.000    0.000 
#
# Total GULP energy -198402.573370 kJ/mol
# GULP energy per Si atom -12400.160836 kJ/mol
# Density = 2.233517 g / cm^3
# Si number density = 22.386127 Si / 1000 Ang^3
#
#
#
# Elastic Constant Matrix: (Units=GPa)
#
#
# Indices 1 2 3 4 5 6 
#
# 1 131.0016 25.5784 34.3634 8.4551 -15.8355 -1.8952
# 2 25.5784 92.0888 21.6712 16.6750 -3.3083 -12.2933
# 3 34.3634 21.6712 79.3038 14.5768 -10.8765 6.3374
# 4 8.4551 16.6750 14.5768 36.5399 11.3322 -6.8676
# 5 -15.8355 -3.3083 -10.8765 11.3322 34.3895 -4.2465
# 6 -1.8952 -12.2933 6.3374 -6.8676 -4.2465 27.0635
#
#
#
# Elastic Compliance Matrix: (Units=1/GPa)
#
#
# Indices 1 2 3 4 5 6 
#
# 1 0.009224 -0.001368 -0.002947 -0.001311 0.003735 0.000968
# 2 -0.001368 0.013461 -0.002462 -0.004390 0.002050 0.005803
# 3 -0.002947 -0.002462 0.017373 -0.008149 0.005777 -0.006554
# 4 -0.001311 -0.004390 -0.008149 0.039135 -0.015597 0.007306
# 5 0.003735 0.002050 0.005777 -0.015597 0.038194 0.001875
# 6 0.000968 0.005803 -0.006554 0.007306 0.001875 0.043337
#
#
# Mechanical properties :
#
#
# Convention : Reuss Voigt Hill
#
# Bulk Modulus (GPa) = 37.72797 51.73556 44.73177
# Shear Modulus (GPa) = 27.30560 34.31732 30.81146
#
# Velocity S-wave (km/s) = 3.49629 3.91957 3.71396
# Velocity P-wave (km/s) = 5.76095 6.60642 6.19812
#
# Compressibility (1/GPa) = 0.02650553
#
# Stress axis : x y z
#
# Youngs Moduli (GPa) = 108.41600 74.28628 57.55930
#
# Poissons Ratio (x) = 0.10159 0.16964
# Poissons Ratio (y) = 0.14827 0.14170
# Poissons Ratio (z) = 0.31952 0.18287
#
# Static dielectric constant tensor:
#      x y z
#    x 4.141800 0.219250 -0.145810 
#    y 0.219250 4.137260 0.148860 
#    z -0.145810 0.148860 4.053810 
# 
# 
# High freq. dielectric constant tensor:
#      x y z
#    x 1.876110 0.012400 -0.005230 
#    y 0.012400 1.881900 0.015510 
#    z -0.005230 0.015510 1.873960 
# 
# From -- ./inp_files/348338.got.cif
#   From: 2010.06.25/outbox.cif.g09.slc.cpg/sg2_175_cif.got.tgz:348338.got - 2010.06.27 13:26:56.
