data_PCOD8011739
_publ_section_title
;
Structure prediction by ZEFSAII (Michael W. Deem and Ramdas Pophale) SiO2 
 PCOD8011739
Probable space group: P -1
;
_chemical_formula_sum "Si O2"
_cell_formula_units_Z 16
_cell_length_a 16.575814
_cell_length_b 13.389321
_cell_length_c 8.564208
_cell_angle_alpha 146.465735
_cell_angle_beta 40.530622
_cell_angle_gamma 138.215235
_cell_volume 648.246937
_symmetry_space_group_name_H-M "P -1"
_symmetry_group_IT_number 2
_symmetry_cell_setting 'triclinic'
loop_
_space_group_symop_operation_xyz
x,y,z
-x,-y,-z
loop_
_atom_site_type_symbol
_atom_site_label
_atom_site_fract_x
_atom_site_fract_y
_atom_site_fract_z
Si Si1 0.305465 0.484307 0.157255
Si Si2 0.564929 0.793183 0.226572
Si Si3 0.004500 0.079895 0.269084
Si Si4 0.773207 0.916954 0.849802
Si Si5 0.776934 0.788319 0.345339
Si Si6 0.096270 0.672051 0.745805
Si Si7 0.382309 0.963311 0.247259
Si Si8 0.137843 0.666728 0.318536
O O1 0.421384 0.679347 0.232011
O O2 0.177093 0.523285 0.469310
O O3 0.351205 0.337559 0.002187
O O4 0.269652 0.415686 0.939733
O O5 0.551104 0.944486 0.570244
O O6 0.635808 0.903847 0.113761
O O7 0.938974 0.245685 0.579172
O O8 0.146527 0.163335 0.245547
O O9 0.931894 0.895089 0.241806
O O10 0.000000 0.000000 0.000000
O O11 0.740533 0.776805 0.566029
O O12 0.848819 0.138307 0.981923
O O13 0.712851 0.924690 0.525015
O O14 0.123307 0.737828 0.609673
O O15 0.940239 0.563067 0.869816
O O16 0.290516 0.743332 0.133797
O O17 0.500000 0.000000 0.000000
#
# Coordination Sequence:
#
# PCOD8011739 Si02
#       8
#     2   2   2   2   2   2   2   2
#     4  10  23  42  66  91 134 173 215 268 317 396
#     4  10  22  43  68  92 125 182 224 245 337 402
#     4  11  19  41  68  86 129 178 215 251 327 405
#     4  12  23  39  69 100 128 169 218 273 324 386
#     4  10  24  40  64  96 128 169 217 268 325 385
#     4  11  22  37  68 101 129 162 217 275 321 375
#     4  10  21  42  68  93 130 174 217 268 319 390
#     4  10  21  39  63  98 127 173 212 262 327 386
#
# _framework density 24.681953
#
# number of rings (size 3 to 8) (size 9 to 14) (size 15 to 20)
#    0.000    1.500    2.500    3.375    3.500    2.000 
#    0.000    5.000    2.750    0.000    0.000    0.000 
#    0.000    0.000    0.000    0.000    0.000    0.000 
#
# Total GULP energy -198285.101144 kJ/mol
# GULP energy per Si atom -12392.818821 kJ/mol
# Density = 2.462578 g / cm^3
# Si number density = 24.681953 Si / 1000 Ang^3
#
#
#
# Elastic Constant Matrix: (Units=GPa)
#
#
# Indices 1 2 3 4 5 6 
#
# 1 70.5838 25.2042 15.6136 3.8284 22.7905 14.6756
# 2 25.2042 196.8351 45.8352 -19.3980 18.0992 31.7691
# 3 15.6136 45.8352 74.5111 -6.9188 30.0589 12.1268
# 4 3.8284 -19.3980 -6.9188 42.1385 -6.7112 0.7190
# 5 22.7905 18.0992 30.0589 -6.7112 38.0616 5.4008
# 6 14.6756 31.7691 12.1268 0.7190 5.4008 37.0991
#
#
#
# Elastic Compliance Matrix: (Units=1/GPa)
#
#
# Indices 1 2 3 4 5 6 
#
# 1 0.019669 -0.001431 0.002522 -0.004015 -0.013030 -0.005405
# 2 -0.001431 0.006996 -0.003613 0.003085 0.001571 -0.004532
# 3 0.002522 -0.003613 0.022449 -0.000915 -0.017298 -0.002705
# 4 -0.004015 0.003085 -0.000915 0.026462 0.006643 -0.002234
# 5 -0.013030 0.001571 -0.017298 0.006643 0.047824 0.002373
# 6 -0.005405 -0.004532 -0.002705 -0.002234 0.002373 0.033556
#
#
# Mechanical properties :
#
#
# Convention : Reuss Voigt Hill
#
# Bulk Modulus (GPa) = 22.69153 57.24843 39.96998
# Shear Modulus (GPa) = 28.29800 40.47830 34.38815
#
# Velocity S-wave (km/s) = 3.38968 4.05408 3.73668
# Velocity P-wave (km/s) = 4.95313 6.72004 5.90306
#
# Compressibility (1/GPa) = 0.04406931
#
# Stress axis : x y z
#
# Youngs Moduli (GPa) = 50.84044 142.93640 44.54604
#
# Poissons Ratio (x) = 0.20455 -0.11234
# Poissons Ratio (y) = 0.07275 0.16096
# Poissons Ratio (z) = -0.12822 0.51648
#
# Static dielectric constant tensor:
#      x y z
#    x 4.499480 0.194630 -0.174240 
#    y 0.194630 4.708700 -0.042020 
#    z -0.174240 -0.042020 4.263350 
# 
# 
# High freq. dielectric constant tensor:
#      x y z
#    x 1.993090 0.010390 -0.017520 
#    y 0.010390 1.988310 0.007080 
#    z -0.017520 0.007080 1.952180 
# 
# From -- ./inp_files/329431.got.cif
#   From: 2010.06.25/outbox.cif.g09.slc.cpg/sg2_165_cif.got.tgz:329431.got - 2010.06.27 13:26:56.
