data_PCOD8011727
_publ_section_title
;
Structure prediction by ZEFSAII (Michael W. Deem and Ramdas Pophale) SiO2 
 PCOD8011727
Probable space group: P -1
;
_chemical_formula_sum "Si O2"
_cell_formula_units_Z 16
_cell_length_a 6.686408
_cell_length_b 11.664803
_cell_length_c 18.682121
_cell_angle_alpha 137.026226
_cell_angle_beta 127.965694
_cell_angle_gamma 76.455520
_cell_volume 717.092108
_symmetry_space_group_name_H-M "P -1"
_symmetry_group_IT_number 2
_symmetry_cell_setting 'triclinic'
loop_
_space_group_symop_operation_xyz
x,y,z
-x,-y,-z
loop_
_atom_site_type_symbol
_atom_site_label
_atom_site_fract_x
_atom_site_fract_y
_atom_site_fract_z
Si Si1 0.824175 0.203131 0.093006
Si Si2 0.921519 0.727801 0.524778
Si Si3 0.512992 0.023330 0.296122
Si Si4 0.101285 0.645756 0.668846
Si Si5 0.807730 0.552153 0.177630
Si Si6 0.640017 0.846266 0.813639
Si Si7 0.281275 0.598443 0.064332
Si Si8 0.429899 0.838247 0.467297
O O1 0.836429 0.221036 0.189175
O O2 0.755895 0.362149 0.117054
O O3 0.114671 0.207470 0.130685
O O4 0.605648 0.007065 0.927807
O O5 0.990851 0.567973 0.426425
O O6 0.627313 0.732983 0.442138
O O7 0.174014 0.915128 0.638871
O O8 0.907072 0.695652 0.593315
O O9 0.346638 0.109450 0.247815
O O10 0.502520 0.080507 0.401322
O O11 0.341840 0.806108 0.152098
O O12 0.368551 0.669179 0.690664
O O13 0.552823 0.604147 0.170385
O O14 0.106661 0.705893 0.333368
O O15 0.779358 0.529617 0.076613
O O16 0.000000 0.500000 0.000000
O O17 0.500000 0.000000 0.500000
#
# Coordination Sequence:
#
# PCOD8011727 Si02
#       8
#     2   2   2   2   2   2   2   2
#     4  11  21  39  63  95 129 170 214 264 318 385
#     4  10  23  41  65  96 135 169 213 265 324 386
#     4  11  23  44  66  94 133 174 211 270 325 381
#     4  10  21  39  63  95 128 173 211 259 320 388
#     4  11  25  43  64  96 129 166 219 272 314 385
#     4  10  22  39  62  95 134 168 211 263 324 384
#     4  11  25  46  66  89 128 173 218 267 328 375
#     4  12  25  41  67  99 128 170 220 268 324 386
#
# _framework density 22.312336999999999
#
# number of rings (size 3 to 8) (size 9 to 14) (size 15 to 20)
#    0.000    1.250    1.250    4.125    0.000    7.000 
#    2.250    5.000    0.000    0.000    0.000    0.000 
#    0.000    0.000    0.000    0.000    0.000    0.000 
#
# Total GULP energy -198310.640642 kJ/mol
# GULP energy per Si atom -12394.415040 kJ/mol
# Density = 2.226155 g / cm^3
# Si number density = 22.312337 Si / 1000 Ang^3
#
#
#
# Elastic Constant Matrix: (Units=GPa)
#
#
# Indices 1 2 3 4 5 6 
#
# 1 80.9546 31.9898 28.6449 -0.8275 11.2942 2.6818
# 2 31.9898 84.7940 13.1859 -0.4682 7.0117 1.8151
# 3 28.6449 13.1859 84.4916 -7.9316 3.3556 11.9071
# 4 -0.8275 -0.4682 -7.9316 35.9467 10.6567 4.7089
# 5 11.2942 7.0117 3.3556 10.6567 51.1773 -11.9820
# 6 2.6818 1.8151 11.9071 4.7089 -11.9820 26.6650
#
#
#
# Elastic Compliance Matrix: (Units=1/GPa)
#
#
# Indices 1 2 3 4 5 6 
#
# 1 0.016447 -0.005254 -0.004548 0.000204 -0.002783 -0.000552
# 2 -0.005254 0.013911 -0.000183 0.000440 -0.001031 -0.000878
# 3 -0.004548 -0.000183 0.015252 0.005317 -0.003110 -0.008677
# 4 0.000204 0.000440 0.005317 0.033866 -0.010588 -0.013163
# 5 -0.002783 -0.001031 -0.003110 -0.010588 0.026318 0.015434
# 6 -0.000552 -0.000878 -0.008677 -0.013163 0.015434 0.050752
#
#
# Mechanical properties :
#
#
# Convention : Reuss Voigt Hill
#
# Bulk Modulus (GPa) = 39.00704 44.20904 41.60804
# Shear Modulus (GPa) = 27.01777 34.51909 30.76843
#
# Velocity S-wave (km/s) = 3.48356 3.93757 3.71750
# Velocity P-wave (km/s) = 5.80521 6.36626 6.09220
#
# Compressibility (1/GPa) = 0.02563640
#
# Stress axis : x y z
#
# Youngs Moduli (GPa) = 60.80113 71.88723 65.56691
#
# Poissons Ratio (x) = 0.37773 0.29823
# Poissons Ratio (y) = 0.31948 0.01203
# Poissons Ratio (z) = 0.27655 0.01319
#
# Static dielectric constant tensor:
#      x y z
#    x 3.891370 -0.054310 0.027320 
#    y -0.054310 4.035820 -0.049260 
#    z 0.027320 -0.049260 4.419780 
# 
# 
# High freq. dielectric constant tensor:
#      x y z
#    x 1.867830 0.001160 0.003350 
#    y 0.001160 1.886040 -0.002310 
#    z 0.003350 -0.002310 1.893230 
# 
# From -- ./inp_files/549575.got.cif
#   From: 2010.06.25/outbox.cif.g09.slc.cpg/sg2_275_cif.got.tgz:549575.got - 2010.06.27 13:26:56.
