data_PCOD8011794
_publ_section_title
;
Structure prediction by ZEFSAII (Michael W. Deem and Ramdas Pophale) SiO2 
 PCOD8011794
Probable space group: P -1
;
_chemical_formula_sum "Si O2"
_cell_formula_units_Z 16
_cell_length_a 11.510383
_cell_length_b 9.838590
_cell_length_c 14.505582
_cell_angle_alpha 113.810036
_cell_angle_beta 133.810485
_cell_angle_gamma 101.706529
_cell_volume 740.487819
_symmetry_space_group_name_H-M "P -1"
_symmetry_group_IT_number 2
_symmetry_cell_setting 'triclinic'
loop_
_space_group_symop_operation_xyz
x,y,z
-x,-y,-z
loop_
_atom_site_type_symbol
_atom_site_label
_atom_site_fract_x
_atom_site_fract_y
_atom_site_fract_z
Si Si1 0.981334 0.666918 0.043176
Si Si2 0.504982 0.732866 0.030654
Si Si3 0.219281 0.929707 0.565074
Si Si4 0.172662 0.295347 0.841557
Si Si5 0.052146 0.536625 0.645387
Si Si6 0.490618 0.047881 0.403774
Si Si7 0.779040 0.743393 0.815094
Si Si8 0.301429 0.534584 0.457060
O O1 0.944342 0.696665 0.135471
O O2 0.785117 0.613223 0.857509
O O3 0.217961 0.899583 0.194796
O O4 0.000000 0.500000 0.000000
O O5 0.667215 0.740361 0.053900
O O6 0.687863 0.942911 0.253601
O O7 0.346376 0.528038 0.953614
O O8 0.334775 0.725521 0.874367
O O9 0.439259 0.038270 0.650175
O O10 0.034201 0.903548 0.396159
O O11 0.068050 0.684118 0.435575
O O12 0.000000 0.500000 0.500000
O O13 0.924114 0.592158 0.635613
O O14 0.656395 0.302225 0.547721
O O15 0.500000 0.000000 0.500000
O O16 0.540812 0.676302 0.687439
O O17 0.757126 0.656942 0.678686
O O18 0.000000 0.000000 0.000000
#
# Coordination Sequence:
#
# PCOD8011794 Si02
#       8
#     2   2   2   2   2   2   2   2
#     4  12  24  38  67  99 129 170 217 264 325 396
#     4  10  22  40  64  88 125 171 206 266 329 368
#     4  10  21  39  64  90 125 165 210 265 323 386
#     4  10  22  41  60  93 130 159 214 268 317 386
#     4  10  24  42  62  92 123 166 223 262 309 386
#     4  11  20  37  63  97 131 164 212 263 325 387
#     4  11  24  44  65  94 131 170 211 264 334 387
#     4  10  24  43  64  91 133 171 213 270 321 390
#
# _framework density 21.607377
#
# number of rings (size 3 to 8) (size 9 to 14) (size 15 to 20)
#    0.000    1.500    2.500    1.875    7.000    0.500 
#    2.250    0.000    0.000    0.000    0.000    0.000 
#    0.000    0.000    0.000    0.000    0.000    0.000 
#
# Total GULP energy -198275.569104 kJ/mol
# GULP energy per Si atom -12392.223069 kJ/mol
# Density = 2.155820 g / cm^3
# Si number density = 21.607377 Si / 1000 Ang^3
#
#
#
# Elastic Constant Matrix: (Units=GPa)
#
#
# Indices 1 2 3 4 5 6 
#
# 1 112.2849 22.3813 32.3196 -5.6102 10.0554 -14.3933
# 2 22.3813 58.7126 19.8637 -17.6448 3.0315 -9.0089
# 3 32.3196 19.8637 118.5970 -13.7708 3.5330 -16.7896
# 4 -5.6102 -17.6448 -13.7708 39.9035 -5.2891 2.2052
# 5 10.0554 3.0315 3.5330 -5.2891 36.8932 -5.4265
# 6 -14.3933 -9.0089 -16.7896 2.2052 -5.4265 27.9480
#
#
#
# Elastic Compliance Matrix: (Units=1/GPa)
#
#
# Indices 1 2 3 4 5 6 
#
# 1 0.010624 -0.003118 -0.002015 -0.001029 -0.002165 0.002917
# 2 -0.003118 0.021845 -0.001234 0.008701 0.001040 0.004210
# 3 -0.002015 -0.001234 0.010105 0.002500 0.000714 0.004576
# 4 -0.001029 0.008701 0.002500 0.030029 0.003951 0.002175
# 5 -0.002165 0.001040 0.000714 0.003951 0.028834 0.004936
# 6 0.002917 0.004210 0.004576 0.002175 0.004936 0.042176
#
#
# Mechanical properties :
#
#
# Convention : Reuss Voigt Hill
#
# Bulk Modulus (GPa) = 33.51196 48.74706 41.12951
# Shear Modulus (GPa) = 30.06744 35.28426 32.67585
#
# Velocity S-wave (km/s) = 3.73438 4.04539 3.89299
# Velocity P-wave (km/s) = 5.84271 6.66555 6.26765
#
# Compressibility (1/GPa) = 0.02984010
#
# Stress axis : x y z
#
# Youngs Moduli (GPa) = 94.12911 45.77665 98.96528
#
# Poissons Ratio (x) = 0.14273 0.19941
# Poissons Ratio (y) = 0.29348 0.12211
# Poissons Ratio (z) = 0.18967 0.05648
#
# Static dielectric constant tensor:
#      x y z
#    x 4.088670 -0.447930 0.668610 
#    y -0.447930 3.300100 0.067240 
#    z 0.668610 0.067240 4.202270 
# 
# 
# High freq. dielectric constant tensor:
#      x y z
#    x 1.856050 -0.009770 0.015010 
#    y -0.009770 1.826020 -0.009330 
#    z 0.015010 -0.009330 1.859840 
# 
# From -- ./inp_files/519063.got.cif
#   From: 2010.06.25/outbox.cif.g09.slc.cpg/sg2_260_cif.got.tgz:519063.got - 2010.06.27 13:26:56.
