data_PCOD8011365
_publ_section_title
;
Structure prediction by ZEFSAII (Michael W. Deem and Ramdas Pophale) SiO2 
 PCOD8011365
Probable space group: P -1
;
_chemical_formula_sum "Si O2"
_cell_formula_units_Z 12
_cell_length_a 10.257709
_cell_length_b 7.293351
_cell_length_c 12.740854
_cell_angle_alpha 128.104299
_cell_angle_beta 54.332876
_cell_angle_gamma 138.650081
_cell_volume 482.180583
_symmetry_space_group_name_H-M "P -1"
_symmetry_group_IT_number 2
_symmetry_cell_setting 'triclinic'
loop_
_space_group_symop_operation_xyz
x,y,z
-x,-y,-z
loop_
_atom_site_type_symbol
_atom_site_label
_atom_site_fract_x
_atom_site_fract_y
_atom_site_fract_z
Si Si1 0.239437 0.524623 0.755656
Si Si2 0.758350 0.133258 0.823442
Si Si3 0.420745 0.070021 0.728944
Si Si4 0.227666 0.684357 0.493913
Si Si5 0.762593 0.758620 0.536590
Si Si6 0.567390 0.387808 0.083779
O O1 0.323526 0.393320 0.591247
O O2 0.293347 0.508769 0.841876
O O3 0.335920 0.856128 0.793142
O O4 0.997834 0.331360 0.790649
O O5 0.673740 0.920645 0.683959
O O6 0.655814 0.917573 0.896981
O O7 0.679735 0.330425 0.921632
O O8 0.634467 0.154413 0.616838
O O9 0.442279 0.355334 0.858613
O O10 0.265707 0.911152 0.646516
O O11 0.283989 0.481744 0.441361
O O12 0.000000 0.500000 0.500000
O O13 0.000000 0.000000 0.500000
#
# Coordination Sequence:
#
# PCOD8011365 Si02
#       6
#     2   2   2   2   2   2
#     4  10  23  41  64  94 126 165 215 258 313 366
#     4  10  22  42  61  96 128 166 214 253 311 386
#     4  10  23  40  60  98 123 159 221 254 302 392
#     4  10  21  39  60  90 129 162 199 266 321 356
#     4   9  19  37  63  90 121 154 216 253 297 382
#     4  11  23  41  69  86 132 174 200 260 320 365
#
# _framework density 24.886939999999999
#
# number of rings (size 3 to 8) (size 9 to 14) (size 15 to 20)
#    0.000    2.000    1.667    0.500    4.667    5.333 
#    0.000    3.333    0.000    0.000    0.000    0.000 
#    0.000    0.000    0.000    0.000    0.000    0.000 
#
# Total GULP energy -148791.537631 kJ/mol
# GULP energy per Si atom -12399.294803 kJ/mol
# Density = 2.483030 g / cm^3
# Si number density = 24.886940 Si / 1000 Ang^3
#
#
#
# Elastic Constant Matrix: (Units=GPa)
#
#
# Indices 1 2 3 4 5 6 
#
# 1 54.8908 19.2419 17.6036 3.8906 -3.7988 7.1478
# 2 19.2419 109.1407 21.5435 4.1830 -10.2781 6.1590
# 3 17.6036 21.5435 157.5647 8.5163 -28.0686 -4.5075
# 4 3.8906 4.1830 8.5163 35.8733 -2.0310 -4.6977
# 5 -3.7988 -10.2781 -28.0686 -2.0310 27.2848 2.2248
# 6 7.1478 6.1590 -4.5075 -4.6977 2.2248 35.5297
#
#
#
# Elastic Compliance Matrix: (Units=1/GPa)
#
#
# Indices 1 2 3 4 5 6 
#
# 1 0.020535 -0.002937 -0.001908 -0.001973 -0.000020 -0.004124
# 2 -0.002937 0.010180 -0.000543 -0.000774 0.002934 -0.001529
# 3 -0.001908 -0.000543 0.008090 -0.001100 0.007699 0.000877
# 4 -0.001973 -0.000774 -0.001100 0.029000 0.000117 0.004219
# 5 -0.000020 0.002934 0.007699 0.000117 0.045876 -0.002385
# 6 -0.004124 -0.001529 0.000877 0.004219 -0.002385 0.030058
#
#
# Mechanical properties :
#
#
# Convention : Reuss Voigt Hill
#
# Bulk Modulus (GPa) = 35.67760 48.70826 42.19293
# Shear Modulus (GPa) = 30.51421 37.28470 33.89946
#
# Velocity S-wave (km/s) = 3.50539 3.87481 3.69472
# Velocity P-wave (km/s) = 5.54533 6.29549 5.93228
#
# Compressibility (1/GPa) = 0.02802879
#
# Stress axis : x y z
#
# Youngs Moduli (GPa) = 48.69769 98.23409 123.61027
#
# Poissons Ratio (x) = 0.28856 0.23580
# Poissons Ratio (y) = 0.14305 0.06710
# Poissons Ratio (z) = 0.09289 0.05333
#
# Static dielectric constant tensor:
#      x y z
#    x 4.021330 0.069700 -0.059430 
#    y 0.069700 4.837140 0.170750 
#    z -0.059430 0.170750 5.094210 
# 
# 
# High freq. dielectric constant tensor:
#      x y z
#    x 1.968580 0.015210 0.001510 
#    y 0.015210 2.009070 0.007600 
#    z 0.001510 0.007600 2.004380 
# 
# From -- ./inp_files/513793.got.cif
#   From: 2010.06.25/outbox.cif.g09.slc.cpg/sg2_257_cif.got.tgz:513793.got - 2010.06.27 13:26:56.
