data_PCOD8011335
_publ_section_title
;
Structure prediction by ZEFSAII (Michael W. Deem and Ramdas Pophale) SiO2 
 PCOD8011335
Probable space group: P -1
;
_chemical_formula_sum "Si O2"
_cell_formula_units_Z 14
_cell_length_a 9.135151
_cell_length_b 22.247796
_cell_length_c 7.227235
_cell_angle_alpha 131.169500
_cell_angle_beta 57.178896
_cell_angle_gamma 142.319666
_cell_volume 675.154868
_symmetry_space_group_name_H-M "P -1"
_symmetry_group_IT_number 2
_symmetry_cell_setting 'triclinic'
loop_
_space_group_symop_operation_xyz
x,y,z
-x,-y,-z
loop_
_atom_site_type_symbol
_atom_site_label
_atom_site_fract_x
_atom_site_fract_y
_atom_site_fract_z
Si Si1 0.927112 0.095734 0.113092
Si Si2 0.216721 0.500320 0.191082
Si Si3 0.243471 0.679012 0.653392
Si Si4 0.555272 0.536675 0.749860
Si Si5 0.959313 0.223354 0.040335
Si Si6 0.623963 0.857254 0.993295
Si Si7 0.281400 0.870215 0.374740
O O1 0.884466 0.119946 0.990860
O O2 0.187818 0.136801 0.013927
O O3 0.905542 0.164809 0.407126
O O4 0.736383 0.967670 0.030542
O O5 0.228082 0.599741 0.364975
O O6 0.367974 0.519354 0.306966
O O7 0.943586 0.387920 0.182513
O O8 0.310865 0.491988 0.919524
O O9 0.509357 0.764658 0.728484
O O10 0.184676 0.743779 0.720258
O O11 0.500000 0.500000 0.500000
O O12 0.757850 0.668811 0.908627
O O13 0.881398 0.177921 0.794211
O O14 0.412260 0.824575 0.206728
O O15 0.500000 0.000000 0.500000
#
# Coordination Sequence:
#
# PCOD8011335 Si02
#       7
#     2   2   2   2   2   2   2
#     4  10  21  39  60  86 127 157 194 257 291 354
#     4   9  20  40  60  81 123 156 194 256 298 353
#     4   9  19  38  61  86 117 161 200 244 307 355
#     4  10  22  37  60  91 116 157 203 244 303 362
#     4  10  22  38  59  92 118 155 206 240 297 364
#     4   9  20  37  60  89 117 161 203 236 308 359
#     4   9  20  39  59  84 119 160 198 240 302 352
#
# _framework density 20.735984999999999
#
# number of rings (size 3 to 8) (size 9 to 14) (size 15 to 20)
#    0.000    2.571    0.000    0.000    4.000    8.571 
#    2.571   12.857    0.000    0.000    0.000    0.000 
#    0.000    0.000    0.000    0.000    0.000    0.000 
#
# Total GULP energy -173459.620381 kJ/mol
# GULP energy per Si atom -12389.972884 kJ/mol
# Density = 2.068879 g / cm^3
# Si number density = 20.735985 Si / 1000 Ang^3
#
#
#
# Elastic Constant Matrix: (Units=GPa)
#
#
# Indices 1 2 3 4 5 6 
#
# 1 81.6885 39.6060 53.8065 2.8731 -7.6569 1.4592
# 2 39.6060 52.5319 32.0869 13.0910 0.5286 3.0266
# 3 53.8065 32.0869 110.5327 -9.6756 0.0531 10.3393
# 4 2.8731 13.0910 -9.6756 26.2428 4.9520 0.9831
# 5 -7.6569 0.5286 0.0531 4.9520 34.7394 4.7550
# 6 1.4592 3.0266 10.3393 0.9831 4.7550 33.5309
#
#
#
# Elastic Compliance Matrix: (Units=1/GPa)
#
#
# Indices 1 2 3 4 5 6 
#
# 1 0.024901 -0.013911 -0.008262 0.000068 0.005436 0.001947
# 2 -0.013911 0.038035 -0.005945 -0.019477 -0.000817 -0.000308
# 3 -0.008262 -0.005945 0.016085 0.010460 -0.002700 -0.003987
# 4 0.000068 -0.019477 0.010460 0.053066 -0.006990 -0.002035
# 5 0.005436 -0.000817 -0.002700 -0.006990 0.031489 -0.003591
# 6 0.001947 -0.000308 -0.003987 -0.002035 -0.003591 0.031565
#
#
# Mechanical properties :
#
#
# Convention : Reuss Voigt Hill
#
# Bulk Modulus (GPa) = 43.89053 55.08353 49.48703
# Shear Modulus (GPa) = 19.30721 26.85287 23.08004
#
# Velocity S-wave (km/s) = 3.05470 3.60250 3.33985
# Velocity P-wave (km/s) = 5.80120 6.62766 6.22815
#
# Compressibility (1/GPa) = 0.02278396
#
# Stress axis : x y z
#
# Youngs Moduli (GPa) = 40.15970 26.29142 62.17104
#
# Poissons Ratio (x) = 0.36574 0.51365
# Poissons Ratio (y) = 0.55866 0.36963
# Poissons Ratio (z) = 0.33179 0.15631
#
# Static dielectric constant tensor:
#      x y z
#    x 3.799300 0.125470 -0.372050 
#    y 0.125470 3.790800 0.121400 
#    z -0.372050 0.121400 3.784090 
# 
# 
# High freq. dielectric constant tensor:
#      x y z
#    x 1.808440 0.013800 -0.022280 
#    y 0.013800 1.807960 0.015890 
#    z -0.022280 0.015890 1.797110 
# 
# From -- ./inp_files/36294.got.cif
#   From: 2010.06.25/outbox.cif.g09.slc.cpg/sg2_19_cif.got.tgz:36294.got - 2010.06.27 13:26:56.
