data_PCOD8011490
_publ_section_title
;
Structure prediction by ZEFSAII (Michael W. Deem and Ramdas Pophale) SiO2 
 PCOD8011490
Probable space group: P -1
;
_chemical_formula_sum "Si O2"
_cell_formula_units_Z 14
_cell_length_a 18.922259
_cell_length_b 8.705985
_cell_length_c 6.117911
_cell_angle_alpha 48.573899
_cell_angle_beta 118.487788
_cell_angle_gamma 118.979078
_cell_volume 642.008381
_symmetry_space_group_name_H-M "P -1"
_symmetry_group_IT_number 2
_symmetry_cell_setting 'triclinic'
loop_
_space_group_symop_operation_xyz
x,y,z
-x,-y,-z
loop_
_atom_site_type_symbol
_atom_site_label
_atom_site_fract_x
_atom_site_fract_y
_atom_site_fract_z
Si Si1 0.967484 0.116303 0.645418
Si Si2 0.111644 0.267853 0.399249
Si Si3 0.682071 0.220787 0.874167
Si Si4 0.746087 0.518806 0.314966
Si Si5 0.603607 0.506471 0.807643
Si Si6 0.157750 0.626337 0.783944
Si Si7 0.452550 0.163673 0.864687
O O1 0.908457 0.255608 0.520177
O O2 0.044342 0.267522 0.488921
O O3 0.909879 0.954405 0.545394
O O4 0.000000 0.000000 0.000000
O O5 0.203689 0.302585 0.610431
O O6 0.111306 0.456163 0.054030
O O7 0.707515 0.301871 0.591831
O O8 0.637762 0.383112 0.779602
O O9 0.762986 0.209781 0.144092
O O10 0.624962 0.981545 0.979593
O O11 0.813423 0.489718 0.266958
O O12 0.670098 0.585413 0.023647
O O13 0.518558 0.344845 0.929433
O O14 0.583296 0.719254 0.492461
O O15 0.500000 0.000000 0.000000
#
# Coordination Sequence:
#
# PCOD8011490 Si02
#       7
#     2   2   2   2   2   2   2
#     4  11  24  40  62  89 116 155 200 243 296 353
#     4  10  23  41  60  86 120 154 196 245 297 351
#     4   9  20  36  57  86 117 152 194 240 291 344
#     4  10  21  39  62  87 118 157 197 243 294 345
#     4   9  19  38  60  84 118 154 192 241 291 342
#     4  10  22  41  60  85 121 157 194 243 296 348
#     4   9  18  37  60  84 118 155 192 237 288 345
#
# _framework density 21.806567000000001
#
# number of rings (size 3 to 8) (size 9 to 14) (size 15 to 20)
#    0.000    2.286    0.000    1.286    0.000   12.000 
#    0.000   17.857    0.000    0.000    0.000    0.000 
#    0.000    0.000    0.000    0.000    0.000    0.000 
#
# Total GULP energy -173537.227385 kJ/mol
# GULP energy per Si atom -12395.516242 kJ/mol
# Density = 2.175693 g / cm^3
# Si number density = 21.806567 Si / 1000 Ang^3
#
#
#
# Elastic Constant Matrix: (Units=GPa)
#
#
# Indices 1 2 3 4 5 6 
#
# 1 68.8914 41.5230 57.6805 -4.7116 -12.7402 32.6606
# 2 41.5230 92.0353 59.4819 3.9167 1.2209 35.6714
# 3 57.6805 59.4819 139.9691 4.4282 7.6690 20.1578
# 4 -4.7116 3.9167 4.4282 33.1942 7.1672 -4.6472
# 5 -12.7402 1.2209 7.6690 7.1672 45.3713 -1.5188
# 6 32.6606 35.6714 20.1578 -4.6472 -1.5188 31.7982
#
#
#
# Elastic Compliance Matrix: (Units=1/GPa)
#
#
# Indices 1 2 3 4 5 6 
#
# 1 0.051039 0.007287 -0.017936 -0.001442 0.015765 -0.048685
# 2 0.007287 0.026175 -0.009561 -0.005797 0.002819 -0.031499
# 3 -0.017936 -0.009561 0.016293 0.000517 -0.006993 0.018561
# 4 -0.001442 -0.005797 0.000517 0.033379 -0.005198 0.012287
# 5 0.015765 0.002819 -0.006993 -0.005198 0.027914 -0.014348
# 6 -0.048685 -0.031499 0.018561 0.012287 -0.014348 0.106133
#
#
# Mechanical properties :
#
#
# Convention : Reuss Voigt Hill
#
# Bulk Modulus (GPa) = 18.83741 68.69629 43.76685
# Shear Modulus (GPa) = 15.67161 31.55344 23.61252
#
# Velocity S-wave (km/s) = 2.68370 3.80803 3.29419
# Velocity P-wave (km/s) = 4.27319 7.13483 5.88073
#
# Compressibility (1/GPa) = 0.05308585
#
# Stress axis : x y z
#
# Youngs Moduli (GPa) = 19.59295 38.20447 61.37746
#
# Poissons Ratio (x) = -0.27840 1.10088
# Poissons Ratio (y) = -0.14277 0.58683
# Poissons Ratio (z) = 0.35142 0.36527
#
# Static dielectric constant tensor:
#      x y z
#    x 4.141870 0.549370 -0.106370 
#    y 0.549370 4.043420 0.010340 
#    z -0.106370 0.010340 3.859750 
# 
# 
# High freq. dielectric constant tensor:
#      x y z
#    x 1.861000 0.032430 -0.000340 
#    y 0.032430 1.851690 0.001780 
#    z -0.000340 0.001780 1.852880 
# 
# From -- ./inp_files/7629.got.cif
#   From: 2010.06.25/outbox.cif.g09.slc.cpg/sg2_4_cif.got.tgz:7629.got - 2010.06.27 13:26:56.
