data_PCOD8011875
_publ_section_title
;
Structure prediction by ZEFSAII (Michael W. Deem and Ramdas Pophale) SiO2 
 PCOD8011875
Probable space group: P -1
;
_chemical_formula_sum "Si O2"
_cell_formula_units_Z 14
_cell_length_a 7.312096
_cell_length_b 13.802452
_cell_length_c 8.536834
_cell_angle_alpha 98.800611
_cell_angle_beta 56.493139
_cell_angle_gamma 118.379041
_cell_volume 624.999686
_symmetry_space_group_name_H-M "P -1"
_symmetry_group_IT_number 2
_symmetry_cell_setting 'triclinic'
loop_
_space_group_symop_operation_xyz
x,y,z
-x,-y,-z
loop_
_atom_site_type_symbol
_atom_site_label
_atom_site_fract_x
_atom_site_fract_y
_atom_site_fract_z
Si Si1 0.421526 0.024454 0.711679
Si Si2 0.051967 0.611649 0.198885
Si Si3 0.942549 0.101071 0.556578
Si Si4 0.333891 0.313244 0.570308
Si Si5 0.170573 0.638867 0.798003
Si Si6 0.461284 0.254093 0.809934
Si Si7 0.003613 0.803384 0.789882
O O1 0.372862 0.129687 0.758652
O O2 0.650354 0.050366 0.728306
O O3 0.500000 0.000000 0.500000
O O4 0.169018 0.912742 0.846765
O O5 0.259504 0.690170 0.242694
O O6 0.788379 0.605162 0.370425
O O7 0.021357 0.488099 0.188117
O O8 0.129468 0.663920 0.001965
O O9 0.111582 0.186905 0.629345
O O10 0.997531 0.165958 0.382192
O O11 0.000000 0.000000 0.500000
O O12 0.545883 0.339202 0.347012
O O13 0.454869 0.328749 0.688229
O O14 0.118765 0.718851 0.727136
O O15 0.278362 0.254452 0.031153
#
# Coordination Sequence:
#
# PCOD8011875 Si02
#       7
#     2   2   2   2   2   2   2
#     4  10  21  39  64  95 136 173 222 276 338 402
#     4  11  26  48  69 104 136 182 237 280 343 405
#     4  11  22  41  67  99 139 179 225 282 345 409
#     4  12  23  45  70 102 139 179 234 280 343 407
#     4  11  25  48  71  98 142 182 227 290 342 404
#     4  12  24  44  70 103 139 178 235 283 336 418
#     4  11  23  43  68 102 137 185 227 282 347 404
#
# _framework density 22.400013000000001
#
# number of rings (size 3 to 8) (size 9 to 14) (size 15 to 20)
#    0.000    0.857    2.857    6.000    0.000    1.143 
#    2.571    2.143    0.000    0.000    0.000    0.000 
#    0.000    0.000    0.000    0.000    0.000    0.000 
#
# Total GULP energy -173653.962782 kJ/mol
# GULP energy per Si atom -12403.854484 kJ/mol
# Density = 2.234903 g / cm^3
# Si number density = 22.400013 Si / 1000 Ang^3
#
#
#
# Elastic Constant Matrix: (Units=GPa)
#
#
# Indices 1 2 3 4 5 6 
#
# 1 118.9848 35.8983 37.7408 -0.3456 -6.1474 -9.2759
# 2 35.8983 102.6515 4.6855 7.4217 9.5321 -9.8181
# 3 37.7408 4.6855 78.8981 4.2088 -15.5448 -1.8006
# 4 -0.3456 7.4217 4.2088 30.3787 -2.4031 -1.5660
# 5 -6.1474 9.5321 -15.5448 -2.4031 38.7405 -1.0317
# 6 -9.2759 -9.8181 -1.8006 -1.5660 -1.0317 34.0098
#
#
#
# Elastic Compliance Matrix: (Units=1/GPa)
#
#
# Indices 1 2 3 4 5 6 
#
# 1 0.011357 -0.003780 -0.005100 0.001922 0.000854 0.001851
# 2 -0.003780 0.011782 0.000662 -0.003169 -0.003372 0.002157
# 3 -0.005100 0.000662 0.016244 -0.002056 0.005411 -0.000270
# 4 0.001922 -0.003169 -0.002056 0.034249 0.002415 0.001151
# 5 0.000854 -0.003372 0.005411 0.002415 0.029114 0.000540
# 6 0.001851 0.002157 -0.000270 0.001151 0.000540 0.030586
#
#
# Mechanical properties :
#
#
# Convention : Reuss Voigt Hill
#
# Bulk Modulus (GPa) = 43.57721 50.79818 47.18769
# Shear Modulus (GPa) = 31.76307 35.43978 33.60142
#
# Velocity S-wave (km/s) = 3.76971 3.98192 3.87727
# Velocity P-wave (km/s) = 6.20032 6.62328 6.41529
#
# Compressibility (1/GPa) = 0.02294778
#
# Stress axis : x y z
#
# Youngs Moduli (GPa) = 88.05525 84.87576 61.55961
#
# Poissons Ratio (x) = 0.32083 0.31395
# Poissons Ratio (y) = 0.33285 -0.04077
# Poissons Ratio (z) = 0.44907 -0.05622
#
# Static dielectric constant tensor:
#      x y z
#    x 4.211160 0.199390 -0.312430 
#    y 0.199390 4.149230 -0.087320 
#    z -0.312430 -0.087320 3.963090 
# 
# 
# High freq. dielectric constant tensor:
#      x y z
#    x 1.889850 0.000220 -0.017730 
#    y 0.000220 1.887800 0.004240 
#    z -0.017730 0.004240 1.872710 
# 
# From -- ./inp_files/53417.got.cif
#   From: 2010.06.25/outbox.cif.g09.slc.cpg/sg2_27_cif.got.tgz:53417.got - 2010.06.27 13:26:56.
