data_PCOD8011543
_publ_section_title
;
Structure prediction by ZEFSAII (Michael W. Deem and Ramdas Pophale) SiO2 
 PCOD8011543
Probable space group: P -1
;
_chemical_formula_sum "Si O2"
_cell_formula_units_Z 16
_cell_length_a 8.589825
_cell_length_b 11.403093
_cell_length_c 11.708988
_cell_angle_alpha 143.393408
_cell_angle_beta 105.828242
_cell_angle_gamma 74.727727
_cell_volume 656.007690
_symmetry_space_group_name_H-M "P -1"
_symmetry_group_IT_number 2
_symmetry_cell_setting 'triclinic'
loop_
_space_group_symop_operation_xyz
x,y,z
-x,-y,-z
loop_
_atom_site_type_symbol
_atom_site_label
_atom_site_fract_x
_atom_site_fract_y
_atom_site_fract_z
Si Si1 0.718796 0.925510 0.885490
Si Si2 0.725171 0.896539 0.449856
Si Si3 0.665780 0.676584 0.478009
Si Si4 0.496999 0.292612 0.894665
Si Si5 0.189396 0.709427 0.916838
Si Si6 0.647053 0.912011 0.108102
Si Si7 0.006035 0.446313 0.826655
Si Si8 0.292080 0.769036 0.452985
O O1 0.733509 0.726411 0.656097
O O2 0.536551 0.017506 0.904739
O O3 0.749217 0.864117 0.975910
O O4 0.847542 0.089075 0.006594
O O5 0.718201 0.859899 0.554945
O O6 0.549010 0.859747 0.330873
O O7 0.857870 0.733678 0.298325
O O8 0.753740 0.117593 0.588418
O O9 0.746446 0.465553 0.292519
O O10 0.472510 0.662728 0.416233
O O11 0.366863 0.281724 0.965424
O O12 0.500000 0.500000 0.000000
O O13 0.676592 0.228361 0.919094
O O14 0.043616 0.637880 0.907894
O O15 0.733433 0.077363 0.326780
O O16 0.836457 0.393894 0.696170
O O17 0.000000 0.500000 0.000000
#
# Coordination Sequence:
#
# PCOD8011543 Si02
#       8
#     2   2   2   2   2   2   2   2
#     4   9  18  38  60  84 115 152 203 238 292 344
#     4  10  21  36  57  81 117 157 188 251 292 351
#     4  10  20  34  63  88 109 152 200 242 296 344
#     4  10  16  32  60  84 117 147 187 239 304 330
#     4  10  22  37  58  85 121 156 189 253 283 352
#     4   8  18  35  58  85 115 152 189 252 288 335
#     4  11  24  34  52  85 122 157 192 234 303 357
#     4  10  21  36  55  84 117 153 192 240 295 358
#
# _framework density 24.389958
#
# number of rings (size 3 to 8) (size 9 to 14) (size 15 to 20)
#    0.000    2.250    2.500    1.500    5.250    0.000 
#    0.000   10.625    0.000    3.000    0.000    0.000 
#    0.000    0.000    0.000    0.000    0.000    0.000 
#
# Total GULP energy -198244.877937 kJ/mol
# GULP energy per Si atom -12390.304871 kJ/mol
# Density = 2.433445 g / cm^3
# Si number density = 24.389958 Si / 1000 Ang^3
#
#
#
# Elastic Constant Matrix: (Units=GPa)
#
#
# Indices 1 2 3 4 5 6 
#
# 1 81.7823 47.1470 50.5183 -1.3995 17.3913 32.2430
# 2 47.1470 110.0891 44.8404 -14.9976 17.3396 39.0169
# 3 50.5183 44.8404 116.3924 -20.5957 9.0421 22.6219
# 4 -1.3995 -14.9976 -20.5957 37.9916 8.8143 -4.2368
# 5 17.3913 17.3396 9.0421 8.8143 25.1257 12.1613
# 6 32.2430 39.0169 22.6219 -4.2368 12.1613 40.3153
#
#
#
# Elastic Compliance Matrix: (Units=1/GPa)
#
#
# Indices 1 2 3 4 5 6 
#
# 1 0.023912 -0.003216 -0.007458 -0.004527 -0.004807 -0.010852
# 2 -0.003216 0.016293 -0.001481 0.005686 -0.005602 -0.010077
# 3 -0.007458 -0.001481 0.013566 0.006989 -0.001641 0.001015
# 4 -0.004527 0.005686 0.006989 0.036713 -0.017849 0.003438
# 5 -0.004807 -0.005602 -0.001641 -0.017849 0.058341 -0.009288
# 6 -0.010852 -0.010077 0.001015 0.003438 -0.009288 0.045830
#
#
# Mechanical properties :
#
#
# Convention : Reuss Voigt Hill
#
# Bulk Modulus (GPa) = 33.94372 65.91947 49.93159
# Shear Modulus (GPa) = 21.85466 31.73706 26.79586
#
# Velocity S-wave (km/s) = 2.99666 3.61118 3.31817
# Velocity P-wave (km/s) = 5.09123 6.66884 5.93271
#
# Compressibility (1/GPa) = 0.02946053
#
# Stress axis : x y z
#
# Youngs Moduli (GPa) = 41.82022 61.37762 73.71383
#
# Poissons Ratio (x) = 0.19741 0.54975
# Poissons Ratio (y) = 0.13451 0.10915
# Poissons Ratio (z) = 0.31189 0.09089
#
# Static dielectric constant tensor:
#      x y z
#    x 4.267100 0.410360 0.051200 
#    y 0.410360 4.866320 -0.033090 
#    z 0.051200 -0.033090 4.250080 
# 
# 
# High freq. dielectric constant tensor:
#      x y z
#    x 1.947690 0.018920 0.005200 
#    y 0.018920 1.963890 -0.005460 
#    z 0.005200 -0.005460 1.972540 
# 
# From -- ./inp_files/391634.got.cif
#   From: 2010.06.25/outbox.cif.g09.slc.cpg/sg2_196_cif.got.tgz:391634.got - 2010.06.27 13:26:56.
