data_PCOD8011113
_publ_section_title
;
Structure prediction by ZEFSAII (Michael W. Deem and Ramdas Pophale) SiO2 
 PCOD8011113
Probable space group: P -1
;
_chemical_formula_sum "Si O2"
_cell_formula_units_Z 16
_cell_length_a 18.899702
_cell_length_b 12.655894
_cell_length_c 8.603998
_cell_angle_alpha 129.762994
_cell_angle_beta 58.015359
_cell_angle_gamma 152.129610
_cell_volume 735.871675
_symmetry_space_group_name_H-M "P -1"
_symmetry_group_IT_number 2
_symmetry_cell_setting 'triclinic'
loop_
_space_group_symop_operation_xyz
x,y,z
-x,-y,-z
loop_
_atom_site_type_symbol
_atom_site_label
_atom_site_fract_x
_atom_site_fract_y
_atom_site_fract_z
Si Si1 0.516166 0.101411 0.308994
Si Si2 0.676650 0.380688 0.059930
Si Si3 0.182035 0.578720 0.627853
Si Si4 0.633873 0.837219 0.508362
Si Si5 0.468439 0.329494 0.189362
Si Si6 0.177008 0.894140 0.956594
Si Si7 0.944046 0.271642 0.383427
Si Si8 0.033461 0.200411 0.710264
O O1 0.602513 0.240084 0.177531
O O2 0.635537 0.199487 0.387055
O O3 0.445284 0.149402 0.485992
O O4 0.367927 0.800205 0.179262
O O5 0.615604 0.437110 0.110973
O O6 0.857337 0.650163 0.123921
O O7 0.139739 0.679713 0.813126
O O8 0.121946 0.398696 0.660768
O O9 0.095054 0.409587 0.412159
O O10 0.528910 0.565398 0.333109
O O11 0.628534 0.846924 0.710175
O O12 0.809902 0.071967 0.478220
O O13 0.359257 0.156972 0.005912
O O14 0.117750 0.875507 0.844721
O O15 0.111624 0.905842 0.177186
O O16 0.000000 0.500000 0.500000
O O17 0.000000 0.000000 0.500000
#
# Coordination Sequence:
#
# PCOD8011113 Si02
#       8
#     2   2   2   2   2   2   2   2
#     4   9  18  35  61  91 121 152 205 260 310 358
#     4   9  19  35  56  94 123 150 199 264 314 363
#     4  10  21  41  63  89 125 167 209 261 309 371
#     4  10  22  37  66  93 123 162 206 265 312 366
#     4  10  21  38  67  93 120 159 211 266 316 357
#     4  11  23  41  61  90 122 173 211 250 312 382
#     4  10  24  42  61  87 131 174 213 246 306 387
#     4  11  25  37  65  95 127 157 212 268 317 362
#
# _framework density 21.742923000000001
#
# number of rings (size 3 to 8) (size 9 to 14) (size 15 to 20)
#    0.000    2.000    1.250    1.125   14.000    0.500 
#    0.000    4.375    0.000    0.000    0.000    0.000 
#    0.000    0.000    0.000    0.000    0.000    0.000 
#
# Total GULP energy -198221.041481 kJ/mol
# GULP energy per Si atom -12388.815093 kJ/mol
# Density = 2.169343 g / cm^3
# Si number density = 21.742923 Si / 1000 Ang^3
#
#
#
# Elastic Constant Matrix: (Units=GPa)
#
#
# Indices 1 2 3 4 5 6 
#
# 1 142.3051 24.6699 70.4876 29.8140 12.0180 31.1678
# 2 24.6699 62.2058 24.2535 17.6502 6.8129 12.3510
# 3 70.4876 24.2535 74.1045 27.9120 -1.4488 0.9718
# 4 29.8140 17.6502 27.9120 20.9343 8.1036 8.8196
# 5 12.0180 6.8129 -1.4488 8.1036 41.9106 12.6760
# 6 31.1678 12.3510 0.9718 8.8196 12.6760 26.2443
#
#
#
# Elastic Compliance Matrix: (Units=1/GPa)
#
#
# Indices 1 2 3 4 5 6 
#
# 1 0.030087 0.005418 -0.038657 0.023351 -0.002156 -0.043656
# 2 0.005418 0.022760 -0.008864 -0.009420 0.000457 -0.013873
# 3 -0.038657 -0.008864 0.083195 -0.081618 0.010156 0.069524
# 4 0.023351 -0.009420 -0.081618 0.167185 -0.020127 -0.066739
# 5 -0.002156 0.000457 0.010156 -0.020127 0.030454 -0.005977
# 6 -0.043656 -0.013873 0.069524 -0.066739 -0.005977 0.119220
#
#
# Mechanical properties :
#
#
# Convention : Reuss Voigt Hill
#
# Bulk Modulus (GPa) = 19.29143 57.49307 38.39225
# Shear Modulus (GPa) = 9.01900 28.43147 18.72524
#
# Velocity S-wave (km/s) = 2.03888 3.62003 2.93782
# Velocity P-wave (km/s) = 3.79927 6.63117 5.40402
#
# Compressibility (1/GPa) = 0.05183650
#
# Stress axis : x y z
#
# Youngs Moduli (GPa) = 33.23672 43.93662 12.02002
#
# Poissons Ratio (x) = -0.23806 0.46466
# Poissons Ratio (y) = -0.18009 0.10654
# Poissons Ratio (z) = 1.28483 0.38945
#
# Static dielectric constant tensor:
#      x y z
#    x 4.488440 0.106010 0.333820 
#    y 0.106010 3.329460 0.229430 
#    z 0.333820 0.229430 3.949790 
# 
# 
# High freq. dielectric constant tensor:
#      x y z
#    x 1.869760 0.016180 0.007020 
#    y 0.016180 1.835020 0.027710 
#    z 0.007020 0.027710 1.833500 
# 
# From -- ./inp_files/184388.got.cif
#   From: 2010.06.25/outbox.cif.g09.slc.cpg/sg2_93_cif.got.tgz:184388.got - 2010.06.27 13:26:56.
