data_PCOD8011015
_publ_section_title
;
Structure prediction by ZEFSAII (Michael W. Deem and Ramdas Pophale) SiO2 
 PCOD8011015
Probable space group: P -1
;
_chemical_formula_sum "Si O2"
_cell_formula_units_Z 12
_cell_length_a 14.477074
_cell_length_b 8.141263
_cell_length_c 7.259399
_cell_angle_alpha 51.684423
_cell_angle_beta 127.432436
_cell_angle_gamma 133.338962
_cell_volume 462.661772
_symmetry_space_group_name_H-M "P -1"
_symmetry_group_IT_number 2
_symmetry_cell_setting 'triclinic'
loop_
_space_group_symop_operation_xyz
x,y,z
-x,-y,-z
loop_
_atom_site_type_symbol
_atom_site_label
_atom_site_fract_x
_atom_site_fract_y
_atom_site_fract_z
Si Si1 0.177811 0.535393 0.136685
Si Si2 0.538948 0.145814 0.245587
Si Si3 0.260423 0.991864 0.135131
Si Si4 0.804560 0.599343 0.355963
Si Si5 0.988053 0.235641 0.807153
Si Si6 0.461926 0.686157 0.250146
O O1 0.155857 0.365638 0.406135
O O2 0.302008 0.565909 0.145763
O O3 0.204399 0.801222 0.032768
O O4 0.048173 0.402636 0.944267
O O5 0.418324 0.067677 0.307659
O O6 0.680756 0.326940 0.382623
O O7 0.542404 0.924258 0.304986
O O8 0.498137 0.271314 0.946283
O O9 0.242473 0.217196 0.900275
O O10 0.172327 0.860143 0.304966
O O11 0.934213 0.623300 0.382670
O O12 0.000000 0.000000 0.000000
O O13 0.500000 0.500000 0.500000
#
# Coordination Sequence:
#
# PCOD8011015 Si02
#       6
#     2   2   2   2   2   2
#     4  11  23  43  66  96 127 170 220 259 325 383
#     4  10  21  40  64  98 130 165 213 266 320 376
#     4  10  23  40  68  94 132 170 210 271 316 378
#     4  11  23  42  68  95 132 169 214 265 320 385
#     4  10  23  45  65  93 132 171 214 269 316 381
#     4  10  21  38  65  98 129 167 212 266 320 380
#
# _framework density 25.936876000000002
#
# number of rings (size 3 to 8) (size 9 to 14) (size 15 to 20)
#    0.000    1.667    1.667    2.000    0.000    7.333 
#    0.000    0.000    0.000    0.000    0.000    0.000 
#    0.000    0.000    0.000    0.000    0.000    0.000 
#
# Total GULP energy -148808.544098 kJ/mol
# GULP energy per Si atom -12400.712008 kJ/mol
# Density = 2.587784 g / cm^3
# Si number density = 25.936876 Si / 1000 Ang^3
#
#
#
# Elastic Constant Matrix: (Units=GPa)
#
#
# Indices 1 2 3 4 5 6 
#
# 1 153.4111 52.5903 16.5850 -0.6721 1.2334 42.6460
# 2 52.5903 101.4869 30.4246 -6.9243 -1.2838 22.1649
# 3 16.5850 30.4246 60.8072 -8.3103 -6.7753 8.1019
# 4 -0.6721 -6.9243 -8.3103 31.8912 3.1633 -8.2560
# 5 1.2334 -1.2838 -6.7753 3.1633 52.7940 -0.5524
# 6 42.6460 22.1649 8.1019 -8.2560 -0.5524 46.7302
#
#
#
# Elastic Compliance Matrix: (Units=1/GPa)
#
#
# Indices 1 2 3 4 5 6 
#
# 1 0.009918 -0.003534 -0.000288 -0.002623 -0.000279 -0.007791
# 2 -0.003534 0.013917 -0.005614 0.000942 -0.000379 -0.002241
# 3 -0.000288 -0.005614 0.020084 0.003826 0.002220 0.000146
# 4 -0.002623 0.000942 0.003826 0.034552 -0.001418 0.007371
# 5 -0.000279 -0.000379 0.002220 -0.001418 0.019309 0.000027
# 6 -0.007791 -0.002241 0.000146 0.007371 0.000027 0.030850
#
#
# Mechanical properties :
#
#
# Convention : Reuss Voigt Hill
#
# Bulk Modulus (GPa) = 39.92741 57.21166 48.56954
# Shear Modulus (GPa) = 32.08211 40.69009 36.38610
#
# Velocity S-wave (km/s) = 3.52082 3.96512 3.74956
# Velocity P-wave (km/s) = 5.65294 6.56268 6.12473
#
# Compressibility (1/GPa) = 0.02504545
#
# Stress axis : x y z
#
# Youngs Moduli (GPa) = 100.83064 71.85674 49.79098
#
# Poissons Ratio (x) = 0.25392 0.01436
# Poissons Ratio (y) = 0.35630 0.27954
# Poissons Ratio (z) = 0.02908 0.40343
#
# Static dielectric constant tensor:
#      x y z
#    x 6.647050 1.130860 0.645660 
#    y 1.130860 5.297690 0.160810 
#    z 0.645660 0.160810 4.936810 
# 
# 
# High freq. dielectric constant tensor:
#      x y z
#    x 2.060340 0.013850 0.000680 
#    y 0.013850 2.045180 -0.023060 
#    z 0.000680 -0.023060 2.043270 
# 
# From -- ./inp_files/165242.got.cif
#   From: 2010.06.25/outbox.cif.g09.slc.cpg/sg2_83_cif.got.tgz:165242.got - 2010.06.27 13:26:56.
