data_PCOD8011762
_publ_section_title
;
Structure prediction by ZEFSAII (Michael W. Deem and Ramdas Pophale) SiO2 
 PCOD8011762
Probable space group: P -1
;
_chemical_formula_sum "Si O2"
_cell_formula_units_Z 12
_cell_length_a 15.390094
_cell_length_b 9.539208
_cell_length_c 9.020156
_cell_angle_alpha 115.008832
_cell_angle_beta 38.953941
_cell_angle_gamma 129.740173
_cell_volume 632.560287
_symmetry_space_group_name_H-M "P -1"
_symmetry_group_IT_number 2
_symmetry_cell_setting 'triclinic'
loop_
_space_group_symop_operation_xyz
x,y,z
-x,-y,-z
loop_
_atom_site_type_symbol
_atom_site_label
_atom_site_fract_x
_atom_site_fract_y
_atom_site_fract_z
Si Si1 0.650686 0.239065 0.530529
Si Si2 0.306777 0.441360 0.570025
Si Si3 0.980098 0.830400 0.364363
Si Si4 0.683531 0.617076 0.135588
Si Si5 0.286071 0.023184 0.839671
Si Si6 0.135879 0.480273 0.387875
O O1 0.706684 0.390324 0.393311
O O2 0.707278 0.100987 0.353377
O O3 0.730198 0.331024 0.623147
O O4 0.453472 0.125961 0.759655
O O5 0.179632 0.255394 0.567483
O O6 0.487119 0.481920 0.318078
O O7 0.261207 0.411482 0.790302
O O8 0.961319 0.682099 0.439067
O O9 0.000000 0.000000 0.500000
O O10 0.139934 0.890794 0.083646
O O11 0.743025 0.829971 0.134657
O O12 0.768124 0.565811 0.876574
O O13 0.000000 0.500000 0.500000
#
# Coordination Sequence:
#
# PCOD8011762 Si02
#       6
#     2   2   2   2   2   2
#     4   9  22  41  62  84 115 159 189 237 290 345
#     4   9  22  38  64  84 115 157 193 232 293 342
#     4  11  23  38  60  89 116 153 195 240 286 341
#     4  10  21  41  61  86 117 153 194 237 285 350
#     4  10  21  39  64  85 118 149 197 236 292 340
#     4  11  25  39  59  87 119 153 196 237 288 340
#
# _framework density 18.970526
#
# number of rings (size 3 to 8) (size 9 to 14) (size 15 to 20)
#    0.000    2.000    1.667    0.000    7.000    5.333 
#    0.000    0.833    0.000    0.000    0.000    0.000 
#    0.000    0.000    0.000    0.000    0.000    0.000 
#
# Total GULP energy -148845.389533 kJ/mol
# GULP energy per Si atom -12403.782461 kJ/mol
# Density = 1.892735 g / cm^3
# Si number density = 18.970526 Si / 1000 Ang^3
#
#
#
# Elastic Constant Matrix: (Units=GPa)
#
#
# Indices 1 2 3 4 5 6 
#
# 1 138.8258 70.8870 58.3097 3.6407 6.8595 8.9438
# 2 70.8870 128.2498 55.5628 9.5326 -4.1410 18.2808
# 3 58.3097 55.5628 118.4340 -4.9090 8.1133 -1.8796
# 4 3.6407 9.5326 -4.9090 35.1458 -2.8491 -4.4008
# 5 6.8595 -4.1410 8.1133 -2.8491 21.4917 -0.4144
# 6 8.9438 18.2808 -1.8796 -4.4008 -0.4144 23.9893
#
#
#
# Elastic Compliance Matrix: (Units=1/GPa)
#
#
# Indices 1 2 3 4 5 6 
#
# 1 0.011180 -0.004770 -0.003075 -0.000693 -0.003437 -0.000961
# 2 -0.004770 0.014886 -0.005402 -0.005208 0.005531 -0.010849
# 3 -0.003075 -0.005402 0.013069 0.004133 -0.004311 0.006971
# 4 -0.000693 -0.005208 0.004133 0.031994 0.002101 0.010457
# 5 -0.003437 0.005531 -0.004311 0.002101 0.050559 -0.002012
# 6 -0.000961 -0.010849 0.006971 0.010457 -0.002012 0.052741
#
#
# Mechanical properties :
#
#
# Convention : Reuss Voigt Hill
#
# Bulk Modulus (GPa) = 79.10770 83.89204 81.49987
# Shear Modulus (GPa) = 24.37370 29.50869 26.94119
#
# Velocity S-wave (km/s) = 3.58833 3.94826 3.77259
# Velocity P-wave (km/s) = 7.67847 8.06867 7.87599
#
# Compressibility (1/GPa) = 0.01264099
#
# Stress axis : x y z
#
# Youngs Moduli (GPa) = 89.44176 67.17568 76.51460
#
# Poissons Ratio (x) = 0.32042 0.23531
# Poissons Ratio (y) = 0.42663 0.41336
# Poissons Ratio (z) = 0.27506 0.36291
#
# Static dielectric constant tensor:
#      x y z
#    x 3.589290 0.156300 -0.130930 
#    y 0.156300 3.772230 -0.372540 
#    z -0.130930 -0.372540 3.980630 
# 
# 
# High freq. dielectric constant tensor:
#      x y z
#    x 1.737610 0.005030 -0.002170 
#    y 0.005030 1.747590 -0.005110 
#    z -0.002170 -0.005110 1.742680 
# 
# From -- ./inp_files/144523.got.cif
#   From: 2010.06.25/outbox.cif.g09.slc.cpg/sg2_73_cif.got.tgz:144523.got - 2010.06.27 13:26:56.
