data_PCOD8011751
_publ_section_title
;
Structure prediction by ZEFSAII (Michael W. Deem and Ramdas Pophale) SiO2 
 PCOD8011751
Probable space group: P -1
;
_chemical_formula_sum "Si O2"
_cell_formula_units_Z 16
_cell_length_a 9.377352
_cell_length_b 18.451164
_cell_length_c 15.235563
_cell_angle_alpha 148.781275
_cell_angle_beta 37.944292
_cell_angle_gamma 140.960463
_cell_volume 795.682486
_symmetry_space_group_name_H-M "P -1"
_symmetry_group_IT_number 2
_symmetry_cell_setting 'triclinic'
loop_
_space_group_symop_operation_xyz
x,y,z
-x,-y,-z
loop_
_atom_site_type_symbol
_atom_site_label
_atom_site_fract_x
_atom_site_fract_y
_atom_site_fract_z
Si Si1 0.986380 0.714102 0.202866
Si Si2 0.079942 0.355697 0.311238
Si Si3 0.770673 0.293424 0.236803
Si Si4 0.201194 0.204735 0.438931
Si Si5 0.511734 0.336815 0.834799
Si Si6 0.380375 0.593688 0.956051
Si Si7 0.984249 0.135518 0.831310
Si Si8 0.990464 0.640726 0.460816
O O1 0.919629 0.767481 0.383615
O O2 0.762332 0.578375 0.134122
O O3 0.045791 0.843844 0.236819
O O4 0.225404 0.662519 0.038605
O O5 0.367447 0.397569 0.202193
O O6 0.028114 0.282086 0.356749
O O7 0.000000 0.500000 0.500000
O O8 0.926509 0.255089 0.202375
O O9 0.490951 0.246605 0.354195
O O10 0.868729 0.464825 0.341542
O O11 0.802123 0.201024 0.041392
O O12 0.148951 0.303806 0.489852
O O13 0.084606 0.036145 0.292526
O O14 0.261773 0.212503 0.804772
O O15 0.720969 0.314884 0.649227
O O16 0.500000 0.500000 0.000000
O O17 0.577520 0.313895 0.879223
#
# Coordination Sequence:
#
# PCOD8011751 Si02
#       8
#     2   2   2   2   2   2   2   2
#     4  11  24  40  66  96 129 172 211 268 323 376
#     4  10  21  39  64 100 125 164 212 273 318 365
#     4  11  23  43  68  93 129 174 218 259 318 387
#     4  12  27  44  60 101 137 167 213 262 330 386
#     4  12  20  42  69  93 124 166 222 263 312 377
#     4  11  21  40  67  98 127 159 227 272 306 379
#     4  12  26  43  68  92 134 177 206 267 328 385
#     4  11  23  41  69  97 126 168 219 270 314 373
#
# _framework density 20.108523999999999
#
# number of rings (size 3 to 8) (size 9 to 14) (size 15 to 20)
#    0.000    0.750    5.000    3.375    5.250    0.500 
#    0.000    0.625    0.000    0.000    0.000    0.000 
#    0.000    0.000    0.000    0.000    0.000    0.000 
#
# Total GULP energy -198448.497997 kJ/mol
# GULP energy per Si atom -12403.031125 kJ/mol
# Density = 2.006276 g / cm^3
# Si number density = 20.108524 Si / 1000 Ang^3
#
#
#
# Elastic Constant Matrix: (Units=GPa)
#
#
# Indices 1 2 3 4 5 6 
#
# 1 110.5604 34.7306 47.9624 -15.0837 9.1584 -5.7400
# 2 34.7306 73.2236 57.7919 -15.3915 -3.6077 10.0047
# 3 47.9624 57.7919 96.0109 -19.2660 2.0390 1.3409
# 4 -15.0837 -15.3915 -19.2660 46.0373 4.7382 0.0991
# 5 9.1584 -3.6077 2.0390 4.7382 29.3474 -20.3371
# 6 -5.7400 10.0047 1.3409 0.0991 -20.3371 35.3847
#
#
#
# Elastic Compliance Matrix: (Units=1/GPa)
#
#
# Indices 1 2 3 4 5 6 
#
# 1 0.012208 -0.002309 -0.004281 0.001803 -0.003579 0.000733
# 2 -0.002309 0.028501 -0.015374 0.002450 -0.000911 -0.008381
# 3 -0.004281 -0.015374 0.022389 0.002933 -0.001073 0.002179
# 4 0.001803 0.002450 0.002933 0.025215 -0.008209 -0.005300
# 5 -0.003579 -0.000911 -0.001073 -0.008209 0.060327 0.034413
# 6 0.000733 -0.008381 0.002179 -0.005300 0.034413 0.050460
#
#
# Mechanical properties :
#
#
# Convention : Reuss Voigt Hill
#
# Bulk Modulus (GPa) = 52.16570 62.30719 57.23645
# Shear Modulus (GPa) = 20.04654 31.44122 25.74388
#
# Velocity S-wave (km/s) = 3.16083 3.95850 3.58194
# Velocity P-wave (km/s) = 6.27053 7.20733 6.75519
#
# Compressibility (1/GPa) = 0.01916968
#
# Stress axis : x y z
#
# Youngs Moduli (GPa) = 81.91453 35.08592 44.66440
#
# Poissons Ratio (x) = 0.08101 0.19121
# Poissons Ratio (y) = 0.18914 0.68669
# Poissons Ratio (z) = 0.35068 0.53942
#
# Static dielectric constant tensor:
#      x y z
#    x 4.008930 -0.079610 0.159310 
#    y -0.079610 3.674380 -0.245210 
#    z 0.159310 -0.245210 3.667570 
# 
# 
# High freq. dielectric constant tensor:
#      x y z
#    x 1.803530 0.003130 0.005270 
#    y 0.003130 1.775720 -0.027400 
#    z 0.005270 -0.027400 1.781940 
# 
# From -- ./inp_files/205063.got.cif
#   From: 2010.06.25/outbox.cif.g09.slc.cpg/sg2_103_cif.got.tgz:205063.got - 2010.06.27 13:26:56.
