data_PCOD8011379
_publ_section_title
;
Structure prediction by ZEFSAII (Michael W. Deem and Ramdas Pophale) SiO2 
 PCOD8011379
Probable space group: P -1
;
_chemical_formula_sum "Si O2"
_cell_formula_units_Z 12
_cell_length_a 16.409632
_cell_length_b 7.795882
_cell_length_c 16.434791
_cell_angle_alpha 85.553838
_cell_angle_beta 17.748990
_cell_angle_gamma 93.654935
_cell_volume 569.784159
_symmetry_space_group_name_H-M "P -1"
_symmetry_group_IT_number 2
_symmetry_cell_setting 'triclinic'
loop_
_space_group_symop_operation_xyz
x,y,z
-x,-y,-z
loop_
_atom_site_type_symbol
_atom_site_label
_atom_site_fract_x
_atom_site_fract_y
_atom_site_fract_z
Si Si1 0.092245 0.491826 0.607134
Si Si2 0.112210 0.885085 0.289940
Si Si3 0.937420 0.224084 0.115219
Si Si4 0.196824 0.863080 0.396181
Si Si5 0.652622 0.502503 0.153618
Si Si6 0.614271 0.771046 0.435610
O O1 0.084423 0.657668 0.552781
O O2 0.421101 0.569071 0.331117
O O3 0.037384 0.306210 0.613728
O O4 0.823809 0.431146 0.929403
O O5 0.080333 0.820395 0.416299
O O6 0.940862 0.013155 0.431248
O O7 0.450264 0.014754 0.938008
O O8 0.686140 0.289755 0.329056
O O9 0.790909 0.996963 0.275640
O O10 0.094055 0.315916 0.047237
O O11 0.178909 0.298080 0.809853
O O12 0.460736 0.326400 0.401999
#
# Coordination Sequence:
#
# PCOD8011379 Si02
#       6
#     2   2   2   2   2   2
#     4  12  25  39  60  94 129 160 195 248 312 363
#     4  10  22  42  66  89 119 163 209 249 292 354
#     4  10  21  39  61  83 112 156 205 247 290 351
#     4  10  22  42  66  89 119 163 209 249 292 354
#     4  12  24  37  59  90 125 158 191 248 311 359
#     4  10  21  39  61  83 112 156 205 247 290 351
#
# _framework density 21.060607999999998
#
# number of rings (size 3 to 8) (size 9 to 14) (size 15 to 20)
#    0.000    1.333    0.000    5.500    0.000    4.000 
#    0.000    6.667    0.000    0.000    0.000    0.000 
#    0.000    0.000    0.000    0.000    0.000    0.000 
#
# Total GULP energy -148876.551731 kJ/mol
# GULP energy per Si atom -12406.379311 kJ/mol
# Density = 2.101267 g / cm^3
# Si number density = 21.060608 Si / 1000 Ang^3
#
#
#
# Elastic Constant Matrix: (Units=GPa)
#
#
# Indices 1 2 3 4 5 6 
#
# 1 73.7002 38.1111 37.3645 2.0304 7.2207 15.5788
# 2 38.1111 105.9490 46.2818 18.4662 17.1724 15.9930
# 3 37.3645 46.2818 120.4036 21.7913 4.8559 13.6317
# 4 2.0304 18.4662 21.7913 27.6245 -3.6649 -5.2901
# 5 7.2207 17.1724 4.8559 -3.6649 39.7062 4.1514
# 6 15.5788 15.9930 13.6317 -5.2901 4.1514 14.5450
#
#
#
# Elastic Compliance Matrix: (Units=1/GPa)
#
#
# Indices 1 2 3 4 5 6 
#
# 1 0.020186 -0.003910 -0.003437 0.001224 -0.000020 -0.013650
# 2 -0.003910 0.017553 -0.000347 -0.015584 -0.006327 -0.018650
# 3 -0.003437 -0.000347 0.013222 -0.012460 -0.000667 -0.012670
# 4 0.001224 -0.015584 -0.012460 0.066997 0.009072 0.049279
# 5 -0.000020 -0.006327 -0.000667 0.009072 0.028556 0.002752
# 6 -0.013650 -0.018650 -0.012670 0.049279 0.002752 0.132891
#
#
# Mechanical properties :
#
#
# Convention : Reuss Voigt Hill
#
# Bulk Modulus (GPa) = 28.11011 60.39641 44.25326
# Shear Modulus (GPa) = 16.30523 28.26150 22.28336
#
# Velocity S-wave (km/s) = 2.78547 3.66719 3.25631
# Velocity P-wave (km/s) = 4.87046 6.83160 5.93262
#
# Compressibility (1/GPa) = 0.03557439
#
# Stress axis : x y z
#
# Youngs Moduli (GPa) = 49.53881 56.96983 75.63241
#
# Poissons Ratio (x) = 0.22273 0.25994
# Poissons Ratio (y) = 0.19368 0.02624
# Poissons Ratio (z) = 0.17026 0.01977
#
# Static dielectric constant tensor:
#      x y z
#    x 3.788010 -0.021800 -0.035040 
#    y -0.021800 3.887280 0.166040 
#    z -0.035040 0.166040 4.064520 
# 
# 
# High freq. dielectric constant tensor:
#      x y z
#    x 1.824090 -0.001410 -0.002970 
#    y -0.001410 1.835560 0.005820 
#    z -0.002970 0.005820 1.846000 
# 
# From -- ./inp_files/501345.got.cif
#   From: 2010.06.25/outbox.cif.g09.slc.cpg/sg2_251_cif.got.tgz:501345.got - 2010.06.27 13:26:56.
