data_PCOD8011635
_publ_section_title
;
Structure prediction by ZEFSAII (Michael W. Deem and Ramdas Pophale) SiO2 
 PCOD8011635
Probable space group: P -1
;
_chemical_formula_sum "Si O2"
_cell_formula_units_Z 16
_cell_length_a 19.668025
_cell_length_b 8.903509
_cell_length_c 14.732919
_cell_angle_alpha 37.871342
_cell_angle_beta 148.358751
_cell_angle_gamma 141.594490
_cell_volume 779.393336
_symmetry_space_group_name_H-M "P -1"
_symmetry_group_IT_number 2
_symmetry_cell_setting 'triclinic'
loop_
_space_group_symop_operation_xyz
x,y,z
-x,-y,-z
loop_
_atom_site_type_symbol
_atom_site_label
_atom_site_fract_x
_atom_site_fract_y
_atom_site_fract_z
Si Si1 0.156377 0.131967 0.225036
Si Si2 0.454939 0.829795 0.850447
Si Si3 0.636145 0.504945 0.267775
Si Si4 0.089996 0.742241 0.188642
Si Si5 0.196661 0.953512 0.549516
Si Si6 0.389095 0.632970 0.305495
Si Si7 0.700460 0.451040 0.562810
Si Si8 0.039454 0.262161 0.476725
O O1 0.253846 0.430944 0.201917
O O2 0.192859 0.972594 0.259362
O O3 0.156567 0.968179 0.392958
O O4 0.004811 0.136606 0.033062
O O5 0.416469 0.721620 0.757304
O O6 0.318367 0.827352 0.751864
O O7 0.561906 0.121032 0.821476
O O8 0.538827 0.680273 0.071887
O O9 0.616804 0.380255 0.406484
O O10 0.797173 0.661997 0.352171
O O11 0.169348 0.641719 0.251163
O O12 0.008594 0.492603 0.277542
O O13 0.056814 0.778881 0.524147
O O14 0.253560 0.238782 0.521936
O O15 0.500000 0.500000 0.500000
O O16 0.374818 0.704742 0.360056
O O17 0.000000 0.000000 0.500000
#
# Coordination Sequence:
#
# PCOD8011635 Si02
#       8
#     2   2   2   2   2   2   2   2
#     4  10  23  40  63  89 127 158 197 255 306 361
#     4  11  24  43  62  91 129 163 202 253 308 367
#     4  10  24  43  63  91 127 162 202 258 305 362
#     4  10  22  42  62  93 124 154 203 256 306 358
#     4  11  21  40  64  94 122 162 207 251 308 362
#     4  11  23  40  61  88 119 167 202 242 307 362
#     4  10  21  39  63  90 120 159 204 251 301 360
#     4  11  22  40  65  91 120 162 207 253 307 359
#
# _framework density 20.528787000000001
#
# number of rings (size 3 to 8) (size 9 to 14) (size 15 to 20)
#    0.000    1.500    5.000    1.500    1.750    6.000 
#    2.250    2.500    0.000    0.000    0.000    0.000 
#    0.000    0.000    0.000    0.000    0.000    0.000 
#
# Total GULP energy -198302.232708 kJ/mol
# GULP energy per Si atom -12393.889544 kJ/mol
# Density = 2.048206 g / cm^3
# Si number density = 20.528787 Si / 1000 Ang^3
#
#
#
# Elastic Constant Matrix: (Units=GPa)
#
#
# Indices 1 2 3 4 5 6 
#
# 1 108.6093 25.5108 31.2887 5.3690 23.0213 0.5258
# 2 25.5108 63.7159 9.9464 3.1479 1.8188 -2.8081
# 3 31.2887 9.9464 84.7260 3.1893 20.4058 0.9424
# 4 5.3690 3.1479 3.1893 29.4857 -8.9587 3.0596
# 5 23.0213 1.8188 20.4058 -8.9587 27.3784 -3.6190
# 6 0.5258 -2.8081 0.9424 3.0596 -3.6190 30.4901
#
#
#
# Elastic Compliance Matrix: (Units=1/GPa)
#
#
# Indices 1 2 3 4 5 6 
#
# 1 0.013493 -0.004657 -0.001336 -0.005296 -0.011973 -0.001510
# 2 -0.004657 0.017750 -0.001380 0.000116 0.004098 0.002233
# 3 -0.001336 -0.001380 0.015595 -0.004841 -0.012197 -0.001548
# 4 -0.005296 0.000116 -0.004841 0.042114 0.021649 -0.001405
# 5 -0.011973 0.004098 -0.012197 0.021649 0.063328 0.006305
# 6 -0.001510 0.002233 -0.001548 -0.001405 0.006305 0.033966
#
#
# Mechanical properties :
#
#
# Convention : Reuss Voigt Hill
#
# Bulk Modulus (GPa) = 31.16084 43.39367 37.27725
# Shear Modulus (GPa) = 23.61922 30.15786 26.88854
#
# Velocity S-wave (km/s) = 3.39564 3.83698 3.62304
# Velocity P-wave (km/s) = 5.53045 6.38856 5.97493
#
# Compressibility (1/GPa) = 0.03209156
#
# Stress axis : x y z
#
# Youngs Moduli (GPa) = 74.11169 56.33675 64.12166
#
# Poissons Ratio (x) = 0.26236 0.08569
# Poissons Ratio (y) = 0.34513 0.08851
# Poissons Ratio (z) = 0.09904 0.07776
#
# Static dielectric constant tensor:
#      x y z
#    x 3.871200 -0.222580 0.159950 
#    y -0.222580 3.605210 -0.005910 
#    z 0.159950 -0.005910 3.714520 
# 
# 
# High freq. dielectric constant tensor:
#      x y z
#    x 1.804650 -0.019780 0.008400 
#    y -0.019780 1.803190 -0.003740 
#    z 0.008400 -0.003740 1.806540 
# 
# From -- ./inp_files/276209.got.cif
#   From: 2010.06.25/outbox.cif.g09.slc.cpg/sg2_139_cif.got.tgz:276209.got - 2010.06.27 13:26:56.
