data_PCOD8011303
_publ_section_title
;
Structure prediction by ZEFSAII (Michael W. Deem and Ramdas Pophale) SiO2 
 PCOD8011303
Probable space group: P -1
;
_chemical_formula_sum "Si O2"
_cell_formula_units_Z 16
_cell_length_a 6.512687
_cell_length_b 11.731412
_cell_length_c 25.029940
_cell_angle_alpha 149.760829
_cell_angle_beta 127.745660
_cell_angle_gamma 59.765793
_cell_volume 760.005420
_symmetry_space_group_name_H-M "P -1"
_symmetry_group_IT_number 2
_symmetry_cell_setting 'triclinic'
loop_
_space_group_symop_operation_xyz
x,y,z
-x,-y,-z
loop_
_atom_site_type_symbol
_atom_site_label
_atom_site_fract_x
_atom_site_fract_y
_atom_site_fract_z
Si Si1 0.925822 0.105678 0.475640
Si Si2 0.645119 0.023999 0.683410
Si Si3 0.028615 0.742905 0.254054
Si Si4 0.755494 0.707029 0.864846
Si Si5 0.896465 0.958684 0.881298
Si Si6 0.467569 0.099482 0.797978
Si Si7 0.182003 0.609402 0.716368
Si Si8 0.881827 0.277068 0.364717
O O1 0.615613 0.125135 0.434338
O O2 0.063401 0.353580 0.593321
O O3 0.010466 0.946560 0.376186
O O4 0.000000 0.000000 0.500000
O O5 0.606126 0.149370 0.783866
O O6 0.878665 0.870138 0.667777
O O7 0.718848 0.207034 0.722959
O O8 0.065154 0.508251 0.195288
O O9 0.767485 0.727732 0.168443
O O10 0.776580 0.830216 0.861402
O O11 0.456991 0.628570 0.799005
O O12 0.855219 0.876917 0.996461
O O13 0.681199 0.120462 0.887679
O O14 0.981240 0.775105 0.777553
O O15 0.329826 0.844257 0.678187
O O16 0.250920 0.679131 0.695081
O O17 0.000000 0.500000 0.500000
#
# Coordination Sequence:
#
# PCOD8011303 Si02
#       8
#     2   2   2   2   2   2   2   2
#     4  11  24  38  62  94 128 169 204 254 322 386
#     4  10  21  39  59  89 130 161 202 256 311 382
#     4  10  23  42  63  95 129 166 209 257 319 381
#     4  11  25  44  65  92 129 165 216 269 310 369
#     4  11  24  43  68  92 123 171 216 265 313 367
#     4  10  21  41  63  90 125 164 213 258 312 373
#     4  12  23  39  64  94 126 164 209 259 316 374
#     4  11  22  34  60  94 124 162 203 257 313 374
#
# _framework density 21.052481
#
# number of rings (size 3 to 8) (size 9 to 14) (size 15 to 20)
#    0.000    1.250    2.500    4.125    1.750    6.500 
#    0.000    0.625    0.000    0.000    0.000    0.000 
#    0.000    0.000    0.000    0.000    0.000    0.000 
#
# Total GULP energy -198355.546281 kJ/mol
# GULP energy per Si atom -12397.221643 kJ/mol
# Density = 2.100456 g / cm^3
# Si number density = 21.052481 Si / 1000 Ang^3
#
#
#
# Elastic Constant Matrix: (Units=GPa)
#
#
# Indices 1 2 3 4 5 6 
#
# 1 94.0746 28.8587 25.3504 -7.5235 7.7867 7.8738
# 2 28.8587 123.3816 39.6018 -18.2907 11.8284 0.6646
# 3 25.3504 39.6018 81.6690 -8.8075 2.4786 -6.1728
# 4 -7.5235 -18.2907 -8.8075 31.8700 -5.8724 0.1898
# 5 7.7867 11.8284 2.4786 -5.8724 28.0948 -6.2084
# 6 7.8738 0.6646 -6.1728 0.1898 -6.2084 34.5153
#
#
#
# Elastic Compliance Matrix: (Units=1/GPa)
#
#
# Indices 1 2 3 4 5 6 
#
# 1 0.012648 -0.001440 -0.003365 0.000633 -0.003370 -0.004069
# 2 -0.001440 0.010740 -0.004322 0.004053 -0.003169 -0.001244
# 3 -0.003365 -0.004322 0.015785 0.001541 0.002595 0.004132
# 4 0.000633 0.004053 0.001541 0.035296 0.005549 0.000857
# 5 -0.003370 -0.003169 0.002595 0.005549 0.040689 0.008582
# 6 -0.004069 -0.001244 0.004132 0.000857 0.008582 0.032203
#
#
# Mechanical properties :
#
#
# Convention : Reuss Voigt Hill
#
# Bulk Modulus (GPa) = 47.80079 54.08300 50.94189
# Shear Modulus (GPa) = 28.97071 32.58364 30.77717
#
# Velocity S-wave (km/s) = 3.71363 3.93839 3.82766
# Velocity P-wave (km/s) = 6.41427 6.81371 6.61701
#
# Compressibility (1/GPa) = 0.02092016
#
# Stress axis : x y z
#
# Youngs Moduli (GPa) = 79.06171 93.10789 63.35323
#
# Poissons Ratio (x) = 0.13403 0.21319
# Poissons Ratio (y) = 0.11381 0.27380
# Poissons Ratio (z) = 0.26605 0.40240
#
# Static dielectric constant tensor:
#      x y z
#    x 3.847250 0.030880 0.196260 
#    y 0.030880 4.172850 -0.112970 
#    z 0.196260 -0.112970 3.836150 
# 
# 
# High freq. dielectric constant tensor:
#      x y z
#    x 1.825840 0.002930 0.014900 
#    y 0.002930 1.846410 -0.012920 
#    z 0.014900 -0.012920 1.808080 
# 
# From -- ./inp_files/71865.got.cif
#   From: 2010.06.25/outbox.cif.g09.slc.cpg/sg2_36_cif.got.tgz:71865.got - 2010.06.27 13:26:56.
