data_PCOD8011642
_publ_section_title
;
Structure prediction by ZEFSAII (Michael W. Deem and Ramdas Pophale) SiO2 
 PCOD8011642
Probable space group: P -1
;
_chemical_formula_sum "Si O2"
_cell_formula_units_Z 16
_cell_length_a 11.621492
_cell_length_b 8.735788
_cell_length_c 13.072703
_cell_angle_alpha 111.709318
_cell_angle_beta 131.344838
_cell_angle_gamma 48.200013
_cell_volume 736.873490
_symmetry_space_group_name_H-M "P -1"
_symmetry_group_IT_number 2
_symmetry_cell_setting 'triclinic'
loop_
_space_group_symop_operation_xyz
x,y,z
-x,-y,-z
loop_
_atom_site_type_symbol
_atom_site_label
_atom_site_fract_x
_atom_site_fract_y
_atom_site_fract_z
Si Si1 0.895635 0.537625 0.638478
Si Si2 0.277154 0.132195 0.693856
Si Si3 0.959186 0.641579 0.915855
Si Si4 0.655825 0.426924 0.879874
Si Si5 0.678696 0.963229 0.536873
Si Si6 0.501835 0.399226 0.579590
Si Si7 0.400041 0.890626 0.898867
Si Si8 0.647724 0.089912 0.908621
O O1 0.954947 0.520681 0.787215
O O2 0.867847 0.740316 0.627020
O O3 0.704236 0.554018 0.514620
O O4 0.062574 0.343805 0.623179
O O5 0.334250 0.025679 0.590568
O O6 0.425948 0.181949 0.817098
O O7 0.286904 0.977590 0.745898
O O8 0.758271 0.871493 0.860471
O O9 0.000000 0.500000 0.000000
O O10 0.120099 0.676994 0.016847
O O11 0.553363 0.485520 0.724064
O O12 0.550963 0.643137 0.929606
O O13 0.642413 0.262152 0.887403
O O14 0.500000 0.000000 0.500000
O O15 0.678056 0.153429 0.618049
O O16 0.500000 0.500000 0.500000
O O17 0.264312 0.947148 0.933310
O O18 0.500000 0.000000 0.000000
#
# Coordination Sequence:
#
# PCOD8011642 Si02
#       8
#     2   2   2   2   2   2   2   2
#     4  11  23  41  65  95 126 172 218 259 317 390
#     4  11  21  41  65  92 128 173 218 261 318 398
#     4  12  23  41  67  95 128 175 221 261 317 395
#     4  12  24  41  64  95 128 165 214 277 328 375
#     4  10  21  39  63  90 124 168 211 257 317 387
#     4  11  23  42  64  94 130 167 212 271 325 375
#     4  10  22  40  62  89 125 170 210 257 325 393
#     4  11  22  39  63  96 131 166 215 277 325 373
#
# _framework density 21.713360999999999
#
# number of rings (size 3 to 8) (size 9 to 14) (size 15 to 20)
#    0.000    1.000    0.000   10.125    0.000    0.000 
#    0.000    5.000    0.000    0.000    0.000    0.000 
#    0.000    0.000    0.000    0.000    0.000    0.000 
#
# Total GULP energy -198342.910475 kJ/mol
# GULP energy per Si atom -12396.431905 kJ/mol
# Density = 2.166394 g / cm^3
# Si number density = 21.713361 Si / 1000 Ang^3
#
#
#
# Elastic Constant Matrix: (Units=GPa)
#
#
# Indices 1 2 3 4 5 6 
#
# 1 57.5902 14.2224 10.2577 -1.8300 -9.6567 -20.1055
# 2 14.2224 118.2872 -9.7976 -2.7035 4.8456 -10.3061
# 3 10.2577 -9.7976 85.0887 8.9016 -9.4304 -17.3432
# 4 -1.8300 -2.7035 8.9016 37.0144 -3.1585 -6.0935
# 5 -9.6567 4.8456 -9.4304 -3.1585 43.3411 -3.8036
# 6 -20.1055 -10.3061 -17.3432 -6.0935 -3.8036 30.3252
#
#
#
# Elastic Compliance Matrix: (Units=1/GPa)
#
#
# Indices 1 2 3 4 5 6 
#
# 1 0.025761 -0.001575 0.001014 0.004756 0.008159 0.019103
# 2 -0.001575 0.009096 0.001723 0.000620 -0.000678 0.003072
# 3 0.001014 0.001723 0.014382 -0.001351 0.003915 0.009702
# 4 0.004756 0.000620 -0.001351 0.029405 0.003625 0.008954
# 5 0.008159 -0.000678 0.003915 0.003625 0.027096 0.011545
# 6 0.019103 0.003072 0.009702 0.008954 0.011545 0.055481
#
#
# Mechanical properties :
#
#
# Convention : Reuss Voigt Hill
#
# Bulk Modulus (GPa) = 19.39386 32.25901 25.82644
# Shear Modulus (GPa) = 28.39567 38.55505 33.47536
#
# Velocity S-wave (km/s) = 3.62021 4.21840 3.93070
# Velocity P-wave (km/s) = 5.14059 6.21414 5.70269
#
# Compressibility (1/GPa) = 0.05156271
#
# Stress axis : x y z
#
# Youngs Moduli (GPa) = 38.81881 109.94197 69.53354
#
# Poissons Ratio (x) = 0.17311 -0.07048
# Poissons Ratio (y) = 0.06112 -0.11983
# Poissons Ratio (z) = -0.03935 -0.18947
#
# Static dielectric constant tensor:
#      x y z
#    x 2.572520 -0.792080 -2.305680 
#    y -0.792080 3.019400 -1.970550 
#    z -2.305680 -1.970550 0.902720 
# 
# 
# High freq. dielectric constant tensor:
#      x y z
#    x 1.849130 0.001790 -0.030010 
#    y 0.001790 1.869080 -0.002670 
#    z -0.030010 -0.002670 1.850890 
# 
# From -- ./inp_files/184297.got.cif
#   From: 2010.06.25/outbox.cif.g09.slc.cpg/sg2_93_cif.got.tgz:184297.got - 2010.06.27 13:26:56.
