data_PCOD8011975
_publ_section_title
;
Structure prediction by ZEFSAII (Michael W. Deem and Ramdas Pophale) SiO2 
 PCOD8011975
Probable space group: P -1
;
_chemical_formula_sum "Si O2"
_cell_formula_units_Z 16
_cell_length_a 20.590002
_cell_length_b 9.710950
_cell_length_c 5.413915
_cell_angle_alpha 137.822717
_cell_angle_beta 118.309934
_cell_angle_gamma 60.646530
_cell_volume 622.013631
_symmetry_space_group_name_H-M "P -1"
_symmetry_group_IT_number 2
_symmetry_cell_setting 'triclinic'
loop_
_space_group_symop_operation_xyz
x,y,z
-x,-y,-z
loop_
_atom_site_type_symbol
_atom_site_label
_atom_site_fract_x
_atom_site_fract_y
_atom_site_fract_z
Si Si1 0.719411 0.446627 0.283337
Si Si2 0.839531 0.678388 0.645996
Si Si3 0.976149 0.744138 0.233056
Si Si4 0.569709 0.440363 0.776037
Si Si5 0.941757 0.224819 0.088081
Si Si6 0.687481 0.182088 0.275441
Si Si7 0.457652 0.818880 0.192029
Si Si8 0.806333 0.022713 0.620845
O O1 0.767935 0.622195 0.574932
O O2 0.726965 0.357845 0.459738
O O3 0.631359 0.535098 0.174257
O O4 0.755236 0.246280 0.912485
O O5 0.897616 0.468870 0.364005
O O6 0.812205 0.836787 0.580852
O O7 0.884499 0.790006 0.080013
O O8 0.002742 0.849288 0.670380
O O9 0.015110 0.807149 0.139818
O O10 0.000000 0.500000 0.000000
O O11 0.617939 0.296515 0.468169
O O12 0.527431 0.296297 0.671512
O O13 0.502863 0.642237 0.836266
O O14 0.887914 0.061132 0.750138
O O15 0.754086 0.989746 0.246380
O O16 0.634606 0.088962 0.865392
O O17 0.500000 0.000000 0.500000
#
# Coordination Sequence:
#
# PCOD8011975 Si02
#       8
#     2   2   2   2   2   2   2   2
#     4   9  21  41  60  88 128 168 207 266 314 387
#     4  10  21  41  63  92 125 169 215 265 327 395
#     4  10  21  41  67  94 129 172 224 277 335 397
#     4   9  20  40  63  90 125 165 212 252 325 382
#     4  10  23  43  66  91 134 172 220 283 335 392
#     4  10  21  41  65  90 129 170 209 265 325 390
#     4  10  21  39  65  93 126 161 207 267 317 384
#     4  10  23  40  61  92 127 167 216 264 330 390
#
# _framework density 25.722911
#
# number of rings (size 3 to 8) (size 9 to 14) (size 15 to 20)
#    0.000    2.250    0.000    1.875    5.250    4.500 
#    9.000   12.500    0.000    0.000    0.000    0.000 
#    0.000    0.000    0.000    0.000    0.000    0.000 
#
# Total GULP energy -198252.871181 kJ/mol
# GULP energy per Si atom -12390.804449 kJ/mol
# Density = 2.566436 g / cm^3
# Si number density = 25.722911 Si / 1000 Ang^3
#
#
#
# Elastic Constant Matrix: (Units=GPa)
#
#
# Indices 1 2 3 4 5 6 
#
# 1 136.8855 67.6540 31.6633 4.8634 53.1146 11.6446
# 2 67.6540 187.8640 50.5195 -17.6535 49.4742 1.6999
# 3 31.6633 50.5195 96.8402 1.4731 33.8268 6.9406
# 4 4.8634 -17.6535 1.4731 34.9723 0.6936 11.1152
# 5 53.1146 49.4742 33.8268 0.6936 43.7170 0.3539
# 6 11.6446 1.6999 6.9406 11.1152 0.3539 56.6813
#
#
#
# Elastic Compliance Matrix: (Units=1/GPa)
#
#
# Indices 1 2 3 4 5 6 
#
# 1 0.014811 -0.001262 0.002489 -0.001515 -0.018445 -0.002897
# 2 -0.001262 0.008499 -0.001638 0.004898 -0.006890 -0.000713
# 3 0.002489 -0.001638 0.014971 -0.000903 -0.012724 -0.002039
# 4 -0.001515 0.004898 -0.000903 0.033370 -0.003482 -0.006247
# 5 -0.018445 -0.006890 -0.012724 -0.003482 0.062936 0.005844
# 6 -0.002897 -0.000713 -0.002039 -0.006247 0.005844 0.019697
#
#
# Mechanical properties :
#
#
# Convention : Reuss Voigt Hill
#
# Bulk Modulus (GPa) = 26.69478 80.14038 53.41758
# Shear Modulus (GPa) = 29.83459 45.19097 37.51278
#
# Velocity S-wave (km/s) = 3.40934 4.19601 3.82297
# Velocity P-wave (km/s) = 5.08906 7.39583 6.34810
#
# Compressibility (1/GPa) = 0.03746050
#
# Stress axis : x y z
#
# Youngs Moduli (GPa) = 67.51956 117.66148 66.79403
#
# Poissons Ratio (x) = 0.14844 -0.16627
# Poissons Ratio (y) = 0.08518 0.10941
# Poissons Ratio (z) = -0.16808 0.19273
#
# Static dielectric constant tensor:
#      x y z
#    x 5.082670 -0.272040 0.302870 
#    y -0.272040 5.002550 -0.362270 
#    z 0.302870 -0.362270 5.260530 
# 
# 
# High freq. dielectric constant tensor:
#      x y z
#    x 2.054890 -0.019510 0.004470 
#    y -0.019510 2.043880 -0.007230 
#    z 0.004470 -0.007230 2.028830 
# 
# From -- ./inp_files/117558.got.cif
#   From: 2010.06.25/outbox.cif.g09.slc.cpg/sg2_59_cif.got.tgz:117558.got - 2010.06.27 13:26:56.
