data_PCOD8011924
_publ_section_title
;
Structure prediction by ZEFSAII (Michael W. Deem and Ramdas Pophale) SiO2 
 PCOD8011924
Probable space group: P -1
;
_chemical_formula_sum "Si O2"
_cell_formula_units_Z 16
_cell_length_a 18.528252
_cell_length_b 7.696684
_cell_length_c 6.345605
_cell_angle_alpha 68.204742
_cell_angle_beta 84.477576
_cell_angle_gamma 118.953677
_cell_volume 691.499835
_symmetry_space_group_name_H-M "P -1"
_symmetry_group_IT_number 2
_symmetry_cell_setting 'triclinic'
loop_
_space_group_symop_operation_xyz
x,y,z
-x,-y,-z
loop_
_atom_site_type_symbol
_atom_site_label
_atom_site_fract_x
_atom_site_fract_y
_atom_site_fract_z
Si Si1 0.101613 0.113904 0.374218
Si Si2 0.056324 0.656504 0.602284
Si Si3 0.259601 0.922081 0.905975
Si Si4 0.743772 0.671907 0.462267
Si Si5 0.667484 0.277777 0.347090
Si Si6 0.592020 0.343946 0.958235
Si Si7 0.594412 0.970963 0.888705
Si Si8 0.105224 0.492311 0.020914
O O1 0.161441 0.230947 0.509831
O O2 0.115056 0.917334 0.383838
O O3 0.134693 0.315191 0.101494
O O4 0.000000 0.000000 0.500000
O O5 0.114203 0.580242 0.736527
O O6 0.000000 0.500000 0.500000
O O7 0.994736 0.647584 0.809571
O O8 0.284069 0.800639 0.778812
O O9 0.160591 0.704648 0.075226
O O10 0.259284 0.128776 0.725739
O O11 0.319691 0.015741 0.057619
O O12 0.733307 0.489737 0.381172
O O13 0.665804 0.559827 0.709101
O O14 0.616407 0.363906 0.189314
O O15 0.603281 0.064906 0.609260
O O16 0.493726 0.287902 0.974987
O O17 0.582942 0.115885 0.996533
#
# Coordination Sequence:
#
# PCOD8011924 Si02
#       8
#     2   2   2   2   2   2   2   2
#     4  10  21  41  64  87 126 161 202 265 316 368
#     4  10  22  40  63  92 117 161 208 253 318 383
#     4  11  23  40  62  93 131 167 211 264 316 376
#     4  11  23  42  61  92 129 164 214 268 310 384
#     4  10  21  39  65  89 121 174 211 255 326 377
#     4   9  19  38  62  92 126 164 215 260 316 376
#     4   9  19  37  62  92 126 166 208 268 314 372
#     4  10  21  41  60  86 130 157 202 268 306 370
#
# _framework density 23.138110000000001
#
# number of rings (size 3 to 8) (size 9 to 14) (size 15 to 20)
#    0.000    2.000    1.250    2.625    0.000    6.000 
#    4.500    1.250    0.000    0.000    0.000    0.000 
#    0.000    0.000    0.000    0.000    0.000    0.000 
#
# Total GULP energy -198211.515504 kJ/mol
# GULP energy per Si atom -12388.219719 kJ/mol
# Density = 2.308545 g / cm^3
# Si number density = 23.138110 Si / 1000 Ang^3
#
#
#
# Elastic Constant Matrix: (Units=GPa)
#
#
# Indices 1 2 3 4 5 6 
#
# 1 59.9257 31.2288 32.9979 -10.6311 30.7280 20.5444
# 2 31.2288 63.0576 23.6520 -13.9225 7.6031 4.1051
# 3 32.9979 23.6520 106.6144 -15.8875 34.8502 -3.3517
# 4 -10.6311 -13.9225 -15.8875 42.1530 -2.2498 6.3884
# 5 30.7280 7.6031 34.8502 -2.2498 41.4966 -5.4746
# 6 20.5444 4.1051 -3.3517 6.3884 -5.4746 46.5784
#
#
#
# Elastic Compliance Matrix: (Units=1/GPa)
#
#
# Indices 1 2 3 4 5 6 
#
# 1 0.070839 -0.023887 0.001771 0.013408 -0.053744 -0.037168
# 2 -0.023887 0.026525 -0.003721 0.000763 0.017295 0.009858
# 3 0.001771 -0.003721 0.014376 0.004184 -0.012672 -0.001482
# 4 0.013408 0.000763 0.004184 0.029938 -0.013460 -0.011368
# 5 -0.053744 0.017295 -0.012672 -0.013460 0.074849 0.031912
# 6 -0.037168 0.009858 -0.001482 -0.011368 0.031912 0.042198
#
#
# Mechanical properties :
#
#
# Convention : Reuss Voigt Hill
#
# Bulk Modulus (GPa) = 16.64801 45.03946 30.84373
# Shear Modulus (GPa) = 15.13221 35.49353 25.31287
#
# Velocity S-wave (km/s) = 2.56011 3.92086 3.31114
# Velocity P-wave (km/s) = 3.99369 6.32497 5.28937
#
# Compressibility (1/GPa) = 0.06006725
#
# Stress axis : x y z
#
# Youngs Moduli (GPa) = 14.11652 37.69972 69.55997
#
# Poissons Ratio (x) = 0.90052 -0.12322
# Poissons Ratio (y) = 0.33720 0.25885
# Poissons Ratio (z) = -0.02501 0.14029
#
# Static dielectric constant tensor:
#      x y z
#    x 4.414900 0.359460 0.414730 
#    y 0.359460 4.444570 -0.351310 
#    z 0.414730 -0.351310 4.441560 
# 
# 
# High freq. dielectric constant tensor:
#      x y z
#    x 1.902310 0.025740 0.023280 
#    y 0.025740 1.918190 -0.013190 
#    z 0.023280 -0.013190 1.911020 
# 
# From -- ./inp_files/116683.got.cif
#   From: 2010.06.25/outbox.cif.g09.slc.cpg/sg2_59_cif.got.tgz:116683.got - 2010.06.27 13:26:56.
