data_PCOD8011098
_publ_section_title
;
Structure prediction by ZEFSAII (Michael W. Deem and Ramdas Pophale) SiO2 
 PCOD8011098
Probable space group: P -1
;
_chemical_formula_sum "Si O2"
_cell_formula_units_Z 16
_cell_length_a 12.703647
_cell_length_b 9.294621
_cell_length_c 21.889941
_cell_angle_alpha 138.554185
_cell_angle_beta 154.962200
_cell_angle_gamma 48.737740
_cell_volume 722.266020
_symmetry_space_group_name_H-M "P -1"
_symmetry_group_IT_number 2
_symmetry_cell_setting 'triclinic'
loop_
_space_group_symop_operation_xyz
x,y,z
-x,-y,-z
loop_
_atom_site_type_symbol
_atom_site_label
_atom_site_fract_x
_atom_site_fract_y
_atom_site_fract_z
Si Si1 0.554636 0.263284 0.431462
Si Si2 0.034965 0.046463 0.102854
Si Si3 0.127491 0.084592 0.469008
Si Si4 0.499318 0.471367 0.814845
Si Si5 0.676001 0.115819 0.319486
Si Si6 0.227624 0.876961 0.818893
Si Si7 0.598272 0.325766 0.950436
Si Si8 0.248741 0.189767 0.029488
O O1 0.500000 0.500000 0.500000
O O2 0.600912 0.271384 0.385117
O O3 0.321748 0.110001 0.284383
O O4 0.788510 0.160418 0.554054
O O5 0.851707 0.238090 0.083688
O O6 0.951470 0.819928 0.023273
O O7 0.000000 0.000000 0.000000
O O8 0.366159 0.258681 0.644463
O O9 0.965199 0.149963 0.463466
O O10 0.963624 0.069530 0.317395
O O11 0.272460 0.621848 0.760650
O O12 0.645700 0.420137 0.937379
O O13 0.711390 0.588908 0.918831
O O14 0.522917 0.159729 0.191401
O O15 0.615457 0.868951 0.231276
O O16 0.500000 0.000000 0.000000
O O17 0.127284 0.978265 0.860638
O O18 0.500000 0.500000 0.000000
#
# Coordination Sequence:
#
# PCOD8011098 Si02
#       8
#     2   2   2   2   2   2   2   2
#     4  12  28  45  69 100 143 194 233 288 360 413
#     4  11  22  48  69  95 142 189 239 285 335 425
#     4  12  24  44  70 106 145 177 234 299 349 422
#     4  11  21  39  66 111 141 179 222 292 363 401
#     4  11  22  45  69 103 139 175 239 296 344 411
#     4  10  21  38  67 103 141 174 227 285 351 418
#     4  11  24  38  74 108 136 181 242 291 345 413
#     4  10  22  41  71 100 138 182 232 281 351 413
#
# _framework density 22.152502999999999
#
# number of rings (size 3 to 8) (size 9 to 14) (size 15 to 20)
#    0.000    1.000    6.250    2.250    3.500    1.000 
#    0.000    3.125    2.750    0.000    0.000    0.000 
#    0.000    0.000    0.000    0.000    0.000    0.000 
#
# Total GULP energy -198256.583734 kJ/mol
# GULP energy per Si atom -12391.036483 kJ/mol
# Density = 2.210208 g / cm^3
# Si number density = 22.152503 Si / 1000 Ang^3
#
#
#
# Elastic Constant Matrix: (Units=GPa)
#
#
# Indices 1 2 3 4 5 6 
#
# 1 130.4185 36.3757 43.5474 9.2565 4.1023 18.4663
# 2 36.3757 103.4456 36.2893 2.8323 -13.3549 9.4451
# 3 43.5474 36.2893 84.6238 -2.9450 -10.1042 5.2078
# 4 9.2565 2.8323 -2.9450 37.7348 -1.1421 -4.5796
# 5 4.1023 -13.3549 -10.1042 -1.1421 43.9436 4.4296
# 6 18.4663 9.4451 5.2078 -4.5796 4.4296 45.9189
#
#
#
# Elastic Compliance Matrix: (Units=1/GPa)
#
#
# Indices 1 2 3 4 5 6 
#
# 1 0.010619 -0.001954 -0.004823 -0.003323 -0.002436 -0.003418
# 2 -0.001954 0.012279 -0.003804 -0.000849 0.003189 -0.001701
# 3 -0.004823 -0.003804 0.016342 0.002942 0.003041 0.000869
# 4 -0.003323 -0.000849 0.002942 0.028112 0.001068 0.003878
# 5 -0.002436 0.003189 0.003041 0.001068 0.024913 -0.002318
# 6 -0.003418 -0.001701 0.000869 0.003878 -0.002318 0.024014
#
#
# Mechanical properties :
#
#
# Convention : Reuss Voigt Hill
#
# Bulk Modulus (GPa) = 55.31479 61.21251 58.26365
# Shear Modulus (GPa) = 34.85088 39.00449 36.92768
#
# Velocity S-wave (km/s) = 3.97069 4.20065 4.08729
# Velocity P-wave (km/s) = 6.78573 7.15679 6.97373
#
# Compressibility (1/GPa) = 0.01807835
#
# Stress axis : x y z
#
# Youngs Moduli (GPa) = 94.16647 81.44218 61.19066
#
# Poissons Ratio (x) = 0.15911 0.29513
# Poissons Ratio (y) = 0.18397 0.23279
# Poissons Ratio (z) = 0.45418 0.30983
#
# Static dielectric constant tensor:
#      x y z
#    x 4.935310 -0.145920 -0.647180 
#    y -0.145920 4.469400 0.074460 
#    z -0.647180 0.074460 4.280960 
# 
# 
# High freq. dielectric constant tensor:
#      x y z
#    x 1.880720 0.008880 -0.003320 
#    y 0.008880 1.867180 -0.005670 
#    z -0.003320 -0.005670 1.860470 
# 
# From -- ./inp_files/594283.got.cif
#   From: 2010.06.25/outbox.cif.g09.slc.cpg/sg2_298_cif.got.tgz:594283.got - 2010.06.27 13:26:56.
