data_PCOD8011381
_publ_section_title
;
Structure prediction by ZEFSAII (Michael W. Deem and Ramdas Pophale) SiO2 
 PCOD8011381
Probable space group: P -1
;
_chemical_formula_sum "Si O2"
_cell_formula_units_Z 16
_cell_length_a 12.384930
_cell_length_b 8.679945
_cell_length_c 14.458996
_cell_angle_alpha 147.562285
_cell_angle_beta 73.084418
_cell_angle_gamma 98.968949
_cell_volume 785.383781
_symmetry_space_group_name_H-M "P -1"
_symmetry_group_IT_number 2
_symmetry_cell_setting 'triclinic'
loop_
_space_group_symop_operation_xyz
x,y,z
-x,-y,-z
loop_
_atom_site_type_symbol
_atom_site_label
_atom_site_fract_x
_atom_site_fract_y
_atom_site_fract_z
Si Si1 0.561030 0.279491 0.298756
Si Si2 0.168749 0.539387 0.859770
Si Si3 0.179511 0.887102 0.853775
Si Si4 0.426835 0.325731 0.680598
Si Si5 0.055075 0.440130 0.555252
Si Si6 0.947147 0.460843 0.781226
Si Si7 0.184739 0.826194 0.189269
Si Si8 0.549265 0.294986 0.965781
O O1 0.500000 0.500000 0.500000
O O2 0.689983 0.136728 0.224756
O O3 0.556868 0.494311 0.322862
O O4 0.497426 0.005730 0.161610
O O5 0.181107 0.795607 0.914340
O O6 0.290669 0.315931 0.723155
O O7 0.067921 0.378364 0.765207
O O8 0.132142 0.680272 0.040283
O O9 0.115838 0.698326 0.706255
O O10 0.105262 0.203051 0.023886
O O11 0.500000 0.000000 0.500000
O O12 0.478155 0.511005 0.838698
O O13 0.000000 0.500000 0.500000
O O14 0.965462 0.376472 0.625321
O O15 0.152577 0.169336 0.374776
O O16 0.856404 0.287229 0.760780
O O17 0.318442 0.774316 0.122409
O O18 0.500000 0.500000 0.000000
#
# Coordination Sequence:
#
# PCOD8011381 Si02
#       8
#     2   2   2   2   2   2   2   2
#     4  11  22  40  63  89 119 160 207 253 303 358
#     4   9  20  38  61  84 117 155 193 240 297 357
#     4  10  21  39  61  84 115 155 196 242 297 359
#     4  10  22  40  63  91 122 158 204 253 305 361
#     4  11  22  38  59  87 119 152 191 240 295 360
#     4  11  21  37  60  88 117 154 192 237 298 358
#     4  11  22  38  58  86 118 151 195 246 292 348
#     4  11  23  40  61  87 121 161 203 253 303 357
#
# _framework density 20.372205000000001
#
# number of rings (size 3 to 8) (size 9 to 14) (size 15 to 20)
#    0.000    1.500    0.000    6.375    0.000    3.000 
#    0.000    6.250    0.000    0.000    0.000    0.000 
#    0.000    0.000    0.000    0.000    0.000    0.000 
#
# Total GULP energy -198323.928917 kJ/mol
# GULP energy per Si atom -12395.245557 kJ/mol
# Density = 2.032584 g / cm^3
# Si number density = 20.372205 Si / 1000 Ang^3
#
#
#
# Elastic Constant Matrix: (Units=GPa)
#
#
# Indices 1 2 3 4 5 6 
#
# 1 71.7245 43.8701 52.4526 -8.5810 3.5970 -2.7976
# 2 43.8701 87.3618 42.6467 -12.2436 8.4306 -9.2050
# 3 52.4526 42.6467 141.7656 -3.3720 -7.8965 -15.2030
# 4 -8.5810 -12.2436 -3.3720 44.7096 -5.0718 1.1398
# 5 3.5970 8.4306 -7.8965 -5.0718 22.6958 0.2647
# 6 -2.7976 -9.2050 -15.2030 1.1398 0.2647 36.2316
#
#
#
# Elastic Compliance Matrix: (Units=1/GPa)
#
#
# Indices 1 2 3 4 5 6 
#
# 1 0.024592 -0.008857 -0.006894 0.001561 -0.002619 -0.003274
# 2 -0.008857 0.018107 -0.002101 0.002394 -0.005553 0.003000
# 3 -0.006894 -0.002101 0.010904 -0.000540 0.005505 0.003486
# 4 0.001561 0.002394 -0.000540 0.023740 0.003984 -0.000274
# 5 -0.002619 -0.005553 0.005505 0.003984 0.049342 0.000211
# 6 -0.003274 0.003000 0.003486 -0.000274 0.000211 0.029580
#
#
# Mechanical properties :
#
#
# Convention : Reuss Voigt Hill
#
# Bulk Modulus (GPa) = 55.86804 64.31008 60.08906
# Shear Modulus (GPa) = 25.26066 31.51957 28.39012
#
# Velocity S-wave (km/s) = 3.52512 3.93769 3.73711
# Velocity P-wave (km/s) = 6.63716 7.23257 6.94125
#
# Compressibility (1/GPa) = 0.01789932
#
# Stress axis : x y z
#
# Youngs Moduli (GPa) = 40.66363 55.22594 91.70620
#
# Poissons Ratio (x) = 0.48915 0.63225
# Poissons Ratio (y) = 0.36017 0.19265
# Poissons Ratio (z) = 0.28035 0.11601
#
# Static dielectric constant tensor:
#      x y z
#    x 3.745610 -0.065140 -0.247580 
#    y -0.065140 3.910190 -0.121430 
#    z -0.247580 -0.121430 3.888870 
# 
# 
# High freq. dielectric constant tensor:
#      x y z
#    x 1.799840 -0.004680 -0.011100 
#    y -0.004680 1.802400 -0.008240 
#    z -0.011100 -0.008240 1.811160 
# 
# From -- ./inp_files/187952.got.cif
#   From: 2010.06.25/outbox.cif.g09.slc.cpg/sg2_94_cif.got.tgz:187952.got - 2010.06.27 13:26:56.
