data_PCOD8011949
_publ_section_title
;
Structure prediction by ZEFSAII (Michael W. Deem and Ramdas Pophale) SiO2 
 PCOD8011949
Probable space group: P -1
;
_chemical_formula_sum "Si O2"
_cell_formula_units_Z 14
_cell_length_a 14.203430
_cell_length_b 6.685736
_cell_length_c 21.495547
_cell_angle_alpha 96.340175
_cell_angle_beta 158.034912
_cell_angle_gamma 96.240002
_cell_volume 624.608464
_symmetry_space_group_name_H-M "P -1"
_symmetry_group_IT_number 2
_symmetry_cell_setting 'triclinic'
loop_
_space_group_symop_operation_xyz
x,y,z
-x,-y,-z
loop_
_atom_site_type_symbol
_atom_site_label
_atom_site_fract_x
_atom_site_fract_y
_atom_site_fract_z
Si Si1 0.093560 0.922594 0.724143
Si Si2 0.679651 0.361514 0.910363
Si Si3 0.136691 0.915209 0.218498
Si Si4 0.213279 0.868513 0.403865
Si Si5 0.730174 0.303752 0.080482
Si Si6 0.797671 0.537602 0.424849
Si Si7 0.759932 0.973744 0.902039
O O1 0.108470 0.821366 0.797158
O O2 0.028393 0.734382 0.623270
O O3 0.830334 0.972087 0.567735
O O4 0.409307 0.183743 0.915031
O O5 0.379524 0.362165 0.715423
O O6 0.702392 0.187051 0.869356
O O7 0.663068 0.255664 0.964667
O O8 0.984870 0.631520 0.099276
O O9 0.203841 0.967163 0.333792
O O10 0.453424 0.076929 0.378977
O O11 0.912341 0.993040 0.063201
O O12 0.943845 0.588232 0.237085
O O13 0.563613 0.287712 0.310128
O O14 0.000000 0.500000 0.500000
O O15 0.000000 0.000000 0.000000
#
# Coordination Sequence:
#
# PCOD8011949 Si02
#       7
#     2   2   2   2   2   2   2
#     4  11  24  39  65  94 129 162 220 268 316 377
#     4  10  23  45  68  89 134 174 207 266 331 375
#     4   9  22  40  62  96 128 164 215 261 317 393
#     4  10  21  39  65  91 127 169 209 263 323 380
#     4  10  23  41  63  95 123 171 212 268 317 382
#     4  11  27  45  65  97 132 172 222 264 320 394
#     4  11  25  40  66  97 132 170 219 266 320 386
#
# _framework density 22.414041000000001
#
# number of rings (size 3 to 8) (size 9 to 14) (size 15 to 20)
#    0.000    1.714    0.000    2.143    6.000   10.286 
#    0.000    4.286    0.000    0.000    0.000    0.000 
#    0.000    0.000    0.000    0.000    0.000    0.000 
#
# Total GULP energy -173599.686513 kJ/mol
# GULP energy per Si atom -12399.977608 kJ/mol
# Density = 2.236303 g / cm^3
# Si number density = 22.414041 Si / 1000 Ang^3
#
#
#
# Elastic Constant Matrix: (Units=GPa)
#
#
# Indices 1 2 3 4 5 6 
#
# 1 80.7246 55.2717 35.1131 4.5054 20.1581 -8.3915
# 2 55.2717 108.4905 47.9531 -3.5242 18.4810 -21.8730
# 3 35.1131 47.9531 115.3366 2.6411 14.1396 -6.8613
# 4 4.5054 -3.5242 2.6411 28.4937 2.4578 4.2179
# 5 20.1581 18.4810 14.1396 2.4578 32.0237 -6.9105
# 6 -8.3915 -21.8730 -6.8613 4.2179 -6.9105 37.1445
#
#
#
# Elastic Compliance Matrix: (Units=1/GPa)
#
#
# Indices 1 2 3 4 5 6 
#
# 1 0.021422 -0.009388 -0.001744 -0.003445 -0.007466 -0.002009
# 2 -0.009388 0.017401 -0.003897 0.003087 -0.001174 0.006837
# 3 -0.001744 -0.003897 0.010991 -0.000960 -0.001616 -0.000850
# 4 -0.003445 0.003087 -0.000960 0.036929 -0.002857 -0.003863
# 5 -0.007466 -0.001174 -0.001616 -0.002857 0.038578 0.004825
# 6 -0.002009 0.006837 -0.000850 -0.003863 0.004825 0.031674
#
#
# Mechanical properties :
#
#
# Convention : Reuss Voigt Hill
#
# Bulk Modulus (GPa) = 50.61532 64.58084 57.59808
# Shear Modulus (GPa) = 25.82132 30.61330 28.21731
#
# Velocity S-wave (km/s) = 3.39782 3.69969 3.55196
# Velocity P-wave (km/s) = 6.16640 6.86480 6.52496
#
# Compressibility (1/GPa) = 0.01975686
#
# Stress axis : x y z
#
# Youngs Moduli (GPa) = 46.68076 57.46664 90.98454
#
# Poissons Ratio (x) = 0.53950 0.15866
# Poissons Ratio (y) = 0.43824 0.35455
# Poissons Ratio (z) = 0.08140 0.22394
#
# Static dielectric constant tensor:
#      x y z
#    x 3.916610 0.199470 -0.007240 
#    y 0.199470 4.029400 -0.083430 
#    z -0.007240 -0.083430 4.147140 
# 
# 
# High freq. dielectric constant tensor:
#      x y z
#    x 1.879080 0.006530 0.001440 
#    y 0.006530 1.884590 -0.001170 
#    z 0.001440 -0.001170 1.893030 
# 
# From -- ./inp_files/85054.got.cif
#   From: 2010.06.25/outbox.cif.g09.slc.cpg/sg2_43_cif.got.tgz:85054.got - 2010.06.27 13:26:56.
