data_PCOD8011380
_publ_section_title
;
Structure prediction by ZEFSAII (Michael W. Deem and Ramdas Pophale) SiO2 
 PCOD8011380
Probable space group: P -1
;
_chemical_formula_sum "Si O2"
_cell_formula_units_Z 16
_cell_length_a 13.431885
_cell_length_b 8.847905
_cell_length_c 11.878132
_cell_angle_alpha 142.222669
_cell_angle_beta 105.145911
_cell_angle_gamma 60.525246
_cell_volume 730.965245
_symmetry_space_group_name_H-M "P -1"
_symmetry_group_IT_number 2
_symmetry_cell_setting 'triclinic'
loop_
_space_group_symop_operation_xyz
x,y,z
-x,-y,-z
loop_
_atom_site_type_symbol
_atom_site_label
_atom_site_fract_x
_atom_site_fract_y
_atom_site_fract_z
Si Si1 0.039201 0.708769 0.584004
Si Si2 0.084698 0.732790 0.231805
Si Si3 0.155263 0.228611 0.798711
Si Si4 0.214296 0.362295 0.243939
Si Si5 0.610145 0.941912 0.340940
Si Si6 0.475325 0.952959 0.091935
Si Si7 0.440358 0.442510 0.736446
Si Si8 0.797890 0.109719 0.166860
O O1 0.146849 0.528245 0.429496
O O2 0.091185 0.831244 0.767455
O O3 0.000000 0.500000 0.500000
O O4 0.931878 0.966184 0.637429
O O5 0.189605 0.586492 0.267287
O O6 0.962745 0.777657 0.281650
O O7 0.114298 0.541495 0.016793
O O8 0.250133 0.156175 0.683449
O O9 0.215884 0.998465 0.778923
O O10 0.348204 0.210610 0.233697
O O11 0.175340 0.132714 0.059767
O O12 0.566174 0.968791 0.214949
O O13 0.586040 0.714036 0.262608
O O14 0.543925 0.233470 0.560849
O O15 0.480265 0.651940 0.927973
O O16 0.500000 0.000000 0.000000
O O17 0.322411 0.608932 0.727229
#
# Coordination Sequence:
#
# PCOD8011380 Si02
#       8
#     2   2   2   2   2   2   2   2
#     4  11  23  36  58  88 118 154 193 239 292 351
#     4   9  19  38  58  86 117 148 200 243 285 349
#     4   9  19  37  64  84 112 159 196 245 293 338
#     4  10  21  39  61  83 114 155 194 243 293 340
#     4  11  22  39  62  90 122 156 197 244 301 353
#     4  11  23  40  64  90 118 156 202 247 296 351
#     4  10  23  39  59  90 124 157 194 243 298 359
#     4   9  20  40  58  82 119 153 197 243 290 350
#
# _framework density 21.888864999999999
#
# number of rings (size 3 to 8) (size 9 to 14) (size 15 to 20)
#    0.000    2.000    0.000    4.500    0.000    7.500 
#    0.000    7.500    0.000    0.000    0.000    0.000 
#    0.000    0.000    0.000    0.000    0.000    0.000 
#
# Total GULP energy -198393.475089 kJ/mol
# GULP energy per Si atom -12399.592193 kJ/mol
# Density = 2.183905 g / cm^3
# Si number density = 21.888865 Si / 1000 Ang^3
#
#
#
# Elastic Constant Matrix: (Units=GPa)
#
#
# Indices 1 2 3 4 5 6 
#
# 1 66.2713 28.3512 30.4394 18.3443 5.6192 6.5831
# 2 28.3512 74.8727 39.7181 22.7509 -5.1857 5.9721
# 3 30.4394 39.7181 67.4634 24.7965 -11.3323 2.9478
# 4 18.3443 22.7509 24.7965 38.2234 -3.1065 2.7739
# 5 5.6192 -5.1857 -11.3323 -3.1065 25.2830 2.9264
# 6 6.5831 5.9721 2.9478 2.7739 2.9264 30.2406
#
#
#
# Elastic Compliance Matrix: (Units=1/GPa)
#
#
# Indices 1 2 3 4 5 6 
#
# 1 0.022445 -0.003450 -0.008115 -0.004080 -0.009590 -0.002111
# 2 -0.003450 0.021061 -0.008795 -0.004952 0.000787 -0.002173
# 3 -0.008115 -0.008795 0.028798 -0.008618 0.011809 0.000344
# 4 -0.004080 -0.004952 -0.008618 0.036763 0.000629 -0.000727
# 5 -0.009590 0.000787 0.011809 0.000629 0.047666 -0.003889
# 6 -0.002111 -0.002173 0.000344 -0.000727 -0.003889 0.034366
#
#
# Mechanical properties :
#
#
# Convention : Reuss Voigt Hill
#
# Bulk Modulus (GPa) = 31.66165 45.06942 38.36554
# Shear Modulus (GPa) = 20.63156 26.08931 23.36044
#
# Velocity S-wave (km/s) = 3.07344 3.45613 3.27039
# Velocity P-wave (km/s) = 5.20489 6.04659 5.64146
#
# Compressibility (1/GPa) = 0.03158395
#
# Stress axis : x y z
#
# Youngs Moduli (GPa) = 44.55295 47.48186 34.72418
#
# Poissons Ratio (x) = 0.16383 0.28179
# Poissons Ratio (y) = 0.15372 0.30540
# Poissons Ratio (z) = 0.36155 0.41760
#
# Static dielectric constant tensor:
#      x y z
#    x 3.516750 -0.218080 -0.010310 
#    y -0.218080 3.981360 0.264690 
#    z -0.010310 0.264690 4.092280 
# 
# 
# High freq. dielectric constant tensor:
#      x y z
#    x 1.842720 -0.010280 0.001080 
#    y -0.010280 1.859720 0.017170 
#    z 0.001080 0.017170 1.872820 
# 
# From -- ./inp_files/448367.got.cif
#   From: 2010.06.25/outbox.cif.g09.slc.cpg/sg2_225_cif.got.tgz:448367.got - 2010.06.27 13:26:56.
