data_PCOD8011905
_publ_section_title
;
Structure prediction by ZEFSAII (Michael W. Deem and Ramdas Pophale) SiO2 
 PCOD8011905
Probable space group: P -1
;
_chemical_formula_sum "Si O2"
_cell_formula_units_Z 16
_cell_length_a 9.793148
_cell_length_b 24.514724
_cell_length_c 23.914375
_cell_angle_alpha 17.736321
_cell_angle_beta 147.510464
_cell_angle_gamma 147.059958
_cell_volume 916.655343
_symmetry_space_group_name_H-M "P -1"
_symmetry_group_IT_number 2
_symmetry_cell_setting 'triclinic'
loop_
_space_group_symop_operation_xyz
x,y,z
-x,-y,-z
loop_
_atom_site_type_symbol
_atom_site_label
_atom_site_fract_x
_atom_site_fract_y
_atom_site_fract_z
Si Si1 0.646392 0.924673 0.868918
Si Si2 0.234407 0.062654 0.650915
Si Si3 0.588207 0.861426 0.242398
Si Si4 0.808034 0.905832 0.154840
Si Si5 0.275772 0.488424 0.535491
Si Si6 0.270598 0.444415 0.705492
Si Si7 0.904422 0.257046 0.159733
Si Si8 0.808030 0.634703 0.739277
O O1 0.397642 0.816621 0.851708
O O2 0.536157 0.067653 0.731099
O O3 0.748760 0.774487 0.088158
O O4 0.881960 0.035794 0.804805
O O5 0.226436 0.064682 0.713047
O O6 0.133333 0.234231 0.422552
O O7 0.046775 0.874514 0.746094
O O8 0.769347 0.908365 0.205295
O O9 0.483897 0.643116 0.424305
O O10 0.341430 0.955732 0.062285
O O11 0.686783 0.706428 0.282755
O O12 0.328559 0.515285 0.593325
O O13 0.986621 0.511619 0.399670
O O14 0.500378 0.552524 0.718714
O O15 0.096652 0.247122 0.287451
O O16 0.954149 0.465782 0.949657
#
# Coordination Sequence:
#
# PCOD8011905 Si02
#       8
#     2   2   2   2   2   2   2   2
#     4   9  19  34  51  80 101 134 168 212 260 295
#     4  10  19  32  55  78  99 135 168 214 255 296
#     4  11  23  36  51  76 105 141 176 205 252 309
#     4  11  23  36  51  72 110 142 170 210 251 308
#     4  11  21  34  51  77 103 137 174 210 260 297
#     4  10  19  30  55  79 104 129 170 222 250 303
#     4   8  20  30  52  80 103 128 165 214 262 298
#     4  10  16  33  49  82 105 127 164 216 259 300
#
# _framework density 17.454761000000001
#
# number of rings (size 3 to 8) (size 9 to 14) (size 15 to 20)
#    0.750    1.250    2.500    2.250    1.750    1.000 
#    0.000    0.000    0.000    0.750    0.000    2.625 
#    0.000    0.000    0.000    0.000    0.000    0.000 
#
# Total GULP energy -198310.172872 kJ/mol
# GULP energy per Si atom -12394.385804 kJ/mol
# Density = 1.741503 g / cm^3
# Si number density = 17.454761 Si / 1000 Ang^3
#
#
#
# Elastic Constant Matrix: (Units=GPa)
#
#
# Indices 1 2 3 4 5 6 
#
# 1 44.2664 22.6613 21.8855 3.8178 -6.9581 -13.0282
# 2 22.6613 95.0314 31.3872 1.9069 -9.7034 -20.0625
# 3 21.8855 31.3872 85.0860 -5.9380 -10.6666 -5.7417
# 4 3.8178 1.9069 -5.9380 30.2110 -5.3724 0.1180
# 5 -6.9581 -9.7034 -10.6666 -5.3724 21.7201 2.6037
# 6 -13.0282 -20.0625 -5.7417 0.1180 2.6037 19.7500
#
#
#
# Elastic Compliance Matrix: (Units=1/GPa)
#
#
# Indices 1 2 3 4 5 6 
#
# 1 0.032783 -0.001430 -0.006629 -0.004844 0.003271 0.017844
# 2 -0.001430 0.015266 -0.004161 -0.001215 0.002455 0.013038
# 3 -0.006629 -0.004161 0.015736 0.005209 0.005609 -0.004795
# 4 -0.004844 -0.001215 0.005209 0.036619 0.010056 -0.004459
# 5 0.003271 0.002455 0.005609 0.010056 0.053527 -0.000834
# 6 0.017844 0.013038 -0.004795 -0.004459 -0.000834 0.074390
#
#
# Mechanical properties :
#
#
# Convention : Reuss Voigt Hill
#
# Bulk Modulus (GPa) = 25.41559 41.80577 33.61068
# Shear Modulus (GPa) = 18.80584 24.23288 21.51936
#
# Velocity S-wave (km/s) = 3.28595 3.73007 3.51503
# Velocity P-wave (km/s) = 5.38415 6.52335 5.98093
#
# Compressibility (1/GPa) = 0.03934594
#
# Stress axis : x y z
#
# Youngs Moduli (GPa) = 30.50321 65.50703 63.54939
#
# Poissons Ratio (x) = 0.09367 0.42126
# Poissons Ratio (y) = 0.04362 0.26441
# Poissons Ratio (z) = 0.20220 0.27256
#
# Static dielectric constant tensor:
#      x y z
#    x 2.809370 -0.095130 0.074140 
#    y -0.095130 3.206110 -0.053870 
#    z 0.074140 -0.053870 3.454200 
# 
# 
# High freq. dielectric constant tensor:
#      x y z
#    x 1.622270 -0.014080 0.004340 
#    y -0.014080 1.673910 -0.008860 
#    z 0.004340 -0.008860 1.695590 
# 
# From -- ./inp_files/284584.got.cif
#   From: 2010.06.25/outbox.cif.g09.slc.cpg/sg2_143_cif.got.tgz:284584.got - 2010.06.27 13:26:56.
