data_PCOD8011711
_publ_section_title
;
Structure prediction by ZEFSAII (Michael W. Deem and Ramdas Pophale) SiO2 
 PCOD8011711
Probable space group: P -1
;
_chemical_formula_sum "Si O2"
_cell_formula_units_Z 16
_cell_length_a 7.561490
_cell_length_b 19.723407
_cell_length_c 6.504640
_cell_angle_alpha 86.172193
_cell_angle_beta 84.322778
_cell_angle_gamma 140.111641
_cell_volume 603.394107
_symmetry_space_group_name_H-M "P -1"
_symmetry_group_IT_number 2
_symmetry_cell_setting 'triclinic'
loop_
_space_group_symop_operation_xyz
x,y,z
-x,-y,-z
loop_
_atom_site_type_symbol
_atom_site_label
_atom_site_fract_x
_atom_site_fract_y
_atom_site_fract_z
Si Si1 0.745643 0.526249 0.696081
Si Si2 0.193402 0.029251 0.682881
Si Si3 0.379466 0.078880 0.124546
Si Si4 0.224017 0.753894 0.530462
Si Si5 0.569510 0.680283 0.990427
Si Si6 0.200582 0.692990 0.100067
Si Si7 0.173299 0.870766 0.743785
Si Si8 0.643156 0.463883 0.284465
O O1 0.546688 0.426991 0.895450
O O2 0.764302 0.486434 0.494049
O O3 0.613728 0.560579 0.662092
O O4 0.069638 0.645796 0.698210
O O5 0.179818 0.947180 0.623193
O O6 0.896471 0.981453 0.695364
O O7 0.432639 0.141704 0.503818
O O8 0.280996 0.049855 0.907719
O O9 0.524440 0.051817 0.187938
O O10 0.645297 0.211264 0.103104
O O11 0.144092 0.718951 0.307915
O O12 0.114280 0.796836 0.591667
O O13 0.425502 0.699864 0.118543
O O14 0.467161 0.641510 0.771591
O O15 0.907965 0.789056 0.951746
O O16 0.899351 0.571448 0.088989
#
# Coordination Sequence:
#
# PCOD8011711 Si02
#       8
#     2   2   2   2   2   2   2   2
#     4  10  22  40  64  98 133 176 225 272 336 399
#     4  10  22  45  67  92 135 172 218 279 336 400
#     4  10  22  41  70  96 130 170 221 282 332 396
#     4  10  23  41  65  91 136 172 214 284 334 387
#     4  12  23  40  68 100 134 178 229 272 331 414
#     4  10  22  42  62  96 136 175 216 279 336 389
#     4  12  23  41  70 103 123 176 229 267 343 408
#     4  10  21  39  63  93 135 180 220 274 334 391
#
# _framework density 26.516666000000001
#
# number of rings (size 3 to 8) (size 9 to 14) (size 15 to 20)
#    0.000    1.500    2.500    2.250    1.750    3.500 
#    2.250    0.000    2.750    0.000    0.000    0.000 
#    0.000    0.000    0.000    0.000    0.000    0.000 
#
# Total GULP energy -198309.303784 kJ/mol
# GULP energy per Si atom -12394.331486 kJ/mol
# Density = 2.645631 g / cm^3
# Si number density = 26.516666 Si / 1000 Ang^3
#
#
#
# Elastic Constant Matrix: (Units=GPa)
#
#
# Indices 1 2 3 4 5 6 
#
# 1 119.2205 36.0647 22.1747 -4.5704 -23.2083 12.0882
# 2 36.0647 116.4715 32.4956 -23.3845 -0.3859 15.0399
# 3 22.1747 32.4956 81.3239 -30.3022 -26.9103 5.3907
# 4 -4.5704 -23.3845 -30.3022 51.5328 -3.7075 -12.7865
# 5 -23.2083 -0.3859 -26.9103 -3.7075 26.6994 -4.1909
# 6 12.0882 15.0399 5.3907 -12.7865 -4.1909 30.7127
#
#
#
# Elastic Compliance Matrix: (Units=1/GPa)
#
#
# Indices 1 2 3 4 5 6 
#
# 1 0.011967 -0.004369 0.004709 0.002948 0.015486 -0.000057
# 2 -0.004369 0.012664 -0.008934 -0.002322 -0.013847 -0.005770
# 3 0.004709 -0.008934 0.040771 0.027418 0.051021 0.013742
# 4 0.002948 -0.002322 0.027418 0.041977 0.038808 0.017936
# 5 0.015486 -0.013847 0.051021 0.038808 0.111146 0.023054
# 6 -0.000057 -0.005770 0.013742 0.017936 0.023054 0.043609
#
#
# Mechanical properties :
#
#
# Convention : Reuss Voigt Hill
#
# Bulk Modulus (GPa) = 20.74059 55.38732 38.06395
# Shear Modulus (GPa) = 16.92661 36.87439 26.90050
#
# Velocity S-wave (km/s) = 2.52928 3.73314 3.18854
# Velocity P-wave (km/s) = 4.04578 6.28608 5.28598
#
# Compressibility (1/GPa) = 0.04821465
#
# Stress axis : x y z
#
# Youngs Moduli (GPa) = 83.56429 78.96302 24.52744
#
# Poissons Ratio (x) = 0.34497 -0.11550
# Poissons Ratio (y) = 0.36508 0.21912
# Poissons Ratio (z) = -0.39352 0.70545
#
# Static dielectric constant tensor:
#      x y z
#    x 4.224920 0.041720 -0.301410 
#    y 0.041720 5.205530 -0.148070 
#    z -0.301410 -0.148070 5.025440 
# 
# 
# High freq. dielectric constant tensor:
#      x y z
#    x 2.026310 0.006990 -0.019280 
#    y 0.006990 2.090210 -0.001920 
#    z -0.019280 -0.001920 2.087460 
# 
# From -- ./inp_files/226340.got.cif
#   From: 2010.06.25/outbox.cif.g09.slc.cpg/sg2_114_cif.got.tgz:226340.got - 2010.06.27 13:26:56.
