data_PCOD8011606
_publ_section_title
;
Structure prediction by ZEFSAII (Michael W. Deem and Ramdas Pophale) SiO2 
 PCOD8011606
Probable space group: P -1
;
_chemical_formula_sum "Si O2"
_cell_formula_units_Z 14
_cell_length_a 31.272305
_cell_length_b 15.624599
_cell_length_c 15.488089
_cell_angle_alpha 160.932021
_cell_angle_beta 160.466270
_cell_angle_gamma 18.546514
_cell_volume 703.632326
_symmetry_space_group_name_H-M "P -1"
_symmetry_group_IT_number 2
_symmetry_cell_setting 'triclinic'
loop_
_space_group_symop_operation_xyz
x,y,z
-x,-y,-z
loop_
_atom_site_type_symbol
_atom_site_label
_atom_site_fract_x
_atom_site_fract_y
_atom_site_fract_z
Si Si1 0.167268 0.723070 0.570770
Si Si2 0.254097 0.089448 0.205348
Si Si3 0.458822 0.360713 0.060511
Si Si4 0.417421 0.821724 0.698730
Si Si5 0.544106 0.525273 0.205704
Si Si6 0.094676 0.159825 0.323865
Si Si7 0.259134 0.070436 0.384839
O O1 0.177499 0.403983 0.306643
O O2 0.275147 0.627809 0.600660
O O3 0.000000 0.000000 0.500000
O O4 0.223628 0.835847 0.865656
O O5 0.182401 0.183911 0.253433
O O6 0.439274 0.895866 0.380602
O O7 0.585336 0.201404 0.223772
O O8 0.521253 0.335592 0.057583
O O9 0.361156 0.707244 0.235903
O O10 0.358297 0.212835 0.732406
O O11 0.500000 0.500000 0.500000
O O12 0.245911 0.993225 0.507771
O O13 0.500000 0.000000 0.000000
O O14 0.500000 0.500000 0.000000
O O15 0.124684 0.178421 0.298158
O O16 0.000000 0.500000 0.500000
O O17 0.000000 0.000000 0.000000
#
# Coordination Sequence:
#
# PCOD8011606 Si02
#       7
#     2   2   2   2   2   2   2
#     4  11  22  39  60  88 129 160 196 252 320 368
#     4  10  21  39  63  86 115 166 207 251 297 371
#     4  11  21  38  66  94 118 163 215 266 302 361
#     4  12  22  43  67  90 126 167 214 262 314 378
#     4   9  20  38  63  92 118 157 210 252 296 365
#     4  12  25  41  63  93 129 164 208 258 324 382
#     4  11  21  40  64  91 121 160 215 252 309 375
#
# _framework density 19.896756
#
# number of rings (size 3 to 8) (size 9 to 14) (size 15 to 20)
#    0.000    1.143    2.857    5.143    0.000    3.429 
#    5.143    0.000    0.000    0.000    0.000    0.000 
#    0.000    0.000    0.000    0.000    0.000    0.000 
#
# Total GULP energy -173461.021912 kJ/mol
# GULP energy per Si atom -12390.072994 kJ/mol
# Density = 1.985147 g / cm^3
# Si number density = 19.896756 Si / 1000 Ang^3
#
#
#
# Elastic Constant Matrix: (Units=GPa)
#
#
# Indices 1 2 3 4 5 6 
#
# 1 184.3215 54.5511 51.2028 -6.9499 7.5744 -1.8918
# 2 54.5511 140.2230 49.7826 -1.8985 12.4727 -10.6650
# 3 51.2028 49.7826 123.3432 11.1128 7.4464 -1.1454
# 4 -6.9499 -1.8985 11.1128 38.1365 -1.2230 0.2706
# 5 7.5744 12.4727 7.4464 -1.2230 34.5127 2.5681
# 6 -1.8918 -10.6650 -1.1454 0.2706 2.5681 31.3738
#
#
#
# Elastic Compliance Matrix: (Units=1/GPa)
#
#
# Indices 1 2 3 4 5 6 
#
# 1 0.006631 -0.001781 -0.002178 0.001748 -0.000259 -0.000279
# 2 -0.001781 0.009344 -0.002928 0.000889 -0.002558 0.003164
# 3 -0.002178 -0.002928 0.010566 -0.003644 -0.000825 -0.000642
# 4 0.001748 0.000889 -0.003644 0.027681 0.001066 -0.000051
# 5 -0.000259 -0.002558 -0.000825 0.001066 0.030426 -0.003415
# 6 -0.000279 0.003164 -0.000642 -0.000051 -0.003415 0.033189
#
#
# Mechanical properties :
#
#
# Convention : Reuss Voigt Hill
#
# Bulk Modulus (GPa) = 78.33502 84.32896 81.33199
# Shear Modulus (GPa) = 36.80050 40.29468 38.54759
#
# Velocity S-wave (km/s) = 4.30533 4.50509 4.40634
# Velocity P-wave (km/s) = 8.01066 8.33885 8.17640
#
# Compressibility (1/GPa) = 0.01276568
#
# Stress axis : x y z
#
# Youngs Moduli (GPa) = 150.80192 107.01825 94.64458
#
# Poissons Ratio (x) = 0.19058 0.20618
# Poissons Ratio (y) = 0.26855 0.27716
# Poissons Ratio (z) = 0.32852 0.31340
#
# Static dielectric constant tensor:
#      x y z
#    x 4.138680 -0.111410 -0.005930 
#    y -0.111410 3.816480 -0.083550 
#    z -0.005930 -0.083550 3.733740 
# 
# 
# High freq. dielectric constant tensor:
#      x y z
#    x 1.790450 0.001760 -0.005100 
#    y 0.001760 1.773320 0.018660 
#    z -0.005100 0.018660 1.775250 
# 
# From -- ./inp_files/55733.got.cif
#   From: 2010.06.25/outbox.cif.g09.slc.cpg/sg2_28_cif.got.tgz:55733.got - 2010.06.27 13:26:56.
