data_PCOD8011476
_publ_section_title
;
Structure prediction by ZEFSAII (Michael W. Deem and Ramdas Pophale) SiO2 
 PCOD8011476
Probable space group: P -1
;
_chemical_formula_sum "Si O2"
_cell_formula_units_Z 16
_cell_length_a 18.661284
_cell_length_b 8.145388
_cell_length_c 7.436767
_cell_angle_alpha 58.042954
_cell_angle_beta 138.750521
_cell_angle_gamma 122.565906
_cell_volume 612.148442
_symmetry_space_group_name_H-M "P -1"
_symmetry_group_IT_number 2
_symmetry_cell_setting 'triclinic'
loop_
_space_group_symop_operation_xyz
x,y,z
-x,-y,-z
loop_
_atom_site_type_symbol
_atom_site_label
_atom_site_fract_x
_atom_site_fract_y
_atom_site_fract_z
Si Si1 0.143711 0.991090 0.605657
Si Si2 0.664506 0.369792 0.682005
Si Si3 0.611695 0.273955 0.235983
Si Si4 0.801281 0.667434 0.001880
Si Si5 0.424369 0.353737 0.234862
Si Si6 0.164203 0.694592 0.522157
Si Si7 0.075145 0.901685 0.928018
Si Si8 0.617602 0.945684 0.966196
O O1 0.114660 0.802051 0.526522
O O2 0.137121 0.912471 0.846135
O O3 0.270448 0.129338 0.725196
O O4 0.058041 0.130409 0.334782
O O5 0.663593 0.300670 0.516848
O O6 0.778017 0.540957 0.844900
O O7 0.551520 0.431209 0.505696
O O8 0.668394 0.182867 0.923796
O O9 0.702078 0.207864 0.316332
O O10 0.595082 0.490334 0.038385
O O11 0.490864 0.115459 0.073166
O O12 0.677195 0.694874 0.790867
O O13 0.850661 0.540575 0.320338
O O14 0.882486 0.886457 0.007258
O O15 0.426324 0.147076 0.256871
O O16 0.097049 0.722373 0.196416
#
# Coordination Sequence:
#
# PCOD8011476 Si02
#       8
#     2   2   2   2   2   2   2   2
#     4  11  24  48  72 101 134 182 241 279 346 408
#     4  11  21  38  63  99 139 183 219 275 350 402
#     4  10  23  38  67 101 140 179 220 280 346 411
#     4  11  24  43  67 102 143 174 233 289 332 418
#     4  10  21  39  61  98 141 175 229 275 334 421
#     4  11  25  46  69 107 137 173 242 275 343 423
#     4  11  26  48  77  95 138 188 224 297 345 387
#     4  11  20  38  69  92 138 179 221 281 332 410
#
# _framework density 26.137450000000001
#
# number of rings (size 3 to 8) (size 9 to 14) (size 15 to 20)
#    0.000    1.250    2.500    4.500    1.750    3.000 
#    0.000    2.500    0.000    0.000    0.000    0.000 
#    0.000    0.000    0.000    0.000    0.000    0.000 
#
# Total GULP energy -198287.618978 kJ/mol
# GULP energy per Si atom -12392.976186 kJ/mol
# Density = 2.607796 g / cm^3
# Si number density = 26.137450 Si / 1000 Ang^3
#
#
#
# Elastic Constant Matrix: (Units=GPa)
#
#
# Indices 1 2 3 4 5 6 
#
# 1 76.7634 6.9288 23.8947 3.4093 19.5151 -8.4208
# 2 6.9288 51.5234 10.7526 1.8275 -9.9359 -5.4566
# 3 23.8947 10.7526 130.8109 2.3532 10.0914 4.6148
# 4 3.4093 1.8275 2.3532 31.5491 0.7395 4.5393
# 5 19.5151 -9.9359 10.0914 0.7395 28.0914 -0.9336
# 6 -8.4208 -5.4566 4.6148 4.5393 -0.9336 22.2788
#
#
#
# Elastic Compliance Matrix: (Units=1/GPa)
#
#
# Indices 1 2 3 4 5 6 
#
# 1 0.018092 -0.003704 -0.002194 -0.002182 -0.012824 0.006292
# 2 -0.003704 0.023358 -0.002329 -0.001876 0.011910 0.005685
# 3 -0.002194 -0.002329 0.008541 0.000272 -0.002486 -0.003328
# 4 -0.002182 -0.001876 0.000272 0.033198 -0.000389 -0.008121
# 5 -0.012824 0.011910 -0.002486 -0.000389 0.049647 0.000745
# 6 0.006292 0.005685 -0.003328 -0.008121 0.000745 0.051032
#
#
# Mechanical properties :
#
#
# Convention : Reuss Voigt Hill
#
# Bulk Modulus (GPa) = 29.81793 38.02776 33.92284
# Shear Modulus (GPa) = 23.64054 30.88529 27.26292
#
# Velocity S-wave (km/s) = 3.01070 3.44124 3.23315
# Velocity P-wave (km/s) = 4.84961 5.51092 5.19081
#
# Compressibility (1/GPa) = 0.03353687
#
# Stress axis : x y z
#
# Youngs Moduli (GPa) = 55.27450 42.81146 117.08138
#
# Poissons Ratio (x) = 0.15859 0.25684
# Poissons Ratio (y) = 0.20476 0.27268
# Poissons Ratio (z) = 0.12125 0.09971
#
# Static dielectric constant tensor:
#      x y z
#    x 4.660520 -0.023740 0.296150 
#    y -0.023740 4.360840 0.138620 
#    z 0.296150 0.138620 4.950250 
# 
# 
# High freq. dielectric constant tensor:
#      x y z
#    x 2.041230 -0.013900 0.017020 
#    y -0.013900 2.020650 0.010360 
#    z 0.017020 0.010360 2.057750 
# 
# From -- ./inp_files/341568.got.cif
#   From: 2010.06.25/outbox.cif.g09.slc.cpg/sg2_171_cif.got.tgz:341568.got - 2010.06.27 13:26:56.
