data_PCOD8011007
_publ_section_title
;
Structure prediction by ZEFSAII (Michael W. Deem and Ramdas Pophale) SiO2 
 PCOD8011007
Probable space group: P -1
;
_chemical_formula_sum "Si O2"
_cell_formula_units_Z 12
_cell_length_a 9.699385
_cell_length_b 24.503524
_cell_length_c 5.225456
_cell_angle_alpha 120.701465
_cell_angle_beta 108.200066
_cell_angle_gamma 29.657045
_cell_volume 502.574792
_symmetry_space_group_name_H-M "P -1"
_symmetry_group_IT_number 2
_symmetry_cell_setting 'triclinic'
loop_
_space_group_symop_operation_xyz
x,y,z
-x,-y,-z
loop_
_atom_site_type_symbol
_atom_site_label
_atom_site_fract_x
_atom_site_fract_y
_atom_site_fract_z
Si Si1 0.588634 0.428185 0.128260
Si Si2 0.775648 0.778299 0.055072
Si Si3 0.638029 0.625939 0.182965
Si Si4 0.734628 0.652613 0.807487
Si Si5 0.454418 0.945049 0.783349
Si Si6 0.147574 0.877550 0.241525
O O1 0.500000 0.500000 0.500000
O O2 0.500000 0.500000 0.000000
O O3 0.417602 0.426690 0.029876
O O4 0.940302 0.285579 0.981622
O O5 0.606320 0.865911 0.418405
O O6 0.884107 0.664069 0.875088
O O7 0.571458 0.858231 0.877712
O O8 0.785398 0.581298 0.440651
O O9 0.322627 0.782121 0.359413
O O10 0.158563 0.418325 0.028321
O O11 0.382941 0.797129 0.957930
O O12 0.105456 0.073823 0.873121
O O13 0.500000 0.000000 0.000000
O O14 0.000000 0.000000 0.500000
#
# Coordination Sequence:
#
# PCOD8011007 Si02
#       6
#     2   2   2   2   2   2
#     4  12  27  49  72  91 125 178 227 287 344 372
#     4  12  25  44  64  98 132 169 228 275 323 393
#     4  10  23  41  67  97 132 171 222 261 324 398
#     4  10  22  40  66  94 139 169 209 264 320 386
#     4  12  25  37  63 101 140 177 213 260 321 401
#     4  10  21  38  65  96 143 174 207 242 336 390
#
# _framework density 23.877043
#
# number of rings (size 3 to 8) (size 9 to 14) (size 15 to 20)
#    1.000    0.000    1.667    5.500    4.667    1.333 
#    0.000    5.000    0.000    0.000    0.000    0.000 
#    0.000    0.000    0.000    0.000    0.000    0.000 
#
# Total GULP energy -148798.997573 kJ/mol
# GULP energy per Si atom -12399.916464 kJ/mol
# Density = 2.382270 g / cm^3
# Si number density = 23.877043 Si / 1000 Ang^3
#
#
#
# Elastic Constant Matrix: (Units=GPa)
#
#
# Indices 1 2 3 4 5 6 
#
# 1 132.8405 23.0914 42.4495 -16.7218 14.8737 10.6609
# 2 23.0914 129.9111 37.9882 -28.2552 -15.4288 17.9628
# 3 42.4495 37.9882 153.8530 -20.7409 -2.8312 8.1656
# 4 -16.7218 -28.2552 -20.7409 43.2035 -0.3734 -5.6750
# 5 14.8737 -15.4288 -2.8312 -0.3734 51.6215 0.0542
# 6 10.6609 17.9628 8.1656 -5.6750 0.0542 47.0946
#
#
#
# Elastic Compliance Matrix: (Units=1/GPa)
#
#
# Indices 1 2 3 4 5 6 
#
# 1 0.008959 -0.000796 -0.002025 0.001798 -0.002916 -0.001153
# 2 -0.000796 0.010176 -0.001362 0.005350 0.003238 -0.002824
# 3 -0.002025 -0.001362 0.007682 0.002004 0.000612 -0.000113
# 4 0.001798 0.005350 0.002004 0.028397 0.001396 0.000625
# 5 -0.002916 0.003238 0.000612 0.001396 0.021224 -0.000537
# 6 -0.001153 -0.002824 -0.000113 0.000625 -0.000537 0.022668
#
#
# Mechanical properties :
#
#
# Convention : Reuss Voigt Hill
#
# Bulk Modulus (GPa) = 54.20093 69.29588 61.74840
# Shear Modulus (GPa) = 44.00517 49.25562 46.63039
#
# Velocity S-wave (km/s) = 4.29766 4.54683 4.42400
# Velocity P-wave (km/s) = 6.88301 7.52661 7.21199
#
# Compressibility (1/GPa) = 0.01844987
#
# Stress axis : x y z
#
# Youngs Moduli (GPa) = 111.62251 98.27014 130.16984
#
# Poissons Ratio (x) = 0.07822 0.26364
# Poissons Ratio (y) = 0.08885 0.17733
# Poissons Ratio (z) = 0.22608 0.13387
#
# Static dielectric constant tensor:
#      x y z
#    x 3.947740 0.646810 0.158490 
#    y 0.646810 3.524550 -0.410160 
#    z 0.158490 -0.410160 4.146080 
# 
# 
# High freq. dielectric constant tensor:
#      x y z
#    x 1.955650 -0.004890 -0.005160 
#    y -0.004890 1.980420 0.010320 
#    z -0.005160 0.010320 1.956970 
# 
# From -- ./inp_files/75644.got.cif
#   From: 2010.06.25/outbox.cif.g09.slc.cpg/sg2_38_cif.got.tgz:75644.got - 2010.06.27 13:26:56.
