data_PCOD8011071
_publ_section_title
;
Structure prediction by ZEFSAII (Michael W. Deem and Ramdas Pophale) SiO2 
 PCOD8011071
Probable space group: P -1
;
_chemical_formula_sum "Si O2"
_cell_formula_units_Z 14
_cell_length_a 11.387845
_cell_length_b 8.841878
_cell_length_c 19.320134
_cell_angle_alpha 111.767888
_cell_angle_beta 159.029032
_cell_angle_gamma 67.635828
_cell_volume 643.149102
_symmetry_space_group_name_H-M "P -1"
_symmetry_group_IT_number 2
_symmetry_cell_setting 'triclinic'
loop_
_space_group_symop_operation_xyz
x,y,z
-x,-y,-z
loop_
_atom_site_type_symbol
_atom_site_label
_atom_site_fract_x
_atom_site_fract_y
_atom_site_fract_z
Si Si1 0.314882 0.204506 0.468016
Si Si2 0.619921 0.317068 0.519486
Si Si3 0.667143 0.658606 0.144335
Si Si4 0.742127 0.029633 0.077830
Si Si5 0.057663 0.745460 0.120216
Si Si6 0.725541 0.614855 0.792440
Si Si7 0.062758 0.525566 0.458734
O O1 0.523154 0.210974 0.512568
O O2 0.598294 0.169882 0.676683
O O3 0.088337 0.366789 0.395261
O O4 0.090347 0.057678 0.310356
O O5 0.500000 0.500000 0.500000
O O6 0.392195 0.279571 0.321779
O O7 0.012340 0.301341 0.717249
O O8 0.770519 0.640769 0.279500
O O9 0.500000 0.500000 0.000000
O O10 0.391167 0.812917 0.014178
O O11 0.774428 0.867940 0.020638
O O12 0.500000 0.000000 0.000000
O O13 0.109058 0.572530 0.162417
O O14 0.975869 0.713892 0.990081
O O15 0.404852 0.604123 0.661604
O O16 0.000000 0.500000 0.500000
#
# Coordination Sequence:
#
# PCOD8011071 Si02
#       7
#     2   2   2   2   2   2   2
#     4  11  22  42  63  98 125 178 224 267 331 389
#     4  11  18  39  70  91 128 167 228 275 307 400
#     4  11  22  42  66 102 129 174 221 266 334 387
#     4  12  26  40  66 101 139 172 218 281 333 392
#     4  10  21  41  63  92 131 166 222 258 328 391
#     4   9  21  39  67  95 120 176 222 265 329 392
#     4  10  21  38  66  96 133 167 222 273 327 391
#
# _framework density 21.767892
#
# number of rings (size 3 to 8) (size 9 to 14) (size 15 to 20)
#    0.000    1.429    5.714    1.286    2.000    1.143 
#   10.286    3.571    3.143    0.000    0.000    0.000 
#    0.000    0.000    0.000    0.000    0.000    0.000 
#
# Total GULP energy -173482.125337 kJ/mol
# GULP energy per Si atom -12391.580381 kJ/mol
# Density = 2.171835 g / cm^3
# Si number density = 21.767892 Si / 1000 Ang^3
#
#
#
# Elastic Constant Matrix: (Units=GPa)
#
#
# Indices 1 2 3 4 5 6 
#
# 1 121.0050 35.8049 57.9946 7.6322 -4.7323 3.0724
# 2 35.8049 93.1476 53.7535 -8.5823 -5.4103 -17.6834
# 3 57.9946 53.7535 139.8649 6.8886 -16.5212 -1.9073
# 4 7.6322 -8.5823 6.8886 35.2386 2.0281 4.6854
# 5 -4.7323 -5.4103 -16.5212 2.0281 30.1514 0.4766
# 6 3.0724 -17.6834 -1.9073 4.6854 0.4766 28.6411
#
#
#
# Elastic Compliance Matrix: (Units=1/GPa)
#
#
# Indices 1 2 3 4 5 6 
#
# 1 0.010966 -0.003041 -0.003376 -0.002037 -0.000491 -0.002937
# 2 -0.003041 0.017436 -0.005646 0.004738 -0.000919 0.009956
# 3 -0.003376 -0.005646 0.011419 -0.002898 0.004940 -0.001972
# 4 -0.002037 0.004738 -0.002898 0.030993 -0.003110 -0.002068
# 5 -0.000491 -0.000919 0.004940 -0.003110 0.035844 -0.000273
# 6 -0.002937 0.009956 -0.001972 -0.002068 -0.000273 0.041588
#
#
# Mechanical properties :
#
#
# Convention : Reuss Voigt Hill
#
# Bulk Modulus (GPa) = 63.71584 72.12485 67.92034
# Shear Modulus (GPa) = 28.15241 32.57053 30.36147
#
# Velocity S-wave (km/s) = 3.60015 3.87235 3.73873
# Velocity P-wave (km/s) = 6.82756 7.29377 7.06451
#
# Compressibility (1/GPa) = 0.01569468
#
# Stress axis : x y z
#
# Youngs Moduli (GPa) = 91.19325 57.35249 87.57284
#
# Poissons Ratio (x) = 0.17439 0.29565
# Poissons Ratio (y) = 0.27728 0.49447
# Poissons Ratio (z) = 0.30787 0.32383
#
# Static dielectric constant tensor:
#      x y z
#    x 2.313870 -1.147960 1.111460 
#    y -1.147960 3.289880 0.703140 
#    z 1.111460 0.703140 2.789510 
# 
# 
# High freq. dielectric constant tensor:
#      x y z
#    x 1.835790 -0.009110 -0.009680 
#    y -0.009110 1.837080 -0.011670 
#    z -0.009680 -0.011670 1.878750 
# 
# From -- ./inp_files/308438.got.cif
#   From: 2010.06.25/outbox.cif.g09.slc.cpg/sg2_155_cif.got.tgz:308438.got - 2010.06.27 13:26:56.
