data_PCOD8011507
_publ_section_title
;
Structure prediction by ZEFSAII (Michael W. Deem and Ramdas Pophale) SiO2 
 PCOD8011507
Probable space group: P -1
;
_chemical_formula_sum "Si O2"
_cell_formula_units_Z 14
_cell_length_a 13.348487
_cell_length_b 6.426474
_cell_length_c 13.896999
_cell_angle_alpha 93.820944
_cell_angle_beta 30.949002
_cell_angle_gamma 92.863314
_cell_volume 611.662715
_symmetry_space_group_name_H-M "P -1"
_symmetry_group_IT_number 2
_symmetry_cell_setting 'triclinic'
loop_
_space_group_symop_operation_xyz
x,y,z
-x,-y,-z
loop_
_atom_site_type_symbol
_atom_site_label
_atom_site_fract_x
_atom_site_fract_y
_atom_site_fract_z
Si Si1 0.870644 0.012878 0.514283
Si Si2 0.375729 0.091241 0.808080
Si Si3 0.609117 0.760385 0.846391
Si Si4 0.335839 0.588603 0.343197
Si Si5 0.418477 0.312676 0.440024
Si Si6 0.231874 0.965033 0.117707
Si Si7 0.217777 0.406850 0.803991
O O1 0.670735 0.901700 0.705576
O O2 0.844208 0.250866 0.508645
O O3 0.000000 0.000000 0.500000
O O4 0.005727 0.902277 0.317856
O O5 0.473052 0.281556 0.789001
O O6 0.238626 0.194542 0.842654
O O7 0.537624 0.933606 0.623126
O O8 0.248310 0.974382 0.989321
O O9 0.649437 0.520356 0.777585
O O10 0.715811 0.819722 0.860060
O O11 0.375770 0.794434 0.043430
O O12 0.307435 0.417146 0.444327
O O13 0.266354 0.339102 0.653047
O O14 0.627034 0.418345 0.289156
O O15 0.000000 0.500000 0.000000
#
# Coordination Sequence:
#
# PCOD8011507 Si02
#       7
#     2   2   2   2   2   2   2
#     4  10  22  39  56  87 123 165 210 255 300 349
#     4  11  22  43  63  94 127 161 203 256 313 363
#     4  10  21  43  58  88 129 167 208 254 299 358
#     4  11  21  40  65  88 128 168 207 248 307 361
#     4  10  22  44  64  91 129 156 200 257 309 369
#     4  10  21  39  62  88 126 165 207 254 304 355
#     4  10  24  43  68  95 117 159 204 251 316 379
#
# _framework density 22.888431000000001
#
# number of rings (size 3 to 8) (size 9 to 14) (size 15 to 20)
#    0.000    1.714    2.857    0.429    2.000    3.429 
#    7.714    0.000    0.000    0.000    0.000    0.000 
#    0.000    0.000    0.000    0.000    0.000    0.000 
#
# Total GULP energy -173469.450603 kJ/mol
# GULP energy per Si atom -12390.675043 kJ/mol
# Density = 2.283634 g / cm^3
# Si number density = 22.888431 Si / 1000 Ang^3
#
#
#
# Elastic Constant Matrix: (Units=GPa)
#
#
# Indices 1 2 3 4 5 6 
#
# 1 68.7181 23.1042 26.2285 13.8576 12.3771 -16.5597
# 2 23.1042 76.6230 31.3508 22.1295 -0.9023 -11.4180
# 3 26.2285 31.3508 156.9011 25.3298 3.8446 -11.6634
# 4 13.8576 22.1295 25.3298 20.1021 -4.1133 0.0641
# 5 12.3771 -0.9023 3.8446 -4.1133 37.1478 12.7299
# 6 -16.5597 -11.4180 -11.6634 0.0641 12.7299 42.6048
#
#
#
# Elastic Compliance Matrix: (Units=1/GPa)
#
#
# Indices 1 2 3 4 5 6 
#
# 1 0.024983 0.000572 0.000781 -0.022144 -0.015939 0.014873
# 2 0.000572 0.021031 0.000454 -0.025186 -0.005101 0.007545
# 3 0.000781 0.000454 0.008587 -0.012668 -0.003897 0.003959
# 4 -0.022144 -0.025186 -0.012668 0.115018 0.030440 -0.028093
# 5 -0.015939 -0.005101 -0.003897 0.030440 0.043285 -0.021608
# 6 0.014873 0.007545 0.003959 -0.028093 -0.021608 0.038857
#
#
# Mechanical properties :
#
#
# Convention : Reuss Voigt Hill
#
# Bulk Modulus (GPa) = 17.17830 51.51213 34.34522
# Shear Modulus (GPa) = 18.68786 34.74151 26.71469
#
# Velocity S-wave (km/s) = 2.86051 3.90020 3.42009
# Velocity P-wave (km/s) = 4.29319 6.54498 5.53481
#
# Compressibility (1/GPa) = 0.05821297
#
# Stress axis : x y z
#
# Youngs Moduli (GPa) = 40.02784 47.54895 116.45201
#
# Poissons Ratio (x) = -0.02718 -0.09090
# Poissons Ratio (y) = -0.02288 -0.05287
# Poissons Ratio (z) = -0.03124 -0.02159
#
# Static dielectric constant tensor:
#      x y z
#    x 4.080690 -0.089910 0.120920 
#    y -0.089910 4.339790 -0.407280 
#    z 0.120920 -0.407280 5.032600 
# 
# 
# High freq. dielectric constant tensor:
#      x y z
#    x 1.899860 -0.008730 0.011430 
#    y -0.008730 1.889990 0.011690 
#    z 0.011430 0.011690 1.908260 
# 
# From -- ./inp_files/52031.got.cif
#   From: 2010.06.25/outbox.cif.g09.slc.cpg/sg2_27_cif.got.tgz:52031.got - 2010.06.27 13:26:56.
