data_PCOD8011923
_publ_section_title
;
Structure prediction by ZEFSAII (Michael W. Deem and Ramdas Pophale) SiO2 
 PCOD8011923
Probable space group: P -1
;
_chemical_formula_sum "Si O2"
_cell_formula_units_Z 16
_cell_length_a 8.161625
_cell_length_b 12.029145
_cell_length_c 12.019926
_cell_angle_alpha 89.168710
_cell_angle_beta 118.449986
_cell_angle_gamma 55.502249
_cell_volume 786.535294
_symmetry_space_group_name_H-M "P -1"
_symmetry_group_IT_number 2
_symmetry_cell_setting 'triclinic'
loop_
_space_group_symop_operation_xyz
x,y,z
-x,-y,-z
loop_
_atom_site_type_symbol
_atom_site_label
_atom_site_fract_x
_atom_site_fract_y
_atom_site_fract_z
Si Si1 0.396194 0.658854 0.496593
Si Si2 0.323332 0.175094 0.628774
Si Si3 0.153716 0.350811 0.362218
Si Si4 0.270599 0.854695 0.875896
Si Si5 0.717492 0.686964 0.174558
Si Si6 0.887572 0.148653 0.400863
Si Si7 0.896151 0.850020 0.240472
Si Si8 0.176210 0.109852 0.298786
O O1 0.500000 0.500000 0.500000
O O2 0.601641 0.671832 0.562666
O O3 0.267223 0.706546 0.575093
O O4 0.184434 0.770155 0.336258
O O5 0.134303 0.309084 0.481414
O O6 0.401169 0.237943 0.744902
O O7 0.191324 0.125704 0.656606
O O8 0.559479 0.041759 0.640425
O O9 0.170067 0.245484 0.276812
O O10 0.915304 0.513573 0.252660
O O11 0.306375 0.816028 0.757190
O O12 0.032847 0.874822 0.840247
O O13 0.236057 0.001750 0.874818
O O14 0.507064 0.725399 0.023497
O O15 0.846408 0.750038 0.167020
O O16 0.120749 0.116258 0.414219
O O17 0.000000 0.000000 0.500000
#
# Coordination Sequence:
#
# PCOD8011923 Si02
#       8
#     2   2   2   2   2   2   2   2
#     4  12  22  39  63  93 121 157 204 262 308 356
#     4  10  22  38  65  97 121 161 207 257 308 355
#     4  12  23  38  63  94 130 151 211 257 313 368
#     4  10  22  42  65  87 128 166 212 242 307 370
#     4  10  24  39  64  89 129 168 203 252 308 362
#     4  10  21  39  65  89 121 161 207 255 298 359
#     4  10  21  39  66  91 125 157 214 254 305 351
#     4  10  24  38  64  95 123 162 206 256 310 363
#
# _framework density 20.342379999999999
#
# number of rings (size 3 to 8) (size 9 to 14) (size 15 to 20)
#    1.500    0.000    2.500    3.375    1.750    2.000 
#    0.000    0.625    2.750    0.000    0.000    0.000 
#    0.000    0.000    0.000    0.000    0.000    0.000 
#
# Total GULP energy -198233.381437 kJ/mol
# GULP energy per Si atom -12389.586340 kJ/mol
# Density = 2.029608 g / cm^3
# Si number density = 20.342380 Si / 1000 Ang^3
#
#
#
# Elastic Constant Matrix: (Units=GPa)
#
#
# Indices 1 2 3 4 5 6 
#
# 1 105.6896 45.3190 43.4167 -14.1079 19.9441 13.2229
# 2 45.3190 144.7749 49.1584 -15.3166 5.8777 4.9047
# 3 43.4167 49.1584 124.1031 -21.4597 21.2818 3.3915
# 4 -14.1079 -15.3166 -21.4597 27.0989 -5.1622 2.2413
# 5 19.9441 5.8777 21.2818 -5.1622 19.3380 5.3877
# 6 13.2229 4.9047 3.3915 2.2413 5.3877 33.0299
#
#
#
# Elastic Compliance Matrix: (Units=1/GPa)
#
#
# Indices 1 2 3 4 5 6 
#
# 1 0.014141 -0.003130 -0.001331 0.002848 -0.010418 -0.003554
# 2 -0.003130 0.008901 -0.002800 0.002061 0.004328 -0.000627
# 3 -0.001331 -0.002800 0.012281 0.005444 -0.010107 0.000967
# 4 0.002848 0.002061 0.005444 0.045113 0.004084 -0.005733
# 5 -0.010418 0.004328 -0.010107 0.004084 0.075594 -0.008042
# 6 -0.003554 -0.000627 0.000967 -0.005733 -0.008042 0.033393
#
#
# Mechanical properties :
#
#
# Convention : Reuss Voigt Hill
#
# Bulk Modulus (GPa) = 48.07362 72.26177 60.16769
# Shear Modulus (GPa) = 23.71026 31.67159 27.69093
#
# Velocity S-wave (km/s) = 3.41773 3.95007 3.69351
# Velocity P-wave (km/s) = 6.26563 7.51026 6.91600
#
# Compressibility (1/GPa) = 0.02080143
#
# Stress axis : x y z
#
# Youngs Moduli (GPa) = 70.71470 112.34419 81.42809
#
# Poissons Ratio (x) = 0.35163 0.10841
# Poissons Ratio (y) = 0.22133 0.22797
# Poissons Ratio (z) = 0.09415 0.31452
#
# Static dielectric constant tensor:
#      x y z
#    x 3.775560 0.155110 0.168450 
#    y 0.155110 3.706520 0.080650 
#    z 0.168450 0.080650 3.423730 
# 
# 
# High freq. dielectric constant tensor:
#      x y z
#    x 1.794100 0.018480 0.021040 
#    y 0.018480 1.794160 0.000660 
#    z 0.021040 0.000660 1.774650 
# 
# From -- ./inp_files/395873.got.cif
#   From: 2010.06.25/outbox.cif.g09.slc.cpg/sg2_198_cif.got.tgz:395873.got - 2010.06.27 13:26:56.
