data_PCOD8011744
_publ_section_title
;
Structure prediction by ZEFSAII (Michael W. Deem and Ramdas Pophale) SiO2 
 PCOD8011744
Probable space group: P -1
;
_chemical_formula_sum "Si O2"
_cell_formula_units_Z 16
_cell_length_a 10.446926
_cell_length_b 13.455758
_cell_length_c 13.724654
_cell_angle_alpha 57.398861
_cell_angle_beta 76.034255
_cell_angle_gamma 30.894634
_cell_volume 717.397030
_symmetry_space_group_name_H-M "P -1"
_symmetry_group_IT_number 2
_symmetry_cell_setting 'triclinic'
loop_
_space_group_symop_operation_xyz
x,y,z
-x,-y,-z
loop_
_atom_site_type_symbol
_atom_site_label
_atom_site_fract_x
_atom_site_fract_y
_atom_site_fract_z
Si Si1 0.726586 0.129932 0.975880
Si Si2 0.896814 0.859668 0.904971
Si Si3 0.864200 0.103826 0.264969
Si Si4 0.205088 0.611331 0.499914
Si Si5 0.643579 0.911242 0.418234
Si Si6 0.586397 0.108633 0.643374
Si Si7 0.194520 0.677090 0.685936
Si Si8 0.448613 0.284433 0.140145
O O1 0.438394 0.429630 0.842108
O O2 0.776410 0.984047 0.967947
O O3 0.668987 0.112800 0.098798
O O4 0.000000 0.000000 0.000000
O O5 0.055861 0.848589 0.839990
O O6 0.637188 0.030681 0.788497
O O7 0.117499 0.574296 0.019445
O O8 0.844086 0.156898 0.355289
O O9 0.550126 0.305302 0.185789
O O10 0.101331 0.811196 0.357612
O O11 0.482167 0.329603 0.546434
O O12 0.292113 0.584199 0.606431
O O13 0.962357 0.703704 0.493024
O O14 0.458018 0.151541 0.261972
O O15 0.500000 0.000000 0.500000
O O16 0.652358 0.784271 0.419981
O O17 0.886540 0.856880 0.662159
#
# Coordination Sequence:
#
# PCOD8011744 Si02
#       8
#     2   2   2   2   2   2   2   2
#     4  12  22  40  67  98 140 176 215 267 337 407
#     4  11  22  40  65  98 135 171 216 276 336 394
#     4  10  21  39  63  98 137 173 211 273 324 406
#     4  11  23  43  66  96 134 178 229 265 339 389
#     4  11  25  48  71  95 131 181 228 285 328 387
#     4  11  23  44  68  92 137 178 222 284 320 388
#     4  11  22  40  66  98 138 177 216 274 338 393
#     4  11  23  44  65  99 136 176 223 270 339 394
#
# _framework density 22.302852999999999
#
# number of rings (size 3 to 8) (size 9 to 14) (size 15 to 20)
#    0.000    1.000    6.250    1.875    0.000    2.500 
#    9.000    0.625    0.000    0.000    0.000    0.000 
#    0.000    0.000    0.000    0.000    0.000    0.000 
#
# Total GULP energy -198372.261767 kJ/mol
# GULP energy per Si atom -12398.266360 kJ/mol
# Density = 2.225209 g / cm^3
# Si number density = 22.302853 Si / 1000 Ang^3
#
#
#
# Elastic Constant Matrix: (Units=GPa)
#
#
# Indices 1 2 3 4 5 6 
#
# 1 86.0610 24.2723 8.7353 4.2218 12.4270 21.1586
# 2 24.2723 96.8170 26.4181 -5.8573 -4.0759 15.2249
# 3 8.7353 26.4181 93.5305 -11.7818 -2.8263 4.5285
# 4 4.2218 -5.8573 -11.7818 33.9542 2.8853 5.2509
# 5 12.4270 -4.0759 -2.8263 2.8853 34.1054 3.3327
# 6 21.1586 15.2249 4.5285 5.2509 3.3327 36.7522
#
#
#
# Elastic Compliance Matrix: (Units=1/GPa)
#
#
# Indices 1 2 3 4 5 6 
#
# 1 0.014908 -0.002801 -0.000561 -0.001058 -0.005065 -0.006742
# 2 -0.002801 0.012609 -0.002800 0.001922 0.002501 -0.003767
# 3 -0.000561 -0.002800 0.012063 0.003814 0.000606 -0.000603
# 4 -0.001058 0.001922 0.003814 0.032141 -0.001286 -0.005132
# 5 -0.005065 0.002501 0.000606 -0.001286 0.031711 -0.000887
# 6 -0.006742 -0.003767 -0.000603 -0.005132 -0.000887 0.033539
#
#
# Mechanical properties :
#
#
# Convention : Reuss Voigt Hill
#
# Bulk Modulus (GPa) = 36.68996 43.91775 40.30386
# Shear Modulus (GPa) = 31.56963 35.42789 33.49876
#
# Velocity S-wave (km/s) = 3.76639 3.98991 3.87976
# Velocity P-wave (km/s) = 5.94986 6.40001 6.17903
#
# Compressibility (1/GPa) = 0.02725541
#
# Stress axis : x y z
#
# Youngs Moduli (GPa) = 67.07992 79.30873 82.89879
#
# Poissons Ratio (x) = 0.22217 0.04650
# Poissons Ratio (y) = 0.18791 0.23210
# Poissons Ratio (z) = 0.03763 0.22204
#
# Static dielectric constant tensor:
#      x y z
#    x 4.091680 0.298700 0.341620 
#    y 0.298700 4.033020 -0.054080 
#    z 0.341620 -0.054080 4.100430 
# 
# 
# High freq. dielectric constant tensor:
#      x y z
#    x 1.872090 0.018370 0.023400 
#    y 0.018370 1.874480 -0.007830 
#    z 0.023400 -0.007830 1.881960 
# 
# From -- ./inp_files/522348.got.cif
#   From: 2010.06.25/outbox.cif.g09.slc.cpg/sg2_262_cif.got.tgz:522348.got - 2010.06.27 13:26:56.
