data_PCOD8011938
_publ_section_title
;
Structure prediction by ZEFSAII (Michael W. Deem and Ramdas Pophale) SiO2 
 PCOD8011938
Probable space group: P -1
;
_chemical_formula_sum "Si O2"
_cell_formula_units_Z 14
_cell_length_a 16.220335
_cell_length_b 9.524925
_cell_length_c 20.667658
_cell_angle_alpha 46.702692
_cell_angle_beta 162.453349
_cell_angle_gamma 134.893196
_cell_volume 680.740668
_symmetry_space_group_name_H-M "P -1"
_symmetry_group_IT_number 2
_symmetry_cell_setting 'triclinic'
loop_
_space_group_symop_operation_xyz
x,y,z
-x,-y,-z
loop_
_atom_site_type_symbol
_atom_site_label
_atom_site_fract_x
_atom_site_fract_y
_atom_site_fract_z
Si Si1 0.802879 0.340742 0.543268
Si Si2 0.170879 0.319212 0.081908
Si Si3 0.694574 0.228692 0.952904
Si Si4 0.354862 0.958108 0.159792
Si Si5 0.904094 0.030706 0.619901
Si Si6 0.772144 0.639332 0.035676
Si Si7 0.713438 0.677764 0.281957
O O1 0.474947 0.275795 0.337299
O O2 0.898133 0.156119 0.640825
O O3 0.856946 0.523358 0.475748
O O4 0.983464 0.406784 0.721998
O O5 0.170128 0.540976 0.033929
O O6 0.100960 0.293869 0.961311
O O7 0.949435 0.163631 0.006549
O O8 0.572962 0.113851 0.833501
O O9 0.433463 0.202613 0.814868
O O10 0.936507 0.139994 0.193496
O O11 0.589349 0.924162 0.396266
O O12 0.358176 0.189618 0.085274
O O13 0.047448 0.170655 0.624715
O O14 0.523190 0.440887 0.907152
#
# Coordination Sequence:
#
# PCOD8011938 Si02
#       7
#     2   2   2   2   2   2   2
#     4  10  21  39  65  91 120 160 202 249 302 355
#     4  10  24  43  61  92 126 155 205 257 294 362
#     4  10  24  42  60  90 124 160 204 252 302 358
#     4  12  23  39  65  92 124 161 203 249 304 360
#     4  12  23  39  65  92 124 161 203 249 304 360
#     4  10  21  39  65  91 120 160 202 249 302 355
#     4  10  24  43  61  92 126 155 205 257 294 362
#
# _framework density 20.565833999999999
#
# number of rings (size 3 to 8) (size 9 to 14) (size 15 to 20)
#    0.000    1.714    4.286    1.714    0.000    9.143 
#    0.000    0.000    0.000    0.000    0.000    0.000 
#    0.000    0.000    0.000    0.000    0.000    0.000 
#
# Total GULP energy -173662.666439 kJ/mol
# GULP energy per Si atom -12404.476174 kJ/mol
# Density = 2.051903 g / cm^3
# Si number density = 20.565834 Si / 1000 Ang^3
#
#
#
# Elastic Constant Matrix: (Units=GPa)
#
#
# Indices 1 2 3 4 5 6 
#
# 1 75.8361 40.1746 28.2499 10.7992 -0.9008 -22.7377
# 2 40.1746 62.6209 12.0715 -3.4492 10.3440 -21.7829
# 3 28.2499 12.0715 101.4445 1.6491 -20.5067 -10.8232
# 4 10.7992 -3.4492 1.6491 27.8516 -9.3616 5.5658
# 5 -0.9008 10.3440 -20.5067 -9.3616 36.2208 7.9396
# 6 -22.7377 -21.7829 -10.8232 5.5658 7.9396 39.9048
#
#
#
# Elastic Compliance Matrix: (Units=1/GPa)
#
#
# Indices 1 2 3 4 5 6 
#
# 1 0.027439 -0.012930 -0.005810 -0.015692 -0.005212 0.010227
# 2 -0.012930 0.030183 -0.001164 0.002950 -0.011162 0.010602
# 3 -0.005810 -0.001164 0.013156 0.005170 0.009634 -0.003016
# 4 -0.015692 0.002950 0.005170 0.051728 0.018764 -0.016877
# 5 -0.005212 -0.011162 0.009634 0.018764 0.044917 -0.018004
# 6 0.010227 0.010602 -0.003016 -0.016877 -0.018004 0.041792
#
#
# Mechanical properties :
#
#
# Convention : Reuss Voigt Hill
#
# Bulk Modulus (GPa) = 32.28922 44.54375 38.41649
# Shear Modulus (GPa) = 19.27930 31.42248 25.35089
#
# Velocity S-wave (km/s) = 3.06509 3.91307 3.51475
# Velocity P-wave (km/s) = 5.31610 6.49017 5.93225
#
# Compressibility (1/GPa) = 0.03097009
#
# Stress axis : x y z
#
# Youngs Moduli (GPa) = 36.44444 33.13125 76.01291
#
# Poissons Ratio (x) = 0.42838 0.44163
# Poissons Ratio (y) = 0.47121 0.08850
# Poissons Ratio (z) = 0.21174 0.03857
#
# Static dielectric constant tensor:
#      x y z
#    x 3.685290 -0.242720 -0.000890 
#    y -0.242720 3.682560 -0.014420 
#    z -0.000890 -0.014420 3.710710 
# 
# 
# High freq. dielectric constant tensor:
#      x y z
#    x 1.805580 -0.016030 0.000860 
#    y -0.016030 1.802000 -0.002960 
#    z 0.000860 -0.002960 1.809750 
# 
# From -- ./inp_files/188135.got.cif
#   From: 2010.06.25/outbox.cif.g09.slc.cpg/sg2_95_cif.got.tgz:188135.got - 2010.06.27 13:26:56.
