data_PCOD8011188
_publ_section_title
;
Structure prediction by ZEFSAII (Michael W. Deem and Ramdas Pophale) SiO2 
 PCOD8011188
Probable space group: P -1
;
_chemical_formula_sum "Si O2"
_cell_formula_units_Z 14
_cell_length_a 9.072082
_cell_length_b 10.230275
_cell_length_c 11.649982
_cell_angle_alpha 55.047489
_cell_angle_beta 133.980175
_cell_angle_gamma 113.339871
_cell_volume 637.695493
_symmetry_space_group_name_H-M "P -1"
_symmetry_group_IT_number 2
_symmetry_cell_setting 'triclinic'
loop_
_space_group_symop_operation_xyz
x,y,z
-x,-y,-z
loop_
_atom_site_type_symbol
_atom_site_label
_atom_site_fract_x
_atom_site_fract_y
_atom_site_fract_z
Si Si1 0.362545 0.230418 0.207496
Si Si2 0.755596 0.342288 0.472241
Si Si3 0.063089 0.961879 0.181324
Si Si4 0.086378 0.524617 0.907719
Si Si5 0.104553 0.361282 0.473954
Si Si6 0.687234 0.878824 0.152432
Si Si7 0.473017 0.669591 0.967216
O O1 0.514974 0.301396 0.349532
O O2 0.502867 0.196319 0.187030
O O3 0.250718 0.072145 0.270970
O O4 0.184973 0.355427 0.011173
O O5 0.862503 0.219092 0.678000
O O6 0.760900 0.510939 0.450458
O O7 0.875322 0.347596 0.411553
O O8 0.867059 0.987581 0.142708
O O9 0.000000 0.000000 0.000000
O O10 0.257944 0.664476 0.921607
O O11 0.910161 0.583509 0.694463
O O12 0.000000 0.500000 0.000000
O O13 0.230084 0.194474 0.644402
O O14 0.640635 0.723615 0.125091
O O15 0.500000 0.000000 0.000000
O O16 0.500000 0.500000 0.000000
#
# Coordination Sequence:
#
# PCOD8011188 Si02
#       7
#     2   2   2   2   2   2   2
#     4  11  21  40  64  96 132 172 226 274 331 396
#     4  10  21  38  69  98 127 171 235 279 318 396
#     4  11  22  39  64  97 133 174 221 276 328 394
#     4  11  24  40  65  98 134 172 221 280 334 401
#     4  10  21  41  68  97 127 176 229 274 330 399
#     4  11  25  44  67  97 138 179 216 276 346 400
#     4  10  21  41  69  92 127 179 224 268 328 398
#
# _framework density 21.954049999999999
#
# number of rings (size 3 to 8) (size 9 to 14) (size 15 to 20)
#    0.000    1.429    2.857    3.000   10.000    0.000 
#    2.571    2.143    0.000    0.000    0.000    0.000 
#    0.000    0.000    0.000    0.000    0.000    0.000 
#
# Total GULP energy -173444.232656 kJ/mol
# GULP energy per Si atom -12388.873761 kJ/mol
# Density = 2.190408 g / cm^3
# Si number density = 21.954050 Si / 1000 Ang^3
#
#
#
# Elastic Constant Matrix: (Units=GPa)
#
#
# Indices 1 2 3 4 5 6 
#
# 1 121.7393 49.3857 62.6843 -4.2314 -12.0618 27.1150
# 2 49.3857 100.2034 31.7987 11.2213 6.7669 25.6985
# 3 62.6843 31.7987 152.9215 -12.1110 -10.7927 1.3601
# 4 -4.2314 11.2213 -12.1110 39.1326 4.5581 4.2594
# 5 -12.0618 6.7669 -10.7927 4.5581 36.0656 2.0269
# 6 27.1150 25.6985 1.3601 4.2594 2.0269 31.6714
#
#
#
# Elastic Compliance Matrix: (Units=1/GPa)
#
#
# Indices 1 2 3 4 5 6 
#
# 1 0.014991 -0.003790 -0.004799 0.001781 0.004630 -0.010088
# 2 -0.003790 0.015402 -0.002172 -0.004145 -0.003814 -0.008358
# 3 -0.004799 -0.002172 0.009161 0.002270 0.000970 0.005111
# 4 0.001781 -0.004145 0.002270 0.028009 -0.001378 -0.001938
# 5 0.004630 -0.003814 0.000970 -0.001378 0.030607 -0.002685
# 6 -0.010088 -0.008358 0.005111 -0.001938 -0.002685 0.047206
#
#
# Mechanical properties :
#
#
# Convention : Reuss Voigt Hill
#
# Bulk Modulus (GPa) = 55.46037 73.62239 64.54138
# Shear Modulus (GPa) = 28.91700 36.77362 32.84531
#
# Velocity S-wave (km/s) = 3.63321 4.09715 3.87213
# Velocity P-wave (km/s) = 6.55112 7.48263 7.03231
#
# Compressibility (1/GPa) = 0.01803089
#
# Stress axis : x y z
#
# Youngs Moduli (GPa) = 66.70873 64.92590 109.15857
#
# Poissons Ratio (x) = 0.24607 0.52386
# Poissons Ratio (y) = 0.25283 0.23712
# Poissons Ratio (z) = 0.32014 0.14104
#
# Static dielectric constant tensor:
#      x y z
#    x 3.979650 0.594620 -0.078660 
#    y 0.594620 4.146250 -0.036920 
#    z -0.078660 -0.036920 4.005420 
# 
# 
# High freq. dielectric constant tensor:
#      x y z
#    x 1.833580 0.036730 -0.006850 
#    y 0.036730 1.860360 0.003090 
#    z -0.006850 0.003090 1.874290 
# 
# From -- ./inp_files/392247.got.cif
#   From: 2010.06.25/outbox.cif.g09.slc.cpg/sg2_197_cif.got.tgz:392247.got - 2010.06.27 13:26:56.
