data_PCOD8011915
_publ_section_title
;
Structure prediction by ZEFSAII (Michael W. Deem and Ramdas Pophale) SiO2 
 PCOD8011915
Probable space group: P -1
;
_chemical_formula_sum "Si O2"
_cell_formula_units_Z 14
_cell_length_a 9.464329
_cell_length_b 14.373978
_cell_length_c 9.488393
_cell_angle_alpha 52.842511
_cell_angle_beta 43.567998
_cell_angle_gamma 50.395596
_cell_volume 660.432322
_symmetry_space_group_name_H-M "P -1"
_symmetry_group_IT_number 2
_symmetry_cell_setting 'triclinic'
loop_
_space_group_symop_operation_xyz
x,y,z
-x,-y,-z
loop_
_atom_site_type_symbol
_atom_site_label
_atom_site_fract_x
_atom_site_fract_y
_atom_site_fract_z
Si Si1 0.754662 0.692176 0.240322
Si Si2 0.386408 0.144331 0.307171
Si Si3 0.245630 0.540530 0.009200
Si Si4 0.202590 0.071441 0.887919
Si Si5 0.047793 0.861177 0.267370
Si Si6 0.403438 0.349587 0.310323
Si Si7 0.517562 0.687889 0.139946
O O1 0.737640 0.835192 0.138265
O O2 0.709679 0.635357 0.470351
O O3 0.573425 0.688567 0.262965
O O4 0.993723 0.608540 0.084948
O O5 0.423442 0.216516 0.352148
O O6 0.152811 0.127230 0.494992
O O7 0.583356 0.010047 0.283287
O O8 0.385309 0.221573 0.096261
O O9 0.352955 0.645387 0.860992
O O10 0.378605 0.451893 0.867782
O O11 0.253128 0.462883 0.217410
O O12 0.015364 0.149184 0.840789
O O13 0.115384 0.982545 0.127806
O O14 0.253598 0.735270 0.270056
#
# Coordination Sequence:
#
# PCOD8011915 Si02
#       7
#     2   2   2   2   2   2   2
#     4  12  24  40  63  92 124 160 199 253 300 359
#     4  10  21  41  64  90 125 159 197 250 303 357
#     4  10  24  41  62  88 124 158 205 253 295 358
#     4  10  23  36  66  94 119 155 212 243 295 360
#     4  10  21  39  65  87 125 160 196 251 296 356
#     4  10  23  38  66  92 116 155 214 246 299 354
#     4  10  25  42  59  91 127 159 201 245 310 356
#
# _framework density 21.198236000000001
#
# number of rings (size 3 to 8) (size 9 to 14) (size 15 to 20)
#    0.000    1.714    1.429    1.286   10.000    6.286 
#    0.000    1.429    0.000    0.000    0.000    0.000 
#    0.000    0.000    0.000    0.000    0.000    0.000 
#
# Total GULP energy -173675.497244 kJ/mol
# GULP energy per Si atom -12405.392660 kJ/mol
# Density = 2.114999 g / cm^3
# Si number density = 21.198236 Si / 1000 Ang^3
#
#
#
# Elastic Constant Matrix: (Units=GPa)
#
#
# Indices 1 2 3 4 5 6 
#
# 1 111.5836 67.9870 41.3488 18.2107 -8.5690 -3.6478
# 2 67.9870 123.6431 42.9489 11.8816 -12.7318 -5.6475
# 3 41.3488 42.9489 96.9102 8.2308 -24.4732 4.1999
# 4 18.2107 11.8816 8.2308 22.7939 -1.2907 -6.6658
# 5 -8.5690 -12.7318 -24.4732 -1.2907 33.6667 12.1366
# 6 -3.6478 -5.6475 4.1999 -6.6658 12.1366 30.4454
#
#
#
# Elastic Compliance Matrix: (Units=1/GPa)
#
#
# Indices 1 2 3 4 5 6 
#
# 1 0.015446 -0.006756 -0.003234 -0.007771 -0.001209 -0.000176
# 2 -0.006756 0.012887 -0.002818 0.000263 0.000450 0.001848
# 3 -0.003234 -0.002818 0.017287 -0.004269 0.014059 -0.009834
# 4 -0.007771 0.000263 -0.004269 0.055448 -0.008323 0.015164
# 5 -0.001209 0.000450 0.014059 -0.008323 0.047698 -0.022837
# 6 -0.000176 0.001848 -0.009834 0.015164 -0.022837 0.046948
#
#
# Mechanical properties :
#
#
# Convention : Reuss Voigt Hill
#
# Bulk Modulus (GPa) = 49.98852 70.74513 60.36683
# Shear Modulus (GPa) = 21.93020 29.37135 25.65078
#
# Velocity S-wave (km/s) = 3.21990 3.72634 3.48234
# Velocity P-wave (km/s) = 6.12016 7.20831 6.68641
#
# Compressibility (1/GPa) = 0.02000459
#
# Stress axis : x y z
#
# Youngs Moduli (GPa) = 64.74108 77.59991 57.84851
#
# Poissons Ratio (x) = 0.52424 0.18709
# Poissons Ratio (y) = 0.43737 0.16300
# Poissons Ratio (z) = 0.20938 0.21865
#
# Static dielectric constant tensor:
#      x y z
#    x 3.634620 -0.023010 -0.174720 
#    y -0.023010 3.767090 -0.096250 
#    z -0.174720 -0.096250 3.823240 
# 
# 
# High freq. dielectric constant tensor:
#      x y z
#    x 1.817010 -0.004750 -0.013680 
#    y -0.004750 1.830350 -0.004850 
#    z -0.013680 -0.004850 1.833230 
# 
# From -- ./inp_files/178553.got.cif
#   From: 2010.06.25/outbox.cif.g09.slc.cpg/sg2_90_cif.got.tgz:178553.got - 2010.06.27 13:26:56.
