data_PCOD8011659
_publ_section_title
;
Structure prediction by ZEFSAII (Michael W. Deem and Ramdas Pophale) SiO2 
 PCOD8011659
Probable space group: P -1
;
_chemical_formula_sum "Si O2"
_cell_formula_units_Z 14
_cell_length_a 11.523413
_cell_length_b 10.032893
_cell_length_c 16.767724
_cell_angle_alpha 52.211559
_cell_angle_beta 147.310271
_cell_angle_gamma 142.496779
_cell_volume 628.467707
_symmetry_space_group_name_H-M "P -1"
_symmetry_group_IT_number 2
_symmetry_cell_setting 'triclinic'
loop_
_space_group_symop_operation_xyz
x,y,z
-x,-y,-z
loop_
_atom_site_type_symbol
_atom_site_label
_atom_site_fract_x
_atom_site_fract_y
_atom_site_fract_z
Si Si1 0.484589 0.586800 0.696051
Si Si2 0.788929 0.241207 0.562061
Si Si3 0.204503 0.542985 0.813498
Si Si4 0.722938 0.746565 0.940656
Si Si5 0.500415 0.947172 0.929373
Si Si6 0.206457 0.104173 0.657091
Si Si7 0.988444 0.987401 0.744421
O O1 0.269895 0.632254 0.579087
O O2 0.649740 0.622202 0.858940
O O3 0.334261 0.352422 0.654534
O O4 0.687101 0.766255 0.678981
O O5 0.903284 0.398079 0.648804
O O6 0.500000 0.000000 0.500000
O O7 0.010727 0.206769 0.676524
O O8 0.455687 0.714311 0.832351
O O9 0.229873 0.692737 0.843874
O O10 0.213263 0.360883 0.918688
O O11 0.000000 0.000000 0.000000
O O12 0.465419 0.099515 0.798849
O O13 0.500000 0.000000 0.000000
O O14 0.784690 0.977752 0.073962
O O15 0.000000 0.000000 0.500000
O O16 0.036057 0.956572 0.691674
#
# Coordination Sequence:
#
# PCOD8011659 Si02
#       7
#     2   2   2   2   2   2   2
#     4  11  23  40  63  89 122 160 199 252 310 359
#     4  10  21  39  63  91 124 160 199 252 316 369
#     4  11  21  38  61  87 125 160 195 257 309 350
#     4  11  22  37  63  94 119 154 204 253 313 373
#     4  10  21  40  63  86 121 165 205 245 296 362
#     4  11  24  41  62  89 120 162 210 245 292 364
#     4  10  22  42  61  87 125 156 198 256 305 360
#
# _framework density 22.276406000000001
#
# number of rings (size 3 to 8) (size 9 to 14) (size 15 to 20)
#    0.000    1.429    0.000    7.714    0.000    4.571 
#    0.000    7.143    0.000    0.000    0.000    0.000 
#    0.000    0.000    0.000    0.000    0.000    0.000 
#
# Total GULP energy -173450.945230 kJ/mol
# GULP energy per Si atom -12389.353231 kJ/mol
# Density = 2.222570 g / cm^3
# Si number density = 22.276406 Si / 1000 Ang^3
#
#
#
# Elastic Constant Matrix: (Units=GPa)
#
#
# Indices 1 2 3 4 5 6 
#
# 1 58.8948 34.1452 30.0821 10.1716 -10.2722 -3.5168
# 2 34.1452 140.0339 57.1658 15.6495 1.2518 -16.7391
# 3 30.0821 57.1658 157.2176 -3.3920 -2.3840 -11.8933
# 4 10.1716 15.6495 -3.3920 52.9980 -17.2616 -6.6673
# 5 -10.2722 1.2518 -2.3840 -17.2616 37.1390 0.0146
# 6 -3.5168 -16.7391 -11.8933 -6.6673 0.0146 34.5743
#
#
#
# Elastic Compliance Matrix: (Units=1/GPa)
#
#
# Indices 1 2 3 4 5 6 
#
# 1 0.021950 -0.004260 -0.002682 -0.001520 0.005336 -0.001048
# 2 -0.004260 0.009987 -0.002706 -0.002933 -0.003053 0.002907
# 3 -0.002682 -0.002706 0.008047 0.002346 0.000956 0.001637
# 4 -0.001520 -0.002933 0.002346 0.024290 0.011117 0.003912
# 5 0.005336 -0.003053 0.000956 0.011117 0.033733 0.001523
# 6 -0.001048 0.002907 0.001637 0.003912 0.001523 0.031541
#
#
# Mechanical properties :
#
#
# Convention : Reuss Voigt Hill
#
# Bulk Modulus (GPa) = 48.33901 66.54807 57.44354
# Shear Modulus (GPa) = 32.10496 40.59247 36.34871
#
# Velocity S-wave (km/s) = 3.80044 4.27338 4.04383
# Velocity P-wave (km/s) = 6.40348 7.36801 6.90262
#
# Compressibility (1/GPa) = 0.02068723
#
# Stress axis : x y z
#
# Youngs Moduli (GPa) = 45.55785 100.12841 124.27566
#
# Poissons Ratio (x) = 0.42659 0.33330
# Poissons Ratio (y) = 0.19410 0.33628
# Poissons Ratio (z) = 0.12218 0.27094
#
# Static dielectric constant tensor:
#      x y z
#    x 4.081900 -0.238030 0.228010 
#    y -0.238030 4.109490 -0.233610 
#    z 0.228010 -0.233610 4.712000 
# 
# 
# High freq. dielectric constant tensor:
#      x y z
#    x 1.851880 -0.013470 -0.007000 
#    y -0.013470 1.883720 -0.001770 
#    z -0.007000 -0.001770 1.898410 
# 
# From -- ./inp_files/356547.got.cif
#   From: 2010.06.25/outbox.cif.g09.slc.cpg/sg2_179_cif.got.tgz:356547.got - 2010.06.27 13:26:56.
