data_PCOD8011042
_publ_section_title
;
Structure prediction by ZEFSAII (Michael W. Deem and Ramdas Pophale) SiO2 
 PCOD8011042
Probable space group: P -1
;
_chemical_formula_sum "Si O2"
_cell_formula_units_Z 14
_cell_length_a 5.265663
_cell_length_b 12.477625
_cell_length_c 14.085892
_cell_angle_alpha 115.555386
_cell_angle_beta 99.044093
_cell_angle_gamma 54.169678
_cell_volume 671.159702
_symmetry_space_group_name_H-M "P -1"
_symmetry_group_IT_number 2
_symmetry_cell_setting 'triclinic'
loop_
_space_group_symop_operation_xyz
x,y,z
-x,-y,-z
loop_
_atom_site_type_symbol
_atom_site_label
_atom_site_fract_x
_atom_site_fract_y
_atom_site_fract_z
Si Si1 0.499240 0.643526 0.775828
Si Si2 0.121692 0.384047 0.045072
Si Si3 0.276721 0.205798 0.652286
Si Si4 0.921868 0.063274 0.243468
Si Si5 0.339893 0.126161 0.827583
Si Si6 0.185127 0.495789 0.741583
Si Si7 0.924180 0.920677 0.540669
O O1 0.573491 0.643127 0.892161
O O2 0.231794 0.806241 0.790435
O O3 0.380881 0.540242 0.710953
O O4 0.826604 0.574898 0.710071
O O5 0.837669 0.449903 0.130414
O O6 0.215608 0.231191 0.951069
O O7 0.000000 0.500000 0.000000
O O8 0.148377 0.224461 0.759921
O O9 0.358027 0.321298 0.680074
O O10 0.039478 0.217223 0.562131
O O11 0.573827 0.038630 0.603204
O O12 0.861389 0.131578 0.372368
O O13 0.737786 0.988831 0.199048
O O14 0.287362 0.950424 0.193831
O O15 0.000000 0.000000 0.500000
#
# Coordination Sequence:
#
# PCOD8011042 Si02
#       7
#     2   2   2   2   2   2   2
#     4  10  24  42  58  89 127 165 197 246 298 364
#     4  10  23  40  63  92 123 159 208 244 297 359
#     4  10  21  39  60  97 116 155 203 257 302 354
#     4  11  24  41  62  87 129 157 204 248 304 357
#     4  11  22  37  65  91 119 165 198 250 302 351
#     4  10  23  41  64  85 129 158 200 249 300 355
#     4  10  21  38  66  90 118 154 205 255 304 354
#
# _framework density 20.859418000000002
#
# number of rings (size 3 to 8) (size 9 to 14) (size 15 to 20)
#    0.857    0.857    2.857    0.857    4.000    4.000 
#    0.000    1.429    0.000    0.000    0.000    0.000 
#    0.000    0.000    0.000    0.000    0.000    0.000 
#
# Total GULP energy -173471.677115 kJ/mol
# GULP energy per Si atom -12390.834080 kJ/mol
# Density = 2.081194 g / cm^3
# Si number density = 20.859418 Si / 1000 Ang^3
#
#
#
# Elastic Constant Matrix: (Units=GPa)
#
#
# Indices 1 2 3 4 5 6 
#
# 1 92.0543 23.2005 30.9109 2.1751 21.5794 22.5599
# 2 23.2005 111.3973 40.8124 -1.0133 24.0325 14.3783
# 3 30.9109 40.8124 91.7634 7.0966 19.8557 2.8539
# 4 2.1751 -1.0133 7.0966 28.0413 6.2519 9.5361
# 5 21.5794 24.0325 19.8557 6.2519 24.9257 8.7098
# 6 22.5599 14.3783 2.8539 9.5361 8.7098 35.5380
#
#
#
# Elastic Compliance Matrix: (Units=1/GPa)
#
#
# Indices 1 2 3 4 5 6 
#
# 1 0.016588 0.001669 -0.004151 0.005510 -0.010642 -0.009743
# 2 0.001669 0.013162 -0.004477 0.005448 -0.010192 -0.004989
# 3 -0.004151 -0.004477 0.015629 -0.004540 -0.005405 0.005734
# 4 0.005510 0.005448 -0.004540 0.044180 -0.012556 -0.014115
# 5 -0.010642 -0.010192 -0.005405 -0.012556 0.067243 -0.001797
# 6 -0.009743 -0.004989 0.005734 -0.014115 -0.001797 0.040110
#
#
# Mechanical properties :
#
#
# Convention : Reuss Voigt Hill
#
# Bulk Modulus (GPa) = 31.78342 53.89587 42.83964
# Shear Modulus (GPa) = 22.59213 31.05377 26.82295
#
# Velocity S-wave (km/s) = 3.29457 3.86258 3.58982
# Velocity P-wave (km/s) = 5.45365 6.76657 6.14527
#
# Compressibility (1/GPa) = 0.03146295
#
# Stress axis : x y z
#
# Youngs Moduli (GPa) = 60.28293 75.97760 63.98256
#
# Poissons Ratio (x) = -0.12684 0.26558
# Poissons Ratio (y) = -0.10064 0.28645
# Poissons Ratio (z) = 0.25022 0.34015
#
# Static dielectric constant tensor:
#      x y z
#    x 4.967980 0.109120 -0.550590 
#    y 0.109120 3.550930 -0.069730 
#    z -0.550590 -0.069730 4.594030 
# 
# 
# High freq. dielectric constant tensor:
#      x y z
#    x 1.811240 0.005910 0.012040 
#    y 0.005910 1.798650 0.006680 
#    z 0.012040 0.006680 1.817060 
# 
# From -- ./inp_files/38121.got.cif
#   From: 2010.06.25/outbox.cif.g09.slc.cpg/sg2_20_cif.got.tgz:38121.got - 2010.06.27 13:26:56.
