data_PCOD8011112
_publ_section_title
;
Structure prediction by ZEFSAII (Michael W. Deem and Ramdas Pophale) SiO2 
 PCOD8011112
Probable space group: P -1
;
_chemical_formula_sum "Si O2"
_cell_formula_units_Z 16
_cell_length_a 20.661959
_cell_length_b 11.513937
_cell_length_c 9.047265
_cell_angle_alpha 88.929142
_cell_angle_beta 116.014515
_cell_angle_gamma 146.873723
_cell_volume 744.532862
_symmetry_space_group_name_H-M "P -1"
_symmetry_group_IT_number 2
_symmetry_cell_setting 'triclinic'
loop_
_space_group_symop_operation_xyz
x,y,z
-x,-y,-z
loop_
_atom_site_type_symbol
_atom_site_label
_atom_site_fract_x
_atom_site_fract_y
_atom_site_fract_z
Si Si1 0.773281 0.005877 0.931538
Si Si2 0.741645 0.103485 0.603949
Si Si3 0.824658 0.480084 0.633283
Si Si4 0.720899 0.328773 0.195502
Si Si5 0.369243 0.446192 0.199889
Si Si6 0.179166 0.272994 0.273828
Si Si7 0.903450 0.382426 0.253805
Si Si8 0.920802 0.844509 0.269834
O O1 0.772026 0.079377 0.079213
O O2 0.965796 0.221377 0.103723
O O3 0.743856 0.051310 0.768394
O O4 0.614998 0.670570 0.784980
O O5 0.709998 0.196162 0.580504
O O6 0.937074 0.362433 0.716048
O O7 0.570287 0.795994 0.343452
O O8 0.822149 0.478415 0.452043
O O9 0.748451 0.487808 0.623488
O O10 0.772025 0.296849 0.144146
O O11 0.789768 0.538400 0.161201
O O12 0.500000 0.000000 0.000000
O O13 0.341509 0.448213 0.342977
O O14 0.205176 0.242904 0.929719
O O15 0.110887 0.106078 0.358594
O O16 0.000000 0.000000 0.000000
O O17 0.000000 0.500000 0.500000
O O18 0.000000 0.000000 0.500000
#
# Coordination Sequence:
#
# PCOD8011112 Si02
#       8
#     2   2   2   2   2   2   2   2
#     4  11  22  43  67  91 133 177 222 265 328 401
#     4  11  25  41  67  95 130 177 222 272 333 388
#     4  11  20  43  64  95 132 167 222 279 317 392
#     4  12  25  42  69 102 134 166 224 277 324 395
#     4  11  24  43  63 100 138 166 227 281 317 396
#     4  10  21  38  67  92 131 172 211 268 336 376
#     4  11  24  44  70  92 133 182 216 268 341 390
#     4  11  22  41  68  93 134 180 213 270 339 387
#
# _framework density 21.489985000000001
#
# number of rings (size 3 to 8) (size 9 to 14) (size 15 to 20)
#    0.000    1.000    6.250    2.625    1.750    3.500 
#    0.000    0.625    0.000    0.000    0.000    0.000 
#    0.000    0.000    0.000    0.000    0.000    0.000 
#
# Total GULP energy -198332.260070 kJ/mol
# GULP energy per Si atom -12395.766254 kJ/mol
# Density = 2.144107 g / cm^3
# Si number density = 21.489985 Si / 1000 Ang^3
#
#
#
# Elastic Constant Matrix: (Units=GPa)
#
#
# Indices 1 2 3 4 5 6 
#
# 1 152.5589 69.1406 36.8653 10.5110 -30.8639 -17.5390
# 2 69.1406 123.2881 39.5197 7.1453 -7.8600 -35.6272
# 3 36.8653 39.5197 79.6740 -1.7890 -15.5871 -3.1091
# 4 10.5110 7.1453 -1.7890 44.0183 -2.8627 -2.9058
# 5 -30.8639 -7.8600 -15.5871 -2.8627 34.0382 5.8657
# 6 -17.5390 -35.6272 -3.1091 -2.9058 5.8657 40.2108
#
#
#
# Elastic Compliance Matrix: (Units=1/GPa)
#
#
# Indices 1 2 3 4 5 6 
#
# 1 0.010954 -0.005852 -0.000599 -0.001255 0.008509 -0.001785
# 2 -0.005852 0.016772 -0.006448 -0.001183 -0.006674 0.012697
# 3 -0.000599 -0.006448 0.017220 0.001979 0.006970 -0.005517
# 4 -0.001255 -0.001183 0.001979 0.023387 0.001456 0.000035
# 5 0.008509 -0.006674 0.006970 0.001456 0.040145 -0.007413
# 6 -0.001785 0.012697 -0.005517 0.000035 -0.007413 0.035998
#
#
# Mechanical properties :
#
#
# Convention : Reuss Voigt Hill
#
# Bulk Modulus (GPa) = 52.22580 71.84135 62.03358
# Shear Modulus (GPa) = 28.30340 37.65313 32.97827
#
# Velocity S-wave (km/s) = 3.63306 4.19038 3.92163
# Velocity P-wave (km/s) = 6.47719 7.54421 7.03097
#
# Compressibility (1/GPa) = 0.01914762
#
# Stress axis : x y z
#
# Youngs Moduli (GPa) = 91.28703 59.62274 58.07335
#
# Poissons Ratio (x) = 0.34891 0.03479
# Poissons Ratio (y) = 0.53420 0.37447
# Poissons Ratio (z) = 0.05469 0.38446
#
# Static dielectric constant tensor:
#      x y z
#    x 4.815580 -0.302380 -0.268550 
#    y -0.302380 3.846330 0.067310 
#    z -0.268550 0.067310 3.948660 
# 
# 
# High freq. dielectric constant tensor:
#      x y z
#    x 1.837190 -0.017650 -0.014760 
#    y -0.017650 1.843720 -0.000160 
#    z -0.014760 -0.000160 1.849490 
# 
# From -- ./inp_files/345357.got.cif
#   From: 2010.06.25/outbox.cif.g09.slc.cpg/sg2_173_cif.got.tgz:345357.got - 2010.06.27 13:26:56.
