data_PCOD8011957
_publ_section_title
;
Structure prediction by ZEFSAII (Michael W. Deem and Ramdas Pophale) SiO2 
 PCOD8011957
Probable space group: P -1
;
_chemical_formula_sum "Si O2"
_cell_formula_units_Z 16
_cell_length_a 8.816183
_cell_length_b 9.631880
_cell_length_c 12.614466
_cell_angle_alpha 136.690744
_cell_angle_beta 96.470590
_cell_angle_gamma 89.794509
_cell_volume 725.228887
_symmetry_space_group_name_H-M "P -1"
_symmetry_group_IT_number 2
_symmetry_cell_setting 'triclinic'
loop_
_space_group_symop_operation_xyz
x,y,z
-x,-y,-z
loop_
_atom_site_type_symbol
_atom_site_label
_atom_site_fract_x
_atom_site_fract_y
_atom_site_fract_z
Si Si1 0.669344 0.792906 0.596734
Si Si2 0.249274 0.369128 0.803425
Si Si3 0.916306 0.450340 0.778226
Si Si4 0.377085 0.859620 0.729141
Si Si5 0.172245 0.990162 0.464752
Si Si6 0.142624 0.498789 0.434177
Si Si7 0.436901 0.578010 0.761066
Si Si8 0.704241 0.700386 0.002913
O O1 0.539643 0.912501 0.709109
O O2 0.766323 0.694223 0.640846
O O3 0.572331 0.614349 0.423728
O O4 0.790299 0.933424 0.610836
O O5 0.312119 0.548487 0.828352
O O6 0.069596 0.387115 0.808052
O O7 0.279069 0.144895 0.635763
O O8 0.334422 0.398457 0.939345
O O9 0.792639 0.244217 0.657597
O O10 0.933649 0.523002 0.699079
O O11 0.869894 0.637456 0.948359
O O12 0.258142 0.705285 0.568355
O O13 0.410118 0.775708 0.801672
O O14 0.294861 0.059388 0.854153
O O15 0.000000 0.000000 0.500000
O O16 0.000000 0.500000 0.500000
O O17 0.599571 0.602254 0.845379
#
# Coordination Sequence:
#
# PCOD8011957 Si02
#       8
#     2   2   2   2   2   2   2   2
#     4  10  21  39  65  92 120 155 202 257 306 355
#     4  10  22  40  60  86 119 158 204 253 301 354
#     4  11  22  40  61  89 123 158 199 252 304 361
#     4  11  23  41  61  91 124 158 202 251 302 365
#     4   9  19  38  63  88 116 153 199 253 302 351
#     4  11  21  40  69  95 118 155 203 256 309 358
#     4  10  21  40  61  85 119 157 201 252 299 355
#     4  12  24  38  58  86 125 168 200 240 299 367
#
# _framework density 22.062000000000001
#
# number of rings (size 3 to 8) (size 9 to 14) (size 15 to 20)
#    0.000    1.500    0.000    7.875    0.000    3.000 
#    0.000    6.875    0.000    0.000    0.000    0.000 
#    0.000    0.000    0.000    0.000    0.000    0.000 
#
# Total GULP energy -198317.489215 kJ/mol
# GULP energy per Si atom -12394.843076 kJ/mol
# Density = 2.201179 g / cm^3
# Si number density = 22.062000 Si / 1000 Ang^3
#
#
#
# Elastic Constant Matrix: (Units=GPa)
#
#
# Indices 1 2 3 4 5 6 
#
# 1 56.0584 26.8922 11.0175 15.1277 -16.4639 8.6819
# 2 26.8922 126.6711 50.6480 -13.2858 -16.7283 6.4228
# 3 11.0175 50.6480 57.0659 -0.9030 -25.8561 -7.2027
# 4 15.1277 -13.2858 -0.9030 34.4596 -16.5700 -0.7424
# 5 -16.4639 -16.7283 -25.8561 -16.5700 36.7353 -6.4613
# 6 8.6819 6.4228 -7.2027 -0.7424 -6.4613 39.2641
#
#
#
# Elastic Compliance Matrix: (Units=1/GPa)
#
#
# Indices 1 2 3 4 5 6 
#
# 1 0.025700 -0.006943 0.002266 -0.012145 0.003817 -0.003733
# 2 -0.006943 0.015707 -0.015033 0.006511 -0.004375 -0.004389
# 3 0.002266 -0.015033 0.050688 0.013787 0.039227 0.017972
# 4 -0.012145 0.006511 0.013787 0.053409 0.033185 0.010620
# 5 0.003817 -0.004375 0.039227 0.033185 0.072985 0.019705
# 6 -0.003733 -0.004389 0.017972 0.010620 0.019705 0.033752
#
#
# Mechanical properties :
#
#
# Convention : Reuss Voigt Hill
#
# Bulk Modulus (GPa) = 18.98381 46.32340 32.65360
# Shear Modulus (GPa) = 16.16977 32.17431 24.17204
#
# Velocity S-wave (km/s) = 2.71019 3.82299 3.31364
# Velocity P-wave (km/s) = 4.29150 6.36628 5.42893
#
# Compressibility (1/GPa) = 0.05267647
#
# Stress axis : x y z
#
# Youngs Moduli (GPa) = 38.91028 63.66603 19.72835
#
# Poissons Ratio (x) = 0.44201 -0.04471
# Poissons Ratio (y) = 0.27014 0.29658
# Poissons Ratio (z) = -0.08818 0.95711
#
# Static dielectric constant tensor:
#      x y z
#    x 3.930080 -0.001580 0.030100 
#    y -0.001580 4.189490 -0.083980 
#    z 0.030100 -0.083980 3.977550 
# 
# 
# High freq. dielectric constant tensor:
#      x y z
#    x 1.858530 -0.001130 -0.007990 
#    y -0.001130 1.878700 -0.014970 
#    z -0.007990 -0.014970 1.857990 
# 
# From -- ./inp_files/205993.got.cif
#   From: 2010.06.25/outbox.cif.g09.slc.cpg/sg2_103_cif.got.tgz:205993.got - 2010.06.27 13:26:56.
