data_PCOD8011417
_publ_section_title
;
Structure prediction by ZEFSAII (Michael W. Deem and Ramdas Pophale) SiO2 
 PCOD8011417
Probable space group: P -1
;
_chemical_formula_sum "Si O2"
_cell_formula_units_Z 16
_cell_length_a 12.726725
_cell_length_b 14.976535
_cell_length_c 9.791531
_cell_angle_alpha 116.727769
_cell_angle_beta 44.326914
_cell_angle_gamma 82.910550
_cell_volume 816.333699
_symmetry_space_group_name_H-M "P -1"
_symmetry_group_IT_number 2
_symmetry_cell_setting 'triclinic'
loop_
_space_group_symop_operation_xyz
x,y,z
-x,-y,-z
loop_
_atom_site_type_symbol
_atom_site_label
_atom_site_fract_x
_atom_site_fract_y
_atom_site_fract_z
Si Si1 0.577788 0.009379 0.795855
Si Si2 0.709793 0.869593 0.295134
Si Si3 0.002208 0.908508 0.338679
Si Si4 0.815935 0.594458 0.920581
Si Si5 0.697333 0.667790 0.775328
Si Si6 0.482969 0.392918 0.606094
Si Si7 0.531864 0.374975 0.240959
Si Si8 0.039005 0.892283 0.992252
O O1 0.634708 0.906379 0.548704
O O2 0.803060 0.939860 0.592388
O O3 0.500000 0.000000 0.000000
O O4 0.406737 0.173086 0.018154
O O5 0.500000 0.000000 0.500000
O O6 0.789950 0.721139 0.080546
O O7 0.902441 0.855328 0.066769
O O8 0.215941 0.743938 0.045078
O O9 0.967421 0.964892 0.256573
O O10 0.000000 0.000000 0.500000
O O11 0.711420 0.626452 0.890985
O O12 0.065888 0.445922 0.587565
O O13 0.704066 0.571489 0.111841
O O14 0.543210 0.668876 0.831767
O O15 0.420677 0.408174 0.514412
O O16 0.513117 0.494494 0.686118
O O17 0.707403 0.240717 0.337660
O O18 0.000000 0.000000 0.000000
#
# Coordination Sequence:
#
# PCOD8011417 Si02
#       8
#     2   2   2   2   2   2   2   2
#     4  11  25  40  64  94 129 163 208 256 320 366
#     4  11  22  42  64  92 127 166 207 257 307 379
#     4  10  21  39  61  89 120 159 200 257 304 368
#     4  11  25  42  66  92 128 168 212 252 320 369
#     4  11  24  44  61  94 131 163 207 268 304 377
#     4  10  23  41  65  92 121 166 209 257 313 376
#     4  10  22  42  64  91 126 157 213 260 310 370
#     4  10  22  38  63  90 121 159 208 253 305 365
#
# _framework density 19.599829
#
# number of rings (size 3 to 8) (size 9 to 14) (size 15 to 20)
#    0.000    1.500    2.500    1.500    5.250    3.000 
#    0.000    0.000    0.000    0.000    0.000    0.000 
#    0.000    0.000    0.000    0.000    0.000    0.000 
#
# Total GULP energy -198311.833464 kJ/mol
# GULP energy per Si atom -12394.489591 kJ/mol
# Density = 1.955522 g / cm^3
# Si number density = 19.599829 Si / 1000 Ang^3
#
#
#
# Elastic Constant Matrix: (Units=GPa)
#
#
# Indices 1 2 3 4 5 6 
#
# 1 118.3571 43.2264 43.6642 -12.7394 3.7534 -6.1739
# 2 43.2264 124.6316 52.1334 -20.8162 -2.0283 2.2174
# 3 43.6642 52.1334 110.2563 -19.7592 -1.5078 5.9523
# 4 -12.7394 -20.8162 -19.7592 36.8229 2.9952 0.3590
# 5 3.7534 -2.0283 -1.5078 2.9952 32.2739 6.1455
# 6 -6.1739 2.2174 5.9523 0.3590 6.1455 16.7669
#
#
#
# Elastic Compliance Matrix: (Units=1/GPa)
#
#
# Indices 1 2 3 4 5 6 
#
# 1 0.011176 -0.002435 -0.003544 0.000765 -0.002978 0.006770
# 2 -0.002435 0.010945 -0.003510 0.003413 0.000767 -0.001452
# 3 -0.003544 -0.003510 0.013168 0.003783 0.001635 -0.006196
# 4 0.000765 0.003413 0.003783 0.031587 -0.002378 -0.001317
# 5 -0.002978 0.000767 0.001635 -0.002378 0.034407 -0.014339
# 6 0.006770 -0.001452 -0.006196 -0.001317 -0.014339 0.069809
#
#
# Mechanical properties :
#
#
# Convention : Reuss Voigt Hill
#
# Bulk Modulus (GPa) = 61.31120 70.14365 65.72743
# Shear Modulus (GPa) = 25.57463 31.45412 28.51438
#
# Velocity S-wave (km/s) = 3.61618 4.01036 3.81836
# Velocity P-wave (km/s) = 6.98463 7.57031 7.28336
#
# Compressibility (1/GPa) = 0.01631023
#
# Stress axis : x y z
#
# Youngs Moduli (GPa) = 89.48115 91.36671 75.94319
#
# Poissons Ratio (x) = 0.22247 0.26912
# Poissons Ratio (y) = 0.21788 0.26659
# Poissons Ratio (z) = 0.31709 0.32073
#
# Static dielectric constant tensor:
#      x y z
#    x 3.756000 -0.087910 0.143730 
#    y -0.087910 3.497870 0.003360 
#    z 0.143730 0.003360 3.679830 
# 
# 
# High freq. dielectric constant tensor:
#      x y z
#    x 1.774050 -0.008640 -0.000810 
#    y -0.008640 1.759670 0.003250 
#    z -0.000810 0.003250 1.784600 
# 
# From -- ./inp_files/239117.got.cif
#   From: 2010.06.25/outbox.cif.g09.slc.cpg/sg2_120_cif.got.tgz:239117.got - 2010.06.27 13:26:56.
