data_PCOD8011534
_publ_section_title
;
Structure prediction by ZEFSAII (Michael W. Deem and Ramdas Pophale) SiO2 
 PCOD8011534
Probable space group: P -1
;
_chemical_formula_sum "Si O2"
_cell_formula_units_Z 16
_cell_length_a 8.780507
_cell_length_b 18.562459
_cell_length_c 6.462536
_cell_angle_alpha 120.685543
_cell_angle_beta 57.446610
_cell_angle_gamma 111.612714
_cell_volume 757.105698
_symmetry_space_group_name_H-M "P -1"
_symmetry_group_IT_number 2
_symmetry_cell_setting 'triclinic'
loop_
_space_group_symop_operation_xyz
x,y,z
-x,-y,-z
loop_
_atom_site_type_symbol
_atom_site_label
_atom_site_fract_x
_atom_site_fract_y
_atom_site_fract_z
Si Si1 0.787343 0.401533 0.048800
Si Si2 0.595950 0.133298 0.837772
Si Si3 0.809271 0.881109 0.928205
Si Si4 0.811618 0.263816 0.155201
Si Si5 0.915464 0.545643 0.436244
Si Si6 0.108766 0.983327 0.597726
Si Si7 0.185848 0.279985 0.086691
Si Si8 0.421542 0.722307 0.259103
O O1 0.859372 0.336321 0.058741
O O2 0.762304 0.483093 0.328682
O O3 0.606536 0.355097 0.001129
O O4 0.929490 0.423741 0.795163
O O5 0.698966 0.051585 0.622379
O O6 0.612338 0.190309 0.700513
O O7 0.384951 0.100322 0.994826
O O8 0.681897 0.184141 0.047538
O O9 0.800584 0.779966 0.811690
O O10 0.976847 0.911222 0.704256
O O11 0.845966 0.928493 0.188846
O O12 0.716107 0.296696 0.477138
O O13 0.009418 0.238907 0.029553
O O14 0.822979 0.624134 0.700204
O O15 0.000000 0.500000 0.500000
O O16 0.000000 0.000000 0.500000
O O17 0.370260 0.275559 0.811837
#
# Coordination Sequence:
#
# PCOD8011534 Si02
#       8
#     2   2   2   2   2   2   2   2
#     4  10  21  39  62  90 125 165 206 257 319 361
#     4  10  23  39  64  90 126 169 200 258 310 362
#     4  10  24  42  60  96 126 159 212 253 306 375
#     4  11  21  40  62  91 127 161 210 259 306 367
#     4  11  21  40  66  92 125 167 209 257 313 370
#     4  11  23  41  65  93 126 163 206 254 311 369
#     4  11  22  41  67  88 124 169 204 260 310 369
#     4  10  22  41  61  94 125 163 213 255 309 372
#
# _framework density 21.133111
#
# number of rings (size 3 to 8) (size 9 to 14) (size 15 to 20)
#    0.000    1.500    2.500    1.875    1.750    5.000 
#    4.500    2.500    0.000    0.000    0.000    0.000 
#    0.000    0.000    0.000    0.000    0.000    0.000 
#
# Total GULP energy -198327.305303 kJ/mol
# GULP energy per Si atom -12395.456581 kJ/mol
# Density = 2.108501 g / cm^3
# Si number density = 21.133111 Si / 1000 Ang^3
#
#
#
# Elastic Constant Matrix: (Units=GPa)
#
#
# Indices 1 2 3 4 5 6 
#
# 1 144.9831 22.6926 43.5703 -2.5679 -14.6059 2.4367
# 2 22.6926 68.2388 21.9053 12.9238 -7.0029 -9.5581
# 3 43.5703 21.9053 65.1538 5.2486 3.9851 -15.1563
# 4 -2.5679 12.9238 5.2486 20.6570 -1.8772 -4.1401
# 5 -14.6059 -7.0029 3.9851 -1.8772 32.6687 4.6839
# 6 2.4367 -9.5581 -15.1563 -4.1401 4.6839 32.2221
#
#
#
# Elastic Compliance Matrix: (Units=1/GPa)
#
#
# Indices 1 2 3 4 5 6 
#
# 1 0.010537 -0.001653 -0.008537 0.003950 0.006447 -0.005732
# 2 -0.001653 0.019114 -0.004185 -0.010418 0.002975 0.002055
# 3 -0.008537 -0.004185 0.026328 -0.003474 -0.009959 0.012789
# 4 0.003950 -0.010418 -0.003474 0.056944 0.002962 0.001863
# 5 0.006447 0.002975 -0.009959 0.002962 0.036844 -0.009265
# 6 -0.005732 0.002055 0.012789 0.001863 -0.009265 0.039680
#
#
# Mechanical properties :
#
#
# Convention : Reuss Voigt Hill
#
# Bulk Modulus (GPa) = 36.72576 50.52357 43.62466
# Shear Modulus (GPa) = 21.99980 29.79007 25.89494
#
# Velocity S-wave (km/s) = 3.22997 3.75859 3.50426
# Velocity P-wave (km/s) = 5.59699 6.54180 6.08775
#
# Compressibility (1/GPa) = 0.02722885
#
# Stress axis : x y z
#
# Youngs Moduli (GPa) = 94.89994 52.31743 37.98174
#
# Poissons Ratio (x) = 0.08649 0.32425
# Poissons Ratio (y) = 0.15689 0.15897
# Poissons Ratio (z) = 0.81015 0.21897
#
# Static dielectric constant tensor:
#      x y z
#    x 4.040740 0.244520 0.148470 
#    y 0.244520 4.014370 0.079130 
#    z 0.148470 0.079130 3.798490 
# 
# 
# High freq. dielectric constant tensor:
#      x y z
#    x 1.834950 0.010820 0.008910 
#    y 0.010820 1.837610 0.005140 
#    z 0.008910 0.005140 1.815360 
# 
# From -- ./inp_files/46822.got.cif
#   From: 2010.06.25/outbox.cif.g09.slc.cpg/sg2_24_cif.got.tgz:46822.got - 2010.06.27 13:26:56.
