data_PCOD8011826
_publ_section_title
;
Structure prediction by ZEFSAII (Michael W. Deem and Ramdas Pophale) SiO2 
 PCOD8011826
Probable space group: P -1
;
_chemical_formula_sum "Si O2"
_cell_formula_units_Z 16
_cell_length_a 11.789787
_cell_length_b 12.093514
_cell_length_c 13.085886
_cell_angle_alpha 79.362564
_cell_angle_beta 110.030563
_cell_angle_gamma 40.777612
_cell_volume 790.306156
_symmetry_space_group_name_H-M "P -1"
_symmetry_group_IT_number 2
_symmetry_cell_setting 'triclinic'
loop_
_space_group_symop_operation_xyz
x,y,z
-x,-y,-z
loop_
_atom_site_type_symbol
_atom_site_label
_atom_site_fract_x
_atom_site_fract_y
_atom_site_fract_z
Si Si1 0.537144 0.356447 0.472219
Si Si2 0.916903 0.449759 0.675792
Si Si3 0.683837 0.542008 0.946077
Si Si4 0.425059 0.984305 0.787180
Si Si5 0.278403 0.156563 0.486487
Si Si6 0.964567 0.217851 0.281029
Si Si7 0.290871 0.729500 0.670820
Si Si8 0.066600 0.343620 0.970044
O O1 0.500000 0.500000 0.500000
O O2 0.309610 0.456098 0.411161
O O3 0.514233 0.424869 0.338916
O O4 0.814774 0.061506 0.623203
O O5 0.845726 0.620509 0.560324
O O6 0.163524 0.195398 0.736243
O O7 0.977940 0.440111 0.810626
O O8 0.413103 0.711304 0.795350
O O9 0.596337 0.737534 0.922293
O O10 0.811310 0.363816 0.104606
O O11 0.910541 0.363169 0.958741
O O12 0.377830 0.014929 0.645199
O O13 0.613583 0.936307 0.878503
O O14 0.080181 0.237266 0.355965
O O15 0.500000 0.000000 0.500000
O O16 0.742564 0.363966 0.269938
O O17 0.000000 0.000000 0.500000
O O18 0.000000 0.500000 0.000000
#
# Coordination Sequence:
#
# PCOD8011826 Si02
#       8
#     2   2   2   2   2   2   2   2
#     4  11  25  44  67  96 134 177 220 275 337 391
#     4  12  24  42  66 100 137 172 221 281 340 392
#     4  11  21  43  66  97 130 176 224 268 334 399
#     4  11  24  38  66 100 138 172 214 283 339 394
#     4  12  22  42  67 100 131 176 229 267 329 401
#     4  11  24  41  70  96 130 172 230 275 318 403
#     4  10  22  42  67  94 124 172 230 268 319 397
#     4  10  21  39  64  92 131 177 217 265 330 400
#
# _framework density 20.245318000000001
#
# number of rings (size 3 to 8) (size 9 to 14) (size 15 to 20)
#    0.000    1.000    2.500    6.375    5.250    0.000 
#    0.000    1.875    0.000    0.000    0.000    0.000 
#    0.000    0.000    0.000    0.000    0.000    0.000 
#
# Total GULP energy -198261.759028 kJ/mol
# GULP energy per Si atom -12391.359939 kJ/mol
# Density = 2.019924 g / cm^3
# Si number density = 20.245318 Si / 1000 Ang^3
#
#
#
# Elastic Constant Matrix: (Units=GPa)
#
#
# Indices 1 2 3 4 5 6 
#
# 1 153.3576 50.6890 55.6886 -2.3000 8.8823 -11.5873
# 2 50.6890 90.8726 35.8707 -3.9171 -6.4092 -2.4938
# 3 55.6886 35.8707 122.6585 5.9126 4.0180 -4.3105
# 4 -2.3000 -3.9171 5.9126 28.4390 -0.7687 4.1942
# 5 8.8823 -6.4092 4.0180 -0.7687 44.4821 6.3266
# 6 -11.5873 -2.4938 -4.3105 4.1942 6.3266 35.5889
#
#
#
# Elastic Compliance Matrix: (Units=1/GPa)
#
#
# Indices 1 2 3 4 5 6 
#
# 1 0.009291 -0.004158 -0.002832 0.000282 -0.002595 0.002819
# 2 -0.004158 0.014704 -0.002705 0.002576 0.003461 -0.001570
# 3 -0.002832 -0.002705 0.010421 -0.002889 -0.000908 0.000653
# 4 0.000282 0.002576 -0.002889 0.036895 0.001891 -0.004762
# 5 -0.002595 0.003461 -0.000908 0.001891 0.024361 -0.005266
# 6 0.002819 -0.001570 0.000653 -0.004762 -0.005266 0.030483
#
#
# Mechanical properties :
#
#
# Convention : Reuss Voigt Hill
#
# Bulk Modulus (GPa) = 66.54967 72.37616 69.46291
# Shear Modulus (GPa) = 33.21095 36.67803 34.94449
#
# Velocity S-wave (km/s) = 4.05461 4.26100 4.15909
# Velocity P-wave (km/s) = 7.40694 7.74825 7.57952
#
# Compressibility (1/GPa) = 0.01502637
#
# Stress axis : x y z
#
# Youngs Moduli (GPa) = 107.63294 68.01027 95.95743
#
# Poissons Ratio (x) = 0.28280 0.27172
# Poissons Ratio (y) = 0.44756 0.25955
# Poissons Ratio (z) = 0.30478 0.18396
#
# Static dielectric constant tensor:
#      x y z
#    x 4.250220 -0.428990 0.121190 
#    y -0.428990 3.487070 -0.047320 
#    z 0.121190 -0.047320 3.943750 
# 
# 
# High freq. dielectric constant tensor:
#      x y z
#    x 1.816060 -0.020670 0.008990 
#    y -0.020670 1.763940 0.008370 
#    z 0.008990 0.008370 1.798180 
# 
# From -- ./inp_files/223473.got.cif
#   From: 2010.06.25/outbox.cif.g09.slc.cpg/sg2_112_cif.got.tgz:223473.got - 2010.06.27 13:26:56.
