data_PCOD8011093
_publ_section_title
;
Structure prediction by ZEFSAII (Michael W. Deem and Ramdas Pophale) SiO2 
 PCOD8011093
Probable space group: P -1
;
_chemical_formula_sum "Si O2"
_cell_formula_units_Z 16
_cell_length_a 12.616779
_cell_length_b 17.569112
_cell_length_c 8.755293
_cell_angle_alpha 130.817172
_cell_angle_beta 58.496450
_cell_angle_gamma 149.823044
_cell_volume 733.678550
_symmetry_space_group_name_H-M "P -1"
_symmetry_group_IT_number 2
_symmetry_cell_setting 'triclinic'
loop_
_space_group_symop_operation_xyz
x,y,z
-x,-y,-z
loop_
_atom_site_type_symbol
_atom_site_label
_atom_site_fract_x
_atom_site_fract_y
_atom_site_fract_z
Si Si1 0.050523 0.285469 0.134973
Si Si2 0.183233 0.166135 0.387503
Si Si3 0.643237 0.375569 0.794894
Si Si4 0.249039 0.222756 0.758338
Si Si5 0.613373 0.971393 0.419103
Si Si6 0.077272 0.294692 0.486875
Si Si7 0.789102 0.424218 0.083796
Si Si8 0.643597 0.918509 0.999452
O O1 0.141504 0.454055 0.236995
O O2 0.077976 0.286743 0.294508
O O3 0.179598 0.288069 0.945123
O O4 0.797897 0.103594 0.047451
O O5 0.292954 0.248426 0.577901
O O6 0.213912 0.291973 0.444194
O O7 0.298349 0.155564 0.191583
O O8 0.932293 0.978401 0.335685
O O9 0.461036 0.336717 0.842028
O O10 0.551617 0.204986 0.588748
O O11 0.705678 0.417034 0.979494
O O12 0.500000 0.000000 0.500000
O O13 0.674640 0.944287 0.191383
O O14 0.842731 0.143484 0.546331
O O15 0.184878 0.469941 0.677039
O O16 0.608294 0.230745 0.037624
O O17 0.000000 0.500000 0.000000
#
# Coordination Sequence:
#
# PCOD8011093 Si02
#       8
#     2   2   2   2   2   2   2   2
#     4  10  23  38  64 101 137 166 209 262 333 394
#     4  10  21  38  67 100 135 167 214 266 327 394
#     4  11  22  42  66  92 129 174 213 261 328 383
#     4  10  21  39  63  99 138 176 202 258 336 398
#     4  10  21  41  67  90 122 176 226 263 316 378
#     4  11  22  38  65  97 130 168 221 268 319 380
#     4  11  25  45  66  89 124 175 228 271 314 386
#     4   9  22  41  65  90 133 163 216 268 327 375
#
# _framework density 21.807915999999999
#
# number of rings (size 3 to 8) (size 9 to 14) (size 15 to 20)
#    0.000    1.750    1.250    2.625    5.250    2.000 
#    0.000    6.250    0.000    0.000    0.000    0.000 
#    0.000    0.000    0.000    0.000    0.000    0.000 
#
# Total GULP energy -198273.818474 kJ/mol
# GULP energy per Si atom -12392.113655 kJ/mol
# Density = 2.175828 g / cm^3
# Si number density = 21.807916 Si / 1000 Ang^3
#
#
#
# Elastic Constant Matrix: (Units=GPa)
#
#
# Indices 1 2 3 4 5 6 
#
# 1 71.2856 54.3190 34.6467 -2.9830 1.6148 1.9421
# 2 54.3190 172.8690 33.7381 26.5098 -8.9307 -0.4941
# 3 34.6467 33.7381 92.0882 -4.4491 8.6713 0.5520
# 4 -2.9830 26.5098 -4.4491 35.5752 0.9208 -2.0809
# 5 1.6148 -8.9307 8.6713 0.9208 21.4168 9.8069
# 6 1.9421 -0.4941 0.5520 -2.0809 9.8069 35.3861
#
#
#
# Elastic Compliance Matrix: (Units=1/GPa)
#
#
# Indices 1 2 3 4 5 6 
#
# 1 0.022370 -0.007180 -0.005198 0.006645 -0.002829 -0.000072
# 2 -0.007180 0.010120 -0.002056 -0.008683 0.006804 -0.001829
# 3 -0.005198 -0.002056 0.014416 0.003227 -0.007493 0.002298
# 4 0.006645 -0.008683 0.003227 0.036005 -0.008820 0.004025
# 5 -0.002829 0.006804 -0.007493 -0.008820 0.060962 -0.017046
# 6 -0.000072 -0.001829 0.002298 0.004025 -0.017046 0.033163
#
#
# Mechanical properties :
#
#
# Convention : Reuss Voigt Hill
#
# Bulk Modulus (GPa) = 55.43747 64.62783 60.03265
# Shear Modulus (GPa) = 23.59450 32.71155 28.15302
#
# Velocity S-wave (km/s) = 3.29283 3.87717 3.59688
# Velocity P-wave (km/s) = 6.31925 7.05284 6.69610
#
# Compressibility (1/GPa) = 0.01803834
#
# Stress axis : x y z
#
# Youngs Moduli (GPa) = 44.70373 98.81548 69.36960
#
# Poissons Ratio (x) = 0.70948 0.36057
# Poissons Ratio (y) = 0.32097 0.14259
# Poissons Ratio (z) = 0.23236 0.20312
#
# Static dielectric constant tensor:
#      x y z
#    x 3.559880 0.000120 0.017670 
#    y 0.000120 4.699790 0.406750 
#    z 0.017670 0.406750 3.964450 
# 
# 
# High freq. dielectric constant tensor:
#      x y z
#    x 1.823120 0.003020 -0.002870 
#    y 0.003020 1.877160 0.021610 
#    z -0.002870 0.021610 1.857210 
# 
# From -- ./inp_files/224401.got.cif
#   From: 2010.06.25/outbox.cif.g09.slc.cpg/sg2_113_cif.got.tgz:224401.got - 2010.06.27 13:26:56.
