data_PCOD8011034
_publ_section_title
;
Structure prediction by ZEFSAII (Michael W. Deem and Ramdas Pophale) SiO2 
 PCOD8011034
Probable space group: P -1
;
_chemical_formula_sum "Si O2"
_cell_formula_units_Z 16
_cell_length_a 9.337268
_cell_length_b 9.341058
_cell_length_c 15.761223
_cell_angle_alpha 108.543776
_cell_angle_beta 141.410219
_cell_angle_gamma 82.096525
_cell_volume 798.463752
_symmetry_space_group_name_H-M "P -1"
_symmetry_group_IT_number 2
_symmetry_cell_setting 'triclinic'
loop_
_space_group_symop_operation_xyz
x,y,z
-x,-y,-z
loop_
_atom_site_type_symbol
_atom_site_label
_atom_site_fract_x
_atom_site_fract_y
_atom_site_fract_z
Si Si1 0.970532 0.728787 0.069272
Si Si2 0.386963 0.149512 0.980686
Si Si3 0.362687 0.830194 0.398862
Si Si4 0.195699 0.257788 0.468148
Si Si5 0.987154 0.904066 0.344458
Si Si6 0.721316 0.685500 0.295729
Si Si7 0.815759 0.393752 0.007824
Si Si8 0.164117 0.606879 0.786568
O O1 0.781519 0.842345 0.013386
O O2 0.215171 0.806809 0.239312
O O3 0.018218 0.697813 0.987122
O O4 0.862992 0.571353 0.037907
O O5 0.232177 0.157117 0.828418
O O6 0.585786 0.298447 0.105060
O O7 0.500000 0.000000 0.000000
O O8 0.559468 0.724493 0.466804
O O9 0.190411 0.806729 0.396090
O O10 0.500000 0.000000 0.500000
O O11 0.250140 0.350393 0.598723
O O12 0.031368 0.333302 0.346620
O O13 0.078581 0.084114 0.406524
O O14 0.882036 0.853581 0.379442
O O15 0.452663 0.682301 0.147534
O O16 0.831195 0.567418 0.267399
O O17 0.887074 0.376194 0.134733
#
# Coordination Sequence:
#
# PCOD8011034 Si02
#       8
#     2   2   2   2   2   2   2   2
#     4  10  21  40  64  93 117 164 215 250 300 367
#     4  11  20  37  64  91 127 160 198 260 314 361
#     4   9  19  37  61  86 117 164 201 244 299 368
#     4  11  23  40  61  89 131 158 199 256 316 364
#     4  10  21  38  66  88 119 164 211 244 302 373
#     4  12  22  40  62  95 120 162 212 254 300 375
#     4  11  22  39  67  89 122 161 214 256 296 372
#     4  12  23  39  61  96 123 160 200 261 320 353
#
# _framework density 20.03848
#
# number of rings (size 3 to 8) (size 9 to 14) (size 15 to 20)
#    0.000    1.250    5.000    2.625    0.000    0.000 
#    0.000    4.375    5.500    0.000    0.000    0.000 
#    0.000    0.000    0.000    0.000    0.000    0.000 
#
# Total GULP energy -198308.114934 kJ/mol
# GULP energy per Si atom -12394.257183 kJ/mol
# Density = 1.999287 g / cm^3
# Si number density = 20.038480 Si / 1000 Ang^3
#
#
#
# Elastic Constant Matrix: (Units=GPa)
#
#
# Indices 1 2 3 4 5 6 
#
# 1 130.6998 45.1691 43.8961 -22.5741 4.9008 -13.9508
# 2 45.1691 66.5828 20.1059 -4.2569 9.1646 -7.3806
# 3 43.8961 20.1059 78.8814 -7.8757 7.9991 1.0218
# 4 -22.5741 -4.2569 -7.8757 29.5059 1.1764 1.4589
# 5 4.9008 9.1646 7.9991 1.1764 37.1974 -1.4270
# 6 -13.9508 -7.3806 1.0218 1.4589 -1.4270 32.4238
#
#
#
# Elastic Compliance Matrix: (Units=1/GPa)
#
#
# Indices 1 2 3 4 5 6 
#
# 1 0.013441 -0.006745 -0.005137 0.007700 0.000910 0.004103
# 2 -0.006745 0.020562 -0.001382 -0.002502 -0.003733 0.001770
# 3 -0.005137 -0.001382 0.016241 0.000466 -0.002612 -0.003173
# 4 0.007700 -0.002502 0.000466 0.039571 -0.001716 0.000873
# 5 0.000910 -0.003733 -0.002612 -0.001716 0.028336 0.000948
# 6 0.004103 0.001770 -0.003173 0.000873 0.000948 0.033112
#
#
# Mechanical properties :
#
#
# Convention : Reuss Voigt Hill
#
# Bulk Modulus (GPa) = 42.16531 54.94515 48.55523
# Shear Modulus (GPa) = 26.92552 30.95829 28.94190
#
# Velocity S-wave (km/s) = 3.66962 3.93484 3.80454
# Velocity P-wave (km/s) = 6.24841 6.93710 6.60174
#
# Compressibility (1/GPa) = 0.02371618
#
# Stress axis : x y z
#
# Youngs Moduli (GPa) = 74.39680 48.63304 61.57386
#
# Poissons Ratio (x) = 0.32804 0.31632
# Poissons Ratio (y) = 0.50183 0.08506
# Poissons Ratio (z) = 0.38219 0.06719
#
# Static dielectric constant tensor:
#      x y z
#    x 6.114140 0.131190 0.803130 
#    y 0.131190 3.511190 0.289800 
#    z 0.803130 0.289800 3.958640 
# 
# 
# High freq. dielectric constant tensor:
#      x y z
#    x 1.799840 -0.013410 0.010260 
#    y -0.013410 1.755460 0.023980 
#    z 0.010260 0.023980 1.789040 
# 
# From -- ./inp_files/190158.got.cif
#   From: 2010.06.25/outbox.cif.g09.slc.cpg/sg2_96_cif.got.tgz:190158.got - 2010.06.27 13:26:56.
