data_PCOD8011612
_publ_section_title
;
Structure prediction by ZEFSAII (Michael W. Deem and Ramdas Pophale) SiO2 
 PCOD8011612
Probable space group: P -1
;
_chemical_formula_sum "Si O2"
_cell_formula_units_Z 16
_cell_length_a 19.998686
_cell_length_b 8.464549
_cell_length_c 11.467732
_cell_angle_alpha 73.220060
_cell_angle_beta 41.267800
_cell_angle_gamma 45.904984
_cell_volume 799.181999
_symmetry_space_group_name_H-M "P -1"
_symmetry_group_IT_number 2
_symmetry_cell_setting 'triclinic'
loop_
_space_group_symop_operation_xyz
x,y,z
-x,-y,-z
loop_
_atom_site_type_symbol
_atom_site_label
_atom_site_fract_x
_atom_site_fract_y
_atom_site_fract_z
Si Si1 0.471936 0.489937 0.254309
Si Si2 0.648813 0.545737 0.150440
Si Si3 0.076915 0.017599 0.108601
Si Si4 0.119066 0.482130 0.181882
Si Si5 0.779730 0.007943 0.853059
Si Si6 0.135180 0.970100 0.497017
Si Si7 0.403559 0.283459 0.567755
Si Si8 0.066574 0.576483 0.959846
O O1 0.542372 0.568753 0.201952
O O2 0.311557 0.758997 0.357276
O O3 0.452051 0.364742 0.397015
O O4 0.591869 0.269199 0.046982
O O5 0.565645 0.677686 0.353749
O O6 0.713443 0.635511 0.988926
O O7 0.812341 0.259456 0.024739
O O8 0.933086 0.116165 0.346585
O O9 0.040869 0.144808 0.005632
O O10 0.160744 0.038086 0.083760
O O11 0.162055 0.242917 0.212186
O O12 0.062014 0.560853 0.106618
O O13 0.973567 0.738392 0.388980
O O14 0.852581 0.046787 0.656401
O O15 0.234777 0.423833 0.728275
O O16 0.500000 0.000000 0.500000
O O17 0.000000 0.500000 0.000000
#
# Coordination Sequence:
#
# PCOD8011612 Si02
#       8
#     2   2   2   2   2   2   2   2
#     4  11  22  39  59  88 119 158 201 241 293 349
#     4   9  22  37  58  83 120 156 190 240 305 355
#     4  10  21  39  63  88 115 154 199 248 293 353
#     4  10  22  39  62  86 119 157 199 245 299 350
#     4  11  22  42  61  83 123 165 196 240 298 350
#     4  11  23  39  61  91 117 155 207 248 283 348
#     4  11  23  37  58  88 125 156 187 240 304 364
#     4  11  21  37  62  92 118 146 195 246 301 349
#
# _framework density 20.020471000000001
#
# number of rings (size 3 to 8) (size 9 to 14) (size 15 to 20)
#    0.000    1.500    2.500    3.000    3.500    2.500 
#    0.000    0.625    0.000    0.000    0.000    0.000 
#    0.000    0.000    0.000    0.000    0.000    0.000 
#
# Total GULP energy -198220.426512 kJ/mol
# GULP energy per Si atom -12388.776657 kJ/mol
# Density = 1.997490 g / cm^3
# Si number density = 20.020471 Si / 1000 Ang^3
#
#
#
# Elastic Constant Matrix: (Units=GPa)
#
#
# Indices 1 2 3 4 5 6 
#
# 1 60.8126 13.0771 17.8005 1.0689 -6.9200 4.7760
# 2 13.0771 55.2305 16.4966 -8.7513 4.6049 5.8152
# 3 17.8005 16.4966 95.3931 2.3707 9.3239 0.6271
# 4 1.0689 -8.7513 2.3707 27.1487 0.0999 0.5832
# 5 -6.9200 4.6049 9.3239 0.0999 36.2147 -0.4910
# 6 4.7760 5.8152 0.6271 0.5832 -0.4910 27.0643
#
#
#
# Elastic Compliance Matrix: (Units=1/GPa)
#
#
# Indices 1 2 3 4 5 6 
#
# 1 0.019037 -0.003965 -0.003294 -0.001709 0.004963 -0.002304
# 2 -0.003965 0.021779 -0.002907 0.007529 -0.002855 -0.004126
# 3 -0.003294 -0.002907 0.011965 -0.001860 -0.003323 0.000908
# 4 -0.001709 0.007529 -0.001860 0.039540 -0.000943 -0.002142
# 5 0.004963 -0.002855 -0.003323 -0.000943 0.029788 0.000375
# 6 -0.002304 -0.004126 0.000908 -0.002142 0.000375 0.038274
#
#
# Mechanical properties :
#
#
# Convention : Reuss Voigt Hill
#
# Bulk Modulus (GPa) = 30.81913 34.02051 32.41982
# Shear Modulus (GPa) = 26.10523 29.02301 27.56412
#
# Velocity S-wave (km/s) = 3.61491 3.81158 3.71455
# Velocity P-wave (km/s) = 5.73155 6.03329 5.88435
#
# Compressibility (1/GPa) = 0.03244738
#
# Stress axis : x y z
#
# Youngs Moduli (GPa) = 52.53023 45.91627 83.57437
#
# Poissons Ratio (x) = 0.18208 0.27530
# Poissons Ratio (y) = 0.20831 0.24297
# Poissons Ratio (z) = 0.17304 0.13349
#
# Static dielectric constant tensor:
#      x y z
#    x 3.553390 0.096670 -0.035450 
#    y 0.096670 3.675020 0.051910 
#    z -0.035450 0.051910 3.784130 
# 
# 
# High freq. dielectric constant tensor:
#      x y z
#    x 1.773810 0.009450 -0.002780 
#    y 0.009450 1.787160 -0.000960 
#    z -0.002780 -0.000960 1.792170 
# 
# From -- ./inp_files/176098.got.cif
#   From: 2010.06.25/outbox.cif.g09.slc.cpg/sg2_89_cif.got.tgz:176098.got - 2010.06.27 13:26:56.
