data_PCOD8011190
_publ_section_title
;
Structure prediction by ZEFSAII (Michael W. Deem and Ramdas Pophale) SiO2 
 PCOD8011190
Probable space group: P -1
;
_chemical_formula_sum "Si O2"
_cell_formula_units_Z 16
_cell_length_a 20.781631
_cell_length_b 15.666723
_cell_length_c 9.113486
_cell_angle_alpha 127.515554
_cell_angle_beta 52.675445
_cell_angle_gamma 161.655663
_cell_volume 735.942614
_symmetry_space_group_name_H-M "P -1"
_symmetry_group_IT_number 2
_symmetry_cell_setting 'triclinic'
loop_
_space_group_symop_operation_xyz
x,y,z
-x,-y,-z
loop_
_atom_site_type_symbol
_atom_site_label
_atom_site_fract_x
_atom_site_fract_y
_atom_site_fract_z
Si Si1 0.074196 0.207505 0.657749
Si Si2 0.606500 0.431836 0.156645
Si Si3 0.375709 0.702173 0.584866
Si Si4 0.562564 0.865479 0.198186
Si Si5 0.274683 0.169422 0.058349
Si Si6 0.711308 0.991632 0.610708
Si Si7 0.113700 0.584429 0.796231
Si Si8 0.324682 0.266711 0.785137
O O1 0.234274 0.412353 0.781942
O O2 0.176105 0.383265 0.557278
O O3 0.000000 0.000000 0.500000
O O4 0.886174 0.045900 0.813826
O O5 0.384571 0.163960 0.264214
O O6 0.688242 0.647329 0.214052
O O7 0.583569 0.318702 0.936927
O O8 0.434314 0.763622 0.398322
O O9 0.568216 0.905848 0.636464
O O10 0.292893 0.721801 0.748221
O O11 0.772448 0.186989 0.218848
O O12 0.619634 0.814256 0.108711
O O13 0.440538 0.457377 0.193245
O O14 0.186382 0.108549 0.961319
O O15 0.740033 0.920274 0.401112
O O16 0.939824 0.317031 0.656005
O O17 0.000000 0.500000 0.000000
#
# Coordination Sequence:
#
# PCOD8011190 Si02
#       8
#     2   2   2   2   2   2   2   2
#     4  11  25  40  63 104 136 178 226 271 337 408
#     4  10  23  39  69  94 143 174 216 278 338 402
#     4  11  26  46  69 100 138 174 226 288 332 401
#     4  11  23  48  66  98 134 177 227 280 340 390
#     4  10  21  41  68  96 140 177 212 275 342 401
#     4  11  23  45  67 107 131 180 225 277 341 401
#     4  12  26  46  73  97 132 181 234 282 334 404
#     4  10  21  38  69  98 136 175 215 273 337 402
#
# _framework density 21.740825999999998
#
# number of rings (size 3 to 8) (size 9 to 14) (size 15 to 20)
#    0.000    1.250    2.500    3.000    7.000    2.500 
#    2.250    0.000    0.000    0.000    0.000    0.000 
#    0.000    0.000    0.000    0.000    0.000    0.000 
#
# Total GULP energy -198315.254349 kJ/mol
# GULP energy per Si atom -12394.703397 kJ/mol
# Density = 2.169134 g / cm^3
# Si number density = 21.740826 Si / 1000 Ang^3
#
#
#
# Elastic Constant Matrix: (Units=GPa)
#
#
# Indices 1 2 3 4 5 6 
#
# 1 56.2060 28.8618 34.2581 3.9829 3.0516 -4.7146
# 2 28.8618 130.2320 63.5134 2.9544 5.9550 -17.1649
# 3 34.2581 63.5134 133.8759 -7.2286 7.2371 -4.4298
# 4 3.9829 2.9544 -7.2286 48.0003 -2.3362 5.5684
# 5 3.0516 5.9550 7.2371 -2.3362 33.6455 -5.2880
# 6 -4.7146 -17.1649 -4.4298 5.5684 -5.2880 28.1890
#
#
#
# Elastic Compliance Matrix: (Units=1/GPa)
#
#
# Indices 1 2 3 4 5 6 
#
# 1 0.022184 -0.002311 -0.004631 -0.002652 -0.000475 0.002010
# 2 -0.002311 0.011330 -0.004687 -0.001924 0.000048 0.006165
# 3 -0.004631 -0.004687 0.011002 0.002572 -0.001357 -0.002662
# 4 -0.002652 -0.001924 0.002572 0.022228 0.000712 -0.005469
# 5 -0.000475 0.000048 -0.001357 0.000712 0.030946 0.005401
# 6 0.002010 0.006165 -0.002662 -0.005469 0.005401 0.041240
#
#
# Mechanical properties :
#
#
# Convention : Reuss Voigt Hill
#
# Bulk Modulus (GPa) = 47.03916 63.73116 55.38516
# Shear Modulus (GPa) = 29.53778 34.87901 32.20839
#
# Velocity S-wave (km/s) = 3.68996 4.00973 3.85316
# Velocity P-wave (km/s) = 6.31171 7.12846 6.73248
#
# Compressibility (1/GPa) = 0.02125888
#
# Stress axis : x y z
#
# Youngs Moduli (GPa) = 45.07854 88.25816 90.89015
#
# Poissons Ratio (x) = 0.20394 0.42095
# Poissons Ratio (y) = 0.10416 0.42596
# Poissons Ratio (z) = 0.20878 0.41362
#
# Static dielectric constant tensor:
#      x y z
#    x 3.955750 -0.221380 0.263690 
#    y -0.221380 4.227440 -0.149140 
#    z 0.263690 -0.149140 4.028890 
# 
# 
# High freq. dielectric constant tensor:
#      x y z
#    x 1.845470 -0.015330 0.013800 
#    y -0.015330 1.861440 -0.005030 
#    z 0.013800 -0.005030 1.859570 
# 
# From -- ./inp_files/208550.got.cif
#   From: 2010.06.25/outbox.cif.g09.slc.cpg/sg2_105_cif.got.tgz:208550.got - 2010.06.27 13:26:56.
