data_PCOD8011704
_publ_section_title
;
Structure prediction by ZEFSAII (Michael W. Deem and Ramdas Pophale) SiO2 
 PCOD8011704
Probable space group: P -1
;
_chemical_formula_sum "Si O2"
_cell_formula_units_Z 16
_cell_length_a 9.828797
_cell_length_b 11.944284
_cell_length_c 18.310200
_cell_angle_alpha 27.061048
_cell_angle_beta 54.911916
_cell_angle_gamma 54.352521
_cell_volume 785.564773
_symmetry_space_group_name_H-M "P -1"
_symmetry_group_IT_number 2
_symmetry_cell_setting 'triclinic'
loop_
_space_group_symop_operation_xyz
x,y,z
-x,-y,-z
loop_
_atom_site_type_symbol
_atom_site_label
_atom_site_fract_x
_atom_site_fract_y
_atom_site_fract_z
Si Si1 0.706925 0.734862 0.616333
Si Si2 0.697474 0.688664 0.165703
Si Si3 0.684915 0.526141 0.901322
Si Si4 0.342901 0.712694 0.695079
Si Si5 0.350918 0.917795 0.175912
Si Si6 0.187015 0.375823 0.043073
Si Si7 0.979601 0.119559 0.014153
Si Si8 0.112188 0.638843 0.334886
O O1 0.678855 0.703858 0.729495
O O2 0.538611 0.730096 0.625063
O O3 0.843849 0.514830 0.665003
O O4 0.764496 0.003058 0.431938
O O5 0.699377 0.408368 0.298436
O O6 0.545498 0.787913 0.213476
O O7 0.648401 0.873771 0.006183
O O8 0.884424 0.695494 0.133106
O O9 0.795490 0.617193 0.879083
O O10 0.500000 0.500000 0.000000
O O11 0.786562 0.255876 0.003072
O O12 0.309675 0.545556 0.871475
O O13 0.244404 0.077817 0.180890
O O14 0.272039 0.684009 0.307028
O O15 0.000000 0.500000 0.000000
O O16 0.010267 0.914169 0.187475
O O17 0.000000 0.000000 0.000000
O O18 0.000000 0.500000 0.500000
#
# Coordination Sequence:
#
# PCOD8011704 Si02
#       8
#     2   2   2   2   2   2   2   2
#     4  11  23  40  64  97 131 171 214 272 331 391
#     4   9  18  37  63  88 121 168 217 265 311 391
#     4  12  25  42  65  99 133 171 216 269 334 393
#     4  10  21  39  63  93 128 170 217 266 328 387
#     4   9  19  35  65  88 117 167 215 262 317 379
#     4  11  23  40  64  95 129 170 224 268 320 393
#     4  11  24  41  65  94 127 169 221 271 328 384
#     4  11  23  40  66  96 127 165 221 269 327 383
#
# _framework density 20.367512999999999
#
# number of rings (size 3 to 8) (size 9 to 14) (size 15 to 20)
#    0.000    1.500    3.750    2.250    7.000    0.000 
#    0.000    3.750    0.000    1.500    0.000    0.000 
#    0.000    0.000    0.000    0.000    0.000    0.000 
#
# Total GULP energy -198292.977671 kJ/mol
# GULP energy per Si atom -12393.311104 kJ/mol
# Density = 2.032116 g / cm^3
# Si number density = 20.367513 Si / 1000 Ang^3
#
#
#
# Elastic Constant Matrix: (Units=GPa)
#
#
# Indices 1 2 3 4 5 6 
#
# 1 96.2275 48.3383 28.8124 -5.4311 -9.3189 4.2545
# 2 48.3383 143.4095 34.9589 -10.2689 -9.4279 4.6215
# 3 28.8124 34.9589 83.0883 -8.6011 -14.8237 7.5110
# 4 -5.4311 -10.2689 -8.6011 32.6459 6.8210 0.1720
# 5 -9.3189 -9.4279 -14.8237 6.8210 23.8391 0.8650
# 6 4.2545 4.6215 7.5110 0.1720 0.8650 41.9377
#
#
#
# Elastic Compliance Matrix: (Units=1/GPa)
#
#
# Indices 1 2 3 4 5 6 
#
# 1 0.013250 -0.003674 -0.002631 -0.000088 0.002134 -0.000512
# 2 -0.003674 0.008892 -0.002243 0.001543 0.000252 -0.000217
# 3 -0.002631 -0.002243 0.015590 0.001418 0.007461 -0.002438
# 4 -0.000088 0.001543 0.001418 0.033153 -0.008014 -0.000386
# 5 0.002134 0.000252 0.007461 -0.008014 0.049908 -0.002577
# 6 -0.000512 -0.000217 -0.002438 -0.000386 -0.002577 0.024412
#
#
# Mechanical properties :
#
#
# Convention : Reuss Voigt Hill
#
# Bulk Modulus (GPa) = 48.45917 60.77160 54.61539
# Shear Modulus (GPa) = 29.55451 33.72560 31.64005
#
# Velocity S-wave (km/s) = 3.81341 4.07363 3.94567
# Velocity P-wave (km/s) = 6.57522 7.21306 6.90151
#
# Compressibility (1/GPa) = 0.02063593
#
# Stress axis : x y z
#
# Youngs Moduli (GPa) = 75.47300 112.45650 64.14502
#
# Poissons Ratio (x) = 0.41319 0.16875
# Poissons Ratio (y) = 0.27730 0.14387
# Poissons Ratio (z) = 0.19855 0.25223
#
# Static dielectric constant tensor:
#      x y z
#    x 3.420640 0.410190 -0.405580 
#    y 0.410190 3.589390 -0.023080 
#    z -0.405580 -0.023080 3.573930 
# 
# 
# High freq. dielectric constant tensor:
#      x y z
#    x 1.789560 -0.001880 -0.015500 
#    y -0.001880 1.811990 -0.013650 
#    z -0.015500 -0.013650 1.765920 
# 
# From -- ./inp_files/558820.got.cif
#   From: 2010.06.25/outbox.cif.g09.slc.cpg/sg2_280_cif.got.tgz:558820.got - 2010.06.27 13:26:56.
