data_PCOD8011492
_publ_section_title
;
Structure prediction by ZEFSAII (Michael W. Deem and Ramdas Pophale) SiO2 
 PCOD8011492
Probable space group: P -1
;
_chemical_formula_sum "Si O2"
_cell_formula_units_Z 16
_cell_length_a 8.191103
_cell_length_b 16.715033
_cell_length_c 9.751754
_cell_angle_alpha 110.727541
_cell_angle_beta 113.264200
_cell_angle_gamma 123.094907
_cell_volume 691.104003
_symmetry_space_group_name_H-M "P -1"
_symmetry_group_IT_number 2
_symmetry_cell_setting 'triclinic'
loop_
_space_group_symop_operation_xyz
x,y,z
-x,-y,-z
loop_
_atom_site_type_symbol
_atom_site_label
_atom_site_fract_x
_atom_site_fract_y
_atom_site_fract_z
Si Si1 0.499787 0.204195 0.009941
Si Si2 0.847470 0.946121 0.706815
Si Si3 0.500633 0.109505 0.667073
Si Si4 0.615736 0.006521 0.825491
Si Si5 0.879871 0.215490 0.263350
Si Si6 0.880339 0.608518 0.061778
Si Si7 0.476469 0.372751 0.982215
Si Si8 0.390875 0.323062 0.621040
O O1 0.475308 0.147848 0.824209
O O2 0.552786 0.324704 0.079705
O O3 0.776284 0.272448 0.229137
O O4 0.198242 0.067573 0.909683
O O5 0.789818 0.981576 0.572894
O O6 0.675609 0.789783 0.550283
O O7 0.727826 0.953426 0.802047
O O8 0.545922 0.026264 0.667144
O O9 0.770994 0.253774 0.756144
O O10 0.322159 0.899854 0.753043
O O11 0.864900 0.152985 0.081652
O O12 0.210227 0.333273 0.501266
O O13 0.782432 0.539027 0.140459
O O14 0.735337 0.485952 0.827924
O O15 0.737709 0.647256 0.015654
O O16 0.310722 0.278906 0.729451
#
# Coordination Sequence:
#
# PCOD8011492 Si02
#       8
#     2   2   2   2   2   2   2   2
#     4  11  23  39  59  92 126 157 197 251 301 355
#     4  12  23  34  63  94 119 158 204 247 303 358
#     4  11  21  37  61  93 124 155 200 255 300 346
#     4  10  23  38  60  91 126 157 197 244 308 362
#     4  10  23  42  60  86 130 161 189 246 309 363
#     4   9  21  39  62  90 119 158 203 252 296 346
#     4   9  20  39  65  85 124 152 207 253 293 347
#     4  10  21  39  62  87 120 160 200 243 300 349
#
# _framework density 23.151364999999998
#
# number of rings (size 3 to 8) (size 9 to 14) (size 15 to 20)
#    0.750    1.000    1.250    3.750    3.500    4.000 
#    0.000    3.125    0.000    1.500    0.000    2.625 
#    0.000    0.000    0.000    0.000    0.000    0.000 
#
# Total GULP energy -198304.441390 kJ/mol
# GULP energy per Si atom -12394.027587 kJ/mol
# Density = 2.309867 g / cm^3
# Si number density = 23.151365 Si / 1000 Ang^3
#
#
#
# Elastic Constant Matrix: (Units=GPa)
#
#
# Indices 1 2 3 4 5 6 
#
# 1 106.1927 29.9862 15.8550 3.8294 -3.7347 -19.4714
# 2 29.9862 58.9694 23.1097 -5.4158 3.3157 -24.1729
# 3 15.8550 23.1097 43.9797 -10.1998 14.5264 -5.1544
# 4 3.8294 -5.4158 -10.1998 26.2359 -6.0484 -0.6506
# 5 -3.7347 3.3157 14.5264 -6.0484 28.4160 -2.0833
# 6 -19.4714 -24.1729 -5.1544 -0.6506 -2.0833 41.1450
#
#
#
# Elastic Compliance Matrix: (Units=1/GPa)
#
#
# Indices 1 2 3 4 5 6 
#
# 1 0.011842 -0.003761 -0.003815 -0.003104 0.003508 0.003045
# 2 -0.003761 0.030184 -0.013667 0.002899 0.004652 0.014523
# 3 -0.003815 -0.013667 0.038229 0.008522 -0.017059 -0.005775
# 4 -0.003104 0.002899 0.008522 0.043532 0.004325 0.002209
# 5 0.003508 0.004652 -0.017059 0.004325 0.045089 0.004608
# 6 0.003045 0.014523 -0.005775 0.002209 0.004608 0.033823
#
#
# Mechanical properties :
#
#
# Convention : Reuss Voigt Hill
#
# Bulk Modulus (GPa) = 26.47598 38.56041 32.51820
# Shear Modulus (GPa) = 19.39691 28.50545 23.95118
#
# Velocity S-wave (km/s) = 2.89767 3.51274 3.21993
# Velocity P-wave (km/s) = 4.75985 5.75712 5.28207
#
# Compressibility (1/GPa) = 0.03777008
#
# Stress axis : x y z
#
# Youngs Moduli (GPa) = 84.44534 33.12978 26.15847
#
# Poissons Ratio (x) = 0.12459 0.09978
# Poissons Ratio (y) = 0.31758 0.35751
# Poissons Ratio (z) = 0.32212 0.45279
#
# Static dielectric constant tensor:
#      x y z
#    x 4.223640 -0.259380 0.071160 
#    y -0.259380 4.002010 -0.163270 
#    z 0.071160 -0.163270 3.977100 
# 
# 
# High freq. dielectric constant tensor:
#      x y z
#    x 1.924230 -0.016610 0.001920 
#    y -0.016610 1.890930 -0.011640 
#    z 0.001920 -0.011640 1.893480 
# 
# From -- ./inp_files/217892.got.cif
#   From: 2010.06.25/outbox.cif.g09.slc.cpg/sg2_109_cif.got.tgz:217892.got - 2010.06.27 13:26:56.
