data_PCOD8011432
_publ_section_title
;
Structure prediction by ZEFSAII (Michael W. Deem and Ramdas Pophale) SiO2 
 PCOD8011432
Probable space group: P -1
;
_chemical_formula_sum "Si O2"
_cell_formula_units_Z 12
_cell_length_a 5.074319
_cell_length_b 25.368529
_cell_length_c 20.377368
_cell_angle_alpha 167.074638
_cell_angle_beta 61.132777
_cell_angle_gamma 119.377103
_cell_volume 511.151851
_symmetry_space_group_name_H-M "P -1"
_symmetry_group_IT_number 2
_symmetry_cell_setting 'triclinic'
loop_
_space_group_symop_operation_xyz
x,y,z
-x,-y,-z
loop_
_atom_site_type_symbol
_atom_site_label
_atom_site_fract_x
_atom_site_fract_y
_atom_site_fract_z
Si Si1 0.187931 0.459196 0.248562
Si Si2 0.767029 0.706975 0.153241
Si Si3 0.448225 0.862977 0.256975
Si Si4 0.265343 0.943514 0.145198
Si Si5 0.266558 0.755516 0.467557
Si Si6 0.332215 0.928650 0.867403
O O1 0.151853 0.601975 0.358828
O O2 0.316215 0.645185 0.514267
O O3 0.425101 0.259804 0.971497
O O4 0.866956 0.322983 0.143629
O O5 0.699901 0.841614 0.256882
O O6 0.123689 0.726824 0.149859
O O7 0.593174 0.856728 0.410341
O O8 0.650169 0.429176 0.823710
O O9 0.437713 0.067308 0.337306
O O10 0.498347 0.927322 0.037904
O O11 0.004492 0.102453 0.349562
O O12 0.500000 0.000000 0.000000
O O13 0.000000 0.000000 0.000000
#
# Coordination Sequence:
#
# PCOD8011432 Si02
#       6
#     2   2   2   2   2   2
#     4  10  23  42  64  88 123 156 196 249 297 352
#     4   9  16  32  55  84 121 157 197 238 278 337
#     4   9  18  31  57  86 113 160 198 231 293 341
#     4  11  24  40  64  91 118 158 198 239 302 356
#     4  10  21  39  61  90 125 160 197 240 287 346
#     4  11  24  42  63  88 116 151 196 246 302 361
#
# _framework density 23.476388
#
# number of rings (size 3 to 8) (size 9 to 14) (size 15 to 20)
#    0.000    2.000    0.000    5.000    0.000    9.333 
#    0.000    1.667    0.000    0.000    0.000    0.000 
#    0.000    0.000    0.000    0.000    0.000    0.000 
#
# Total GULP energy -148721.081975 kJ/mol
# GULP energy per Si atom -12393.423498 kJ/mol
# Density = 2.342296 g / cm^3
# Si number density = 23.476388 Si / 1000 Ang^3
#
#
#
# Elastic Constant Matrix: (Units=GPa)
#
#
# Indices 1 2 3 4 5 6 
#
# 1 134.8477 10.3565 50.8212 -11.5639 6.4411 10.7864
# 2 10.3565 22.8884 70.1519 12.8163 -1.7940 24.6802
# 3 50.8212 70.1519 144.8105 -27.0439 32.1170 7.7725
# 4 -11.5639 12.8163 -27.0439 43.6866 6.1700 3.5613
# 5 6.4411 -1.7940 32.1170 6.1700 44.2632 -2.3319
# 6 10.7864 24.6802 7.7725 3.5613 -2.3319 26.8857
#
#
#
# Elastic Compliance Matrix: (Units=1/GPa)
#
#
# Indices 1 2 3 4 5 6 
#
# 1 0.008237 -0.003011 -0.000500 0.003031 -0.001429 -0.000922
# 2 -0.003011 -0.017057 0.013945 0.013684 -0.011752 0.010003
# 3 -0.000500 0.013945 0.000404 -0.002986 0.000112 -0.012312
# 4 0.003031 0.013684 -0.002986 0.019273 -0.001227 -0.015574
# 5 -0.001429 -0.011752 0.000112 -0.001227 0.023124 0.013497
# 6 -0.000922 0.010003 -0.012312 -0.015574 0.013497 0.035175
#
#
# Mechanical properties :
#
#
# Convention : Reuss Voigt Hill
#
# Bulk Modulus (GPa) = 80.30409 62.80065 71.55237
# Shear Modulus (GPa) = 95.35009 34.38156 64.86583
#
# Velocity S-wave (km/s) = 6.37993 3.83105 5.26215
# Velocity P-wave (km/s) = 9.41020 6.81013 8.21370
#
# Compressibility (1/GPa) = 0.01245267
#
# Stress axis : x y z
#
# Youngs Moduli (GPa) = 121.39877 -58.62597 2476.62503
#
# Poissons Ratio (x) = -0.17651 1.23765
# Poissons Ratio (y) = 0.36551 -34.53652
# Poissons Ratio (z) = 0.06067 0.81754
#
# Static dielectric constant tensor:
#      x y z
#    x 4.221920 0.159890 0.255710 
#    y 0.159890 4.148640 -0.292740 
#    z 0.255710 -0.292740 4.969320 
# 
# 
# High freq. dielectric constant tensor:
#      x y z
#    x 1.937020 0.006170 0.009130 
#    y 0.006170 1.901720 -0.011190 
#    z 0.009130 -0.011190 1.946670 
# 
# From -- ./inp_files/55064.got.cif
#   From: 2010.06.25/outbox.cif.g09.slc.cpg/sg2_28_cif.got.tgz:55064.got - 2010.06.27 13:26:56.
