data_PCOD8011562
_publ_section_title
;
Structure prediction by ZEFSAII (Michael W. Deem and Ramdas Pophale) SiO2 
 PCOD8011562
Probable space group: P -1
;
_chemical_formula_sum "Si O2"
_cell_formula_units_Z 16
_cell_length_a 17.545497
_cell_length_b 14.005088
_cell_length_c 24.754421
_cell_angle_alpha 21.900326
_cell_angle_beta 159.256239
_cell_angle_gamma 160.709140
_cell_volume 656.594067
_symmetry_space_group_name_H-M "P -1"
_symmetry_group_IT_number 2
_symmetry_cell_setting 'triclinic'
loop_
_space_group_symop_operation_xyz
x,y,z
-x,-y,-z
loop_
_atom_site_type_symbol
_atom_site_label
_atom_site_fract_x
_atom_site_fract_y
_atom_site_fract_z
Si Si1 0.582587 0.881514 0.480433
Si Si2 0.863271 0.655892 0.114146
Si Si3 0.937602 0.236203 0.312969
Si Si4 0.364640 0.809508 0.105257
Si Si5 0.155606 0.314439 0.309393
Si Si6 0.648906 0.611937 0.332092
Si Si7 0.849680 0.790559 0.264619
Si Si8 0.328462 0.501660 0.814707
O O1 0.587637 0.681520 0.538654
O O2 0.355638 0.638822 0.499656
O O3 0.530098 0.125258 0.293791
O O4 0.852716 0.055458 0.602010
O O5 0.992699 0.489236 0.262039
O O6 0.877506 0.648431 0.192985
O O7 0.555080 0.448291 0.002531
O O8 0.000000 0.000000 0.000000
O O9 0.151481 0.433573 0.303627
O O10 0.639695 0.055830 0.188618
O O11 0.000000 0.000000 0.500000
O O12 0.149403 0.545729 0.142258
O O13 0.409340 0.638662 0.175316
O O14 0.228155 0.966300 0.909493
O O15 0.916480 0.952335 0.337706
O O16 0.649073 0.519927 0.317546
O O17 0.824045 0.663058 0.254817
#
# Coordination Sequence:
#
# PCOD8011562 Si02
#       8
#     2   2   2   2   2   2   2   2
#     4  10  22  40  65  97 131 171 205 265 320 385
#     4  11  27  45  68  93 128 176 219 276 323 378
#     4  11  23  41  66  94 123 167 224 270 322 381
#     4  10  21  39  62  92 131 164 206 264 324 383
#     4   9  21  38  65  92 128 163 208 266 320 379
#     4   9  21  38  60  97 130 164 208 257 320 384
#     4  11  22  38  64  93 132 170 212 257 320 389
#     4  11  25  45  63  91 132 168 222 261 319 387
#
# _framework density 24.368176999999999
#
# number of rings (size 3 to 8) (size 9 to 14) (size 15 to 20)
#    0.000    1.750    1.250    1.500    1.750   13.500 
#    0.000    0.000    0.000    0.000    0.000    0.000 
#    0.000    0.000    0.000    0.000    0.000    0.000 
#
# Total GULP energy -198287.031866 kJ/mol
# GULP energy per Si atom -12392.939492 kJ/mol
# Density = 2.431271 g / cm^3
# Si number density = 24.368177 Si / 1000 Ang^3
#
#
#
# Elastic Constant Matrix: (Units=GPa)
#
#
# Indices 1 2 3 4 5 6 
#
# 1 236.9201 52.4332 42.0700 -21.0274 1.0948 23.9408
# 2 52.4332 57.3475 8.3597 -19.1651 -13.7173 13.0501
# 3 42.0700 8.3597 94.1803 -19.3716 -0.0523 8.8577
# 4 -21.0274 -19.1651 -19.3716 41.5448 1.5221 -15.5063
# 5 1.0948 -13.7173 -0.0523 1.5221 33.4167 -16.0883
# 6 23.9408 13.0501 8.8577 -15.5063 -16.0883 43.3076
#
#
#
# Elastic Compliance Matrix: (Units=1/GPa)
#
#
# Indices 1 2 3 4 5 6 
#
# 1 0.006197 -0.006231 -0.002293 -0.001902 -0.004293 -0.003355
# 2 -0.006231 0.029292 0.002390 0.012286 0.013352 0.003488
# 3 -0.002293 0.002390 0.012612 0.005968 0.001041 0.000491
# 4 -0.001902 0.012286 0.005968 0.035877 0.009501 0.012504
# 5 -0.004293 0.013352 0.001041 0.009501 0.043666 0.017760
# 6 -0.003355 0.003488 0.000491 0.012504 0.017760 0.034868
#
#
# Mechanical properties :
#
#
# Convention : Reuss Voigt Hill
#
# Bulk Modulus (GPa) = 27.90778 66.01931 46.96354
# Shear Modulus (GPa) = 26.77745 42.69284 34.73514
#
# Velocity S-wave (km/s) = 3.31852 4.19022 3.77958
# Velocity P-wave (km/s) = 5.11476 7.11068 6.19365
#
# Compressibility (1/GPa) = 0.03583230
#
# Stress axis : x y z
#
# Youngs Moduli (GPa) = 161.36838 34.13934 79.28944
#
# Poissons Ratio (x) = 0.21271 0.18182
# Poissons Ratio (y) = 1.00543 -0.18947
# Poissons Ratio (z) = 0.37005 -0.08158
#
# Static dielectric constant tensor:
#      x y z
#    x 5.498500 0.408480 0.082380 
#    y 0.408480 4.232580 -0.079180 
#    z 0.082380 -0.079180 4.405000 
# 
# 
# High freq. dielectric constant tensor:
#      x y z
#    x 1.985840 0.019340 -0.001680 
#    y 0.019340 1.949750 -0.002130 
#    z -0.001680 -0.002130 1.969510 
# 
# From -- ./inp_files/109760.got.cif
#   From: 2010.06.25/outbox.cif.g09.slc.cpg/sg2_55_cif.got.tgz:109760.got - 2010.06.27 13:26:56.
