data_PCOD8011920
_publ_section_title
;
Structure prediction by ZEFSAII (Michael W. Deem and Ramdas Pophale) SiO2 
 PCOD8011920
Probable space group: P -1
;
_chemical_formula_sum "Si O2"
_cell_formula_units_Z 14
_cell_length_a 12.072727
_cell_length_b 10.665564
_cell_length_c 10.586114
_cell_angle_alpha 68.048166
_cell_angle_beta 147.106072
_cell_angle_gamma 122.662186
_cell_volume 613.760554
_symmetry_space_group_name_H-M "P -1"
_symmetry_group_IT_number 2
_symmetry_cell_setting 'triclinic'
loop_
_space_group_symop_operation_xyz
x,y,z
-x,-y,-z
loop_
_atom_site_type_symbol
_atom_site_label
_atom_site_fract_x
_atom_site_fract_y
_atom_site_fract_z
Si Si1 0.665733 0.447761 0.044898
Si Si2 0.960979 0.752352 0.329152
Si Si3 0.098972 0.396959 0.421997
Si Si4 0.857101 0.969412 0.001406
Si Si5 0.650574 0.457626 0.753927
Si Si6 0.603942 0.297013 0.293393
Si Si7 0.073619 0.709654 0.973161
O O1 0.743361 0.619961 0.098826
O O2 0.528784 0.329535 0.069129
O O3 0.891010 0.432030 0.238675
O O4 0.527496 0.413877 0.790979
O O5 0.914778 0.730393 0.443410
O O6 0.191227 0.747099 0.509867
O O7 0.978214 0.913862 0.245081
O O8 0.326283 0.553364 0.609649
O O9 0.078901 0.336243 0.283656
O O10 0.600223 0.841690 0.780570
O O11 0.840942 0.116735 0.979623
O O12 0.000000 0.000000 0.000000
O O13 0.500000 0.500000 0.500000
O O14 0.899504 0.603809 0.953995
O O15 0.702912 0.320991 0.805316
#
# Coordination Sequence:
#
# PCOD8011920 Si02
#       7
#     2   2   2   2   2   2   2
#     4   8  16  37  64  92 116 149 210 260 291 357
#     4   9  19  38  63  89 119 156 202 252 306 363
#     4   8  17  38  66  90 115 155 206 255 299 354
#     4  12  26  39  55  88 130 167 204 247 300 365
#     4  10  21  39  65  89 117 161 204 246 306 368
#     4   9  20  40  66  87 116 160 204 257 307 350
#     4  10  23  40  58  90 129 156 198 258 298 352
#
# _framework density 22.810198
#
# number of rings (size 3 to 8) (size 9 to 14) (size 15 to 20)
#    0.000    2.571    0.000    2.571    0.000    9.143 
#    0.000    6.429    0.000    0.000    0.000    0.000 
#    0.000    0.000    0.000    0.000    0.000    0.000 
#
# Total GULP energy -173548.027070 kJ/mol
# GULP energy per Si atom -12396.287648 kJ/mol
# Density = 2.275828 g / cm^3
# Si number density = 22.810198 Si / 1000 Ang^3
#
#
#
# Elastic Constant Matrix: (Units=GPa)
#
#
# Indices 1 2 3 4 5 6 
#
# 1 101.5674 67.0706 43.8863 5.1549 -2.1063 1.0592
# 2 67.0706 166.5111 44.5185 -16.4251 -0.3554 -0.9388
# 3 43.8863 44.5185 111.7875 -17.5091 -17.6150 -1.6282
# 4 5.1549 -16.4251 -17.5091 39.8655 3.0462 10.8930
# 5 -2.1063 -0.3554 -17.6150 3.0462 30.5093 -2.4503
# 6 1.0592 -0.9388 -1.6282 10.8930 -2.4503 32.1221
#
#
#
# Elastic Compliance Matrix: (Units=1/GPa)
#
#
# Indices 1 2 3 4 5 6 
#
# 1 0.016364 -0.005853 -0.005390 -0.007171 -0.001226 0.001354
# 2 -0.005853 0.009018 -0.000806 0.004555 -0.001318 -0.001230
# 3 -0.005390 -0.000806 0.013350 0.005898 0.006685 -0.000659
# 4 -0.007171 0.004555 0.005898 0.033524 -0.001251 -0.010795
# 5 -0.001226 -0.001318 0.006685 -0.001251 0.036949 0.003584
# 6 0.001354 -0.001230 -0.000659 -0.010795 0.003584 0.034951
#
#
# Mechanical properties :
#
#
# Convention : Reuss Voigt Hill
#
# Bulk Modulus (GPa) = 68.32996 76.75743 72.54369
# Shear Modulus (GPa) = 28.87969 35.45875 32.16922
#
# Velocity S-wave (km/s) = 3.56207 3.94701 3.75947
# Velocity P-wave (km/s) = 6.85118 7.38210 7.12159
#
# Compressibility (1/GPa) = 0.01463487
#
# Stress axis : x y z
#
# Youngs Moduli (GPa) = 61.10989 110.88833 74.90634
#
# Poissons Ratio (x) = 0.64899 0.40375
# Poissons Ratio (y) = 0.35766 0.06036
# Poissons Ratio (z) = 0.32939 0.08935
#
# Static dielectric constant tensor:
#      x y z
#    x 5.168440 0.247380 -0.703280 
#    y 0.247380 3.927880 -0.437640 
#    z -0.703280 -0.437640 4.920530 
# 
# 
# High freq. dielectric constant tensor:
#      x y z
#    x 1.923950 0.006900 0.019990 
#    y 0.006900 1.869740 -0.034840 
#    z 0.019990 -0.034840 1.908980 
# 
# From -- ./inp_files/451296.got.cif
#   From: 2010.06.25/outbox.cif.g09.slc.cpg/sg2_226_cif.got.tgz:451296.got - 2010.06.27 13:26:56.
