data_PCOD8011926
_publ_section_title
;
Structure prediction by ZEFSAII (Michael W. Deem and Ramdas Pophale) SiO2 
 PCOD8011926
Probable space group: P -1
;
_chemical_formula_sum "Si O2"
_cell_formula_units_Z 16
_cell_length_a 10.898286
_cell_length_b 6.726077
_cell_length_c 16.109808
_cell_angle_alpha 42.357494
_cell_angle_beta 66.401414
_cell_angle_gamma 79.753371
_cell_volume 715.669492
_symmetry_space_group_name_H-M "P -1"
_symmetry_group_IT_number 2
_symmetry_cell_setting 'triclinic'
loop_
_space_group_symop_operation_xyz
x,y,z
-x,-y,-z
loop_
_atom_site_type_symbol
_atom_site_label
_atom_site_fract_x
_atom_site_fract_y
_atom_site_fract_z
Si Si1 0.875242 0.602033 0.243374
Si Si2 0.183996 0.799124 0.948953
Si Si3 0.740925 0.270537 0.232598
Si Si4 0.692597 0.188948 0.830261
Si Si5 0.142891 0.730392 0.397840
Si Si6 0.125592 0.375615 0.247507
Si Si7 0.397848 0.211715 0.871112
Si Si8 0.337237 0.419177 0.552368
O O1 0.859931 0.411075 0.220928
O O2 0.736887 0.543285 0.352422
O O3 0.996959 0.482031 0.295325
O O4 0.919377 0.962697 0.103489
O O5 0.205622 0.661235 0.896336
O O6 0.323701 0.006363 0.880601
O O7 0.131176 0.520951 0.109178
O O8 0.617810 0.442105 0.234052
O O9 0.693690 0.918586 0.369640
O O10 0.805757 0.153433 0.743029
O O11 0.739296 0.490401 0.778756
O O12 0.554811 0.213157 0.813366
O O13 0.663783 0.905417 0.986786
O O14 0.268277 0.610190 0.445022
O O15 0.000000 0.500000 0.500000
O O16 0.109114 0.019404 0.364739
O O17 0.500000 0.500000 0.500000
#
# Coordination Sequence:
#
# PCOD8011926 Si02
#       8
#     2   2   2   2   2   2   2   2
#     4  10  22  41  64  93 129 165 215 265 318 389
#     4   9  20  38  66 100 129 158 210 270 324 386
#     4  10  21  39  65  89 127 169 206 266 323 376
#     4  10  23  40  66  95 128 164 211 269 325 386
#     4  12  27  44  64  94 135 177 221 266 316 387
#     4  11  23  41  66  95 129 175 208 261 329 383
#     4   9  20  40  65  99 126 158 211 270 330 383
#     4  11  27  43  62  92 128 172 225 270 309 379
#
# _framework density 22.356691000000001
#
# number of rings (size 3 to 8) (size 9 to 14) (size 15 to 20)
#    0.000    1.750    0.000    2.625    7.000    5.000 
#    0.000    3.750    0.000    0.000    0.000    0.000 
#    0.000    0.000    0.000    0.000    0.000    0.000 
#
# Total GULP energy -198297.876477 kJ/mol
# GULP energy per Si atom -12393.617280 kJ/mol
# Density = 2.230581 g / cm^3
# Si number density = 22.356691 Si / 1000 Ang^3
#
#
#
# Elastic Constant Matrix: (Units=GPa)
#
#
# Indices 1 2 3 4 5 6 
#
# 1 110.9439 36.8002 37.6034 -7.9430 0.5572 -2.1783
# 2 36.8002 106.8438 25.2957 -14.2542 -1.2547 1.3955
# 3 37.6034 25.2957 70.7731 -6.4200 -4.0262 -9.6956
# 4 -7.9430 -14.2542 -6.4200 45.7101 -7.9542 3.9261
# 5 0.5572 -1.2547 -4.0262 -7.9542 32.8092 1.8272
# 6 -2.1783 1.3955 -9.6956 3.9261 1.8272 20.9285
#
#
#
# Elastic Compliance Matrix: (Units=1/GPa)
#
#
# Indices 1 2 3 4 5 6 
#
# 1 0.011768 -0.002706 -0.005450 0.000390 -0.000815 -0.001122
# 2 -0.002706 0.011402 -0.002698 0.003150 0.001080 -0.002977
# 3 -0.005450 -0.002698 0.019289 0.000564 0.002033 0.008265
# 4 0.000390 0.003150 0.000564 0.024560 0.006420 -0.005076
# 5 -0.000815 0.001080 0.002033 0.006420 0.032522 -0.003259
# 6 -0.001122 -0.002977 0.008265 -0.005076 -0.003259 0.052929
#
#
# Mechanical properties :
#
#
# Convention : Reuss Voigt Hill
#
# Bulk Modulus (GPa) = 48.19119 54.21772 51.20446
# Shear Modulus (GPa) = 27.60958 32.48033 30.04495
#
# Velocity S-wave (km/s) = 3.51801 3.81573 3.66989
# Velocity P-wave (km/s) = 6.17286 6.61188 6.39614
#
# Compressibility (1/GPa) = 0.02075068
#
# Stress axis : x y z
#
# Youngs Moduli (GPa) = 84.97283 87.70297 51.84247
#
# Poissons Ratio (x) = 0.23731 0.28256
# Poissons Ratio (y) = 0.22993 0.13989
# Poissons Ratio (z) = 0.46313 0.23665
#
# Static dielectric constant tensor:
#      x y z
#    x 4.216870 0.032810 0.181120 
#    y 0.032810 3.916200 0.010410 
#    z 0.181120 0.010410 3.978750 
# 
# 
# High freq. dielectric constant tensor:
#      x y z
#    x 1.887590 0.002030 0.008800 
#    y 0.002030 1.882490 0.001640 
#    z 0.008800 0.001640 1.877190 
# 
# From -- ./inp_files/427213.got.cif
#   From: 2010.06.25/outbox.cif.g09.slc.cpg/sg2_214_cif.got.tgz:427213.got - 2010.06.27 13:26:56.
