data_PCOD8011799
_publ_section_title
;
Structure prediction by ZEFSAII (Michael W. Deem and Ramdas Pophale) SiO2 
 PCOD8011799
Probable space group: P -1
;
_chemical_formula_sum "Si O2"
_cell_formula_units_Z 16
_cell_length_a 8.584759
_cell_length_b 20.750982
_cell_length_c 26.331670
_cell_angle_alpha 18.908019
_cell_angle_beta 150.112637
_cell_angle_gamma 143.054888
_cell_volume 750.994231
_symmetry_space_group_name_H-M "P -1"
_symmetry_group_IT_number 2
_symmetry_cell_setting 'triclinic'
loop_
_space_group_symop_operation_xyz
x,y,z
-x,-y,-z
loop_
_atom_site_type_symbol
_atom_site_label
_atom_site_fract_x
_atom_site_fract_y
_atom_site_fract_z
Si Si1 0.967281 0.589525 0.204865
Si Si2 0.211694 0.960155 0.040642
Si Si3 0.882142 0.349658 0.618655
Si Si4 0.252071 0.276886 0.447987
Si Si5 0.514294 0.198553 0.472887
Si Si6 0.636461 0.554768 0.854467
Si Si7 0.364315 0.887665 0.592276
Si Si8 0.166228 0.326456 0.553199
O O1 0.585273 0.622979 0.078743
O O2 0.077960 0.804224 0.081577
O O3 0.088996 0.499541 0.251926
O O4 0.111513 0.416004 0.414784
O O5 0.560589 0.863218 0.227446
O O6 0.000000 0.000000 0.000000
O O7 0.181123 0.178481 0.841993
O O8 0.594682 0.235414 0.602808
O O9 0.763073 0.483236 0.534699
O O10 0.000000 0.500000 0.500000
O O11 0.292908 0.272171 0.402425
O O12 0.018108 0.111897 0.519191
O O13 0.406038 0.318328 0.302994
O O14 0.869877 0.230150 0.563557
O O15 0.473615 0.968724 0.617137
O O16 0.525943 0.661924 0.796607
O O17 0.000000 0.500000 0.000000
O O18 0.500000 0.000000 0.500000
#
# Coordination Sequence:
#
# PCOD8011799 Si02
#       8
#     2   2   2   2   2   2   2   2
#     4  10  21  40  64  95 132 170 227 279 325 392
#     4  12  24  38  68  96 124 185 232 264 328 397
#     4  12  25  43  65  98 141 174 220 279 339 390
#     4  11  21  40  65  90 132 176 209 282 337 384
#     4  10  21  39  64  90 130 174 211 271 341 389
#     4   9  20  38  64  89 125 169 215 275 327 388
#     4   9  20  39  62  91 118 164 218 261 321 392
#     4  11  22  44  65  95 138 176 223 280 322 397
#
# _framework density 21.30509
#
# number of rings (size 3 to 8) (size 9 to 14) (size 15 to 20)
#    0.000    1.500    3.750    2.250    0.000    3.500 
#    0.000    3.750    0.000    0.000    0.000    0.000 
#    0.000    0.000    0.000    0.000    0.000    0.000 
#
# Total GULP energy -198208.931917 kJ/mol
# GULP energy per Si atom -12388.058245 kJ/mol
# Density = 2.125660 g / cm^3
# Si number density = 21.305090 Si / 1000 Ang^3
#
#
#
# Elastic Constant Matrix: (Units=GPa)
#
#
# Indices 1 2 3 4 5 6 
#
# 1 123.6366 53.9421 37.7659 -2.9743 23.1079 -5.6603
# 2 53.9421 132.2050 32.2650 3.8472 14.5146 4.2160
# 3 37.7659 32.2650 118.0516 6.6065 15.7067 10.6861
# 4 -2.9743 3.8472 6.6065 30.8657 7.8416 10.5356
# 5 23.1079 14.5146 15.7067 7.8416 27.3221 -2.5330
# 6 -5.6603 4.2160 10.6861 10.5356 -2.5330 44.4659
#
#
#
# Elastic Compliance Matrix: (Units=1/GPa)
#
#
# Indices 1 2 3 4 5 6 
#
# 1 0.011923 -0.003630 -0.002067 0.003709 -0.007937 0.001028
# 2 -0.003630 0.009511 -0.001147 -0.000631 -0.001236 -0.001009
# 3 -0.002067 -0.001147 0.010199 -0.000383 -0.003648 -0.002722
# 4 0.003709 -0.000631 -0.000383 0.040037 -0.014973 -0.009715
# 5 -0.007937 -0.001236 -0.003648 -0.014973 0.050960 0.006434
# 6 0.001028 -0.001009 -0.002722 -0.009715 0.006434 0.026038
#
#
# Mechanical properties :
#
#
# Convention : Reuss Voigt Hill
#
# Bulk Modulus (GPa) = 55.72476 69.09324 62.40900
# Shear Modulus (GPa) = 29.70225 37.19209 33.44717
#
# Velocity S-wave (km/s) = 3.73787 4.18268 3.96651
# Velocity P-wave (km/s) = 6.69636 7.47176 7.09466
#
# Compressibility (1/GPa) = 0.01794534
#
# Stress axis : x y z
#
# Youngs Moduli (GPa) = 83.87263 105.13922 98.05016
#
# Poissons Ratio (x) = 0.38162 0.20265
# Poissons Ratio (y) = 0.30443 0.11249
# Poissons Ratio (z) = 0.17335 0.12063
#
# Static dielectric constant tensor:
#      x y z
#    x 3.996570 -0.037830 0.308460 
#    y -0.037830 4.953620 -0.268160 
#    z 0.308460 -0.268160 4.017940 
# 
# 
# High freq. dielectric constant tensor:
#      x y z
#    x 1.842710 0.001260 0.024380 
#    y 0.001260 1.858300 -0.002890 
#    z 0.024380 -0.002890 1.794890 
# 
# From -- ./inp_files/617513.got.cif
#   From: 2010.06.25/outbox.cif.g09.slc.cpg/sg2_309_cif.got.tgz:617513.got - 2010.06.27 13:26:56.
