data_PCOD8011021
_publ_section_title
;
Structure prediction by ZEFSAII (Michael W. Deem and Ramdas Pophale) SiO2 
 PCOD8011021
Probable space group: P -1
;
_chemical_formula_sum "Si O2"
_cell_formula_units_Z 16
_cell_length_a 10.716293
_cell_length_b 12.382780
_cell_length_c 18.658774
_cell_angle_alpha 150.918572
_cell_angle_beta 129.887711
_cell_angle_gamma 38.128453
_cell_volume 734.195678
_symmetry_space_group_name_H-M "P -1"
_symmetry_group_IT_number 2
_symmetry_cell_setting 'triclinic'
loop_
_space_group_symop_operation_xyz
x,y,z
-x,-y,-z
loop_
_atom_site_type_symbol
_atom_site_label
_atom_site_fract_x
_atom_site_fract_y
_atom_site_fract_z
Si Si1 0.859264 0.260845 0.152277
Si Si2 0.987521 0.249250 0.846300
Si Si3 0.551120 0.100881 0.505129
Si Si4 0.409429 0.522319 0.083623
Si Si5 0.922304 0.498781 0.599635
Si Si6 0.834705 0.278851 0.311907
Si Si7 0.554101 0.102386 0.778429
Si Si8 0.973289 0.974625 0.557599
O O1 0.623612 0.399250 0.130687
O O2 0.934013 0.145144 0.193681
O O3 0.889460 0.506314 0.303111
O O4 0.000000 0.000000 0.000000
O O5 0.763648 0.356689 0.850838
O O6 0.015995 0.169339 0.726677
O O7 0.163166 0.965425 0.789917
O O8 0.000000 0.500000 0.000000
O O9 0.385208 0.430017 0.616847
O O10 0.763858 0.052650 0.559859
O O11 0.500000 0.000000 0.500000
O O12 0.576110 0.922740 0.342084
O O13 0.345038 0.770577 0.149931
O O14 0.415666 0.293894 0.905541
O O15 0.963916 0.348795 0.449452
O O16 0.728768 0.814298 0.711035
O O17 0.866137 0.349977 0.548955
O O18 0.000000 0.000000 0.500000
#
# Coordination Sequence:
#
# PCOD8011021 Si02
#       8
#     2   2   2   2   2   2   2   2
#     4  12  22  36  62 102 134 165 210 271 330 389
#     4  11  26  47  66  88 131 182 219 271 327 391
#     4  11  22  43  72  96 130 172 223 268 332 392
#     4  11  23  39  63  98 137 165 218 262 335 385
#     4  10  21  42  62  95 129 172 210 266 329 388
#     4  10  23  42  65  93 128 175 224 265 320 393
#     4  10  21  38  66 100 129 166 209 274 320 394
#     4  11  25  44  68  97 129 168 225 278 325 391
#
# _framework density 21.792556000000001
#
# number of rings (size 3 to 8) (size 9 to 14) (size 15 to 20)
#    0.000    1.250    1.250    4.875    3.500    5.000 
#    2.250    5.000    0.000    0.000    0.000    0.000 
#    0.000    0.000    0.000    0.000    0.000    0.000 
#
# Total GULP energy -198210.397386 kJ/mol
# GULP energy per Si atom -12388.149837 kJ/mol
# Density = 2.174295 g / cm^3
# Si number density = 21.792556 Si / 1000 Ang^3
#
#
#
# Elastic Constant Matrix: (Units=GPa)
#
#
# Indices 1 2 3 4 5 6 
#
# 1 77.6126 46.8406 36.5722 7.1102 -6.8077 24.6892
# 2 46.8406 129.9119 69.8310 11.5482 -5.4995 19.9360
# 3 36.5722 69.8310 175.7975 -1.6189 -5.4395 30.2909
# 4 7.1102 11.5482 -1.6189 39.2784 11.0661 -3.7106
# 5 -6.8077 -5.4995 -5.4395 11.0661 33.8158 -5.5744
# 6 24.6892 19.9360 30.2909 -3.7106 -5.5744 37.9824
#
#
#
# Elastic Compliance Matrix: (Units=1/GPa)
#
#
# Indices 1 2 3 4 5 6 
#
# 1 0.019813 -0.004946 -0.000394 -0.003861 0.002745 -0.009942
# 2 -0.004946 0.011782 -0.003603 -0.003110 0.001325 -0.000204
# 3 -0.000394 -0.003603 0.007906 0.001199 -0.000463 -0.004108
# 4 -0.003861 -0.003110 0.001199 0.030461 -0.010292 0.004651
# 5 0.002745 0.001325 -0.000463 -0.010292 0.033941 0.001866
# 6 -0.009942 -0.000204 -0.004108 0.004651 0.001866 0.036902
#
#
# Mechanical properties :
#
#
# Convention : Reuss Voigt Hill
#
# Bulk Modulus (GPa) = 46.26975 76.64549 61.45762
# Shear Modulus (GPa) = 30.13898 37.55386 33.84642
#
# Velocity S-wave (km/s) = 3.72290 4.15570 3.94524
# Velocity P-wave (km/s) = 6.30539 7.63369 7.00112
#
# Compressibility (1/GPa) = 0.02161239
#
# Stress axis : x y z
#
# Youngs Moduli (GPa) = 50.47220 84.87685 126.47995
#
# Poissons Ratio (x) = 0.41984 0.04989
# Poissons Ratio (y) = 0.24966 0.45576
# Poissons Ratio (z) = 0.01991 0.30584
#
# Static dielectric constant tensor:
#      x y z
#    x 3.590610 0.112620 -0.040590 
#    y 0.112620 4.258360 0.019400 
#    z -0.040590 0.019400 4.504630 
# 
# 
# High freq. dielectric constant tensor:
#      x y z
#    x 1.810360 0.006810 -0.014060 
#    y 0.006810 1.876170 0.001140 
#    z -0.014060 0.001140 1.886400 
# 
# From -- ./inp_files/569004.got.cif
#   From: 2010.06.25/outbox.cif.g09.slc.cpg/sg2_285_cif.got.tgz:569004.got - 2010.06.27 13:26:56.
