data_PCOD8011677
_publ_section_title
;
Structure prediction by ZEFSAII (Michael W. Deem and Ramdas Pophale) SiO2 
 PCOD8011677
Probable space group: P -1
;
_chemical_formula_sum "Si O2"
_cell_formula_units_Z 16
_cell_length_a 11.865556
_cell_length_b 13.679804
_cell_length_c 12.844701
_cell_angle_alpha 33.314727
_cell_angle_beta 113.331262
_cell_angle_gamma 136.757820
_cell_volume 647.128173
_symmetry_space_group_name_H-M "P -1"
_symmetry_group_IT_number 2
_symmetry_cell_setting 'triclinic'
loop_
_space_group_symop_operation_xyz
x,y,z
-x,-y,-z
loop_
_atom_site_type_symbol
_atom_site_label
_atom_site_fract_x
_atom_site_fract_y
_atom_site_fract_z
Si Si1 0.445982 0.192972 0.870072
Si Si2 0.419405 0.194590 0.296277
Si Si3 0.131422 0.982777 0.783014
Si Si4 0.128804 0.585044 0.705853
Si Si5 0.186040 0.175793 0.093684
Si Si6 0.797916 0.592614 0.292631
Si Si7 0.211144 0.568587 0.350125
Si Si8 0.399599 0.314762 0.394196
O O1 0.653216 0.401857 0.698441
O O2 0.497088 0.375173 0.825064
O O3 0.305509 0.147064 0.783607
O O4 0.345235 0.895969 0.137833
O O5 0.325130 0.166858 0.179147
O O6 0.330361 0.219127 0.334419
O O7 0.344003 0.905566 0.535565
O O8 0.661943 0.477066 0.138041
O O9 0.014744 0.034139 0.723306
O O10 0.211003 0.073598 0.614667
O O11 0.965850 0.640467 0.036428
O O12 0.135247 0.494918 0.677046
O O13 0.986884 0.596897 0.633621
O O14 0.134069 0.143871 0.978539
O O15 0.878291 0.640862 0.395192
O O16 0.558595 0.335797 0.451484
#
# Coordination Sequence:
#
# PCOD8011677 Si02
#       8
#     2   2   2   2   2   2   2   2
#     4  10  22  40  64  96 134 153 199 268 311 368
#     4  10  23  44  61  89 126 171 209 253 308 361
#     4  10  21  40  63  94 123 160 205 258 316 358
#     4  10  23  41  63  89 133 165 203 258 303 371
#     4   9  22  41  60  87 124 159 211 254 302 362
#     4  10  21  39  63  92 121 162 208 250 313 363
#     4  10  21  40  65  96 125 163 202 253 322 368
#     4  11  23  39  66  93 125 169 206 251 312 370
#
# _framework density 24.724622
#
# number of rings (size 3 to 8) (size 9 to 14) (size 15 to 20)
#    0.000    2.000    1.250    0.750    1.750    8.500 
#    0.000   10.625    0.000    0.000    0.000    0.000 
#    0.000    0.000    0.000    0.000    0.000    0.000 
#
# Total GULP energy -198289.381731 kJ/mol
# GULP energy per Si atom -12393.086358 kJ/mol
# Density = 2.466835 g / cm^3
# Si number density = 24.724622 Si / 1000 Ang^3
#
#
#
# Elastic Constant Matrix: (Units=GPa)
#
#
# Indices 1 2 3 4 5 6 
#
# 1 109.7863 5.4374 5.8005 12.4644 -29.1805 4.6114
# 2 5.4374 44.8487 -3.1805 24.8618 0.5520 -5.7927
# 3 5.8005 -3.1805 89.5426 6.5306 -31.2102 -12.6685
# 4 12.4644 24.8618 6.5306 29.4515 -5.0604 6.0322
# 5 -29.1805 0.5520 -31.2102 -5.0604 44.7637 -2.8840
# 6 4.6114 -5.7927 -12.6685 6.0322 -2.8840 43.2059
#
#
#
# Elastic Compliance Matrix: (Units=1/GPa)
#
#
# Indices 1 2 3 4 5 6 
#
# 1 0.012016 0.002596 0.003332 -0.006719 0.009469 0.001613
# 2 0.002596 0.052601 0.008522 -0.050360 0.002353 0.016462
# 3 0.003332 0.008522 0.018249 -0.012039 0.013993 0.008753
# 4 -0.006719 -0.050360 -0.012039 0.085781 -0.003861 -0.021799
# 5 0.009469 0.002353 0.013993 -0.003861 0.038222 0.006498
# 6 0.001613 0.016462 0.008753 -0.021799 0.006498 0.031224
#
#
# Mechanical properties :
#
#
# Convention : Reuss Voigt Hill
#
# Bulk Modulus (GPa) = 8.94716 28.92137 18.93427
# Shear Modulus (GPa) = 20.28849 39.22555 29.75702
#
# Velocity S-wave (km/s) = 2.86768 3.98741 3.47297
# Velocity P-wave (km/s) = 3.81987 5.73777 4.87408
#
# Compressibility (1/GPa) = 0.11176727
#
# Stress axis : x y z
#
# Youngs Moduli (GPa) = 83.22413 19.01102 54.79890
#
# Poissons Ratio (x) = -0.04936 -0.18261
# Poissons Ratio (y) = -0.21606 -0.46702
# Poissons Ratio (z) = -0.27733 -0.16202
#
# Static dielectric constant tensor:
#      x y z
#    x 4.522080 0.164970 -0.094000 
#    y 0.164970 4.204660 -0.085230 
#    z -0.094000 -0.085230 4.816920 
# 
# 
# High freq. dielectric constant tensor:
#      x y z
#    x 1.992250 0.018220 -0.006540 
#    y 0.018220 1.960340 -0.012990 
#    z -0.006540 -0.012990 2.004930 
# 
# From -- ./inp_files/522161.got.cif
#   From: 2010.06.25/outbox.cif.g09.slc.cpg/sg2_262_cif.got.tgz:522161.got - 2010.06.27 13:26:56.
