data_PCOD8011870
_publ_section_title
;
Structure prediction by ZEFSAII (Michael W. Deem and Ramdas Pophale) SiO2 
 PCOD8011870
Probable space group: P -1
;
_chemical_formula_sum "Si O2"
_cell_formula_units_Z 16
_cell_length_a 12.836450
_cell_length_b 22.271756
_cell_length_c 9.008627
_cell_angle_alpha 27.156127
_cell_angle_beta 42.324224
_cell_angle_gamma 33.689395
_cell_volume 652.029014
_symmetry_space_group_name_H-M "P -1"
_symmetry_group_IT_number 2
_symmetry_cell_setting 'triclinic'
loop_
_space_group_symop_operation_xyz
x,y,z
-x,-y,-z
loop_
_atom_site_type_symbol
_atom_site_label
_atom_site_fract_x
_atom_site_fract_y
_atom_site_fract_z
Si Si1 0.777607 0.033371 0.390625
Si Si2 0.533959 0.505098 0.279730
Si Si3 0.590802 0.090665 0.155259
Si Si4 0.035789 0.151466 0.834056
Si Si5 0.547808 0.754598 0.551820
Si Si6 0.358996 0.381035 0.555544
Si Si7 0.944476 0.292279 0.304232
Si Si8 0.953516 0.586193 0.583518
O O1 0.679361 0.112700 0.161120
O O2 0.625534 0.067752 0.606407
O O3 0.907234 0.838757 0.682149
O O4 0.902215 0.102175 0.152590
O O5 0.500000 0.500000 0.500000
O O6 0.384361 0.512672 0.309593
O O7 0.733936 0.350885 0.353404
O O8 0.525308 0.663200 0.911735
O O9 0.500000 0.000000 0.500000
O O10 0.745393 0.997114 0.067360
O O11 0.419645 0.256049 0.901713
O O12 0.003530 0.310206 0.587359
O O13 0.987923 0.190897 0.627265
O O14 0.516113 0.706845 0.528474
O O15 0.758399 0.712904 0.426238
O O16 0.139425 0.478598 0.521509
O O17 0.946904 0.449246 0.978261
#
# Coordination Sequence:
#
# PCOD8011870 Si02
#       8
#     2   2   2   2   2   2   2   2
#     4  11  22  42  66  94 130 169 216 267 320 388
#     4  11  22  40  68  99 129 168 215 265 323 389
#     4  11  23  41  66  97 128 168 217 268 323 387
#     4  11  21  38  65  97 127 164 214 269 322 382
#     4  11  25  42  62  94 130 172 216 265 324 389
#     4  12  23  42  65  93 131 171 213 270 327 383
#     4  10  21  39  64  95 128 165 211 267 323 384
#     4  11  24  40  61  91 129 171 215 265 325 388
#
# _framework density 24.538784
#
# number of rings (size 3 to 8) (size 9 to 14) (size 15 to 20)
#    0.000    1.000    0.000    9.375    0.000    3.000 
#    0.000   10.625    0.000    0.000    0.000    0.000 
#    0.000    0.000    0.000    0.000    0.000    0.000 
#
# Total GULP energy -198231.615015 kJ/mol
# GULP energy per Si atom -12389.475938 kJ/mol
# Density = 2.448293 g / cm^3
# Si number density = 24.538784 Si / 1000 Ang^3
#
#
#
# Elastic Constant Matrix: (Units=GPa)
#
#
# Indices 1 2 3 4 5 6 
#
# 1 93.1625 61.9197 25.1098 2.9586 -20.1220 -7.2043
# 2 61.9197 180.1503 14.5063 -5.3234 -9.5874 -16.9403
# 3 25.1098 14.5063 51.4717 -12.2894 -22.1418 -3.2210
# 4 2.9586 -5.3234 -12.2894 33.9429 5.0784 1.0677
# 5 -20.1220 -9.5874 -22.1418 5.0784 27.5590 3.5148
# 6 -7.2043 -16.9403 -3.2210 1.0677 3.5148 42.2331
#
#
#
# Elastic Compliance Matrix: (Units=1/GPa)
#
#
# Indices 1 2 3 4 5 6 
#
# 1 0.017497 -0.005361 -0.004860 -0.005320 0.007994 -0.000067
# 2 -0.005361 0.007543 0.000406 0.001968 -0.001611 0.002226
# 3 -0.004860 0.000406 0.033156 0.009274 0.021543 -0.000165
# 4 -0.005320 0.001968 0.009274 0.033891 -0.001981 -0.000103
# 5 0.007994 -0.001611 0.021543 -0.001981 0.059561 -0.002546
# 6 -0.000067 0.002226 -0.000165 -0.000103 -0.002546 0.024762
#
#
# Mechanical properties :
#
#
# Convention : Reuss Voigt Hill
#
# Bulk Modulus (GPa) = 25.92995 58.65067 42.29031
# Shear Modulus (GPa) = 23.93549 35.63026 29.78287
#
# Velocity S-wave (km/s) = 3.12655 3.81464 3.48761
# Velocity P-wave (km/s) = 4.86041 6.58446 5.78700
#
# Compressibility (1/GPa) = 0.03856544
#
# Stress axis : x y z
#
# Youngs Moduli (GPa) = 57.15158 132.58106 30.16035
#
# Poissons Ratio (x) = 0.71073 0.14659
# Poissons Ratio (y) = 0.30637 -0.01224
# Poissons Ratio (z) = 0.27777 -0.05379
#
# Static dielectric constant tensor:
#      x y z
#    x 4.342100 -0.474950 -0.148380 
#    y -0.474950 5.229300 -0.279140 
#    z -0.148380 -0.279140 4.199360 
# 
# 
# High freq. dielectric constant tensor:
#      x y z
#    x 1.962640 -0.018330 -0.018070 
#    y -0.018330 1.999660 -0.015490 
#    z -0.018070 -0.015490 1.956930 
# 
# From -- ./inp_files/282603.got.cif
#   From: 2010.06.25/outbox.cif.g09.slc.cpg/sg2_142_cif.got.tgz:282603.got - 2010.06.27 13:26:56.
