data_PCOD8011933
_publ_section_title
;
Structure prediction by ZEFSAII (Michael W. Deem and Ramdas Pophale) SiO2 
 PCOD8011933
Probable space group: P -1
;
_chemical_formula_sum "Si O2"
_cell_formula_units_Z 16
_cell_length_a 14.555736
_cell_length_b 14.213798
_cell_length_c 8.065351
_cell_angle_alpha 58.598451
_cell_angle_beta 59.657979
_cell_angle_gamma 31.126636
_cell_volume 729.601196
_symmetry_space_group_name_H-M "P -1"
_symmetry_group_IT_number 2
_symmetry_cell_setting 'triclinic'
loop_
_space_group_symop_operation_xyz
x,y,z
-x,-y,-z
loop_
_atom_site_type_symbol
_atom_site_label
_atom_site_fract_x
_atom_site_fract_y
_atom_site_fract_z
Si Si1 0.546381 0.436416 0.205916
Si Si2 0.325377 0.091380 0.880819
Si Si3 0.836402 0.233678 0.752453
Si Si4 0.040709 0.510083 0.273974
Si Si5 0.212472 0.953313 0.515272
Si Si6 0.813152 0.017218 0.869019
Si Si7 0.312011 0.111289 0.263036
Si Si8 0.831408 0.358008 0.992186
O O1 0.352839 0.571230 0.342070
O O2 0.679799 0.223723 0.309342
O O3 0.500000 0.500000 0.000000
O O4 0.646173 0.467139 0.143766
O O5 0.152391 0.307725 0.796897
O O6 0.504848 0.993576 0.725654
O O7 0.343158 0.072108 0.078002
O O8 0.307986 0.978455 0.941501
O O9 0.810837 0.122851 0.897643
O O10 0.869056 0.262337 0.873419
O O11 0.999766 0.121712 0.584296
O O12 0.142938 0.330900 0.244362
O O13 0.169055 0.510831 0.159803
O O14 0.000000 0.500000 0.500000
O O15 0.248779 0.899998 0.336887
O O16 0.273957 0.022949 0.455371
O O17 0.013557 0.800695 0.872955
#
# Coordination Sequence:
#
# PCOD8011933 Si02
#       8
#     2   2   2   2   2   2   2   2
#     4  10  24  39  59  91 120 160 204 244 298 370
#     4   9  22  42  63  93 119 163 212 247 304 366
#     4  11  22  39  64  85 124 166 193 248 312 354
#     4  11  23  40  62  94 126 158 206 254 304 365
#     4  11  23  41  61  94 125 153 208 253 301 362
#     4  10  21  39  65  90 123 160 201 256 302 360
#     4  10  22  42  67  87 124 167 200 256 307 359
#     4  10  22  41  60  90 126 159 205 245 303 371
#
# _framework density 21.929791000000002
#
# number of rings (size 3 to 8) (size 9 to 14) (size 15 to 20)
#    0.000    1.750    1.250    1.875    3.500    4.000 
#    0.000    2.500    0.000    0.000    0.000    0.000 
#    0.000    0.000    0.000    0.000    0.000    0.000 
#
# Total GULP energy -198283.142060 kJ/mol
# GULP energy per Si atom -12392.696379 kJ/mol
# Density = 2.187988 g / cm^3
# Si number density = 21.929791 Si / 1000 Ang^3
#
#
#
# Elastic Constant Matrix: (Units=GPa)
#
#
# Indices 1 2 3 4 5 6 
#
# 1 93.5275 27.7475 37.3305 -11.6519 -39.0649 -9.5848
# 2 27.7475 98.4529 40.7370 -6.5017 -26.2651 -21.3538
# 3 37.3305 40.7370 80.6740 -19.6853 -28.8596 -12.2867
# 4 -11.6519 -6.5017 -19.6853 27.3536 -0.2443 -5.1186
# 5 -39.0649 -26.2651 -28.8596 -0.2443 40.2837 4.1153
# 6 -9.5848 -21.3538 -12.2867 -5.1186 4.1153 46.9297
#
#
#
# Elastic Compliance Matrix: (Units=1/GPa)
#
#
# Indices 1 2 3 4 5 6 
#
# 1 0.020454 0.001089 0.000448 0.010246 0.020508 0.004109
# 2 0.001089 0.014784 -0.003983 0.002207 0.007293 0.005508
# 3 0.000448 -0.003983 0.024996 0.018397 0.015296 0.005489
# 4 0.010246 0.002207 0.018397 0.057157 0.023668 0.012072
# 5 0.020508 0.007293 0.015296 0.023668 0.059663 0.008861
# 6 0.004109 0.005508 0.005489 0.012072 0.008861 0.026631
#
#
# Mechanical properties :
#
#
# Convention : Reuss Voigt Hill
#
# Bulk Modulus (GPa) = 18.06936 53.80939 35.93937
# Shear Modulus (GPa) = 22.02406 34.03603 28.03004
#
# Velocity S-wave (km/s) = 3.17251 3.94387 3.57903
# Velocity P-wave (km/s) = 4.65588 6.73270 5.78820
#
# Compressibility (1/GPa) = 0.05534230
#
# Stress axis : x y z
#
# Youngs Moduli (GPa) = 48.89081 67.63961 40.00604
#
# Poissons Ratio (x) = -0.07367 -0.01792
# Poissons Ratio (y) = -0.05325 0.15935
# Poissons Ratio (z) = -0.02190 0.26941
#
# Static dielectric constant tensor:
#      x y z
#    x 4.427360 -0.431590 -0.492880 
#    y -0.431590 4.086290 0.133310 
#    z -0.492880 0.133310 3.903100 
# 
# 
# High freq. dielectric constant tensor:
#      x y z
#    x 1.872740 -0.016840 -0.020470 
#    y -0.016840 1.861410 -0.006070 
#    z -0.020470 -0.006070 1.852470 
# 
# From -- ./inp_files/314598.got.cif
#   From: 2010.06.25/outbox.cif.g09.slc.cpg/sg2_158_cif.got.tgz:314598.got - 2010.06.27 13:26:56.
