data_PCOD8011867
_publ_section_title
;
Structure prediction by ZEFSAII (Michael W. Deem and Ramdas Pophale) SiO2 
 PCOD8011867
Probable space group: P -1
;
_chemical_formula_sum "Si O2"
_cell_formula_units_Z 16
_cell_length_a 13.923407
_cell_length_b 13.906790
_cell_length_c 9.337799
_cell_angle_alpha 97.094564
_cell_angle_beta 131.215028
_cell_angle_gamma 45.179433
_cell_volume 742.126524
_symmetry_space_group_name_H-M "P -1"
_symmetry_group_IT_number 2
_symmetry_cell_setting 'triclinic'
loop_
_space_group_symop_operation_xyz
x,y,z
-x,-y,-z
loop_
_atom_site_type_symbol
_atom_site_label
_atom_site_fract_x
_atom_site_fract_y
_atom_site_fract_z
Si Si1 0.795029 0.784550 0.661669
Si Si2 0.746853 0.156228 0.948463
Si Si3 0.670229 0.883048 0.861683
Si Si4 0.864977 0.501372 0.283640
Si Si5 0.343131 0.531993 0.753492
Si Si6 0.556597 0.139371 0.201499
Si Si7 0.916766 0.886222 0.270016
Si Si8 0.812699 0.002627 0.705759
O O1 0.772891 0.762929 0.800200
O O2 0.005403 0.597349 0.757459
O O3 0.558208 0.909966 0.367204
O O4 0.828579 0.878133 0.711723
O O5 0.502774 0.359571 0.785394
O O6 0.697119 0.120006 0.756141
O O7 0.860165 0.024786 0.166806
O O8 0.925392 0.127163 0.077855
O O9 0.607422 0.846389 0.915436
O O10 0.861100 0.834880 0.098046
O O11 0.846903 0.413545 0.339574
O O12 0.000000 0.500000 0.500000
O O13 0.598719 0.694242 0.020778
O O14 0.191299 0.702119 0.538723
O O15 0.500000 0.500000 0.000000
O O16 0.652865 0.132540 0.436329
O O17 0.774149 0.964945 0.291101
#
# Coordination Sequence:
#
# PCOD8011867 Si02
#       8
#     2   2   2   2   2   2   2   2
#     4  10  21  40  66  91 139 172 219 275 338 389
#     4  11  24  45  71  96 138 174 227 270 335 404
#     4  10  21  39  64  95 126 180 217 269 338 395
#     4  12  25  41  64 102 138 175 230 283 328 402
#     4  12  27  44  69 102 136 178 226 281 332 400
#     4  11  23  39  67  95 136 175 221 276 335 396
#     4  12  23  43  70  99 133 177 222 274 335 395
#     4  10  23  45  65  99 132 177 218 282 332 396
#
# _framework density 21.559664999999999
#
# number of rings (size 3 to 8) (size 9 to 14) (size 15 to 20)
#    0.000    1.000    2.500    4.875    1.750    2.500 
#    0.000    1.250    0.000    0.000    0.000    0.000 
#    0.000    0.000    0.000    0.000    0.000    0.000 
#
# Total GULP energy -198452.206347 kJ/mol
# GULP energy per Si atom -12403.262897 kJ/mol
# Density = 2.151059 g / cm^3
# Si number density = 21.559665 Si / 1000 Ang^3
#
#
#
# Elastic Constant Matrix: (Units=GPa)
#
#
# Indices 1 2 3 4 5 6 
#
# 1 76.9980 30.7143 16.4994 0.6363 -1.6686 -11.6409
# 2 30.7143 124.7825 55.3116 -7.6178 -1.7807 -18.4024
# 3 16.4994 55.3116 130.8650 -0.6912 -0.5435 0.3477
# 4 0.6363 -7.6178 -0.6912 40.1809 4.2895 5.7340
# 5 -1.6686 -1.7807 -0.5435 4.2895 33.5802 3.9883
# 6 -11.6409 -18.4024 0.3477 5.7340 3.9883 31.7042
#
#
#
# Elastic Compliance Matrix: (Units=1/GPa)
#
#
# Indices 1 2 3 4 5 6 
#
# 1 0.014900 -0.002845 -0.000693 -0.001394 0.000276 0.004044
# 2 -0.002845 0.011641 -0.004571 0.001427 -0.000441 0.005560
# 3 -0.000693 -0.004571 0.009668 -0.000291 0.000273 -0.002995
# 4 -0.001394 0.001427 -0.000291 0.026055 -0.002847 -0.004034
# 5 0.000276 -0.000441 0.000273 -0.002847 0.030552 -0.003486
# 6 0.004044 0.005560 -0.002995 -0.004034 -0.003486 0.037455
#
#
# Mechanical properties :
#
#
# Convention : Reuss Voigt Hill
#
# Bulk Modulus (GPa) = 50.02081 59.74403 54.88242
# Shear Modulus (GPa) = 32.64748 36.43440 34.54094
#
# Velocity S-wave (km/s) = 3.89560 4.11534 4.00698
# Velocity P-wave (km/s) = 6.59437 7.09595 6.84976
#
# Compressibility (1/GPa) = 0.01999168
#
# Stress axis : x y z
#
# Youngs Moduli (GPa) = 67.11571 85.90382 103.43197
#
# Poissons Ratio (x) = 0.24439 0.07169
# Poissons Ratio (y) = 0.19094 0.47274
# Poissons Ratio (z) = 0.04652 0.39263
#
# Static dielectric constant tensor:
#      x y z
#    x 4.011520 -0.139790 -0.082870 
#    y -0.139790 3.888240 0.119740 
#    z -0.082870 0.119740 3.962260 
# 
# 
# High freq. dielectric constant tensor:
#      x y z
#    x 1.854890 -0.009410 0.003550 
#    y -0.009410 1.842220 0.011300 
#    z 0.003550 0.011300 1.849140 
# 
# From -- ./inp_files/272906.got.cif
#   From: 2010.06.25/outbox.cif.g09.slc.cpg/sg2_137_cif.got.tgz:272906.got - 2010.06.27 13:26:56.
