data_PCOD8011718
_publ_section_title
;
Structure prediction by ZEFSAII (Michael W. Deem and Ramdas Pophale) SiO2 
 PCOD8011718
Probable space group: P -1
;
_chemical_formula_sum "Si O2"
_cell_formula_units_Z 14
_cell_length_a 13.606837
_cell_length_b 14.201671
_cell_length_c 8.914789
_cell_angle_alpha 55.394755
_cell_angle_beta 103.093814
_cell_angle_gamma 146.124678
_cell_volume 668.231414
_symmetry_space_group_name_H-M "P -1"
_symmetry_group_IT_number 2
_symmetry_cell_setting 'triclinic'
loop_
_space_group_symop_operation_xyz
x,y,z
-x,-y,-z
loop_
_atom_site_type_symbol
_atom_site_label
_atom_site_fract_x
_atom_site_fract_y
_atom_site_fract_z
Si Si1 0.828263 0.628108 0.614238
Si Si2 0.690888 0.370393 0.363043
Si Si3 0.234445 0.998078 0.605090
Si Si4 0.010975 0.588577 0.070478
Si Si5 0.410882 0.404651 0.388537
Si Si6 0.169525 0.263624 0.803235
Si Si7 0.301606 0.733505 0.224924
O O1 0.697370 0.584724 0.716813
O O2 0.845955 0.722316 0.388759
O O3 0.694918 0.382471 0.759794
O O4 0.054525 0.819346 0.579920
O O5 0.449413 0.168893 0.446682
O O6 0.847915 0.633785 0.206305
O O7 0.703650 0.294037 0.574594
O O8 0.779254 0.400193 0.213561
O O9 0.252601 0.141366 0.554307
O O10 0.166431 0.847370 0.853262
O O11 0.098527 0.604663 0.226827
O O12 0.000000 0.500000 0.000000
O O13 0.500000 0.500000 0.500000
O O14 0.616100 0.580844 0.203090
O O15 0.000000 0.000000 0.000000
O O16 0.500000 0.000000 0.000000
#
# Coordination Sequence:
#
# PCOD8011718 Si02
#       7
#     2   2   2   2   2   2   2
#     4  10  21  39  63  94 128 166 214 263 326 382
#     4  10  24  42  66  94 131 170 219 268 319 391
#     4  11  22  43  63  95 133 167 211 275 328 377
#     4  12  25  43  66  96 131 172 221 266 330 381
#     4   9  20  37  63  89 122 168 209 257 320 383
#     4   9  20  39  62  93 126 165 216 264 321 389
#     4  11  22  43  66  96 130 173 220 262 319 389
#
# _framework density 20.950824000000001
#
# number of rings (size 3 to 8) (size 9 to 14) (size 15 to 20)
#    0.000    1.714    2.857    1.714    4.000    0.571 
#    2.571    1.429    0.000    0.000    0.000    0.000 
#    0.000    0.000    0.000    0.000    0.000    0.000 
#
# Total GULP energy -173473.227048 kJ/mol
# GULP energy per Si atom -12390.944789 kJ/mol
# Density = 2.090314 g / cm^3
# Si number density = 20.950824 Si / 1000 Ang^3
#
#
#
# Elastic Constant Matrix: (Units=GPa)
#
#
# Indices 1 2 3 4 5 6 
#
# 1 128.4396 39.3377 70.4217 -1.9632 0.0210 3.9302
# 2 39.3377 91.4913 41.9492 -9.7242 3.5432 1.7231
# 3 70.4217 41.9492 114.8561 -27.2485 9.8824 -11.1714
# 4 -1.9632 -9.7242 -27.2485 27.3349 -9.6695 7.4273
# 5 0.0210 3.5432 9.8824 -9.6695 38.9805 -1.2560
# 6 3.9302 1.7231 -11.1714 7.4273 -1.2560 40.0866
#
#
#
# Elastic Compliance Matrix: (Units=1/GPa)
#
#
# Indices 1 2 3 4 5 6 
#
# 1 0.014016 -0.002295 -0.010203 -0.009173 0.000435 -0.002406
# 2 -0.002295 0.013657 -0.003302 0.001844 0.000002 -0.001624
# 3 -0.010203 -0.003302 0.020742 0.017614 -0.000466 0.003645
# 4 -0.009173 0.001844 0.017614 0.058945 0.009836 -0.004885
# 5 0.000435 0.000002 -0.000466 0.009836 0.028176 -0.001112
# 6 -0.002406 -0.001624 0.003645 -0.004885 -0.001112 0.027137
#
#
# Mechanical properties :
#
#
# Convention : Reuss Voigt Hill
#
# Bulk Modulus (GPa) = 59.46881 70.91157 65.19019
# Shear Modulus (GPa) = 25.01529 33.48564 29.25046
#
# Velocity S-wave (km/s) = 3.45918 4.00221 3.74056
# Velocity P-wave (km/s) = 6.66342 7.43485 7.05968
#
# Compressibility (1/GPa) = 0.01681554
#
# Stress axis : x y z
#
# Youngs Moduli (GPa) = 71.34571 73.22284 48.21222
#
# Poissons Ratio (x) = 0.16802 0.49193
# Poissons Ratio (y) = 0.16371 0.15918
# Poissons Ratio (z) = 0.72797 0.24175
#
# Static dielectric constant tensor:
#      x y z
#    x 4.800410 0.220890 0.216820 
#    y 0.220890 3.683680 -0.355250 
#    z 0.216820 -0.355250 3.262070 
# 
# 
# High freq. dielectric constant tensor:
#      x y z
#    x 1.841990 0.004210 0.014710 
#    y 0.004210 1.814360 -0.016760 
#    z 0.014710 -0.016760 1.801560 
# 
# From -- ./inp_files/187988.got.cif
#   From: 2010.06.25/outbox.cif.g09.slc.cpg/sg2_94_cif.got.tgz:187988.got - 2010.06.27 13:26:56.
