data_PCOD8011856
_publ_section_title
;
Structure prediction by ZEFSAII (Michael W. Deem and Ramdas Pophale) SiO2 
 PCOD8011856
Probable space group: P -1
;
_chemical_formula_sum "Si O2"
_cell_formula_units_Z 14
_cell_length_a 14.803288
_cell_length_b 7.558373
_cell_length_c 8.994566
_cell_angle_alpha 89.501695
_cell_angle_beta 47.941424
_cell_angle_gamma 67.190155
_cell_volume 640.777742
_symmetry_space_group_name_H-M "P -1"
_symmetry_group_IT_number 2
_symmetry_cell_setting 'triclinic'
loop_
_space_group_symop_operation_xyz
x,y,z
-x,-y,-z
loop_
_atom_site_type_symbol
_atom_site_label
_atom_site_fract_x
_atom_site_fract_y
_atom_site_fract_z
Si Si1 0.083765 0.471662 0.558728
Si Si2 0.083252 0.707740 0.159439
Si Si3 0.407754 0.205421 0.188031
Si Si4 0.862500 0.158432 0.462250
Si Si5 0.516428 0.307702 0.327304
Si Si6 0.267418 0.721916 0.706197
Si Si7 0.665820 0.417912 0.917069
O O1 0.243174 0.276881 0.372042
O O2 0.083929 0.677129 0.604326
O O3 0.000000 0.500000 0.500000
O O4 0.005886 0.406119 0.768148
O O5 0.212613 0.564496 0.128528
O O6 0.134840 0.745969 0.945106
O O7 0.991663 0.927132 0.344666
O O8 0.471152 0.166354 0.287159
O O9 0.426121 0.381338 0.084841
O O10 0.500000 0.000000 0.000000
O O11 0.788863 0.161331 0.387277
O O12 0.746968 0.217997 0.720284
O O13 0.378587 0.479085 0.564904
O O14 0.648788 0.183918 0.296351
O O15 0.562815 0.412620 0.150647
#
# Coordination Sequence:
#
# PCOD8011856 Si02
#       7
#     2   2   2   2   2   2   2
#     4  11  23  41  63  97 134 160 216 279 314 382
#     4  11  23  40  66  94 129 175 212 264 334 381
#     4  11  23  38  64  99 127 162 215 272 327 375
#     4  11  22  40  65  97 125 168 221 262 326 385
#     4  10  21  41  65  87 130 170 209 270 318 383
#     4  10  22  40  63  93 129 171 219 256 321 399
#     4  10  21  39  64  95 121 167 219 270 318 377
#
# _framework density 21.84845
#
# number of rings (size 3 to 8) (size 9 to 14) (size 15 to 20)
#    0.000    1.429    5.714    1.286    2.000    1.714 
#    0.000    0.000    3.143    3.429    0.000    0.000 
#    0.000    0.000    0.000    0.000    0.000    0.000 
#
# Total GULP energy -173528.821367 kJ/mol
# GULP energy per Si atom -12394.915812 kJ/mol
# Density = 2.179872 g / cm^3
# Si number density = 21.848450 Si / 1000 Ang^3
#
#
#
# Elastic Constant Matrix: (Units=GPa)
#
#
# Indices 1 2 3 4 5 6 
#
# 1 144.0110 13.6986 15.1498 7.3051 3.3326 -12.2720
# 2 13.6986 42.9758 10.3901 16.6717 -3.2094 4.7558
# 3 15.1498 10.3901 100.4374 7.1359 2.4307 13.6368
# 4 7.3051 16.6717 7.1359 25.5234 -1.4843 6.9118
# 5 3.3326 -3.2094 2.4307 -1.4843 33.8577 -3.7009
# 6 -12.2720 4.7558 13.6368 6.9118 -3.7009 25.3465
#
#
#
# Elastic Compliance Matrix: (Units=1/GPa)
#
#
# Indices 1 2 3 4 5 6 
#
# 1 0.007883 -0.001975 -0.001585 -0.002045 -0.000332 0.005549
# 2 -0.001975 0.032182 -0.001637 -0.019756 0.002456 -0.000368
# 3 -0.001585 -0.001637 0.011319 0.000112 -0.001551 -0.006807
# 4 -0.002045 -0.019756 0.000112 0.056046 -0.000612 -0.012716
# 5 -0.000332 0.002456 -0.001551 -0.000612 0.030412 0.004820
# 6 0.005549 -0.000368 -0.006807 -0.012716 0.004820 0.050042
#
#
# Mechanical properties :
#
#
# Convention : Reuss Voigt Hill
#
# Bulk Modulus (GPa) = 24.39637 40.65569 32.52603
# Shear Modulus (GPa) = 23.59138 33.49122 28.54130
#
# Velocity S-wave (km/s) = 3.28956 3.91946 3.61824
# Velocity P-wave (km/s) = 5.06149 6.25550 5.68990
#
# Compressibility (1/GPa) = 0.04098970
#
# Stress axis : x y z
#
# Youngs Moduli (GPa) = 126.85867 31.07297 88.34992
#
# Poissons Ratio (x) = 0.06137 0.14001
# Poissons Ratio (y) = 0.25056 0.14464
# Poissons Ratio (z) = 0.20104 0.05087
#
# Static dielectric constant tensor:
#      x y z
#    x 4.586080 -0.088600 -0.196690 
#    y -0.088600 3.579660 -0.091980 
#    z -0.196690 -0.091980 4.165330 
# 
# 
# High freq. dielectric constant tensor:
#      x y z
#    x 1.879730 -0.018880 -0.008890 
#    y -0.018880 1.813380 -0.000340 
#    z -0.008890 -0.000340 1.870660 
# 
# From -- ./inp_files/174417.got.cif
#   From: 2010.06.25/outbox.cif.g09.slc.cpg/sg2_88_cif.got.tgz:174417.got - 2010.06.27 13:26:56.
