data_PCOD8011407
_publ_section_title
;
Structure prediction by ZEFSAII (Michael W. Deem and Ramdas Pophale) SiO2 
 PCOD8011407
Probable space group: P -1
;
_chemical_formula_sum "Si O2"
_cell_formula_units_Z 14
_cell_length_a 27.157951
_cell_length_b 14.614833
_cell_length_c 14.599483
_cell_angle_alpha 20.253059
_cell_angle_beta 159.345277
_cell_angle_gamma 159.067986
_cell_volume 628.356533
_symmetry_space_group_name_H-M "P -1"
_symmetry_group_IT_number 2
_symmetry_cell_setting 'triclinic'
loop_
_space_group_symop_operation_xyz
x,y,z
-x,-y,-z
loop_
_atom_site_type_symbol
_atom_site_label
_atom_site_fract_x
_atom_site_fract_y
_atom_site_fract_z
Si Si1 0.817343 0.673701 0.248003
Si Si2 0.060852 0.664222 0.093104
Si Si3 0.455874 0.359404 0.883553
Si Si4 0.749111 0.307280 0.782761
Si Si5 0.317184 0.077331 0.553162
Si Si6 0.566094 0.360382 0.877237
Si Si7 0.012462 0.229489 0.729082
O O1 0.895784 0.483717 0.607209
O O2 0.846675 0.685799 0.177948
O O3 0.629349 0.512975 0.086682
O O4 0.897169 0.998947 0.125976
O O5 0.159789 0.655411 0.187441
O O6 0.874636 0.481481 0.918095
O O7 0.371622 0.561142 0.567605
O O8 0.463701 0.329014 0.817179
O O9 0.351321 0.037720 0.045706
O O10 0.455205 0.231855 0.718507
O O11 0.316933 0.298554 0.264482
O O12 0.154747 0.946609 0.450129
O O13 0.331580 0.814551 0.768827
O O14 0.000000 0.500000 0.500000
O O15 0.000000 0.000000 0.000000
#
# Coordination Sequence:
#
# PCOD8011407 Si02
#       7
#     2   2   2   2   2   2   2
#     4  12  26  43  72 101 137 175 228 277 329 407
#     4  11  26  48  67 102 133 175 228 273 341 406
#     4  12  24  42  69 102 130 179 217 284 333 398
#     4  11  26  45  72  95 138 176 218 286 336 401
#     4  10  21  39  61  88 123 177 208 270 310 383
#     4  10  22  39  62  91 129 159 224 262 321 380
#     4  12  25  42  65  93 137 177 216 264 331 384
#
# _framework density 22.280342999999998
#
# number of rings (size 3 to 8) (size 9 to 14) (size 15 to 20)
#    0.000    0.857    0.000    6.857    4.000    5.714 
#    0.000    0.000    0.000    0.000    0.000    0.000 
#    0.000    0.000    0.000    0.000    0.000    0.000 
#
# Total GULP energy -173597.080179 kJ/mol
# GULP energy per Si atom -12399.791441 kJ/mol
# Density = 2.222963 g / cm^3
# Si number density = 22.280343 Si / 1000 Ang^3
#
#
#
# Elastic Constant Matrix: (Units=GPa)
#
#
# Indices 1 2 3 4 5 6 
#
# 1 71.1315 20.3056 5.5142 -1.0864 0.2037 3.8357
# 2 20.3056 186.9164 66.3527 -7.2446 8.1397 17.1104
# 3 5.5142 66.3527 77.3946 -22.8777 -1.5129 0.1795
# 4 -1.0864 -7.2446 -22.8777 48.3843 2.1635 3.7685
# 5 0.2037 8.1397 -1.5129 2.1635 38.6355 -2.9466
# 6 3.8357 17.1104 0.1795 3.7685 -2.9466 33.4176
#
#
#
# Elastic Compliance Matrix: (Units=1/GPa)
#
#
# Indices 1 2 3 4 5 6 
#
# 1 0.014549 -0.001686 0.000527 0.000379 0.000214 -0.000833
# 2 -0.001686 0.008820 -0.008102 -0.002111 -0.002372 -0.004250
# 3 0.000527 -0.008102 0.022563 0.009119 0.002317 0.003143
# 4 0.000379 -0.002111 0.009119 0.024851 -0.000735 -0.001879
# 5 0.000214 -0.002372 0.002317 -0.000735 0.026790 0.003623
# 6 -0.000833 -0.004250 0.003143 -0.001879 0.003623 0.032710
#
#
# Mechanical properties :
#
#
# Convention : Reuss Voigt Hill
#
# Bulk Modulus (GPa) = 36.48351 57.75417 47.11884
# Shear Modulus (GPa) = 31.65740 40.30549 35.98145
#
# Velocity S-wave (km/s) = 3.77353 4.25787 4.02299
# Velocity P-wave (km/s) = 5.94948 7.08170 6.54014
#
# Compressibility (1/GPa) = 0.02740965
#
# Stress axis : x y z
#
# Youngs Moduli (GPa) = 68.73325 113.38268 44.32103
#
# Poissons Ratio (x) = 0.19116 -0.02335
# Poissons Ratio (y) = 0.11588 0.35908
# Poissons Ratio (z) = -0.03621 0.91860
#
# Static dielectric constant tensor:
#      x y z
#    x 3.937150 0.244080 -0.062510 
#    y 0.244080 4.964170 -0.435050 
#    z -0.062510 -0.435050 4.773450 
# 
# 
# High freq. dielectric constant tensor:
#      x y z
#    x 1.869370 0.002700 0.000990 
#    y 0.002700 1.907530 0.002940 
#    z 0.000990 0.002940 1.898650 
# 
# From -- ./inp_files/544227.got.cif
#   From: 2010.06.25/outbox.cif.g09.slc.cpg/sg2_273_cif.got.tgz:544227.got - 2010.06.27 13:26:56.
