data_PCOD8011729
_publ_section_title
;
Structure prediction by ZEFSAII (Michael W. Deem and Ramdas Pophale) SiO2 
 PCOD8011729
Probable space group: P -1
;
_chemical_formula_sum "Si O2"
_cell_formula_units_Z 16
_cell_length_a 13.951084
_cell_length_b 6.371764
_cell_length_c 9.249470
_cell_angle_alpha 102.100401
_cell_angle_beta 92.698192
_cell_angle_gamma 115.555900
_cell_volume 716.425001
_symmetry_space_group_name_H-M "P -1"
_symmetry_group_IT_number 2
_symmetry_cell_setting 'triclinic'
loop_
_space_group_symop_operation_xyz
x,y,z
-x,-y,-z
loop_
_atom_site_type_symbol
_atom_site_label
_atom_site_fract_x
_atom_site_fract_y
_atom_site_fract_z
Si Si1 0.327518 0.238214 0.652457
Si Si2 0.537510 0.199736 0.716173
Si Si3 0.782409 0.158136 0.618312
Si Si4 0.102990 0.467217 0.542651
Si Si5 0.453759 0.681600 0.577906
Si Si6 0.909806 0.927449 0.723519
Si Si7 0.246328 0.478543 0.134009
Si Si8 0.855316 0.725236 0.198795
O O1 0.423166 0.203845 0.732593
O O2 0.359251 0.517296 0.657632
O O3 0.220412 0.155771 0.730783
O O4 0.307597 0.104293 0.475036
O O5 0.585492 0.245314 0.561571
O O6 0.623878 0.426501 0.849286
O O7 0.525413 0.930204 0.708476
O O8 0.800353 0.306020 0.491856
O O9 0.751545 0.282271 0.763561
O O10 0.884747 0.136659 0.688442
O O11 0.091991 0.223101 0.437725
O O12 0.124289 0.447044 0.710367
O O13 0.000000 0.500000 0.500000
O O14 0.500000 0.500000 0.500000
O O15 0.823254 0.762959 0.813604
O O16 0.031403 0.055932 0.812876
O O17 0.200639 0.442555 0.965372
#
# Coordination Sequence:
#
# PCOD8011729 Si02
#       8
#     2   2   2   2   2   2   2   2
#     4  11  23  39  70  98 129 174 229 272 321 388
#     4  10  21  39  63  95 133 175 223 266 324 395
#     4  11  22  41  69  97 128 177 222 273 327 396
#     4  11  22  41  70  94 131 171 225 279 324 390
#     4   9  18  36  65  94 123 169 227 274 311 379
#     4  11  23  46  69  95 132 179 223 268 333 405
#     4  11  26  43  65  99 140 177 216 272 337 396
#     4  12  25  44  65 104 139 169 218 280 341 392
#
# _framework density 22.333113999999998
#
# number of rings (size 3 to 8) (size 9 to 14) (size 15 to 20)
#    0.000    1.250    2.500    4.500    3.500    2.000 
#    4.500    0.625    0.000    0.000    0.000    0.000 
#    0.000    0.000    0.000    0.000    0.000    0.000 
#
# Total GULP energy -198213.519716 kJ/mol
# GULP energy per Si atom -12388.344982 kJ/mol
# Density = 2.228228 g / cm^3
# Si number density = 22.333114 Si / 1000 Ang^3
#
#
#
# Elastic Constant Matrix: (Units=GPa)
#
#
# Indices 1 2 3 4 5 6 
#
# 1 127.4943 46.6776 40.7644 4.3885 17.5826 8.5415
# 2 46.6776 116.8368 46.0447 13.9210 10.9066 5.2785
# 3 40.7644 46.0447 133.8732 7.7400 23.3201 5.6704
# 4 4.3885 13.9210 7.7400 22.0781 4.2648 9.8181
# 5 17.5826 10.9066 23.3201 4.2648 29.8475 9.4575
# 6 8.5415 5.2785 5.6704 9.8181 9.4575 34.4260
#
#
#
# Elastic Compliance Matrix: (Units=1/GPa)
#
#
# Indices 1 2 3 4 5 6 
#
# 1 0.009984 -0.003289 -0.001355 0.001819 -0.003464 -0.001317
# 2 -0.003289 0.011618 -0.002743 -0.006307 0.000360 0.001186
# 3 -0.001355 -0.002743 0.009897 -0.000739 -0.006152 0.001027
# 4 0.001819 -0.006307 -0.000739 0.056104 -0.001465 -0.014961
# 5 -0.003464 0.000360 -0.006152 -0.001465 0.043507 -0.009717
# 6 -0.001317 0.001186 0.001027 -0.014961 -0.009717 0.035960
#
#
# Mechanical properties :
#
#
# Convention : Reuss Voigt Hill
#
# Bulk Modulus (GPa) = 59.78890 71.68640 65.73765
# Shear Modulus (GPa) = 26.67833 33.58482 30.13157
#
# Velocity S-wave (km/s) = 3.46000 3.88211 3.67711
# Velocity P-wave (km/s) = 6.54153 7.22930 6.89400
#
# Compressibility (1/GPa) = 0.01672551
#
# Stress axis : x y z
#
# Youngs Moduli (GPa) = 100.15980 86.07311 101.04473
#
# Poissons Ratio (x) = 0.28306 0.13692
# Poissons Ratio (y) = 0.32938 0.27716
# Poissons Ratio (z) = 0.13573 0.23609
#
# Static dielectric constant tensor:
#      x y z
#    x 3.982880 0.195130 0.036590 
#    y 0.195130 4.580180 -0.058030 
#    z 0.036590 -0.058030 3.670810 
# 
# 
# High freq. dielectric constant tensor:
#      x y z
#    x 1.894430 0.008420 0.009440 
#    y 0.008420 1.892570 0.008570 
#    z 0.009440 0.008570 1.835040 
# 
# From -- ./inp_files/289049.got.cif
#   From: 2010.06.25/outbox.cif.g09.slc.cpg/sg2_145_cif.got.tgz:289049.got - 2010.06.27 13:26:56.
