data_PCOD8011443
_publ_section_title
;
Structure prediction by ZEFSAII (Michael W. Deem and Ramdas Pophale) SiO2 
 PCOD8011443
Probable space group: P -1
;
_chemical_formula_sum "Si O2"
_cell_formula_units_Z 16
_cell_length_a 18.391687
_cell_length_b 9.071368
_cell_length_c 9.420164
_cell_angle_alpha 118.034323
_cell_angle_beta 35.450982
_cell_angle_gamma 109.219492
_cell_volume 800.168366
_symmetry_space_group_name_H-M "P -1"
_symmetry_group_IT_number 2
_symmetry_cell_setting 'triclinic'
loop_
_space_group_symop_operation_xyz
x,y,z
-x,-y,-z
loop_
_atom_site_type_symbol
_atom_site_label
_atom_site_fract_x
_atom_site_fract_y
_atom_site_fract_z
Si Si1 0.263299 0.103151 0.127241
Si Si2 0.239909 0.737068 0.037402
Si Si3 0.202779 0.465962 0.466977
Si Si4 0.639586 0.382410 0.497989
Si Si5 0.050442 0.474961 0.250060
Si Si6 0.625070 0.469808 0.039910
Si Si7 0.729344 0.778485 0.143191
Si Si8 0.540818 0.059415 0.614766
O O1 0.202290 0.264382 0.384568
O O2 0.199476 0.936940 0.197392
O O3 0.233652 0.133388 0.021407
O O4 0.412842 0.077649 0.918307
O O5 0.116340 0.640041 0.179571
O O6 0.328891 0.690513 0.740247
O O7 0.317898 0.692653 0.037563
O O8 0.239593 0.539513 0.593155
O O9 0.062829 0.547426 0.687412
O O10 0.303360 0.518518 0.216728
O O11 0.524466 0.531519 0.744736
O O12 0.598751 0.235863 0.598257
O O13 0.000000 0.500000 0.500000
O O14 0.146578 0.305002 0.010586
O O15 0.641100 0.633951 0.182639
O O16 0.649366 0.916219 0.433670
O O17 0.500000 0.000000 0.500000
#
# Coordination Sequence:
#
# PCOD8011443 Si02
#       8
#     2   2   2   2   2   2   2   2
#     4  10  18  35  60  92 114 154 198 244 292 357
#     4  11  22  35  65  87 114 155 212 246 279 346
#     4  11  23  39  61  86 126 163 191 238 311 351
#     4  12  21  35  62  97 120 151 196 253 301 350
#     4  11  21  41  60  82 119 166 206 237 283 368
#     4  10  19  36  60  88 116 154 194 238 296 362
#     4   9  16  33  61  82 110 152 201 236 275 342
#     4  10  16  32  59  89 120 146 195 240 292 359
#
# _framework density 19.995792000000002
#
# number of rings (size 3 to 8) (size 9 to 14) (size 15 to 20)
#    0.000    1.500   10.000    0.750    0.000    2.000 
#    0.000    1.250    5.500    0.000    0.000    0.000 
#    0.000    0.000    0.000    0.000    0.000    0.000 
#
# Total GULP energy -198361.137712 kJ/mol
# GULP energy per Si atom -12397.571107 kJ/mol
# Density = 1.995028 g / cm^3
# Si number density = 19.995792 Si / 1000 Ang^3
#
#
#
# Elastic Constant Matrix: (Units=GPa)
#
#
# Indices 1 2 3 4 5 6 
#
# 1 89.6996 30.8740 20.4298 14.2815 -28.0353 -0.7610
# 2 30.8740 110.2301 13.6949 5.0993 -6.7870 -9.3236
# 3 20.4298 13.6949 54.7388 9.4461 -22.2945 -4.8129
# 4 14.2815 5.0993 9.4461 32.0043 -3.4127 -7.3391
# 5 -28.0353 -6.7870 -22.2945 -3.4127 32.0738 1.4637
# 6 -0.7610 -9.3236 -4.8129 -7.3391 1.4637 19.5868
#
#
#
# Elastic Compliance Matrix: (Units=1/GPa)
#
#
# Indices 1 2 3 4 5 6 
#
# 1 0.018334 -0.004436 0.001424 -0.007381 0.015518 -0.004975
# 2 -0.004436 0.010756 -0.002162 0.001788 -0.003156 0.005322
# 3 0.001424 -0.002162 0.027195 -0.005809 0.018976 0.002114
# 4 -0.007381 0.001788 -0.005809 0.038482 -0.006658 0.014053
# 5 0.015518 -0.003156 0.018976 -0.006658 0.056691 -0.002968
# 6 -0.004975 0.005322 0.002114 0.014053 -0.002968 0.059402
#
#
# Mechanical properties :
#
#
# Convention : Reuss Voigt Hill
#
# Bulk Modulus (GPa) = 21.76861 42.74066 32.25463
# Shear Modulus (GPa) = 21.13987 29.37763 25.25875
#
# Velocity S-wave (km/s) = 3.25501 3.83716 3.55801
# Velocity P-wave (km/s) = 5.00370 6.40726 5.74848
#
# Compressibility (1/GPa) = 0.04593771
#
# Stress axis : x y z
#
# Youngs Moduli (GPa) = 54.54379 92.97113 36.77152
#
# Poissons Ratio (x) = 0.41240 -0.05236
# Poissons Ratio (y) = 0.24195 0.07948
# Poissons Ratio (z) = -0.07766 0.20096
#
# Static dielectric constant tensor:
#      x y z
#    x 3.581830 -0.232120 -0.456620 
#    y -0.232120 3.852650 0.238540 
#    z -0.456620 0.238540 3.787950 
# 
# 
# High freq. dielectric constant tensor:
#      x y z
#    x 1.748240 -0.006790 -0.026250 
#    y -0.006790 1.778140 0.007970 
#    z -0.026250 0.007970 1.764170 
# 
# From -- ./inp_files/256899.got.cif
#   From: 2010.06.25/outbox.cif.g09.slc.cpg/sg2_129_cif.got.tgz:256899.got - 2010.06.27 13:26:56.
