data_PCOD8011497
_publ_section_title
;
Structure prediction by ZEFSAII (Michael W. Deem and Ramdas Pophale) SiO2 
 PCOD8011497
Probable space group: P -1
;
_chemical_formula_sum "Si O2"
_cell_formula_units_Z 16
_cell_length_a 12.276180
_cell_length_b 10.864174
_cell_length_c 14.502081
_cell_angle_alpha 68.890537
_cell_angle_beta 65.484482
_cell_angle_gamma 23.968681
_cell_volume 713.944187
_symmetry_space_group_name_H-M "P -1"
_symmetry_group_IT_number 2
_symmetry_cell_setting 'triclinic'
loop_
_space_group_symop_operation_xyz
x,y,z
-x,-y,-z
loop_
_atom_site_type_symbol
_atom_site_label
_atom_site_fract_x
_atom_site_fract_y
_atom_site_fract_z
Si Si1 0.963868 0.423581 0.456804
Si Si2 0.633859 0.600224 0.784594
Si Si3 0.340350 0.697291 0.226677
Si Si4 0.986731 0.398249 0.960329
Si Si5 0.496106 0.717013 0.003433
Si Si6 0.511738 0.274839 0.511837
Si Si7 0.737590 0.321888 0.343633
Si Si8 0.882725 0.709352 0.257198
O O1 0.700931 0.587234 0.521556
O O2 0.878861 0.576593 0.349132
O O3 0.000000 0.500000 0.500000
O O4 0.247992 0.061217 0.447161
O O5 0.614422 0.504071 0.742834
O O6 0.935646 0.363786 0.731618
O O7 0.418043 0.930034 0.748339
O O8 0.610037 0.557172 0.906893
O O9 0.363013 0.733294 0.106090
O O10 0.577753 0.523093 0.253479
O O11 0.058461 0.011245 0.292373
O O12 0.969529 0.471187 0.842804
O O13 0.000000 0.500000 0.000000
O O14 0.730701 0.555330 0.025495
O O15 0.267905 0.045786 0.968314
O O16 0.330107 0.507048 0.598626
O O17 0.652268 0.258379 0.416901
#
# Coordination Sequence:
#
# PCOD8011497 Si02
#       8
#     2   2   2   2   2   2   2   2
#     4  12  26  42  72  99 129 171 222 274 328 388
#     4  10  22  40  63  90 139 163 205 268 321 385
#     4  12  23  39  69  98 122 172 224 257 321 392
#     4  10  21  39  62  87 128 172 206 259 319 387
#     4  10  22  39  59  96 128 162 212 263 316 378
#     4  11  26  49  64  95 139 164 218 280 329 386
#     4  11  26  44  69  95 128 180 213 270 337 382
#     4  10  23  40  60  95 126 171 212 258 334 380
#
# _framework density 22.410717000000002
#
# number of rings (size 3 to 8) (size 9 to 14) (size 15 to 20)
#    0.000    1.250    0.000    4.875    5.250    5.000 
#    0.000    5.000    0.000    0.000    0.000    0.000 
#    0.000    0.000    0.000    0.000    0.000    0.000 
#
# Total GULP energy -198404.744316 kJ/mol
# GULP energy per Si atom -12400.296520 kJ/mol
# Density = 2.235971 g / cm^3
# Si number density = 22.410717 Si / 1000 Ang^3
#
#
#
# Elastic Constant Matrix: (Units=GPa)
#
#
# Indices 1 2 3 4 5 6 
#
# 1 101.8839 33.8710 22.1062 -3.1629 9.7232 -2.3337
# 2 33.8710 108.7843 26.5068 -3.3152 4.5453 4.7549
# 3 22.1062 26.5068 66.9579 -8.6156 -14.4287 9.7538
# 4 -3.1629 -3.3152 -8.6156 32.1048 -2.2946 4.5038
# 5 9.7232 4.5453 -14.4287 -2.2946 32.0624 -5.6713
# 6 -2.3337 4.7549 9.7538 4.5038 -5.6713 34.0470
#
#
#
# Elastic Compliance Matrix: (Units=1/GPa)
#
#
# Indices 1 2 3 4 5 6 
#
# 1 0.012134 -0.002587 -0.004438 -0.000868 -0.005065 0.001736
# 2 -0.002587 0.011138 -0.004046 -0.000250 -0.002811 -0.001009
# 3 -0.004438 -0.004046 0.022041 0.006581 0.011421 -0.005021
# 4 -0.000868 -0.000250 0.006581 0.033926 0.004695 -0.005616
# 5 -0.005065 -0.002811 0.011421 0.004695 0.039070 0.002661
# 6 0.001736 -0.001009 -0.005021 -0.005616 0.002661 0.032256
#
#
# Mechanical properties :
#
#
# Convention : Reuss Voigt Hill
#
# Bulk Modulus (GPa) = 43.15822 49.17715 46.16769
# Shear Modulus (GPa) = 27.71136 32.65229 30.18183
#
# Velocity S-wave (km/s) = 3.52024 3.82120 3.67380
# Velocity P-wave (km/s) = 5.98518 6.43894 6.21621
#
# Compressibility (1/GPa) = 0.02317056
#
# Stress axis : x y z
#
# Youngs Moduli (GPa) = 82.41019 89.78315 45.37005
#
# Poissons Ratio (x) = 0.23231 0.20135
# Poissons Ratio (y) = 0.21323 0.18357
# Poissons Ratio (z) = 0.36573 0.36326
#
# Static dielectric constant tensor:
#      x y z
#    x 3.989530 -0.075430 0.062290 
#    y -0.075430 4.151760 0.000270 
#    z 0.062290 0.000270 4.246580 
# 
# 
# High freq. dielectric constant tensor:
#      x y z
#    x 1.881190 -0.008270 0.003150 
#    y -0.008270 1.894800 -0.002850 
#    z 0.003150 -0.002850 1.890940 
# 
# From -- ./inp_files/519672.got.cif
#   From: 2010.06.25/outbox.cif.g09.slc.cpg/sg2_260_cif.got.tgz:519672.got - 2010.06.27 13:26:56.
