data_PCOD8011560
_publ_section_title
;
Structure prediction by ZEFSAII (Michael W. Deem and Ramdas Pophale) SiO2 
 PCOD8011560
Probable space group: P -1
;
_chemical_formula_sum "Si O2"
_cell_formula_units_Z 16
_cell_length_a 17.911785
_cell_length_b 9.193909
_cell_length_c 8.640618
_cell_angle_alpha 51.799692
_cell_angle_beta 103.826594
_cell_angle_gamma 66.331659
_cell_volume 753.801798
_symmetry_space_group_name_H-M "P -1"
_symmetry_group_IT_number 2
_symmetry_cell_setting 'triclinic'
loop_
_space_group_symop_operation_xyz
x,y,z
-x,-y,-z
loop_
_atom_site_type_symbol
_atom_site_label
_atom_site_fract_x
_atom_site_fract_y
_atom_site_fract_z
Si Si1 0.669952 0.782664 0.336599
Si Si2 0.547363 0.384488 0.351633
Si Si3 0.661705 0.184267 0.230849
Si Si4 0.942472 0.694914 0.985256
Si Si5 0.085354 0.617550 0.678916
Si Si6 0.919590 0.309520 0.724598
Si Si7 0.512859 0.184679 0.741472
Si Si8 0.139633 0.917892 0.559021
O O1 0.791213 0.479921 0.583034
O O2 0.580640 0.802516 0.359848
O O3 0.683345 0.939913 0.345280
O O4 0.621834 0.910165 0.057421
O O5 0.647855 0.209662 0.394198
O O6 0.556573 0.198321 0.596502
O O7 0.546139 0.573519 0.326889
O O8 0.438691 0.549387 0.085337
O O9 0.762950 0.142838 0.266666
O O10 0.871780 0.988470 0.687085
O O11 0.868537 0.662789 0.055284
O O12 0.000000 0.500000 0.000000
O O13 0.040330 0.592958 0.211960
O O14 0.067082 0.638089 0.474755
O O15 0.165207 0.652771 0.738362
O O16 0.968066 0.858519 0.540994
O O17 0.000000 0.000000 0.000000
#
# Coordination Sequence:
#
# PCOD8011560 Si02
#       8
#     2   2   2   2   2   2   2   2
#     4  10  22  39  61  91 127 164 206 268 310 373
#     4   9  20  39  65  92 121 160 204 261 317 390
#     4  10  21  39  62  92 127 162 204 257 324 372
#     4  10  21  40  61  84 124 162 205 261 309 371
#     4  10  22  39  61  88 122 168 215 259 310 376
#     4  12  24  40  62  93 126 173 220 262 316 376
#     4   9  20  41  64  92 124 156 211 259 318 377
#     4  10  21  40  60  89 128 167 205 263 313 376
#
# _framework density 21.225739999999998
#
# number of rings (size 3 to 8) (size 9 to 14) (size 15 to 20)
#    0.000    2.000    1.250    1.875    1.750    2.500 
#    2.250    3.750    0.000    0.000    0.000    0.000 
#    0.000    0.000    0.000    0.000    0.000    0.000 
#
# Total GULP energy -198324.800288 kJ/mol
# GULP energy per Si atom -12395.300018 kJ/mol
# Density = 2.117743 g / cm^3
# Si number density = 21.225740 Si / 1000 Ang^3
#
#
#
# Elastic Constant Matrix: (Units=GPa)
#
#
# Indices 1 2 3 4 5 6 
#
# 1 131.1895 39.9777 36.2608 -1.0532 0.8467 28.9761
# 2 39.9777 81.3811 19.3853 14.9661 4.3418 8.5656
# 3 36.2608 19.3853 52.3098 -3.3246 -0.3880 -5.3758
# 4 -1.0532 14.9661 -3.3246 31.5867 -3.3106 0.7869
# 5 0.8467 4.3418 -0.3880 -3.3106 33.0571 5.1215
# 6 28.9761 8.5656 -5.3758 0.7869 5.1215 32.7398
#
#
#
# Elastic Compliance Matrix: (Units=1/GPa)
#
#
# Indices 1 2 3 4 5 6 
#
# 1 0.014664 -0.003786 -0.010074 0.001820 0.002363 -0.014056
# 2 -0.003786 0.017141 -0.004444 -0.008992 -0.002923 -0.001190
# 3 -0.010074 -0.004444 0.029558 0.004437 -0.000680 0.014931
# 4 0.001820 -0.008992 0.004437 0.036967 0.004918 -0.000188
# 5 0.002363 -0.002923 -0.000680 0.004918 0.032077 -0.006575
# 6 -0.014056 -0.001190 0.014931 -0.000188 -0.006575 0.046780
#
#
# Mechanical properties :
#
#
# Convention : Reuss Voigt Hill
#
# Bulk Modulus (GPa) = 40.39146 50.68089 45.53617
# Shear Modulus (GPa) = 22.51791 30.76049 26.63920
#
# Velocity S-wave (km/s) = 3.26065 3.81098 3.54650
# Velocity P-wave (km/s) = 5.76598 6.57979 6.18628
#
# Compressibility (1/GPa) = 0.02475771
#
# Stress axis : x y z
#
# Youngs Moduli (GPa) = 68.19258 58.34021 33.83180
#
# Poissons Ratio (x) = 0.22085 0.34081
# Poissons Ratio (y) = 0.25815 0.15033
# Poissons Ratio (z) = 0.68695 0.25924
#
# Static dielectric constant tensor:
#      x y z
#    x 4.220600 0.235700 -0.687980 
#    y 0.235700 3.849070 -0.025660 
#    z -0.687980 -0.025660 4.845300 
# 
# 
# High freq. dielectric constant tensor:
#      x y z
#    x 1.836090 0.012910 -0.010190 
#    y 0.012910 1.830970 0.010030 
#    z -0.010190 0.010030 1.825010 
# 
# From -- ./inp_files/328447.got.cif
#   From: 2010.06.25/outbox.cif.g09.slc.cpg/sg2_165_cif.got.tgz:328447.got - 2010.06.27 13:26:56.
