data_PCOD8011068
_publ_section_title
;
Structure prediction by ZEFSAII (Michael W. Deem and Ramdas Pophale) SiO2 
 PCOD8011068
Probable space group: P -1
;
_chemical_formula_sum "Si O2"
_cell_formula_units_Z 16
_cell_length_a 15.204041
_cell_length_b 5.307479
_cell_length_c 13.295658
_cell_angle_alpha 120.866354
_cell_angle_beta 133.331723
_cell_angle_gamma 74.905042
_cell_volume 662.628705
_symmetry_space_group_name_H-M "P -1"
_symmetry_group_IT_number 2
_symmetry_cell_setting 'triclinic'
loop_
_space_group_symop_operation_xyz
x,y,z
-x,-y,-z
loop_
_atom_site_type_symbol
_atom_site_label
_atom_site_fract_x
_atom_site_fract_y
_atom_site_fract_z
Si Si1 0.489816 0.912828 0.588231
Si Si2 0.901873 0.729973 0.049483
Si Si3 0.712365 0.631222 0.720802
Si Si4 0.043691 0.300450 0.185669
Si Si5 0.696358 0.809265 0.396770
Si Si6 0.359546 0.519792 0.908985
Si Si7 0.824219 0.329438 0.488304
Si Si8 0.231952 0.023556 0.833051
O O1 0.624717 0.879069 0.726384
O O2 0.382234 0.635580 0.453552
O O3 0.500000 0.000000 0.500000
O O4 0.442634 0.159742 0.673401
O O5 0.984249 0.476993 0.086943
O O6 0.877158 0.908090 0.167543
O O7 0.968612 0.973405 0.073028
O O8 0.776888 0.572878 0.865874
O O9 0.817051 0.733059 0.741612
O O10 0.046339 0.491517 0.332455
O O11 0.709620 0.670505 0.271549
O O12 0.741659 0.592717 0.469422
O O13 0.779451 0.127883 0.509727
O O14 0.309629 0.345192 0.934478
O O15 0.323372 0.848139 0.934198
O O16 0.500000 0.500000 0.000000
O O17 0.827870 0.156992 0.349481
#
# Coordination Sequence:
#
# PCOD8011068 Si02
#       8
#     2   2   2   2   2   2   2   2
#     4  11  25  42  72  99 132 179 219 287 339 395
#     4  12  28  44  70  98 139 183 222 281 332 397
#     4  11  27  45  65 103 135 172 232 277 337 410
#     4  12  25  46  71  94 134 186 226 278 338 385
#     4  10  21  39  64  98 130 169 214 270 341 392
#     4  10  21  38  66  95 133 177 214 271 336 407
#     4  10  21  42  69  94 133 166 224 276 318 411
#     4  10  23  42  62 100 135 170 226 272 332 390
#
# _framework density 24.146252
#
# number of rings (size 3 to 8) (size 9 to 14) (size 15 to 20)
#    0.000    1.250    1.250    3.375    7.000    2.000 
#    0.000    0.000    0.000    0.000    0.000    0.000 
#    0.000    0.000    0.000    0.000    0.000    0.000 
#
# Total GULP energy -198237.250048 kJ/mol
# GULP energy per Si atom -12389.828128 kJ/mol
# Density = 2.409129 g / cm^3
# Si number density = 24.146252 Si / 1000 Ang^3
#
#
#
# Elastic Constant Matrix: (Units=GPa)
#
#
# Indices 1 2 3 4 5 6 
#
# 1 106.8053 40.8214 10.7910 -0.7570 9.4471 1.1660
# 2 40.8214 123.1051 26.5466 -1.5790 7.6878 13.3674
# 3 10.7910 26.5466 96.3641 -14.8970 13.1174 -0.6780
# 4 -0.7570 -1.5790 -14.8970 22.4649 0.6042 6.7702
# 5 9.4471 7.6878 13.1174 0.6042 29.1722 -0.2419
# 6 1.1660 13.3674 -0.6780 6.7702 -0.2419 34.6939
#
#
#
# Elastic Compliance Matrix: (Units=1/GPa)
#
#
# Indices 1 2 3 4 5 6 
#
# 1 0.010950 -0.003604 0.000129 -0.000032 -0.002645 0.001011
# 2 -0.003604 0.010289 -0.002349 0.000246 -0.000526 -0.003941
# 3 0.000129 -0.002349 0.013129 0.008879 -0.005515 -0.000614
# 4 -0.000032 0.000246 0.008879 0.053704 -0.005246 -0.010437
# 5 -0.002645 -0.000526 -0.005515 -0.005246 0.037875 0.001471
# 6 0.001011 -0.003941 -0.000614 -0.010437 0.001471 0.032343
#
#
# Mechanical properties :
#
#
# Convention : Reuss Voigt Hill
#
# Bulk Modulus (GPa) = 44.01482 53.62138 48.81810
# Shear Modulus (GPa) = 28.16738 33.80723 30.98730
#
# Velocity S-wave (km/s) = 3.41916 3.74585 3.58623
# Velocity P-wave (km/s) = 5.81855 6.40029 6.11634
#
# Compressibility (1/GPa) = 0.02271962
#
# Stress axis : x y z
#
# Youngs Moduli (GPa) = 91.32524 97.19565 76.16742
#
# Poissons Ratio (x) = 0.35027 -0.00981
# Poissons Ratio (y) = 0.32911 0.17891
# Poissons Ratio (z) = -0.01176 0.22830
#
# Static dielectric constant tensor:
#      x y z
#    x 4.372050 -0.218330 -0.366270 
#    y -0.218330 4.478430 -0.111090 
#    z -0.366270 -0.111090 4.899830 
# 
# 
# High freq. dielectric constant tensor:
#      x y z
#    x 1.959950 -0.001330 -0.014600 
#    y -0.001330 1.968430 -0.001620 
#    z -0.014600 -0.001620 1.953890 
# 
# From -- ./inp_files/526023.got.cif
#   From: 2010.06.25/outbox.cif.g09.slc.cpg/sg2_264_cif.got.tgz:526023.got - 2010.06.27 13:26:56.
