data_PCOD8011850
_publ_section_title
;
Structure prediction by ZEFSAII (Michael W. Deem and Ramdas Pophale) SiO2 
 PCOD8011850
Probable space group: P -1
;
_chemical_formula_sum "Si O2"
_cell_formula_units_Z 14
_cell_length_a 6.982707
_cell_length_b 10.186233
_cell_length_c 11.316819
_cell_angle_alpha 75.269266
_cell_angle_beta 109.981466
_cell_angle_gamma 116.214813
_cell_volume 673.557898
_symmetry_space_group_name_H-M "P -1"
_symmetry_group_IT_number 2
_symmetry_cell_setting 'triclinic'
loop_
_space_group_symop_operation_xyz
x,y,z
-x,-y,-z
loop_
_atom_site_type_symbol
_atom_site_label
_atom_site_fract_x
_atom_site_fract_y
_atom_site_fract_z
Si Si1 0.441418 0.258505 0.826288
Si Si2 0.737735 0.257167 0.275769
Si Si3 0.977905 0.844364 0.073855
Si Si4 0.107965 0.670841 0.961903
Si Si5 0.282139 0.484690 0.666390
Si Si6 0.809766 0.293681 0.538641
Si Si7 0.432351 0.925769 0.277312
O O1 0.643716 0.271963 0.949397
O O2 0.462396 0.409663 0.727495
O O3 0.404946 0.130610 0.750739
O O4 0.232290 0.223834 0.872636
O O5 0.668439 0.398872 0.239811
O O6 0.865863 0.251806 0.426708
O O7 0.526845 0.102140 0.258990
O O8 0.888675 0.283258 0.185390
O O9 0.956020 0.741386 0.979326
O O10 0.195632 0.858651 0.183942
O O11 0.000000 0.000000 0.000000
O O12 0.000000 0.500000 0.000000
O O13 0.290547 0.578174 0.526525
O O14 0.032378 0.356082 0.650148
O O15 0.615473 0.150094 0.586066
#
# Coordination Sequence:
#
# PCOD8011850 Si02
#       7
#     2   2   2   2   2   2   2
#     4  11  23  40  65  93 122 166 213 252 313 378
#     4  10  21  39  64  94 126 163 208 261 304 375
#     4  11  23  40  63  89 127 167 205 257 315 370
#     4  11  25  40  66  93 128 163 206 264 315 362
#     4   9  20  39  67  86 125 168 208 254 304 372
#     4   9  20  40  68  86 128 170 206 253 316 362
#     4  11  22  39  67  92 127 166 206 258 316 364
#
# _framework density 20.785148
#
# number of rings (size 3 to 8) (size 9 to 14) (size 15 to 20)
#    0.857    0.857    1.429    3.000    2.000    6.286 
#    0.000    0.714    0.000    0.000    0.000    0.000 
#    0.000    0.000    0.000    0.000    0.000    0.000 
#
# Total GULP energy -173432.661341 kJ/mol
# GULP energy per Si atom -12388.047239 kJ/mol
# Density = 2.073784 g / cm^3
# Si number density = 20.785148 Si / 1000 Ang^3
#
#
#
# Elastic Constant Matrix: (Units=GPa)
#
#
# Indices 1 2 3 4 5 6 
#
# 1 78.0380 38.5080 41.8550 5.4164 -20.4845 -12.0234
# 2 38.5080 132.9318 47.6046 7.5273 -20.0439 -0.8420
# 3 41.8550 47.6046 110.8759 0.2777 -28.7130 -4.9758
# 4 5.4164 7.5273 0.2777 35.0292 0.0380 -2.8277
# 5 -20.4845 -20.0439 -28.7130 0.0380 25.9046 -10.0703
# 6 -12.0234 -0.8420 -4.9758 -2.8277 -10.0703 33.7752
#
#
#
# Elastic Compliance Matrix: (Units=1/GPa)
#
#
# Indices 1 2 3 4 5 6 
#
# 1 0.022057 -0.002807 -0.001822 -0.001780 0.018230 0.012800
# 2 -0.002807 0.009671 -0.002545 -0.001676 0.002206 -0.000616
# 3 -0.001822 -0.002545 0.015206 0.001205 0.015922 0.006376
# 4 -0.001780 -0.001676 0.001205 0.029314 -0.000736 0.001737
# 5 0.018230 0.002206 0.015922 -0.000736 0.085745 0.034394
# 6 0.012800 -0.000616 0.006376 0.001737 0.034394 0.045488
#
#
# Mechanical properties :
#
#
# Convention : Reuss Voigt Hill
#
# Bulk Modulus (GPa) = 30.68691 64.19787 47.44239
# Shear Modulus (GPa) = 21.48790 31.86701 26.67746
#
# Velocity S-wave (km/s) = 3.21878 3.91981 3.58646
# Velocity P-wave (km/s) = 5.34883 7.17217 6.32653
#
# Compressibility (1/GPa) = 0.03258718
#
# Stress axis : x y z
#
# Youngs Moduli (GPa) = 45.33701 103.40607 65.76520
#
# Poissons Ratio (x) = 0.29022 0.11980
# Poissons Ratio (y) = 0.12724 0.16736
# Poissons Ratio (z) = 0.08259 0.26315
#
# Static dielectric constant tensor:
#      x y z
#    x 4.057810 -0.427350 0.258860 
#    y -0.427350 4.056920 -0.176320 
#    z 0.258860 -0.176320 4.050060 
# 
# 
# High freq. dielectric constant tensor:
#      x y z
#    x 1.778490 0.000700 -0.007370 
#    y 0.000700 1.827400 -0.009120 
#    z -0.007370 -0.009120 1.820790 
# 
# From -- ./inp_files/81041.got.cif
#   From: 2010.06.25/outbox.cif.g09.slc.cpg/sg2_41_cif.got.tgz:81041.got - 2010.06.27 13:26:56.
