data_PCOD8011047
_publ_section_title
;
Structure prediction by ZEFSAII (Michael W. Deem and Ramdas Pophale) SiO2 
 PCOD8011047
Probable space group: P -1
;
_chemical_formula_sum "Si O2"
_cell_formula_units_Z 12
_cell_length_a 11.369935
_cell_length_b 9.231763
_cell_length_c 9.349288
_cell_angle_alpha 50.280375
_cell_angle_beta 131.728654
_cell_angle_gamma 107.355427
_cell_volume 549.365158
_symmetry_space_group_name_H-M "P -1"
_symmetry_group_IT_number 2
_symmetry_cell_setting 'triclinic'
loop_
_space_group_symop_operation_xyz
x,y,z
-x,-y,-z
loop_
_atom_site_type_symbol
_atom_site_label
_atom_site_fract_x
_atom_site_fract_y
_atom_site_fract_z
Si Si1 0.220449 0.248375 0.959585
Si Si2 0.137988 0.371426 0.373297
Si Si3 0.931311 0.781605 0.876342
Si Si4 0.341905 0.605891 0.885214
Si Si5 0.026259 0.823535 0.406883
Si Si6 0.440747 0.200196 0.903853
O O1 0.236634 0.446541 0.927467
O O2 0.369931 0.162011 0.028836
O O3 0.055373 0.285662 0.710642
O O4 0.194356 0.123770 0.157075
O O5 0.166906 0.286280 0.290543
O O6 0.307706 0.343878 0.611837
O O7 0.027307 0.241657 0.441023
O O8 0.060971 0.599510 0.160960
O O9 0.026836 0.944699 0.802241
O O10 0.222399 0.768320 0.591529
O O11 0.500000 0.500000 0.000000
O O12 0.403548 0.703820 0.012868
O O13 0.500000 0.000000 0.000000
#
# Coordination Sequence:
#
# PCOD8011047 Si02
#       6
#     2   2   2   2   2   2
#     4  10  22  41  65  95 127 162 220 261 307 376
#     4  10  23  41  67  91 135 161 215 264 317 373
#     4  11  22  39  67 102 120 163 224 266 306 368
#     4  10  21  38  66  91 128 171 202 258 325 374
#     4  11  21  40  70  89 127 171 214 259 314 377
#     4  10  22  42  67  93 128 176 207 253 329 384
#
# _framework density 21.843395999999998
#
# number of rings (size 3 to 8) (size 9 to 14) (size 15 to 20)
#    0.000    1.667    1.667    2.500    4.667    1.333 
#    0.000    8.333    3.667    0.000    0.000    0.000 
#    0.000    0.000    0.000    0.000    0.000    0.000 
#
# Total GULP energy -148667.124246 kJ/mol
# GULP energy per Si atom -12388.927020 kJ/mol
# Density = 2.179368 g / cm^3
# Si number density = 21.843396 Si / 1000 Ang^3
#
#
#
# Elastic Constant Matrix: (Units=GPa)
#
#
# Indices 1 2 3 4 5 6 
#
# 1 83.0525 47.4047 62.8732 7.0670 -4.7239 -11.0241
# 2 47.4047 161.1910 70.0866 12.1482 11.7820 10.7789
# 3 62.8732 70.0866 115.8808 -0.9205 2.0429 15.3579
# 4 7.0670 12.1482 -0.9205 47.7533 8.0757 -0.6991
# 5 -4.7239 11.7820 2.0429 8.0757 33.2188 11.0142
# 6 -11.0241 10.7789 15.3579 -0.6991 11.0142 35.1839
#
#
#
# Elastic Compliance Matrix: (Units=1/GPa)
#
#
# Indices 1 2 3 4 5 6 
#
# 1 0.027876 -0.002105 -0.016008 -0.003901 0.001387 0.015856
# 2 -0.002105 0.008996 -0.004156 -0.001636 -0.002561 -0.000832
# 3 -0.016008 -0.004156 0.021632 0.003381 0.001556 -0.013605
# 4 -0.003901 -0.001636 0.003381 0.022980 -0.005793 0.000073
# 5 0.001387 -0.002561 0.001556 -0.005793 0.036131 -0.010886
# 6 0.015856 -0.000832 -0.013605 0.000073 -0.010886 0.042993
#
#
# Mechanical properties :
#
#
# Convention : Reuss Voigt Hill
#
# Bulk Modulus (GPa) = 71.61173 80.09481 75.85327
# Shear Modulus (GPa) = 23.83181 35.21520 29.52350
#
# Velocity S-wave (km/s) = 3.30666 4.01954 3.68040
# Velocity P-wave (km/s) = 6.88723 7.63476 7.27061
#
# Compressibility (1/GPa) = 0.01396419
#
# Stress axis : x y z
#
# Youngs Moduli (GPa) = 35.87257 111.15607 46.22884
#
# Poissons Ratio (x) = 0.23402 0.74005
# Poissons Ratio (y) = 0.07552 0.19215
# Poissons Ratio (z) = 0.57426 0.46201
#
# Static dielectric constant tensor:
#      x y z
#    x 4.082180 0.321830 0.041360 
#    y 0.321830 4.560330 0.314710 
#    z 0.041360 0.314710 4.056330 
# 
# 
# High freq. dielectric constant tensor:
#      x y z
#    x 1.843420 -0.001500 -0.000670 
#    y -0.001500 1.874350 0.012410 
#    z -0.000670 0.012410 1.846310 
# 
# From -- ./inp_files/145003.got.cif
#   From: 2010.06.25/outbox.cif.g09.slc.cpg/sg2_73_cif.got.tgz:145003.got - 2010.06.27 13:26:56.
