data_PCOD8011545
_publ_section_title
;
Structure prediction by ZEFSAII (Michael W. Deem and Ramdas Pophale) SiO2 
 PCOD8011545
Probable space group: P -1
;
_chemical_formula_sum "Si O2"
_cell_formula_units_Z 16
_cell_length_a 13.511537
_cell_length_b 9.653836
_cell_length_c 14.325682
_cell_angle_alpha 57.234405
_cell_angle_beta 150.702800
_cell_angle_gamma 112.899006
_cell_volume 753.146117
_symmetry_space_group_name_H-M "P -1"
_symmetry_group_IT_number 2
_symmetry_cell_setting 'triclinic'
loop_
_space_group_symop_operation_xyz
x,y,z
-x,-y,-z
loop_
_atom_site_type_symbol
_atom_site_label
_atom_site_fract_x
_atom_site_fract_y
_atom_site_fract_z
Si Si1 0.736145 0.365650 0.327050
Si Si2 0.083834 0.374763 0.034344
Si Si3 0.546302 0.494501 0.792611
Si Si4 0.583246 0.907842 0.509019
Si Si5 0.401795 0.166584 0.804815
Si Si6 0.647829 0.371490 0.601869
Si Si7 0.430763 0.929660 0.755162
Si Si8 0.813198 0.713796 0.236224
O O1 0.542314 0.415243 0.218511
O O2 0.687163 0.224391 0.265790
O O3 0.762210 0.532989 0.231076
O O4 0.946859 0.289010 0.585109
O O5 0.232120 0.457964 0.059322
O O6 0.198445 0.207090 0.241892
O O7 0.000000 0.500000 0.000000
O O8 0.891250 0.341332 0.829642
O O9 0.563014 0.291875 0.880344
O O10 0.385938 0.566385 0.553722
O O11 0.417122 0.805500 0.371786
O O12 0.500000 0.000000 0.500000
O O13 0.604541 0.035105 0.396728
O O14 0.216427 0.262729 0.683246
O O15 0.335209 0.099615 0.673816
O O16 0.500000 0.000000 0.000000
O O17 0.500000 0.500000 0.500000
O O18 0.671330 0.863667 0.006005
#
# Coordination Sequence:
#
# PCOD8011545 Si02
#       8
#     2   2   2   2   2   2   2   2
#     4  10  21  39  62  91 124 162 211 256 308 392
#     4  11  23  41  67  90 124 171 221 261 312 381
#     4  10  21  39  63  89 122 162 213 254 308 381
#     4  11  25  41  61  98 135 161 213 271 317 378
#     4   9  20  39  60  91 123 157 203 263 309 370
#     4  11  21  41  65  88 123 169 215 261 311 379
#     4  11  21  37  64  89 128 163 204 259 328 363
#     4   9  21  41  62  87 124 167 208 257 316 376
#
# _framework density 21.244216000000002
#
# number of rings (size 3 to 8) (size 9 to 14) (size 15 to 20)
#    0.000    1.750    2.500    2.625    0.000    4.000 
#    2.250    6.250    0.000    0.000    0.000    0.000 
#    0.000    0.000    0.000    0.000    0.000    0.000 
#
# Total GULP energy -198319.392866 kJ/mol
# GULP energy per Si atom -12394.962054 kJ/mol
# Density = 2.119586 g / cm^3
# Si number density = 21.244216 Si / 1000 Ang^3
#
#
#
# Elastic Constant Matrix: (Units=GPa)
#
#
# Indices 1 2 3 4 5 6 
#
# 1 71.3207 24.1552 27.5385 5.1878 10.5824 -3.8076
# 2 24.1552 128.8504 30.9817 6.4462 13.7207 -5.4458
# 3 27.5385 30.9817 119.1003 6.2423 14.0231 11.0750
# 4 5.1878 6.4462 6.2423 36.5759 5.6210 2.5487
# 5 10.5824 13.7207 14.0231 5.6210 35.4141 2.5247
# 6 -3.8076 -5.4458 11.0750 2.5487 2.5247 34.6508
#
#
#
# Elastic Compliance Matrix: (Units=1/GPa)
#
#
# Indices 1 2 3 4 5 6 
#
# 1 0.016564 -0.001835 -0.003204 -0.001221 -0.002980 0.002863
# 2 -0.001835 0.008890 -0.001770 -0.000803 -0.002209 0.001981
# 3 -0.003204 -0.001770 0.010207 -0.000399 -0.002071 -0.003713
# 4 -0.001221 -0.000803 -0.000399 0.028403 -0.003534 -0.001964
# 5 -0.002980 -0.002209 -0.002071 -0.003534 0.031511 -0.002049
# 6 0.002863 0.001981 -0.003713 -0.001964 -0.002049 0.030966
#
#
# Mechanical properties :
#
#
# Convention : Reuss Voigt Hill
#
# Bulk Modulus (GPa) = 45.36768 53.84691 49.60730
# Shear Modulus (GPa) = 33.89687 37.10123 35.49905
#
# Velocity S-wave (km/s) = 3.99881 4.18355 4.09222
# Velocity P-wave (km/s) = 6.53623 6.98124 6.76240
#
# Compressibility (1/GPa) = 0.02204212
#
# Stress axis : x y z
#
# Youngs Moduli (GPa) = 60.37328 112.48908 97.96734
#
# Poissons Ratio (x) = 0.20647 0.31386
# Poissons Ratio (y) = 0.11081 0.17342
# Poissons Ratio (z) = 0.19342 0.19913
#
# Static dielectric constant tensor:
#      x y z
#    x 3.860280 -0.345470 -0.140780 
#    y -0.345470 4.414450 -0.028920 
#    z -0.140780 -0.028920 3.474140 
# 
# 
# High freq. dielectric constant tensor:
#      x y z
#    x 1.823460 -0.006770 -0.002120 
#    y -0.006770 1.852340 -0.005480 
#    z -0.002120 -0.005480 1.820400 
# 
# From -- ./inp_files/529484.got.cif
#   From: 2010.06.25/outbox.cif.g09.slc.cpg/sg2_265_cif.got.tgz:529484.got - 2010.06.27 13:26:56.
