data_PCOD8011155
_publ_section_title
;
Structure prediction by ZEFSAII (Michael W. Deem and Ramdas Pophale) SiO2 
 PCOD8011155
Probable space group: P -1
;
_chemical_formula_sum "Si O2"
_cell_formula_units_Z 16
_cell_length_a 8.553573
_cell_length_b 14.345171
_cell_length_c 6.508771
_cell_angle_alpha 72.687200
_cell_angle_beta 87.807198
_cell_angle_gamma 93.558536
_cell_volume 759.639093
_symmetry_space_group_name_H-M "P -1"
_symmetry_group_IT_number 2
_symmetry_cell_setting 'triclinic'
loop_
_space_group_symop_operation_xyz
x,y,z
-x,-y,-z
loop_
_atom_site_type_symbol
_atom_site_label
_atom_site_fract_x
_atom_site_fract_y
_atom_site_fract_z
Si Si1 0.660664 0.661908 0.520755
Si Si2 0.574529 0.805777 0.094817
Si Si3 0.614416 0.427386 0.152213
Si Si4 0.183806 0.519524 0.523619
Si Si5 0.211597 0.055286 0.777942
Si Si6 0.036733 0.857010 0.982939
Si Si7 0.780345 0.826745 0.685925
Si Si8 0.741280 0.301316 0.866471
O O1 0.647219 0.714539 0.266597
O O2 0.489962 0.644128 0.644421
O O3 0.730575 0.558330 0.562146
O O4 0.779357 0.729052 0.613120
O O5 0.626206 0.907474 0.141448
O O6 0.388375 0.787015 0.116999
O O7 0.632870 0.812911 0.853989
O O8 0.755485 0.485668 0.238990
O O9 0.500000 0.500000 0.000000
O O10 0.699329 0.361514 0.029640
O O11 0.240353 0.627221 0.373821
O O12 0.000000 0.500000 0.500000
O O13 0.232508 0.078775 0.520733
O O14 0.179201 0.939798 0.888849
O O15 0.070434 0.114365 0.840209
O O16 0.941290 0.846774 0.784352
O O17 0.097980 0.750774 0.085183
#
# Coordination Sequence:
#
# PCOD8011155 Si02
#       8
#     2   2   2   2   2   2   2   2
#     4  11  22  41  66  87 125 174 214 253 316 390
#     4  10  21  40  65  92 122 166 217 256 310 387
#     4  12  24  44  66  89 125 181 219 258 317 390
#     4  12  29  41  63  97 134 168 214 277 324 372
#     4   9  21  43  66  92 125 169 208 254 330 385
#     4  10  23  40  65  96 131 162 204 269 322 382
#     4  10  21  38  68  92 120 167 216 256 314 386
#     4  12  25  41  63  96 129 164 218 266 317 374
#
# _framework density 21.062633999999999
#
# number of rings (size 3 to 8) (size 9 to 14) (size 15 to 20)
#    0.000    1.250    3.750    1.500    7.000    1.000 
#    0.000    0.625    0.000    0.000    0.000    0.000 
#    0.000    0.000    0.000    0.000    0.000    0.000 
#
# Total GULP energy -198382.750916 kJ/mol
# GULP energy per Si atom -12398.921932 kJ/mol
# Density = 2.101469 g / cm^3
# Si number density = 21.062634 Si / 1000 Ang^3
#
#
#
# Elastic Constant Matrix: (Units=GPa)
#
#
# Indices 1 2 3 4 5 6 
#
# 1 79.2304 21.8988 27.3175 11.6873 7.8385 18.6962
# 2 21.8988 67.1464 21.6709 0.4637 7.3337 4.7739
# 3 27.3175 21.6709 120.8313 0.9683 -0.0586 4.3510
# 4 11.6873 0.4637 0.9683 26.6854 10.3274 0.9860
# 5 7.8385 7.3337 -0.0586 10.3274 30.4355 1.0838
# 6 18.6962 4.7739 4.3510 0.9860 1.0838 43.9272
#
#
#
# Elastic Compliance Matrix: (Units=1/GPa)
#
#
# Indices 1 2 3 4 5 6 
#
# 1 0.017397 -0.004125 -0.002905 -0.006838 -0.000941 -0.006492
# 2 -0.004125 0.017385 -0.002218 0.003216 -0.004227 0.000118
# 3 -0.002905 -0.002218 0.009308 0.000527 0.001103 0.000516
# 4 -0.006838 0.003216 0.000527 0.046011 -0.014691 0.001838
# 5 -0.000941 -0.004227 0.001103 -0.014691 0.039100 0.000115
# 6 -0.006492 0.000118 0.000516 0.001838 0.000115 0.025420
#
#
# Mechanical properties :
#
#
# Convention : Reuss Voigt Hill
#
# Bulk Modulus (GPa) = 39.06999 45.44251 42.25625
# Shear Modulus (GPa) = 27.52596 33.29768 30.41182
#
# Velocity S-wave (km/s) = 3.61898 3.98035 3.80396
# Velocity P-wave (km/s) = 6.00436 6.53805 6.27688
#
# Compressibility (1/GPa) = 0.02559510
#
# Stress axis : x y z
#
# Youngs Moduli (GPa) = 57.48206 57.52182 107.43178
#
# Poissons Ratio (x) = 0.23725 0.31211
# Poissons Ratio (y) = 0.23709 0.23823
# Poissons Ratio (z) = 0.16700 0.12756
#
# Static dielectric constant tensor:
#      x y z
#    x 3.763990 0.373120 -0.032260 
#    y 0.373120 3.787720 0.012090 
#    z -0.032260 0.012090 3.919220 
# 
# 
# High freq. dielectric constant tensor:
#      x y z
#    x 1.817130 0.027040 -0.001020 
#    y 0.027040 1.822790 -0.000540 
#    z -0.001020 -0.000540 1.835560 
# 
# From -- ./inp_files/37409.got.cif
#   From: 2010.06.25/outbox.cif.g09.slc.cpg/sg2_19_cif.got.tgz:37409.got - 2010.06.27 13:26:56.
