data_PCOD8011522
_publ_section_title
;
Structure prediction by ZEFSAII (Michael W. Deem and Ramdas Pophale) SiO2 
 PCOD8011522
Probable space group: P -1
;
_chemical_formula_sum "Si O2"
_cell_formula_units_Z 16
_cell_length_a 20.452296
_cell_length_b 9.680909
_cell_length_c 11.931580
_cell_angle_alpha 105.216586
_cell_angle_beta 41.460425
_cell_angle_gamma 137.724877
_cell_volume 794.437734
_symmetry_space_group_name_H-M "P -1"
_symmetry_group_IT_number 2
_symmetry_cell_setting 'triclinic'
loop_
_space_group_symop_operation_xyz
x,y,z
-x,-y,-z
loop_
_atom_site_type_symbol
_atom_site_label
_atom_site_fract_x
_atom_site_fract_y
_atom_site_fract_z
Si Si1 0.321982 0.388306 0.695820
Si Si2 0.050739 0.139224 0.804833
Si Si3 0.494995 0.915205 0.607224
Si Si4 0.907680 0.479040 0.210205
Si Si5 0.716809 0.410838 0.791814
Si Si6 0.105459 0.100818 0.272605
Si Si7 0.918293 0.236191 0.726143
Si Si8 0.396878 0.949626 0.957447
O O1 0.500000 0.500000 0.500000
O O2 0.213170 0.252736 0.686724
O O3 0.393910 0.637528 0.677779
O O4 0.161994 0.144384 0.936937
O O5 0.106171 0.374705 0.783796
O O6 0.043358 0.065879 0.673568
O O7 0.392394 0.891879 0.822880
O O8 0.500000 0.000000 0.500000
O O9 0.708146 0.161197 0.425399
O O10 0.018117 0.599990 0.210273
O O11 0.000000 0.500000 0.000000
O O12 0.728624 0.579203 0.874796
O O13 0.915926 0.593209 0.537123
O O14 0.591113 0.267061 0.809990
O O15 0.622292 0.203474 0.965566
O O16 0.183310 0.034709 0.158512
O O17 0.000000 0.000000 0.500000
O O18 0.771120 0.147568 0.827799
#
# Coordination Sequence:
#
# PCOD8011522 Si02
#       8
#     2   2   2   2   2   2   2   2
#     4  11  24  42  64  91 127 167 208 253 314 377
#     4  10  22  43  63  90 129 163 205 259 310 369
#     4  12  23  40  62  94 127 162 206 261 314 364
#     4  11  21  39  63  93 127 163 206 256 313 374
#     4  10  21  42  60  87 128 157 203 255 305 361
#     4   9  20  40  64  86 120 163 204 252 303 358
#     4  10  21  39  62  90 118 160 210 246 303 373
#     4  11  23  38  63  90 123 161 199 257 309 364
#
# _framework density 20.140032000000001
#
# number of rings (size 3 to 8) (size 9 to 14) (size 15 to 20)
#    0.000    1.500    2.500    2.625    0.000    1.500 
#    2.250    5.000    0.000    0.000    0.000    0.000 
#    0.000    0.000    0.000    0.000    0.000    0.000 
#
# Total GULP energy -198316.361442 kJ/mol
# GULP energy per Si atom -12394.772590 kJ/mol
# Density = 2.009419 g / cm^3
# Si number density = 20.140032 Si / 1000 Ang^3
#
#
#
# Elastic Constant Matrix: (Units=GPa)
#
#
# Indices 1 2 3 4 5 6 
#
# 1 87.5917 34.2325 22.7391 -6.4994 -2.3996 25.3016
# 2 34.2325 131.5328 29.6645 -10.2891 0.2265 22.4066
# 3 22.7391 29.6645 84.7434 -8.3832 -7.4092 14.9800
# 4 -6.4994 -10.2891 -8.3832 31.5001 7.8235 13.4669
# 5 -2.3996 0.2265 -7.4092 7.8235 36.6188 -0.3427
# 6 25.3016 22.4066 14.9800 13.4669 -0.3427 17.5692
#
#
#
# Elastic Compliance Matrix: (Units=1/GPa)
#
#
# Indices 1 2 3 4 5 6 
#
# 1 -0.047931 -0.033158 -0.030431 -0.138880 0.022864 0.244159
# 2 -0.033158 -0.006050 -0.016188 -0.067441 0.010132 0.121161
# 3 -0.030431 -0.016188 0.000831 -0.062239 0.012617 0.111714
# 4 -0.138880 -0.067441 -0.062239 -0.285599 0.044972 0.558871
# 5 0.022864 0.010132 0.012617 0.044972 0.020840 -0.090670
# 6 0.244159 0.121161 0.111714 0.558871 -0.090670 -0.974618
#
#
# Mechanical properties :
#
#
# Convention : Reuss Voigt Hill
#
# Bulk Modulus (GPa) = -4.70136 53.01557 24.15710
# Shear Modulus (GPa) = -4.15326 31.61975 13.73324
#
# Velocity S-wave (km/s) = -1.43759 3.96661 2.61413
# Velocity P-wave (km/s) = 2.25720 6.88181 4.59698
#
# Compressibility (1/GPa) = -0.21270435
#
# Stress axis : x y z
#
# Youngs Moduli (GPa) = -20.86347 -165.30279 1202.95345
#
# Poissons Ratio (x) = -5.48116 36.60720
# Poissons Ratio (y) = -0.69180 19.47377
# Poissons Ratio (z) = -0.63490 -2.67597
#
# Static dielectric constant tensor:
#      x y z
#    x 3.722630 0.086380 0.111570 
#    y 0.086380 4.201570 -0.085850 
#    z 0.111570 -0.085850 3.503750 
# 
# 
# High freq. dielectric constant tensor:
#      x y z
#    x 1.788100 0.009810 0.012780 
#    y 0.009810 1.804340 -0.010400 
#    z 0.012780 -0.010400 1.776890 
# 
# From -- ./inp_files/455258.got.cif
#   From: 2010.06.25/outbox.cif.g09.slc.cpg/sg2_228_cif.got.tgz:455258.got - 2010.06.27 13:26:56.
