data_PCOD8011170
_publ_section_title
;
Structure prediction by ZEFSAII (Michael W. Deem and Ramdas Pophale) SiO2 
 PCOD8011170
Probable space group: P -1
;
_chemical_formula_sum "Si O2"
_cell_formula_units_Z 14
_cell_length_a 23.954381
_cell_length_b 8.932888
_cell_length_c 16.246758
_cell_angle_alpha 142.937734
_cell_angle_beta 17.146951
_cell_angle_gamma 145.337266
_cell_volume 581.437496
_symmetry_space_group_name_H-M "P -1"
_symmetry_group_IT_number 2
_symmetry_cell_setting 'triclinic'
loop_
_space_group_symop_operation_xyz
x,y,z
-x,-y,-z
loop_
_atom_site_type_symbol
_atom_site_label
_atom_site_fract_x
_atom_site_fract_y
_atom_site_fract_z
Si Si1 0.927762 0.810751 0.096052
Si Si2 0.726913 0.019957 0.614361
Si Si3 0.658415 0.259355 0.264976
Si Si4 0.304993 0.531938 0.247806
Si Si5 0.889067 0.869836 0.783864
Si Si6 0.478796 0.463038 0.760573
Si Si7 0.687798 0.244312 0.499607
O O1 0.751977 0.530655 0.200563
O O2 0.856787 0.955569 0.331311
O O3 0.129896 0.757203 0.817590
O O4 0.000000 0.000000 0.000000
O O5 0.650970 0.257500 0.797696
O O6 0.876920 0.084967 0.509763
O O7 0.528966 0.771881 0.806062
O O8 0.571647 0.317282 0.499336
O O9 0.472226 0.050692 0.387097
O O10 0.836445 0.139076 0.977619
O O11 0.158919 0.257316 0.295986
O O12 0.208206 0.636235 0.507192
O O13 0.500000 0.500000 0.000000
O O14 0.760590 0.674967 0.951995
O O15 0.569183 0.421901 0.704161
#
# Coordination Sequence:
#
# PCOD8011170 Si02
#       7
#     2   2   2   2   2   2   2
#     4  11  22  40  65 100 133 161 209 279 327 374
#     4  11  24  43  67  98 127 169 223 268 317 387
#     4  10  21  38  68  98 125 170 214 260 329 389
#     4  12  24  45  65  91 138 178 213 265 317 386
#     4  11  22  43  67  94 131 174 219 261 317 387
#     4  10  21  40  70  96 128 167 217 271 323 380
#     4  11  21  42  65  95 134 169 212 265 326 378
#
# _framework density 24.078253
#
# number of rings (size 3 to 8) (size 9 to 14) (size 15 to 20)
#    0.000    1.143    4.286    4.714    0.000    3.429 
#    2.571    4.286    0.000    0.000    0.000    0.000 
#    0.000    0.000    0.000    0.000    0.000    0.000 
#
# Total GULP energy -173551.136823 kJ/mol
# GULP energy per Si atom -12396.509773 kJ/mol
# Density = 2.402345 g / cm^3
# Si number density = 24.078253 Si / 1000 Ang^3
#
#
#
# Elastic Constant Matrix: (Units=GPa)
#
#
# Indices 1 2 3 4 5 6 
#
# 1 91.3839 33.9358 8.7607 7.4312 11.1069 15.0141
# 2 33.9358 133.1052 29.8703 3.8017 5.6302 -0.5129
# 3 8.7607 29.8703 42.7456 -5.0867 -16.7829 4.8527
# 4 7.4312 3.8017 -5.0867 36.6756 -5.6492 3.6376
# 5 11.1069 5.6302 -16.7829 -5.6492 23.4967 -3.5989
# 6 15.0141 -0.5129 4.8527 3.6376 -3.5989 31.4821
#
#
#
# Elastic Compliance Matrix: (Units=1/GPa)
#
#
# Indices 1 2 3 4 5 6 
#
# 1 0.015843 -0.001384 -0.008269 -0.005884 -0.015613 -0.007408
# 2 -0.001384 0.011635 -0.013708 -0.005006 -0.012810 0.002076
# 3 -0.008269 -0.013708 0.057976 0.019450 0.053066 -0.001397
# 4 -0.005884 -0.005006 0.019450 0.035863 0.026279 -0.001413
# 5 -0.015613 -0.012810 0.053066 0.026279 0.098342 0.007263
# 6 -0.007408 0.002076 -0.001397 -0.001413 0.007263 0.036540
#
#
# Mechanical properties :
#
#
# Convention : Reuss Voigt Hill
#
# Bulk Modulus (GPa) = 25.81849 45.81868 35.81858
# Shear Modulus (GPa) = 15.83135 31.30876 23.57005
#
# Velocity S-wave (km/s) = 2.56695 3.60987 3.13212
# Velocity P-wave (km/s) = 4.41946 6.03699 5.29041
#
# Compressibility (1/GPa) = 0.03873194
#
# Stress axis : x y z
#
# Youngs Moduli (GPa) = 63.12081 85.95093 17.24866
#
# Poissons Ratio (x) = 0.11891 0.14263
# Poissons Ratio (y) = 0.08733 0.23644
# Poissons Ratio (z) = 0.52197 1.17818
#
# Static dielectric constant tensor:
#      x y z
#    x 4.335020 0.122510 0.229290 
#    y 0.122510 4.453140 0.134420 
#    z 0.229290 0.134420 4.946170 
# 
# 
# High freq. dielectric constant tensor:
#      x y z
#    x 1.937590 0.004950 0.008810 
#    y 0.004950 1.956100 0.016960 
#    z 0.008810 0.016960 1.968600 
# 
# From -- ./inp_files/579643.got.cif
#   From: 2010.06.25/outbox.cif.g09.slc.cpg/sg2_290_cif.got.tgz:579643.got - 2010.06.27 13:26:56.
