data_PCOD8011643
_publ_section_title
;
Structure prediction by ZEFSAII (Michael W. Deem and Ramdas Pophale) SiO2 
 PCOD8011643
Probable space group: P -1
;
_chemical_formula_sum "Si O2"
_cell_formula_units_Z 12
_cell_length_a 18.230900
_cell_length_b 5.189436
_cell_length_c 21.192920
_cell_angle_alpha 70.288654
_cell_angle_beta 18.823682
_cell_angle_gamma 61.269461
_cell_volume 515.874359
_symmetry_space_group_name_H-M "P -1"
_symmetry_group_IT_number 2
_symmetry_cell_setting 'triclinic'
loop_
_space_group_symop_operation_xyz
x,y,z
-x,-y,-z
loop_
_atom_site_type_symbol
_atom_site_label
_atom_site_fract_x
_atom_site_fract_y
_atom_site_fract_z
Si Si1 0.839319 0.081063 0.716003
Si Si2 0.379112 0.178304 0.517686
Si Si3 0.432511 0.817489 0.283745
Si Si4 0.381966 0.197653 0.173355
Si Si5 0.208082 0.734501 0.688716
Si Si6 0.332086 0.917914 0.833957
O O1 0.777039 0.423767 0.711560
O O2 0.822643 0.878163 0.688758
O O3 0.637256 0.112744 0.931372
O O4 0.130702 0.897389 0.525017
O O5 0.188844 0.561156 0.655578
O O6 0.615259 0.095617 0.282864
O O7 0.500000 0.000000 0.500000
O O8 0.186817 0.063183 0.656591
O O9 0.615153 0.429828 0.160361
O O10 0.492173 0.979736 0.163546
O O11 0.486903 0.968116 0.288611
O O12 0.500000 0.500000 0.500000
O O13 0.977233 0.811891 0.920890
#
# Coordination Sequence:
#
# PCOD8011643 Si02
#       6
#     2   2   2   2   2   2
#     4  10  21  39  63  90 124 172 220 256 306 383
#     4  10  23  43  68  92 123 167 215 268 322 394
#     4  12  24  39  63  94 136 168 206 274 330 375
#     4  10  21  39  63  90 124 172 220 256 306 383
#     4  10  23  43  68  92 123 167 215 268 322 394
#     4  12  26  41  63 100 132 168 216 272 336 383
#
# _framework density 23.261475999999998
#
# number of rings (size 3 to 8) (size 9 to 14) (size 15 to 20)
#    0.000    1.333    0.000    5.000    0.000    9.333 
#    0.000    0.000    0.000    0.000    0.000    0.000 
#    0.000    0.000    0.000    0.000    0.000    0.000 
#
# Total GULP energy -148766.853374 kJ/mol
# GULP energy per Si atom -12397.237781 kJ/mol
# Density = 2.320853 g / cm^3
# Si number density = 23.261476 Si / 1000 Ang^3
#
#
#
# Elastic Constant Matrix: (Units=GPa)
#
#
# Indices 1 2 3 4 5 6 
#
# 1 106.3497 68.5723 61.3939 -1.1352 17.7931 15.1783
# 2 68.5723 153.8031 61.9802 -12.6071 2.5957 44.0811
# 3 61.3939 61.9802 137.6150 -1.0225 23.1893 4.6973
# 4 -1.1352 -12.6071 -1.0225 31.9126 3.7124 -0.3702
# 5 17.7931 2.5957 23.1893 3.7124 35.4530 4.2418
# 6 15.1783 44.0811 4.6973 -0.3702 4.2418 47.0897
#
#
#
# Elastic Compliance Matrix: (Units=1/GPa)
#
#
# Indices 1 2 3 4 5 6 
#
# 1 0.016121 -0.006171 -0.003573 -0.001342 -0.005330 0.001406
# 2 -0.006171 0.014701 -0.004414 0.004631 0.005837 -0.011822
# 3 -0.003573 -0.004414 0.011697 -0.000742 -0.006014 0.004652
# 4 -0.001342 0.004631 -0.000742 0.033318 -0.002266 -0.003362
# 5 -0.005330 0.005837 -0.006014 -0.002266 0.035385 -0.006352
# 6 0.001406 -0.011822 0.004652 -0.003362 -0.006352 0.031931
#
#
# Mechanical properties :
#
#
# Convention : Reuss Voigt Hill
#
# Bulk Modulus (GPa) = 70.39864 86.85119 78.62492
# Shear Modulus (GPa) = 28.37637 36.61246 32.49441
#
# Velocity S-wave (km/s) = 3.49648 3.97161 3.74159
# Velocity P-wave (km/s) = 6.82863 7.64523 7.24844
#
# Compressibility (1/GPa) = 0.01420482
#
# Stress axis : x y z
#
# Youngs Moduli (GPa) = 62.03140 68.02199 85.48839
#
# Poissons Ratio (x) = 0.41976 0.30541
# Poissons Ratio (y) = 0.38279 0.37734
# Poissons Ratio (z) = 0.22161 0.30024
#
# Static dielectric constant tensor:
#      x y z
#    x -3.408760 -11.476070 0.257280 
#    y -11.476070 -14.356780 0.050510 
#    z 0.257280 0.050510 4.123980 
# 
# 
# High freq. dielectric constant tensor:
#      x y z
#    x 1.909920 0.029410 0.015300 
#    y 0.029410 1.941070 -0.013650 
#    z 0.015300 -0.013650 1.923390 
# 
# From -- ./inp_files/503502.got.cif
#   From: 2010.06.25/outbox.cif.g09.slc.cpg/sg2_252_cif.got.tgz:503502.got - 2010.06.27 13:26:56.
