data_PCOD8011554
_publ_section_title
;
Structure prediction by ZEFSAII (Michael W. Deem and Ramdas Pophale) SiO2 
 PCOD8011554
Probable space group: P -1
;
_chemical_formula_sum "Si O2"
_cell_formula_units_Z 14
_cell_length_a 22.354452
_cell_length_b 16.399857
_cell_length_c 8.983401
_cell_angle_alpha 33.448851
_cell_angle_beta 146.428204
_cell_angle_gamma 156.917522
_cell_volume 678.098446
_symmetry_space_group_name_H-M "P -1"
_symmetry_group_IT_number 2
_symmetry_cell_setting 'triclinic'
loop_
_space_group_symop_operation_xyz
x,y,z
-x,-y,-z
loop_
_atom_site_type_symbol
_atom_site_label
_atom_site_fract_x
_atom_site_fract_y
_atom_site_fract_z
Si Si1 0.550738 0.398022 0.336966
Si Si2 0.221414 0.957534 0.400431
Si Si3 0.992905 0.491011 0.234276
Si Si4 0.105840 0.030143 0.299426
Si Si5 0.769030 0.723476 0.533695
Si Si6 0.087362 0.884437 0.937944
Si Si7 0.140659 0.437491 0.397253
O O1 0.610995 0.489763 0.492249
O O2 0.683206 0.453783 0.421878
O O3 0.403465 0.134719 0.447907
O O4 0.500000 0.500000 0.000000
O O5 0.138841 0.713484 0.616471
O O6 0.222807 0.037814 0.441725
O O7 0.119565 0.949800 0.079726
O O8 0.113600 0.485666 0.430545
O O9 0.889448 0.464182 0.932595
O O10 0.101169 0.721771 0.190630
O O11 0.220079 0.251389 0.301361
O O12 0.991103 0.826607 0.487424
O O13 0.000000 0.000000 0.000000
O O14 0.911514 0.761479 0.713712
O O15 0.781302 0.898664 0.218820
#
# Coordination Sequence:
#
# PCOD8011554 Si02
#       7
#     2   2   2   2   2   2   2
#     4  12  23  41  63  94 132 164 198 262 325 368
#     4  11  24  36  63  94 126 161 207 262 312 368
#     4  10  21  39  66  89 121 166 218 254 296 372
#     4  11  20  38  64  94 119 160 218 265 295 361
#     4  11  21  36  67  90 124 166 210 255 312 369
#     4  11  19  40  63  94 117 163 220 258 297 374
#     4  10  21  39  62  92 122 167 207 251 314 370
#
# _framework density 20.645969999999998
#
# number of rings (size 3 to 8) (size 9 to 14) (size 15 to 20)
#    0.000    1.143    5.714    2.143    0.000    1.143 
#    0.000    0.714    0.000    0.000    0.000    0.000 
#    0.000    0.000    0.000    0.000    0.000    0.000 
#
# Total GULP energy -173523.212333 kJ/mol
# GULP energy per Si atom -12394.515167 kJ/mol
# Density = 2.059898 g / cm^3
# Si number density = 20.645970 Si / 1000 Ang^3
#
#
#
# Elastic Constant Matrix: (Units=GPa)
#
#
# Indices 1 2 3 4 5 6 
#
# 1 96.4991 36.5576 25.7438 3.7056 5.3541 0.4231
# 2 36.5576 101.9884 35.6827 -4.9275 -0.7355 8.5339
# 3 25.7438 35.6827 85.9738 0.4554 -6.3378 3.8904
# 4 3.7056 -4.9275 0.4554 30.4075 -2.8734 -2.9387
# 5 5.3541 -0.7355 -6.3378 -2.8734 35.9915 5.6305
# 6 0.4231 8.5339 3.8904 -2.9387 5.6305 40.4463
#
#
#
# Elastic Compliance Matrix: (Units=1/GPa)
#
#
# Indices 1 2 3 4 5 6 
#
# 1 0.012741 -0.003948 -0.002420 -0.002306 -0.002766 0.001150
# 2 -0.003948 0.012949 -0.004055 0.002491 0.000683 -0.002215
# 3 -0.002420 -0.004055 0.014298 -0.000391 0.002909 -0.000928
# 4 -0.002306 0.002491 -0.000391 0.033997 0.002786 0.001618
# 5 -0.002766 0.000683 0.002909 0.002786 0.029620 -0.004316
# 6 0.001150 -0.002215 -0.000928 0.001618 -0.004316 0.025987
#
#
# Mechanical properties :
#
#
# Convention : Reuss Voigt Hill
#
# Bulk Modulus (GPa) = 52.24180 53.38105 52.81143
# Shear Modulus (GPa) = 31.88390 33.80088 32.84239
#
# Velocity S-wave (km/s) = 3.93404 4.05058 3.99274
# Velocity P-wave (km/s) = 6.78190 6.91287 6.84770
#
# Compressibility (1/GPa) = 0.01914176
#
# Stress axis : x y z
#
# Youngs Moduli (GPa) = 78.48622 77.22325 69.94135
#
# Poissons Ratio (x) = 0.30486 0.16929
# Poissons Ratio (y) = 0.30985 0.28361
# Poissons Ratio (z) = 0.18997 0.31314
#
# Static dielectric constant tensor:
#      x y z
#    x 3.863640 -0.153470 -0.074790 
#    y -0.153470 3.593210 -0.101500 
#    z -0.074790 -0.101500 3.694230 
# 
# 
# High freq. dielectric constant tensor:
#      x y z
#    x 1.809670 -0.016490 -0.011700 
#    y -0.016490 1.782300 -0.008950 
#    z -0.011700 -0.008950 1.804590 
# 
# From -- ./inp_files/159337.got.cif
#   From: 2010.06.25/outbox.cif.g09.slc.cpg/sg2_80_cif.got.tgz:159337.got - 2010.06.27 13:26:56.
