data_PCOD8012014
_publ_section_title
;
Structure prediction by ZEFSAII (Michael W. Deem and Ramdas Pophale) SiO2 
 PCOD8012014
Probable space group: P -1
;
_chemical_formula_sum "Si O2"
_cell_formula_units_Z 16
_cell_length_a 15.973402
_cell_length_b 9.801190
_cell_length_c 12.417244
_cell_angle_alpha 37.449552
_cell_angle_beta 43.262632
_cell_angle_gamma 42.278990
_cell_volume 746.620556
_symmetry_space_group_name_H-M "P -1"
_symmetry_group_IT_number 2
_symmetry_cell_setting 'triclinic'
loop_
_space_group_symop_operation_xyz
x,y,z
-x,-y,-z
loop_
_atom_site_type_symbol
_atom_site_label
_atom_site_fract_x
_atom_site_fract_y
_atom_site_fract_z
Si Si1 0.526901 0.911900 0.150455
Si Si2 0.031996 0.405258 0.861041
Si Si3 0.083414 0.466847 0.334638
Si Si4 0.425655 0.645011 0.081829
Si Si5 0.194730 0.520138 0.811013
Si Si6 0.802109 0.142035 0.978862
Si Si7 0.709097 0.069891 0.510226
Si Si8 0.578863 0.171080 0.337286
O O1 0.659360 0.675007 0.183460
O O2 0.406559 0.845308 0.346105
O O3 0.500000 0.000000 0.000000
O O4 0.533398 0.128555 0.081152
O O5 0.142077 0.481107 0.767952
O O6 0.007310 0.520447 0.692477
O O7 0.080496 0.114457 0.992935
O O8 0.896518 0.512601 0.988162
O O9 0.000000 0.500000 0.500000
O O10 0.207932 0.215409 0.378542
O O11 0.136255 0.681420 0.136304
O O12 0.471765 0.452257 0.257441
O O13 0.500000 0.500000 0.000000
O O14 0.268114 0.746311 0.140039
O O15 0.195023 0.789034 0.645473
O O16 0.694004 0.109203 0.179602
O O17 0.646160 0.130865 0.414118
O O18 0.500000 0.000000 0.500000
#
# Coordination Sequence:
#
# PCOD8012014 Si02
#       8
#     2   2   2   2   2   2   2   2
#     4  12  24  45  67  99 137 179 227 279 342 408
#     4  11  24  45  69  92 139 178 233 273 331 408
#     4  12  25  43  68 102 135 178 228 281 340 402
#     4  10  21  39  65  96 130 170 215 274 342 399
#     4  11  25  44  68  97 131 188 226 275 335 400
#     4  11  21  43  67  98 131 174 223 278 342 395
#     4  12  24  43  66 101 139 171 230 275 337 407
#     4  11  22  38  68 102 135 171 214 281 346 403
#
# _framework density 21.429894999999998
#
# number of rings (size 3 to 8) (size 9 to 14) (size 15 to 20)
#    0.000    0.750    1.250    8.250    0.000    0.500 
#    2.250    0.000    0.000    0.000    0.000    0.000 
#    0.000    0.000    0.000    0.000    0.000    0.000 
#
# Total GULP energy -198479.178408 kJ/mol
# GULP energy per Si atom -12404.948650 kJ/mol
# Density = 2.138112 g / cm^3
# Si number density = 21.429895 Si / 1000 Ang^3
#
#
#
# Elastic Constant Matrix: (Units=GPa)
#
#
# Indices 1 2 3 4 5 6 
#
# 1 148.9537 38.8267 51.1822 3.2896 23.5763 2.6012
# 2 38.8267 106.6464 35.1477 1.3466 12.6987 -11.5992
# 3 51.1822 35.1477 89.6881 -0.5038 -4.4581 2.3519
# 4 3.2896 1.3466 -0.5038 37.9043 -2.6794 -3.6131
# 5 23.5763 12.6987 -4.4581 -2.6794 45.1505 -9.9250
# 6 2.6012 -11.5992 2.3519 -3.6131 -9.9250 42.9738
#
#
#
# Elastic Compliance Matrix: (Units=1/GPa)
#
#
# Indices 1 2 3 4 5 6 
#
# 1 0.009916 -0.001354 -0.005373 -0.001506 -0.005892 -0.002159
# 2 -0.001354 0.011810 -0.004052 -0.000246 -0.002388 0.002919
# 3 -0.005373 -0.004052 0.016093 0.001191 0.005546 -0.000268
# 4 -0.001506 -0.000246 0.001191 0.027050 0.003234 0.002981
# 5 -0.005892 -0.002388 0.005546 0.003234 0.027986 0.006144
# 6 -0.002159 0.002919 -0.000268 0.002981 0.006144 0.025873
#
#
# Mechanical properties :
#
#
# Convention : Reuss Voigt Hill
#
# Bulk Modulus (GPa) = 61.49472 66.17791 63.83631
# Shear Modulus (GPa) = 34.31531 39.88115 37.09823
#
# Velocity S-wave (km/s) = 4.00594 4.31862 4.16522
# Velocity P-wave (km/s) = 7.08201 7.47097 7.27909
#
# Compressibility (1/GPa) = 0.01626156
#
# Stress axis : x y z
#
# Youngs Moduli (GPa) = 100.84670 84.67333 62.13703
#
# Poissons Ratio (x) = 0.11461 0.33386
# Poissons Ratio (y) = 0.13650 0.25181
# Poissons Ratio (z) = 0.54185 0.34313
#
# Static dielectric constant tensor:
#      x y z
#    x 4.069350 -0.121590 0.358060 
#    y -0.121590 4.127030 -0.155190 
#    z 0.358060 -0.155190 3.582840 
# 
# 
# High freq. dielectric constant tensor:
#      x y z
#    x 1.861410 -0.004240 0.002540 
#    y -0.004240 1.850790 -0.010320 
#    z 0.002540 -0.010320 1.835770 
# 
# From -- ./inp_files/446586.got.cif
#   From: 2010.06.25/outbox.cif.g09.slc.cpg/sg2_224_cif.got.tgz:446586.got - 2010.06.27 13:26:56.
