data_PCOD8012722
_publ_section_title
;
Structure prediction by ZEFSAII (Michael W. Deem and Ramdas Pophale) SiO2 
 PCOD8012722
Probable space group: P -1
;
_chemical_formula_sum "Si O2"
_cell_formula_units_Z 14
_cell_length_a 10.123300
_cell_length_b 7.835181
_cell_length_c 19.513165
_cell_angle_alpha 136.396236
_cell_angle_beta 135.906114
_cell_angle_gamma 46.322640
_cell_volume 694.278809
_symmetry_space_group_name_H-M "P -1"
_symmetry_group_IT_number 2
_symmetry_cell_setting 'triclinic'
loop_
_space_group_symop_operation_xyz
x,y,z
-x,-y,-z
loop_
_atom_site_type_symbol
_atom_site_label
_atom_site_fract_x
_atom_site_fract_y
_atom_site_fract_z
Si Si1 0.845388 0.794007 0.791431
Si Si2 0.387054 0.564014 0.348312
Si Si3 0.748050 0.638536 0.155110
Si Si4 0.393391 0.806594 0.283956
Si Si5 0.798735 0.129313 0.374381
Si Si6 0.755122 0.976557 0.467189
Si Si7 0.656281 0.348894 0.919372
O O1 0.723017 0.644925 0.744680
O O2 0.075096 0.598739 0.809987
O O3 0.741112 0.897028 0.707933
O O4 0.830063 0.055425 0.905649
O O5 0.299555 0.745848 0.301628
O O6 0.625829 0.411328 0.378321
O O7 0.352013 0.741436 0.454339
O O8 0.542910 0.668945 0.125315
O O9 0.793660 0.909839 0.252733
O O10 0.733068 0.562263 0.047235
O O11 0.391054 0.589907 0.161742
O O12 0.623809 0.792447 0.379124
O O13 0.760019 0.020282 0.401115
O O14 0.015772 0.165052 0.460990
#
# Coordination Sequence:
#
# PCOD8012722 Si02
#       7
#     2   2   2   2   2   2   2
#     4  10  21  40  63  86 120 156 196 238 295 350
#     4  12  22  40  61  85 127 154 193 246 291 350
#     4  11  18  39  68  85 117 159 193 244 297 342
#     4  10  23  41  57  93 118 153 201 239 292 352
#     4  11  22  36  66  88 113 163 198 236 300 346
#     4  11  22  40  58  89 119 156 201 240 291 350
#     4   9  21  39  62  91 116 152 201 239 292 353
#
# _framework density 20.164809999999999
#
# number of rings (size 3 to 8) (size 9 to 14) (size 15 to 20)
#    0.857    0.571    5.714    1.286    0.000    0.571 
#    2.571    1.429    0.000    0.000    0.000    0.000 
#    0.000    0.000    0.000    0.000    0.000    0.000 
#
# Total GULP energy -173510.419205 kJ/mol
# GULP energy per Si atom -12393.601372 kJ/mol
# Density = 2.011891 g / cm^3
# Si number density = 20.164810 Si / 1000 Ang^3
#
#
#
# Elastic Constant Matrix: (Units=GPa)
#
#
# Indices 1 2 3 4 5 6 
#
# 1 28.5874 21.9237 10.8388 6.7117 -4.1152 9.8123
# 2 21.9237 73.5592 6.7398 0.4030 0.0727 -16.3397
# 3 10.8388 6.7398 107.3724 11.1516 -10.8184 0.1015
# 4 6.7117 0.4030 11.1516 20.7767 -10.0099 -5.2287
# 5 -4.1152 0.0727 -10.8184 -10.0099 15.6542 3.8423
# 6 9.8123 -16.3397 0.1015 -5.2287 3.8423 36.6476
#
#
#
# Elastic Compliance Matrix: (Units=1/GPa)
#
#
# Indices 1 2 3 4 5 6 
#
# 1 0.088723 -0.036284 -0.001999 -0.032302 0.012714 -0.045869
# 2 -0.036284 0.030149 -0.000477 0.014504 -0.007109 0.025973
# 3 -0.001999 -0.000477 0.010329 -0.002577 0.005116 -0.000610
# 4 -0.032302 0.014504 -0.002577 0.083491 0.037373 0.023116
# 5 0.012714 -0.007109 0.005116 0.037373 0.097507 -0.011479
# 6 -0.045869 0.025973 -0.000610 0.023116 -0.011479 0.055652
#
#
# Mechanical properties :
#
#
# Convention : Reuss Voigt Hill
#
# Bulk Modulus (GPa) = 19.34994 32.05816 25.70405
# Shear Modulus (GPa) = 10.85543 25.95016 18.40279
#
# Velocity S-wave (km/s) = 2.32272 3.59124 3.02424
# Velocity P-wave (km/s) = 4.10001 5.75574 4.99693
#
# Compressibility (1/GPa) = 0.05167975
#
# Stress axis : x y z
#
# Youngs Moduli (GPa) = 11.27106 33.16805 96.81563
#
# Poissons Ratio (x) = 1.20348 0.19358
# Poissons Ratio (y) = 0.40896 0.04617
# Poissons Ratio (z) = 0.02254 0.01582
#
# Static dielectric constant tensor:
#      x y z
#    x 3.416830 -0.308950 -0.070470 
#    y -0.308950 3.570830 -0.046090 
#    z -0.070470 -0.046090 3.893640 
# 
# 
# High freq. dielectric constant tensor:
#      x y z
#    x 1.769170 -0.025270 -0.003520 
#    y -0.025270 1.770040 -0.001910 
#    z -0.003520 -0.001910 1.795370 
# 
# From -- ./inp_files/301858.got.cif
#   From: 2010.06.25/outbox.cif.g09.slc.cpg/sg2_151_cif.got.tgz:301858.got - 2010.06.27 13:26:56.
