data_PCOD8012061
_publ_section_title
;
Structure prediction by ZEFSAII (Michael W. Deem and Ramdas Pophale) SiO2 
 PCOD8012061
Probable space group: P -1
;
_chemical_formula_sum "Si O2"
_cell_formula_units_Z 16
_cell_length_a 30.062362
_cell_length_b 6.222558
_cell_length_c 4.975129
_cell_angle_alpha 79.894407
_cell_angle_beta 70.523645
_cell_angle_gamma 116.647804
_cell_volume 723.540292
_symmetry_space_group_name_H-M "P -1"
_symmetry_group_IT_number 2
_symmetry_cell_setting 'triclinic'
loop_
_space_group_symop_operation_xyz
x,y,z
-x,-y,-z
loop_
_atom_site_type_symbol
_atom_site_label
_atom_site_fract_x
_atom_site_fract_y
_atom_site_fract_z
Si Si1 0.570250 0.275670 0.543634
Si Si2 0.299373 0.471782 0.827754
Si Si3 0.787471 0.109461 0.832826
Si Si4 0.935432 0.791980 0.228842
Si Si5 0.859233 0.982050 0.345427
Si Si6 0.888083 0.450937 0.880155
Si Si7 0.248457 0.549667 0.431259
Si Si8 0.513995 0.309130 0.156775
O O1 0.636296 0.431736 0.337692
O O2 0.545763 0.400781 0.361632
O O3 0.543084 0.969955 0.607271
O O4 0.556499 0.293200 0.875440
O O5 0.284239 0.625818 0.615799
O O6 0.285785 0.525876 0.136350
O O7 0.263249 0.164779 0.891529
O O8 0.822075 0.322380 0.953768
O O9 0.762066 0.223167 0.656835
O O10 0.833973 0.074406 0.604079
O O11 0.904475 0.926348 0.386759
O O12 0.929683 0.591868 0.512323
O O13 0.903694 0.649316 0.049752
O O14 0.000000 0.000000 0.000000
O O15 0.809925 0.725789 0.351705
O O16 0.893544 0.213093 0.009785
O O17 0.500000 0.500000 0.000000
#
# Coordination Sequence:
#
# PCOD8012061 Si02
#       8
#     2   2   2   2   2   2   2   2
#     4  10  22  40  60  95 132 165 224 271 315 380
#     4  11  25  40  63  98 132 168 212 279 319 379
#     4  11  25  42  68  97 125 173 217 259 329 401
#     4  12  29  46  68  99 129 165 216 270 321 386
#     4  11  24  43  71  90 130 167 212 262 325 389
#     4  12  24  45  68  93 127 166 210 259 324 392
#     4  11  24  39  64  91 129 167 213 255 330 387
#     4  10  21  39  66  89 127 182 221 261 325 374
#
# _framework density 22.113489999999999
#
# number of rings (size 3 to 8) (size 9 to 14) (size 15 to 20)
#    0.000    1.000    3.750    1.500    5.250    3.000 
#    0.000    0.000    0.000    0.000    0.000    0.000 
#    0.000    0.000    0.000    0.000    0.000    0.000 
#
# Total GULP energy -198409.335301 kJ/mol
# GULP energy per Si atom -12400.583456 kJ/mol
# Density = 2.206316 g / cm^3
# Si number density = 22.113490 Si / 1000 Ang^3
#
#
#
# Elastic Constant Matrix: (Units=GPa)
#
#
# Indices 1 2 3 4 5 6 
#
# 1 119.3788 46.3500 53.2290 -19.0436 -4.8011 1.8594
# 2 46.3500 65.9242 39.4807 -15.1039 -6.0167 2.0700
# 3 53.2290 39.4807 130.5934 -17.0592 -6.7780 12.4721
# 4 -19.0436 -15.1039 -17.0592 27.7521 2.9504 6.4005
# 5 -4.8011 -6.0167 -6.7780 2.9504 49.1257 -1.7274
# 6 1.8594 2.0700 12.4721 6.4005 -1.7274 26.7316
#
#
#
# Elastic Compliance Matrix: (Units=1/GPa)
#
#
# Indices 1 2 3 4 5 6 
#
# 1 0.012670 -0.006470 -0.002769 0.003469 -0.000142 0.000072
# 2 -0.006470 0.023372 -0.003422 0.006309 0.001337 -0.001187
# 3 -0.002769 -0.003422 0.010927 0.004213 0.000367 -0.005626
# 4 0.003469 0.006309 0.004213 0.047909 -0.001686 -0.014275
# 5 -0.000142 0.001337 0.000367 -0.001686 0.020710 0.001477
# 6 0.000072 -0.001187 -0.005626 -0.014275 0.001477 0.043634
#
#
# Mechanical properties :
#
#
# Convention : Reuss Voigt Hill
#
# Bulk Modulus (GPa) = 46.19567 66.00176 56.09871
# Shear Modulus (GPa) = 26.07440 32.51101 29.29270
#
# Velocity S-wave (km/s) = 3.43755 3.83846 3.64353
# Velocity P-wave (km/s) = 6.05734 7.03965 6.56689
#
# Compressibility (1/GPa) = 0.02164705
#
# Stress axis : x y z
#
# Youngs Moduli (GPa) = 78.92591 42.78668 91.51501
#
# Poissons Ratio (x) = 0.27683 0.25343
# Poissons Ratio (y) = 0.51065 0.31313
# Poissons Ratio (z) = 0.21857 0.14640
#
# Static dielectric constant tensor:
#      x y z
#    x 3.885900 0.028020 0.215530 
#    y 0.028020 4.016390 -0.120720 
#    z 0.215530 -0.120720 4.165010 
# 
# 
# High freq. dielectric constant tensor:
#      x y z
#    x 1.862550 0.000560 0.016030 
#    y 0.000560 1.861860 -0.006020 
#    z 0.016030 -0.006020 1.884520 
# 
# From -- ./inp_files/125741.got.cif
#   From: 2010.06.25/outbox.cif.g09.slc.cpg/sg2_63_cif.got.tgz:125741.got - 2010.06.27 13:26:56.
