data_PCOD8012418
_publ_section_title
;
Structure prediction by ZEFSAII (Michael W. Deem and Ramdas Pophale) SiO2 
 PCOD8012418
Probable space group: P -1
;
_chemical_formula_sum "Si O2"
_cell_formula_units_Z 14
_cell_length_a 8.752448
_cell_length_b 9.930189
_cell_length_c 10.893105
_cell_angle_alpha 115.694058
_cell_angle_beta 109.527200
_cell_angle_gamma 116.245665
_cell_volume 580.973844
_symmetry_space_group_name_H-M "P -1"
_symmetry_group_IT_number 2
_symmetry_cell_setting 'triclinic'
loop_
_space_group_symop_operation_xyz
x,y,z
-x,-y,-z
loop_
_atom_site_type_symbol
_atom_site_label
_atom_site_fract_x
_atom_site_fract_y
_atom_site_fract_z
Si Si1 0.140914 0.423271 0.211342
Si Si2 0.061632 0.175268 0.302336
Si Si3 0.784355 0.445812 0.138023
Si Si4 0.585763 0.209221 0.740431
Si Si5 0.938891 0.130061 0.516422
Si Si6 0.200278 0.947803 0.190084
Si Si7 0.587445 0.895223 0.941791
O O1 0.215830 0.375955 0.332691
O O2 0.352295 0.651054 0.306531
O O3 0.940201 0.403566 0.192521
O O4 0.039735 0.249324 0.011410
O O5 0.026946 0.234428 0.446540
O O6 0.171584 0.081051 0.313425
O O7 0.823565 0.002557 0.105508
O O8 0.594907 0.339734 0.150653
O O9 0.931692 0.690336 0.275563
O O10 0.670389 0.353647 0.938843
O O11 0.712966 0.131195 0.730488
O O12 0.324416 0.011300 0.598897
O O13 0.000000 0.000000 0.500000
O O14 0.390098 0.095978 0.195512
O O15 0.500000 0.000000 0.000000
#
# Coordination Sequence:
#
# PCOD8012418 Si02
#       7
#     2   2   2   2   2   2   2
#     4  10  22  41  76 105 134 188 236 280 355 416
#     4  11  23  45  68 106 146 179 234 293 342 420
#     4  11  23  44  75 104 140 185 237 283 354 419
#     4  11  24  49  76  98 140 189 232 288 356 412
#     4  12  30  46  69 107 142 183 240 291 345 421
#     4  10  21  39  75 105 138 181 235 286 351 417
#     4  11  17  40  73 108 134 184 236 285 350 414
#
# _framework density 24.097472
#
# number of rings (size 3 to 8) (size 9 to 14) (size 15 to 20)
#    0.000    1.143    5.714    3.429    4.000    4.000 
#    0.000    1.429    0.000    0.000    0.000    0.000 
#    0.000    0.000    0.000    0.000    0.000    0.000 
#
# Total GULP energy -173628.340027 kJ/mol
# GULP energy per Si atom -12402.024288 kJ/mol
# Density = 2.404262 g / cm^3
# Si number density = 24.097472 Si / 1000 Ang^3
#
#
#
# Elastic Constant Matrix: (Units=GPa)
#
#
# Indices 1 2 3 4 5 6 
#
# 1 86.5523 35.6592 35.1239 10.8200 -1.3513 11.6675
# 2 35.6592 141.2006 40.1862 12.2317 5.3013 14.3319
# 3 35.1239 40.1862 89.0198 21.0201 4.6854 0.6530
# 4 10.8200 12.2317 21.0201 25.5707 -1.6938 -0.2699
# 5 -1.3513 5.3013 4.6854 -1.6938 19.4769 -2.2452
# 6 11.6675 14.3319 0.6530 -0.2699 -2.2452 43.7535
#
#
#
# Elastic Compliance Matrix: (Units=1/GPa)
#
#
# Indices 1 2 3 4 5 6 
#
# 1 0.014960 -0.002080 -0.004750 -0.001313 0.002272 -0.003128
# 2 -0.002080 0.008825 -0.002723 -0.001279 -0.002281 -0.002420
# 3 -0.004750 -0.002723 0.017181 -0.011092 -0.004501 0.001603
# 4 -0.001313 -0.001279 -0.011092 0.049904 0.007453 0.001625
# 5 0.002272 -0.002281 -0.004501 0.007453 0.054203 0.003036
# 6 -0.003128 -0.002420 0.001603 0.001625 0.003036 0.024624
#
#
# Mechanical properties :
#
#
# Convention : Reuss Voigt Hill
#
# Bulk Modulus (GPa) = 45.74777 59.85683 52.80230
# Shear Modulus (GPa) = 25.49861 31.48044 28.48953
#
# Velocity S-wave (km/s) = 3.25644 3.61831 3.44213
# Velocity P-wave (km/s) = 5.75890 6.50766 6.14469
#
# Compressibility (1/GPa) = 0.02185899
#
# Stress axis : x y z
#
# Youngs Moduli (GPa) = 66.84641 113.32037 58.20257
#
# Poissons Ratio (x) = 0.23572 0.27647
# Poissons Ratio (y) = 0.13905 0.15849
# Poissons Ratio (z) = 0.31753 0.30858
#
# Static dielectric constant tensor:
#      x y z
#    x 4.462610 0.307450 -0.041670 
#    y 0.307450 4.739240 0.045130 
#    z -0.041670 0.045130 4.232690 
# 
# 
# High freq. dielectric constant tensor:
#      x y z
#    x 1.956920 0.013430 -0.004440 
#    y 0.013430 1.970870 0.001590 
#    z -0.004440 0.001590 1.929730 
# 
# From -- ./inp_files/332672.got.cif
#   From: 2010.06.25/outbox.cif.g09.slc.cpg/sg2_167_cif.got.tgz:332672.got - 2010.06.27 13:26:56.
