data_PCOD8012995
_publ_section_title
;
Structure prediction by ZEFSAII (Michael W. Deem and Ramdas Pophale) SiO2 
 PCOD8012995
Probable space group: P -1
;
_chemical_formula_sum "Si O2"
_cell_formula_units_Z 16
_cell_length_a 8.980478
_cell_length_b 9.458321
_cell_length_c 20.977384
_cell_angle_alpha 57.502411
_cell_angle_beta 37.247811
_cell_angle_gamma 46.224314
_cell_volume 778.346621
_symmetry_space_group_name_H-M "P -1"
_symmetry_group_IT_number 2
_symmetry_cell_setting 'triclinic'
loop_
_space_group_symop_operation_xyz
x,y,z
-x,-y,-z
loop_
_atom_site_type_symbol
_atom_site_label
_atom_site_fract_x
_atom_site_fract_y
_atom_site_fract_z
Si Si1 0.585586 0.659974 0.421043
Si Si2 0.183335 0.276152 0.791613
Si Si3 0.674039 0.903979 0.782443
Si Si4 0.651630 0.915317 0.552003
Si Si5 0.184818 0.358120 0.317241
Si Si6 0.959638 0.927226 0.330480
Si Si7 0.721017 0.340222 0.830090
Si Si8 0.342422 0.393786 0.051296
O O1 0.500000 0.500000 0.500000
O O2 0.608790 0.678158 0.332329
O O3 0.891795 0.569727 0.374274
O O4 0.382968 0.876881 0.466193
O O5 0.980849 0.249569 0.815936
O O6 0.999172 0.453625 0.860953
O O7 0.378195 0.084297 0.812962
O O8 0.851300 0.759525 0.699247
O O9 0.571688 0.804769 0.893106
O O10 0.900281 0.949915 0.724786
O O11 0.740787 0.766160 0.615127
O O12 0.906920 0.822478 0.434774
O O13 0.359019 0.933138 0.622883
O O14 0.399939 0.430637 0.203464
O O15 0.181829 0.781780 0.238149
O O16 0.448597 0.339121 0.954865
O O17 0.500000 0.500000 0.000000
#
# Coordination Sequence:
#
# PCOD8012995 Si02
#       8
#     2   2   2   2   2   2   2   2
#     4  11  21  36  65  94 125 158 211 261 303 365
#     4  10  21  40  64  97 122 159 217 257 304 372
#     4  12  22  39  67  98 123 162 210 264 310 364
#     4  11  24  44  63  91 130 174 204 249 321 377
#     4  11  21  41  67  91 119 171 214 250 306 379
#     4  11  25  43  60  94 135 160 208 260 313 380
#     4  10  21  46  63  88 130 165 209 260 310 375
#     4  10  21  41  67  92 125 161 214 265 304 364
#
# _framework density 20.556397
#
# number of rings (size 3 to 8) (size 9 to 14) (size 15 to 20)
#    0.000    1.250    7.500    0.750    1.750    4.000 
#    4.500    0.625    0.000    0.000    0.000    0.000 
#    0.000    0.000    0.000    0.000    0.000    0.000 
#
# Total GULP energy -198238.819672 kJ/mol
# GULP energy per Si atom -12389.926229 kJ/mol
# Density = 2.050961 g / cm^3
# Si number density = 20.556397 Si / 1000 Ang^3
#
#
#
# Elastic Constant Matrix: (Units=GPa)
#
#
# Indices 1 2 3 4 5 6 
#
# 1 72.7528 48.8154 55.4785 -11.5391 19.9401 9.0535
# 2 48.8154 109.2015 63.5108 -13.0714 21.6275 -17.0029
# 3 55.4785 63.5108 162.2096 -6.2061 39.4084 4.0361
# 4 -11.5391 -13.0714 -6.2061 44.7211 2.1504 9.7594
# 5 19.9401 21.6275 39.4084 2.1504 28.3273 -3.6011
# 6 9.0535 -17.0029 4.0361 9.7594 -3.6011 24.9963
#
#
#
# Elastic Compliance Matrix: (Units=1/GPa)
#
#
# Indices 1 2 3 4 5 6 
#
# 1 0.034138 -0.014730 -0.000795 0.011524 -0.016251 -0.029096
# 2 -0.014730 0.020723 -0.004810 -0.003459 0.004321 0.022181
# 3 -0.000795 -0.004810 0.011873 0.002379 -0.013453 -0.007768
# 4 0.011524 -0.003459 0.002379 0.029784 -0.013647 -0.020506
# 5 -0.016251 0.004321 -0.013453 -0.013647 0.066487 0.025904
# 6 -0.029096 0.022181 -0.007768 -0.020506 0.025904 0.078625
#
#
# Mechanical properties :
#
#
# Convention : Reuss Voigt Hill
#
# Bulk Modulus (GPa) = 38.36833 75.53035 56.94934
# Shear Modulus (GPa) = 17.18278 31.36622 24.27450
#
# Velocity S-wave (km/s) = 2.89430 3.91047 3.44011
# Velocity P-wave (km/s) = 5.46578 7.56384 6.59873
#
# Compressibility (1/GPa) = 0.02606316
#
# Stress axis : x y z
#
# Youngs Moduli (GPa) = 29.29291 48.25455 84.22622
#
# Poissons Ratio (x) = 0.71080 0.06699
# Poissons Ratio (y) = 0.43149 0.40512
# Poissons Ratio (z) = 0.02330 0.23210
#
# Static dielectric constant tensor:
#      x y z
#    x 3.497190 0.033040 0.173480 
#    y 0.033040 3.819950 0.088970 
#    z 0.173480 0.088970 4.572280 
# 
# 
# High freq. dielectric constant tensor:
#      x y z
#    x 1.771820 0.000490 0.015890 
#    y 0.000490 1.800800 -0.003140 
#    z 0.015890 -0.003140 1.824580 
# 
# From -- ./inp_files/587295.got.cif
#   From: 2010.06.25/outbox.cif.g09.slc.cpg/sg2_294_cif.got.tgz:587295.got - 2010.06.27 13:26:56.
