data_PCOD8012316
_publ_section_title
;
Structure prediction by ZEFSAII (Michael W. Deem and Ramdas Pophale) SiO2 
 PCOD8012316
Probable space group: P -1
;
_chemical_formula_sum "Si O2"
_cell_formula_units_Z 16
_cell_length_a 11.782815
_cell_length_b 8.994945
_cell_length_c 11.572085
_cell_angle_alpha 53.953016
_cell_angle_beta 128.694506
_cell_angle_gamma 123.702286
_cell_volume 739.210367
_symmetry_space_group_name_H-M "P -1"
_symmetry_group_IT_number 2
_symmetry_cell_setting 'triclinic'
loop_
_space_group_symop_operation_xyz
x,y,z
-x,-y,-z
loop_
_atom_site_type_symbol
_atom_site_label
_atom_site_fract_x
_atom_site_fract_y
_atom_site_fract_z
Si Si1 0.165854 0.142737 0.871313
Si Si2 0.844680 0.855477 0.411894
Si Si3 0.820659 0.439744 0.677844
Si Si4 0.345268 0.979658 0.230371
Si Si5 0.697175 0.083819 0.360230
Si Si6 0.836742 0.954714 0.721660
Si Si7 0.827540 0.500917 0.149135
Si Si8 0.842787 0.546552 0.884565
O O1 0.165781 0.127017 0.740198
O O2 0.230338 0.357994 0.867366
O O3 0.990414 0.070939 0.832749
O O4 0.262498 0.007473 0.045237
O O5 0.816585 0.629464 0.519847
O O6 0.706656 0.919404 0.350623
O O7 0.000000 0.000000 0.500000
O O8 0.709417 0.238342 0.652338
O O9 0.752535 0.438444 0.765209
O O10 0.991371 0.426885 0.784695
O O11 0.297135 0.108026 0.239581
O O12 0.524021 0.052191 0.296827
O O13 0.796486 0.082216 0.537386
O O14 0.770405 0.290743 0.259119
O O15 0.867664 0.769504 0.769382
O O16 0.757830 0.492024 0.978602
O O17 0.000000 0.500000 0.000000
#
# Coordination Sequence:
#
# PCOD8012316 Si02
#       8
#     2   2   2   2   2   2   2   2
#     4  12  24  43  74 102 133 179 237 282 330 410
#     4  12  24  45  71 102 137 180 230 282 340 410
#     4  11  22  42  71  99 131 180 236 277 331 409
#     4  12  28  45  67 106 141 178 227 289 345 399
#     4  12  28  46  67 101 147 181 219 286 357 401
#     4  12  22  47  72  98 138 183 230 280 337 412
#     4  11  23  42  70 101 134 178 233 279 339 406
#     4  10  21  39  69 102 131 171 228 288 329 390
#
# _framework density 21.644717
#
# number of rings (size 3 to 8) (size 9 to 14) (size 15 to 20)
#    0.000    0.500    6.250    2.250    5.250    2.500 
#    0.000    0.000    0.000    0.000    0.000    0.000 
#    0.000    0.000    0.000    0.000    0.000    0.000 
#
# Total GULP energy -198312.038588 kJ/mol
# GULP energy per Si atom -12394.502412 kJ/mol
# Density = 2.159545 g / cm^3
# Si number density = 21.644717 Si / 1000 Ang^3
#
#
#
# Elastic Constant Matrix: (Units=GPa)
#
#
# Indices 1 2 3 4 5 6 
#
# 1 52.2172 84.7540 -109.1139 -114.4770 18.1260 80.2884
# 2 84.7540 -469.5589 949.4273 906.0952 -119.3654 -706.6612
# 3 -109.1139 949.4273-1450.6275-1577.7652 198.3629 1193.8167
# 4 -114.4770 906.0952-1577.7652-1537.0528 204.1936 1190.9531
# 5 18.1260 -119.3654 198.3629 204.1936 8.4285 -155.4724
# 6 80.2884 -706.6612 1193.8167 1190.9531 -155.4724 -872.9272
#
#
#
# Elastic Compliance Matrix: (Units=1/GPa)
#
#
# Indices 1 2 3 4 5 6 
#
# 1 0.018242 -0.004654 -0.000016 -0.002183 -0.001581 0.002727
# 2 -0.004654 0.017270 -0.001825 0.012151 -0.000668 -0.000207
# 3 -0.000016 -0.001825 0.006884 -0.005029 0.001945 0.003682
# 4 -0.002183 0.012151 -0.005029 0.022305 0.000952 0.013346
# 5 -0.001581 -0.000668 0.001945 0.000952 0.028951 -0.000802
# 6 0.002727 -0.000207 0.003682 0.013346 -0.000802 0.022660
#
#
# Mechanical properties :
#
#
# Convention : Reuss Voigt Hill
#
# Bulk Modulus (GPa) = 34.00789 -1.98159 16.01315
# Shear Modulus (GPa) = 35.94464 -666.51273 -315.28405
#
# Velocity S-wave (km/s) = 4.07955 -17.56706 -12.08220
# Velocity P-wave (km/s) = 6.15924 20.30730 13.68302
#
# Compressibility (1/GPa) = 0.02940494
#
# Stress axis : x y z
#
# Youngs Moduli (GPa) = 54.81937 57.90519 145.26688
#
# Poissons Ratio (x) = 0.26951 0.00235
# Poissons Ratio (y) = 0.25515 0.26507
# Poissons Ratio (z) = 0.00089 0.10566
#
# Static dielectric constant tensor:
#      x y z
#    x 4.069050 -0.334880 -0.124540 
#    y -0.334880 3.860610 -0.116560 
#    z -0.124540 -0.116560 4.062240 
# 
# 
# High freq. dielectric constant tensor:
#      x y z
#    x 1.847770 -0.030950 -0.015860 
#    y -0.030950 1.840420 -0.019200 
#    z -0.015860 -0.019200 1.857030 
# 
# From -- ./inp_files/216522.got.cif
#   From: 2010.06.25/outbox.cif.g09.slc.cpg/sg2_109_cif.got.tgz:216522.got - 2010.06.27 13:26:56.
