data_PCOD8012481
_publ_section_title
;
Structure prediction by ZEFSAII (Michael W. Deem and Ramdas Pophale) SiO2 
 PCOD8012481
Probable space group: P -1
;
_chemical_formula_sum "Si O2"
_cell_formula_units_Z 16
_cell_length_a 28.994321
_cell_length_b 29.460941
_cell_length_c 9.932464
_cell_angle_alpha 144.191301
_cell_angle_beta 145.597845
_cell_angle_gamma 10.063708
_cell_volume 837.564831
_symmetry_space_group_name_H-M "P -1"
_symmetry_group_IT_number 2
_symmetry_cell_setting 'triclinic'
loop_
_space_group_symop_operation_xyz
x,y,z
-x,-y,-z
loop_
_atom_site_type_symbol
_atom_site_label
_atom_site_fract_x
_atom_site_fract_y
_atom_site_fract_z
Si Si1 0.463998 0.001476 0.572933
Si Si2 0.847380 0.024792 0.409923
Si Si3 0.036252 0.498552 0.239788
Si Si4 0.889422 0.014259 0.782243
Si Si5 0.232465 0.492516 0.707774
Si Si6 0.266773 0.008860 0.126092
Si Si7 0.650627 0.479962 0.139201
Si Si8 0.455567 0.516233 0.581103
O O1 0.740339 0.750336 0.727593
O O2 0.367300 0.002398 0.311291
O O3 0.500000 0.000000 0.500000
O O4 0.238692 0.250529 0.724064
O O5 0.598560 0.304498 0.438096
O O6 0.827834 0.030701 0.533710
O O7 0.806859 0.974398 0.140486
O O8 0.134583 0.802927 0.527630
O O9 0.139561 0.491015 0.440032
O O10 0.000000 0.500000 0.000000
O O11 0.095606 0.768851 0.756136
O O12 0.612353 0.267651 0.801664
O O13 0.000000 0.000000 0.000000
O O14 0.508038 0.241947 0.852916
O O15 0.285688 0.495539 0.713798
O O16 0.004236 0.743606 0.844698
O O17 0.605137 0.447500 0.858044
O O18 0.500000 0.500000 0.500000
#
# Coordination Sequence:
#
# PCOD8012481 Si02
#       8
#     2   2   2   2   2   2   2   2
#     4  10  21  40  66  93 127 164 198 245 306 366
#     4  12  23  38  55  81 112 148 192 230 290 337
#     4  10  21  41  66  94 127 160 200 249 304 364
#     4  12  23  40  56  75 116 154 186 239 290 342
#     4  10  22  40  62  86 117 152 188 242 292 336
#     4  10  21  40  60  85 120 150 189 240 291 338
#     4  12  22  39  57  80 111 150 195 231 290 344
#     4  12  23  35  58  81 106 142 193 242 276 337
#
# _framework density 19.102997999999999
#
# number of rings (size 3 to 8) (size 9 to 14) (size 15 to 20)
#    0.000    1.000    2.500    5.250    0.000    0.000 
#    4.500    0.000    0.000    0.000    0.000    0.000 
#    0.000    0.000    0.000    0.000    0.000    0.000 
#
# Total GULP energy -198280.844333 kJ/mol
# GULP energy per Si atom -12392.552771 kJ/mol
# Density = 1.905952 g / cm^3
# Si number density = 19.102998 Si / 1000 Ang^3
#
#
#
# Elastic Constant Matrix: (Units=GPa)
#
#
# Indices 1 2 3 4 5 6 
#
# 1 156.2445 70.7167 59.8953 0.1546 -21.0231 -2.9944
# 2 70.7167 162.3100 42.1718 6.7224 -19.0109 0.1286
# 3 59.8953 42.1718 134.8667 -2.3562 -29.9508 -0.1638
# 4 0.1546 6.7224 -2.3562 30.7268 1.6218 2.2370
# 5 -21.0231 -19.0109 -29.9508 1.6218 37.6517 2.9568
# 6 -2.9944 0.1286 -0.1638 2.2370 2.9568 40.4763
#
#
#
# Elastic Compliance Matrix: (Units=1/GPa)
#
#
# Indices 1 2 3 4 5 6 
#
# 1 0.009034 -0.003086 -0.002768 0.000312 0.001226 0.000560
# 2 -0.003086 0.007993 -0.000759 -0.001866 0.001811 -0.000286
# 3 -0.002768 -0.000759 0.010286 0.000685 0.006275 -0.000657
# 4 0.000312 -0.001866 0.000685 0.033208 -0.001520 -0.001692
# 5 0.001226 0.001811 0.006275 -0.001520 0.033392 -0.002245
# 6 0.000560 -0.000286 -0.000657 -0.001692 -0.002245 0.025003
#
#
# Mechanical properties :
#
#
# Convention : Reuss Voigt Hill
#
# Bulk Modulus (GPa) = 70.99933 88.77652 79.88792
# Shear Modulus (GPa) = 36.53935 40.48012 38.50973
#
# Velocity S-wave (km/s) = 4.37825 4.60830 4.49475
# Velocity P-wave (km/s) = 7.92503 8.65383 8.29743
#
# Compressibility (1/GPa) = 0.01408464
#
# Stress axis : x y z
#
# Youngs Moduli (GPa) = 110.69538 125.11444 97.21512
#
# Poissons Ratio (x) = 0.38615 0.26914
# Poissons Ratio (y) = 0.34165 0.07382
# Poissons Ratio (z) = 0.30646 0.09500
#
# Static dielectric constant tensor:
#      x y z
#    x 3.584260 0.031370 -0.105520 
#    y 0.031370 3.739320 -0.190810 
#    z -0.105520 -0.190810 2.883670 
# 
# 
# High freq. dielectric constant tensor:
#      x y z
#    x 1.745990 -0.000600 -0.009670 
#    y -0.000600 1.769980 0.003250 
#    z -0.009670 0.003250 1.745310 
# 
# From -- ./inp_files/358027.got.cif
#   From: 2010.06.25/outbox.cif.g09.slc.cpg/sg2_180_cif.got.tgz:358027.got - 2010.06.27 13:26:56.
