data_PCOD8012048
_publ_section_title
;
Structure prediction by ZEFSAII (Michael W. Deem and Ramdas Pophale) SiO2 
 PCOD8012048
Probable space group: P -1
;
_chemical_formula_sum "Si O2"
_cell_formula_units_Z 16
_cell_length_a 12.352684
_cell_length_b 11.481570
_cell_length_c 7.813804
_cell_angle_alpha 66.574135
_cell_angle_beta 80.596905
_cell_angle_gamma 46.664520
_cell_volume 729.606006
_symmetry_space_group_name_H-M "P -1"
_symmetry_group_IT_number 2
_symmetry_cell_setting 'triclinic'
loop_
_space_group_symop_operation_xyz
x,y,z
-x,-y,-z
loop_
_atom_site_type_symbol
_atom_site_label
_atom_site_fract_x
_atom_site_fract_y
_atom_site_fract_z
Si Si1 0.457579 0.690081 0.709655
Si Si2 0.064575 0.792467 0.782887
Si Si3 0.510736 0.869767 0.955387
Si Si4 0.309877 0.293538 0.334942
Si Si5 0.587842 0.546400 0.134979
Si Si6 0.214624 0.169409 0.707159
Si Si7 0.885614 0.971481 0.380868
Si Si8 0.998018 0.603901 0.091186
O O1 0.580609 0.691935 0.605104
O O2 0.471330 0.536735 0.711207
O O3 0.290193 0.876386 0.606819
O O4 0.496011 0.641938 0.927443
O O5 0.233905 0.604765 0.849076
O O6 0.062785 0.937097 0.775537
O O7 0.994804 0.853708 0.577617
O O8 0.967253 0.770420 0.931052
O O9 0.625910 0.804693 0.807018
O O10 0.345652 0.977290 0.859707
O O11 0.556486 0.705499 0.148138
O O12 0.500000 0.000000 0.000000
O O13 0.288379 0.192785 0.524110
O O14 0.149771 0.484631 0.230892
O O15 0.137906 0.318116 0.786440
O O16 0.092078 0.166023 0.669792
O O17 0.000000 0.500000 0.000000
#
# Coordination Sequence:
#
# PCOD8012048 Si02
#       8
#     2   2   2   2   2   2   2   2
#     4   9  17  35  67  94 123 168 216 264 322 387
#     4  10  21  40  67  94 134 170 210 272 329 387
#     4  11  22  39  65  95 128 173 215 269 324 382
#     4  11  22  42  65  93 129 175 216 269 323 384
#     4   9  17  36  66  94 123 169 218 261 319 391
#     4  12  25  40  64  97 130 172 222 272 324 390
#     4  10  21  39  66 101 129 166 215 269 332 388
#     4  12  25  43  64  93 129 175 219 270 331 392
#
# _framework density 21.929645000000001
#
# number of rings (size 3 to 8) (size 9 to 14) (size 15 to 20)
#    0.000    1.500    5.000    2.250    0.000    0.500 
#    0.000    0.000    0.000    2.250    0.000    0.000 
#    0.000    0.000    0.000    0.000    0.000    0.000 
#
# Total GULP energy -198237.969847 kJ/mol
# GULP energy per Si atom -12389.873115 kJ/mol
# Density = 2.187973 g / cm^3
# Si number density = 21.929645 Si / 1000 Ang^3
#
#
#
# Elastic Constant Matrix: (Units=GPa)
#
#
# Indices 1 2 3 4 5 6 
#
# 1 96.0801 27.2350 34.0276 -0.6442 -31.9391 28.5431
# 2 27.2350 105.1222 40.9104 -3.7559 -21.6833 16.6877
# 3 34.0276 40.9104 57.9674 -8.5511 -12.2613 9.2292
# 4 -0.6442 -3.7559 -8.5511 24.7643 -2.6855 -1.0717
# 5 -31.9391 -21.6833 -12.2613 -2.6855 27.3344 -13.2926
# 6 28.5431 16.6877 9.2292 -1.0717 -13.2926 44.5150
#
#
#
# Elastic Compliance Matrix: (Units=1/GPa)
#
#
# Indices 1 2 3 4 5 6 
#
# 1 0.021791 0.003516 -0.009904 -0.000434 0.020266 -0.007196
# 2 0.003516 0.015077 -0.010134 -0.000140 0.010159 -0.002775
# 3 -0.009904 -0.010134 0.030168 0.008335 -0.003825 0.002954
# 4 -0.000434 -0.000140 0.008335 0.044249 0.008548 0.002220
# 5 0.020266 0.010159 -0.003825 0.008548 0.069914 0.005073
# 6 -0.007196 -0.002775 0.002954 0.002220 0.005073 0.029074
#
#
# Mechanical properties :
#
#
# Convention : Reuss Voigt Hill
#
# Bulk Modulus (GPa) = 29.42074 51.50173 40.46123
# Shear Modulus (GPa) = 19.63493 29.78919 24.71206
#
# Velocity S-wave (km/s) = 2.99550 3.68964 3.36054
# Velocity P-wave (km/s) = 5.04075 6.45657 5.79208
#
# Compressibility (1/GPa) = 0.03398963
#
# Stress axis : x y z
#
# Youngs Moduli (GPa) = 45.89119 66.32712 33.14803
#
# Poissons Ratio (x) = -0.23321 0.32831
# Poissons Ratio (y) = -0.16135 0.33593
# Poissons Ratio (z) = 0.45453 0.67218
#
# Static dielectric constant tensor:
#      x y z
#    x 4.514250 0.284980 -0.059630 
#    y 0.284980 4.012610 -0.395260 
#    z -0.059630 -0.395260 4.032640 
# 
# 
# High freq. dielectric constant tensor:
#      x y z
#    x 1.883860 0.008660 0.003580 
#    y 0.008660 1.845390 -0.042600 
#    z 0.003580 -0.042600 1.846030 
# 
# From -- ./inp_files/256884.got.cif
#   From: 2010.06.25/outbox.cif.g09.slc.cpg/sg2_129_cif.got.tgz:256884.got - 2010.06.27 13:26:56.
