data_PCOD8012070
_publ_section_title
;
Structure prediction by ZEFSAII (Michael W. Deem and Ramdas Pophale) SiO2 
 PCOD8012070
Probable space group: P -1
;
_chemical_formula_sum "Si O2"
_cell_formula_units_Z 16
_cell_length_a 9.456174
_cell_length_b 11.962310
_cell_length_c 19.562189
_cell_angle_alpha 43.016191
_cell_angle_beta 110.040750
_cell_angle_gamma 141.959563
_cell_volume 774.057099
_symmetry_space_group_name_H-M "P -1"
_symmetry_group_IT_number 2
_symmetry_cell_setting 'triclinic'
loop_
_space_group_symop_operation_xyz
x,y,z
-x,-y,-z
loop_
_atom_site_type_symbol
_atom_site_label
_atom_site_fract_x
_atom_site_fract_y
_atom_site_fract_z
Si Si1 0.193427 0.175228 0.754645
Si Si2 0.178329 0.883106 0.691337
Si Si3 0.569454 0.259745 0.711902
Si Si4 0.274954 0.794950 0.112071
Si Si5 0.801684 0.797251 0.734188
Si Si6 0.330593 0.651064 0.531310
Si Si7 0.069933 0.735986 0.489784
Si Si8 0.207147 0.096081 0.944037
O O1 0.453429 0.321179 0.697904
O O2 0.278811 0.442467 0.661730
O O3 0.118847 0.026786 0.881132
O O4 0.926616 0.915980 0.778085
O O5 0.973975 0.547675 0.797324
O O6 0.012061 0.898037 0.672588
O O7 0.376880 0.019557 0.726447
O O8 0.355408 0.065539 0.569982
O O9 0.578426 0.125351 0.829405
O O10 0.881446 0.576915 0.596977
O O11 0.500000 0.000000 0.000000
O O12 0.165559 0.877388 0.064068
O O13 0.517684 0.441675 0.849899
O O14 0.751887 0.935144 0.635099
O O15 0.272463 0.763006 0.515509
O O16 0.127283 0.458818 0.520166
O O17 0.000000 0.000000 0.000000
#
# Coordination Sequence:
#
# PCOD8012070 Si02
#       8
#     2   2   2   2   2   2   2   2
#     4  10  21  41  65  89 120 158 198 245 301 355
#     4  10  21  39  66  91 119 158 196 246 301 351
#     4  10  21  39  66  91 119 158 196 246 301 351
#     4  12  24  43  60  87 121 156 209 250 282 356
#     4  10  21  41  65  89 120 158 198 245 301 355
#     4   9  19  36  61  94 124 152 194 245 301 360
#     4   9  19  36  61  94 124 152 194 245 301 360
#     4  12  28  43  58  87 123 160 205 250 292 350
#
# _framework density 20.670310000000001
#
# number of rings (size 3 to 8) (size 9 to 14) (size 15 to 20)
#    0.000    1.750    2.500    0.750    3.500    6.000 
#    0.000    3.750    0.000    0.000    0.000    0.000 
#    0.000    0.000    0.000    0.000    0.000    0.000 
#
# Total GULP energy -198415.955426 kJ/mol
# GULP energy per Si atom -12400.997214 kJ/mol
# Density = 2.062326 g / cm^3
# Si number density = 20.670310 Si / 1000 Ang^3
#
#
#
# Elastic Constant Matrix: (Units=GPa)
#
#
# Indices 1 2 3 4 5 6 
#
# 1 122.0555 -3.6663 11.9657 -0.8669 9.6014 1.6366
# 2 -3.6663 30.4611 -4.3605 -9.4916 0.1975 2.5956
# 3 11.9657 -4.3605 53.0281 -6.1674 12.4262 1.9844
# 4 -0.8669 -9.4916 -6.1674 33.2145 -1.2252 5.7510
# 5 9.6014 0.1975 12.4262 -1.2252 49.7145 2.5793
# 6 1.6366 2.5956 1.9844 5.7510 2.5793 17.5344
#
#
#
# Elastic Compliance Matrix: (Units=1/GPa)
#
#
# Indices 1 2 3 4 5 6 
#
# 1 0.008475 0.000965 -0.001486 0.000294 -0.001227 -0.000682
# 2 0.000965 0.038986 0.005196 0.013997 -0.000728 -0.010933
# 3 -0.001486 0.005196 0.021600 0.006035 -0.004758 -0.004355
# 4 0.000294 0.013997 0.006035 0.037875 0.000102 -0.015220
# 5 -0.001227 -0.000728 -0.004758 0.000102 0.021674 -0.002461
# 6 -0.000682 -0.010933 -0.004355 -0.015220 -0.002461 0.064560
#
#
# Mechanical properties :
#
#
# Convention : Reuss Voigt Hill
#
# Bulk Modulus (GPa) = 12.75322 23.71361 18.23341
# Shear Modulus (GPa) = 23.81426 33.53306 28.67366
#
# Velocity S-wave (km/s) = 3.39794 4.03212 3.72854
# Velocity P-wave (km/s) = 4.64520 5.75974 5.23223
#
# Compressibility (1/GPa) = 0.07841160
#
# Stress axis : x y z
#
# Youngs Moduli (GPa) = 117.98882 25.64995 46.29559
#
# Poissons Ratio (x) = -0.02475 0.06879
# Poissons Ratio (y) = -0.11386 -0.24054
# Poissons Ratio (z) = 0.17533 -0.13327
#
# Static dielectric constant tensor:
#      x y z
#    x 4.047330 0.048650 -0.093900 
#    y 0.048650 3.743610 0.042380 
#    z -0.093900 0.042380 3.222260 
# 
# 
# High freq. dielectric constant tensor:
#      x y z
#    x 1.819710 0.001140 0.003620 
#    y 0.001140 1.808820 0.002660 
#    z 0.003620 0.002660 1.806200 
# 
# From -- ./inp_files/307997.got.cif
#   From: 2010.06.25/outbox.cif.g09.slc.cpg/sg2_154_cif.got.tgz:307997.got - 2010.06.27 13:26:56.
