data_PCOD8012196
_publ_section_title
;
Structure prediction by ZEFSAII (Michael W. Deem and Ramdas Pophale) SiO2 
 PCOD8012196
Probable space group: P -1
;
_chemical_formula_sum "Si O2"
_cell_formula_units_Z 14
_cell_length_a 12.683894
_cell_length_b 9.157758
_cell_length_c 12.163302
_cell_angle_alpha 55.906584
_cell_angle_beta 39.105547
_cell_angle_gamma 46.241781
_cell_volume 642.763417
_symmetry_space_group_name_H-M "P -1"
_symmetry_group_IT_number 2
_symmetry_cell_setting 'triclinic'
loop_
_space_group_symop_operation_xyz
x,y,z
-x,-y,-z
loop_
_atom_site_type_symbol
_atom_site_label
_atom_site_fract_x
_atom_site_fract_y
_atom_site_fract_z
Si Si1 0.318184 0.452729 0.550662
Si Si2 0.009516 0.230549 0.673435
Si Si3 0.134330 0.049462 0.040231
Si Si4 0.038173 0.363389 0.370340
Si Si5 0.299202 0.075021 0.685708
Si Si6 0.683235 0.808126 0.983543
Si Si7 0.713769 0.414602 0.233330
O O1 0.250229 0.287085 0.692417
O O2 0.540013 0.365946 0.370005
O O3 0.274268 0.572282 0.649991
O O4 0.179437 0.583179 0.507197
O O5 0.097434 0.209227 0.489590
O O6 0.172264 0.076105 0.687295
O O7 0.925906 0.455285 0.694179
O O8 0.858890 0.148057 0.827491
O O9 0.239365 0.126429 0.003640
O O10 0.920082 0.232997 0.104621
O O11 0.264370 0.958377 0.863212
O O12 0.163591 0.263868 0.205751
O O13 0.500000 0.000000 0.500000
O O14 0.652957 0.623994 0.129100
O O15 0.500000 0.000000 0.000000
#
# Coordination Sequence:
#
# PCOD8012196 Si02
#       7
#     2   2   2   2   2   2   2
#     4  10  21  39  67  95 130 175 220 268 333 390
#     4  10  24  42  69  96 134 179 220 271 340 395
#     4  12  24  44  72 100 131 179 228 277 329 397
#     4  10  23  46  65  97 143 175 215 280 337 394
#     4  11  23  40  64  95 131 173 225 274 322 397
#     4  12  27  42  68 100 138 176 222 278 335 396
#     4  11  22  42  69 100 132 173 222 280 329 392
#
# _framework density 21.780954000000001
#
# number of rings (size 3 to 8) (size 9 to 14) (size 15 to 20)
#    0.000    1.143    2.857    3.429    4.000    4.000 
#    0.000    0.714    0.000    0.000    0.000    0.000 
#    0.000    0.000    0.000    0.000    0.000    0.000 
#
# Total GULP energy -173476.850607 kJ/mol
# GULP energy per Si atom -12391.203615 kJ/mol
# Density = 2.173138 g / cm^3
# Si number density = 21.780954 Si / 1000 Ang^3
#
#
#
# Elastic Constant Matrix: (Units=GPa)
#
#
# Indices 1 2 3 4 5 6 
#
# 1 87.0764 19.5647 33.6974 -10.2191 9.0102 -5.4480
# 2 19.5647 53.3727 26.3736 -12.2054 -0.0212 -17.8309
# 3 33.6974 26.3736 125.3414 -6.7438 16.1800 -9.8617
# 4 -10.2191 -12.2054 -6.7438 43.0192 0.5655 -0.2634
# 5 9.0102 -0.0212 16.1800 0.5655 43.2956 -3.2733
# 6 -5.4480 -17.8309 -9.8617 -0.2634 -3.2733 17.2327
#
#
#
# Elastic Compliance Matrix: (Units=1/GPa)
#
#
# Indices 1 2 3 4 5 6 
#
# 1 0.013682 -0.003793 -0.002642 0.001777 -0.001996 -0.001463
# 2 -0.003793 0.035529 -0.003896 0.008717 0.004747 0.034368
# 3 -0.002642 -0.003896 0.009924 -0.000135 -0.003143 0.000214
# 4 0.001777 0.008717 -0.000135 0.026179 0.000093 0.009922
# 5 -0.001996 0.004747 -0.003143 0.000093 0.025238 0.007278
# 6 -0.001463 0.034368 0.000214 0.009922 0.007278 0.094784
#
#
# Mechanical properties :
#
#
# Convention : Reuss Voigt Hill
#
# Bulk Modulus (GPa) = 25.99262 47.22911 36.61086
# Shear Modulus (GPa) = 20.93606 33.11983 27.02794
#
# Velocity S-wave (km/s) = 3.10370 3.90370 3.52646
# Velocity P-wave (km/s) = 4.98031 6.48454 5.78155
#
# Compressibility (1/GPa) = 0.03847246
#
# Stress axis : x y z
#
# Youngs Moduli (GPa) = 73.08633 28.14622 100.77077
#
# Poissons Ratio (x) = 0.10676 0.26626
# Poissons Ratio (y) = 0.27723 0.39258
# Poissons Ratio (z) = 0.19311 0.10965
#
# Static dielectric constant tensor:
#      x y z
#    x 4.359180 0.178440 -0.202810 
#    y 0.178440 4.126210 -0.103140 
#    z -0.202810 -0.103140 4.111990 
# 
# 
# High freq. dielectric constant tensor:
#      x y z
#    x 1.871460 0.014580 0.002980 
#    y 0.014580 1.840120 -0.011190 
#    z 0.002980 -0.011190 1.865410 
# 
# From -- ./inp_files/174120.got.cif
#   From: 2010.06.25/outbox.cif.g09.slc.cpg/sg2_88_cif.got.tgz:174120.got - 2010.06.27 13:26:56.
