data_PCOD8012972
_publ_section_title
;
Structure prediction by ZEFSAII (Michael W. Deem and Ramdas Pophale) SiO2 
 PCOD8012972
Probable space group: P -1
;
_chemical_formula_sum "Si O2"
_cell_formula_units_Z 14
_cell_length_a 8.953601
_cell_length_b 12.467248
_cell_length_c 9.747365
_cell_angle_alpha 73.803674
_cell_angle_beta 79.006224
_cell_angle_gamma 36.244087
_cell_volume 616.637078
_symmetry_space_group_name_H-M "P -1"
_symmetry_group_IT_number 2
_symmetry_cell_setting 'triclinic'
loop_
_space_group_symop_operation_xyz
x,y,z
-x,-y,-z
loop_
_atom_site_type_symbol
_atom_site_label
_atom_site_fract_x
_atom_site_fract_y
_atom_site_fract_z
Si Si1 0.768949 0.014066 0.930492
Si Si2 0.414353 0.791053 0.608193
Si Si3 0.488122 0.485234 0.732227
Si Si4 0.933680 0.363486 0.069891
Si Si5 0.042272 0.069356 0.792783
Si Si6 0.598991 0.682086 0.325941
Si Si7 0.898154 0.551881 0.775873
O O1 0.841857 0.856280 0.904168
O O2 0.507528 0.210116 0.840218
O O3 0.752590 0.009662 0.100942
O O4 0.987903 0.973294 0.872216
O O5 0.420068 0.653352 0.658494
O O6 0.428433 0.819366 0.436160
O O7 0.643844 0.712435 0.677605
O O8 0.163237 0.993969 0.645719
O O9 0.334272 0.533688 0.875912
O O10 0.397763 0.456220 0.633508
O O11 0.792003 0.293259 0.764894
O O12 0.052094 0.377024 0.154287
O O13 0.884697 0.445017 0.900533
O O14 0.874405 0.576282 0.329784
#
# Coordination Sequence:
#
# PCOD8012972 Si02
#       7
#     2   2   2   2   2   2   2
#     4  10  21  40  64  95 129 158 211 266 307 371
#     4  12  23  43  67  91 132 168 201 266 312 370
#     4  10  22  42  68  96 123 163 214 260 313 369
#     4  10  21  42  67  92 126 167 208 266 314 359
#     4  10  23  37  66 103 121 155 218 263 311 367
#     4  10  24  44  62  92 132 168 208 250 317 384
#     4  10  24  39  64  93 124 171 214 251 312 378
#
# _framework density 22.703792
#
# number of rings (size 3 to 8) (size 9 to 14) (size 15 to 20)
#    0.000    1.714    1.429    1.714   10.000    4.000 
#    7.714    0.714    0.000    0.000    0.000    0.000 
#    0.000    0.000    0.000    0.000    0.000    0.000 
#
# Total GULP energy -173526.179309 kJ/mol
# GULP energy per Si atom -12394.727094 kJ/mol
# Density = 2.265212 g / cm^3
# Si number density = 22.703792 Si / 1000 Ang^3
#
#
#
# Elastic Constant Matrix: (Units=GPa)
#
#
# Indices 1 2 3 4 5 6 
#
# 1 55.8374 20.7666 14.9722 3.1770 -1.8098 -15.4399
# 2 20.7666 86.5488 8.5292 15.2804 -5.2038 8.6428
# 3 14.9722 8.5292 74.8475 21.9506 -2.3600 -0.5937
# 4 3.1770 15.2804 21.9506 35.6963 -7.2494 0.2030
# 5 -1.8098 -5.2038 -2.3600 -7.2494 22.1084 -0.5528
# 6 -15.4399 8.6428 -0.5937 0.2030 -0.5528 24.0976
#
#
#
# Elastic Compliance Matrix: (Units=1/GPa)
#
#
# Indices 1 2 3 4 5 6 
#
# 1 0.028694 -0.009283 -0.006030 0.005376 0.001822 0.021563
# 2 -0.009283 0.016026 0.002040 -0.007098 0.000613 -0.011572
# 3 -0.006030 0.002040 0.017630 -0.011566 -0.002027 -0.004110
# 4 0.005376 -0.007098 -0.011566 0.039835 0.010737 0.005616
# 5 0.001822 0.000613 -0.002027 0.010737 0.048878 0.001928
# 6 0.021563 -0.011572 -0.004110 0.005616 0.001928 0.059360
#
#
# Mechanical properties :
#
#
# Convention : Reuss Voigt Hill
#
# Bulk Modulus (GPa) = 27.93039 33.97441 30.95240
# Shear Modulus (GPa) = 20.08806 27.91150 23.99978
#
# Velocity S-wave (km/s) = 2.97777 3.51005 3.25481
# Velocity P-wave (km/s) = 4.91443 5.60571 5.27141
#
# Compressibility (1/GPa) = 0.03580329
#
# Stress axis : x y z
#
# Youngs Moduli (GPa) = 34.85009 62.39748 56.72255
#
# Poissons Ratio (x) = 0.57927 0.34204
# Poissons Ratio (y) = 0.32353 -0.11571
# Poissons Ratio (z) = 0.21015 -0.12729
#
# Static dielectric constant tensor:
#      x y z
#    x 4.150400 0.029990 -0.058150 
#    y 0.029990 3.858760 0.297360 
#    z -0.058150 0.297360 4.105780 
# 
# 
# High freq. dielectric constant tensor:
#      x y z
#    x 1.895380 0.000930 0.004740 
#    y 0.000930 1.886980 0.020820 
#    z 0.004740 0.020820 1.886790 
# 
# From -- ./inp_files/161669.got.cif
#   From: 2010.06.25/outbox.cif.g09.slc.cpg/sg2_81_cif.got.tgz:161669.got - 2010.06.27 13:26:56.
