data_PCOD8012809
_publ_section_title
;
Structure prediction by ZEFSAII (Michael W. Deem and Ramdas Pophale) SiO2 
 PCOD8012809
Probable space group: P -1
;
_chemical_formula_sum "Si O2"
_cell_formula_units_Z 16
_cell_length_a 11.977792
_cell_length_b 6.757998
_cell_length_c 13.669265
_cell_angle_alpha 90.482168
_cell_angle_beta 51.198913
_cell_angle_gamma 111.706991
_cell_volume 762.086585
_symmetry_space_group_name_H-M "P -1"
_symmetry_group_IT_number 2
_symmetry_cell_setting 'triclinic'
loop_
_space_group_symop_operation_xyz
x,y,z
-x,-y,-z
loop_
_atom_site_type_symbol
_atom_site_label
_atom_site_fract_x
_atom_site_fract_y
_atom_site_fract_z
Si Si1 0.620544 0.507901 0.137618
Si Si2 0.275093 0.371440 0.713398
Si Si3 0.292135 0.478102 0.403567
Si Si4 0.810124 0.367353 0.717588
Si Si5 0.520016 0.228616 0.529398
Si Si6 0.961479 0.805823 0.321971
Si Si7 0.547472 0.899833 0.882303
Si Si8 0.751786 0.711413 0.867464
O O1 0.744879 0.590839 0.160660
O O2 0.444418 0.479311 0.265115
O O3 0.595163 0.262482 0.113732
O O4 0.706697 0.694448 0.006834
O O5 0.343700 0.193255 0.660406
O O6 0.104365 0.284296 0.751306
O O7 0.414561 0.604467 0.597229
O O8 0.165609 0.492907 0.395124
O O9 0.354985 0.681398 0.447716
O O10 0.188568 0.246455 0.521271
O O11 0.755345 0.484354 0.833071
O O12 0.961102 0.345904 0.678566
O O13 0.677414 0.118558 0.756671
O O14 0.500000 0.000000 0.500000
O O15 0.079535 0.069164 0.249371
O O16 0.612913 0.730970 0.883185
O O17 0.500000 0.000000 0.000000
#
# Coordination Sequence:
#
# PCOD8012809 Si02
#       8
#     2   2   2   2   2   2   2   2
#     4  11  21  40  68  91 118 159 205 261 304 347
#     4   9  21  40  57  90 125 154 206 250 294 365
#     4  10  21  40  63  94 123 152 210 254 299 362
#     4  11  22  39  61  93 123 162 203 245 306 371
#     4   9  19  37  62  88 121 162 197 254 305 348
#     4  10  24  42  59  87 131 166 194 245 304 370
#     4  11  21  37  64  91 124 155 201 262 309 349
#     4  11  23  41  63  87 127 162 199 253 308 357
#
# _framework density 20.994989
#
# number of rings (size 3 to 8) (size 9 to 14) (size 15 to 20)
#    0.000    1.750    2.500    2.250    1.750    3.000 
#    2.250    0.625    0.000    0.000    0.000    0.000 
#    0.000    0.000    0.000    0.000    0.000    0.000 
#
# Total GULP energy -198278.022677 kJ/mol
# GULP energy per Si atom -12392.376417 kJ/mol
# Density = 2.094720 g / cm^3
# Si number density = 20.994989 Si / 1000 Ang^3
#
#
#
# Elastic Constant Matrix: (Units=GPa)
#
#
# Indices 1 2 3 4 5 6 
#
# 1 112.4963 34.9116 32.2141 2.0051 18.1933 15.3617
# 2 34.9116 117.5318 37.4915 13.0285 9.2009 6.8094
# 3 32.2141 37.4915 100.7133 -3.2160 22.2360 7.0072
# 4 2.0051 13.0285 -3.2160 25.9858 3.4277 3.9975
# 5 18.1933 9.2009 22.2360 3.4277 34.0101 6.6042
# 6 15.3617 6.8094 7.0072 3.9975 6.6042 25.3294
#
#
#
# Elastic Compliance Matrix: (Units=1/GPa)
#
#
# Indices 1 2 3 4 5 6 
#
# 1 0.011335 -0.002466 -0.001523 0.001425 -0.003556 -0.005088
# 2 -0.002466 0.011007 -0.003825 -0.006015 0.001415 0.000175
# 3 -0.001523 -0.003825 0.013686 0.004813 -0.007457 -0.000649
# 4 0.001425 -0.006015 0.004813 0.043638 -0.005509 -0.006029
# 5 -0.003556 0.001415 -0.007457 -0.005509 0.037329 -0.005024
# 6 -0.005088 0.000175 -0.000649 -0.006029 -0.005024 0.044960
#
#
# Mechanical properties :
#
#
# Convention : Reuss Voigt Hill
#
# Bulk Modulus (GPa) = 49.02146 59.99731 54.50938
# Shear Modulus (GPa) = 27.11752 32.13999 29.62875
#
# Velocity S-wave (km/s) = 3.59781 3.91684 3.76071
# Velocity P-wave (km/s) = 6.37642 7.00675 6.69900
#
# Compressibility (1/GPa) = 0.02039923
#
# Stress axis : x y z
#
# Youngs Moduli (GPa) = 88.22173 90.85165 73.06954
#
# Poissons Ratio (x) = 0.22403 0.11128
# Poissons Ratio (y) = 0.21755 0.27951
# Poissons Ratio (z) = 0.13436 0.34753
#
# Static dielectric constant tensor:
#      x y z
#    x 3.674390 0.141130 -0.527420 
#    y 0.141130 3.789710 0.133180 
#    z -0.527420 0.133180 2.140540 
# 
# 
# High freq. dielectric constant tensor:
#      x y z
#    x 1.817120 0.009910 0.017490 
#    y 0.009910 1.814660 -0.002170 
#    z 0.017490 -0.002170 1.818490 
# 
# From -- ./inp_files/510942.got.cif
#   From: 2010.06.25/outbox.cif.g09.slc.cpg/sg2_256_cif.got.tgz:510942.got - 2010.06.27 13:26:56.
