data_PCOD8012057
_publ_section_title
;
Structure prediction by ZEFSAII (Michael W. Deem and Ramdas Pophale) SiO2 
 PCOD8012057
Probable space group: P -1
;
_chemical_formula_sum "Si O2"
_cell_formula_units_Z 16
_cell_length_a 21.082227
_cell_length_b 19.398571
_cell_length_c 8.653688
_cell_angle_alpha 41.649118
_cell_angle_beta 139.493234
_cell_angle_gamma 160.230033
_cell_volume 769.396621
_symmetry_space_group_name_H-M "P -1"
_symmetry_group_IT_number 2
_symmetry_cell_setting 'triclinic'
loop_
_space_group_symop_operation_xyz
x,y,z
-x,-y,-z
loop_
_atom_site_type_symbol
_atom_site_label
_atom_site_fract_x
_atom_site_fract_y
_atom_site_fract_z
Si Si1 0.122416 0.800355 0.942726
Si Si2 0.780808 0.838641 0.188890
Si Si3 0.379650 0.987886 0.845136
Si Si4 0.705179 0.403334 0.937061
Si Si5 0.458931 0.576912 0.576596
Si Si6 0.399686 0.154031 0.350063
Si Si7 0.168418 0.074366 0.515377
Si Si8 0.511389 0.886081 0.706147
O O1 0.922259 0.566068 0.023851
O O2 0.208444 0.806493 0.954343
O O3 0.085836 0.881826 0.671746
O O4 0.274306 0.947338 0.117796
O O5 0.625315 0.612437 0.220201
O O6 0.736905 0.822333 0.313990
O O7 0.756489 0.919813 0.905964
O O8 0.998919 0.000929 0.294959
O O9 0.537652 0.205270 0.851805
O O10 0.290631 0.969564 0.566298
O O11 0.500000 0.000000 0.000000
O O12 0.679099 0.501936 0.684756
O O13 0.659342 0.324589 0.157235
O O14 0.458130 0.643664 0.621836
O O15 0.676491 0.764655 0.601408
O O16 0.521302 0.193630 0.389472
O O17 0.500000 0.000000 0.500000
#
# Coordination Sequence:
#
# PCOD8012057 Si02
#       8
#     2   2   2   2   2   2   2   2
#     4  11  20  42  65  85 123 163 208 252 301 374
#     4  11  23  37  62  90 126 161 210 250 304 374
#     4  10  22  42  65  89 122 166 204 255 313 365
#     4  10  21  39  66  87 118 164 208 248 300 374
#     4  11  21  39  61  90 127 163 204 248 311 373
#     4  11  21  39  61  94 128 159 201 259 317 360
#     4  11  21  40  62  88 120 170 205 246 304 374
#     4  11  23  42  64  90 126 161 208 263 308 357
#
# _framework density 20.795518000000001
#
# number of rings (size 3 to 8) (size 9 to 14) (size 15 to 20)
#    0.000    1.250    6.250    2.250    0.000    1.500 
#    0.000    3.750    0.000    0.000    0.000    0.000 
#    0.000    0.000    0.000    0.000    0.000    0.000 
#
# Total GULP energy -198319.444980 kJ/mol
# GULP energy per Si atom -12394.965311 kJ/mol
# Density = 2.074819 g / cm^3
# Si number density = 20.795518 Si / 1000 Ang^3
#
#
#
# Elastic Constant Matrix: (Units=GPa)
#
#
# Indices 1 2 3 4 5 6 
#
# 1 146.8572 36.0249 43.1567 -3.9749 -10.2735 13.9487
# 2 36.0249 88.8392 27.2829 -3.0754 -15.5234 35.5585
# 3 43.1567 27.2829 95.6279 0.4361 0.3566 1.9072
# 4 -3.9749 -3.0754 0.4361 16.2325 3.3439 -1.7544
# 5 -10.2735 -15.5234 0.3566 3.3439 33.2538 -1.4079
# 6 13.9487 35.5585 1.9072 -1.7544 -1.4079 26.8938
#
#
#
# Elastic Compliance Matrix: (Units=1/GPa)
#
#
# Indices 1 2 3 4 5 6 
#
# 1 0.008507 -0.000765 -0.003576 0.001292 0.002054 -0.002956
# 2 -0.000765 0.033776 -0.008480 -0.001073 0.013909 -0.043001
# 3 -0.003576 -0.008480 0.014276 -0.000635 -0.004654 0.011770
# 4 0.001292 -0.001073 -0.000635 0.063528 -0.006288 0.004609
# 5 0.002054 0.013909 -0.004654 -0.006288 0.037137 -0.017592
# 6 -0.002956 -0.043001 0.011770 0.004609 -0.017592 0.094117
#
#
# Mechanical properties :
#
#
# Convention : Reuss Voigt Hill
#
# Bulk Modulus (GPa) = 32.34503 60.47260 46.40882
# Shear Modulus (GPa) = 17.40413 30.26668 23.83540
#
# Velocity S-wave (km/s) = 2.89609 3.81916 3.38920
# Velocity P-wave (km/s) = 5.17404 6.97071 6.13847
#
# Compressibility (1/GPa) = 0.03091665
#
# Stress axis : x y z
#
# Youngs Moduli (GPa) = 117.54825 29.60708 70.04805
#
# Poissons Ratio (x) = 0.02265 0.25047
# Poissons Ratio (y) = 0.08992 0.59404
# Poissons Ratio (z) = 0.42031 0.25108
#
# Static dielectric constant tensor:
#      x y z
#    x 3.869000 0.126020 -0.138000 
#    y 0.126020 3.441610 -0.041020 
#    z -0.138000 -0.041020 3.912100 
# 
# 
# High freq. dielectric constant tensor:
#      x y z
#    x 1.823340 0.007230 0.004470 
#    y 0.007230 1.783000 -0.003530 
#    z 0.004470 -0.003530 1.821810 
# 
# From -- ./inp_files/313000.got.cif
#   From: 2010.06.25/outbox.cif.g09.slc.cpg/sg2_157_cif.got.tgz:313000.got - 2010.06.27 13:26:56.
