data_PCOD8012740
_publ_section_title
;
Structure prediction by ZEFSAII (Michael W. Deem and Ramdas Pophale) SiO2 
 PCOD8012740
Probable space group: P -1
;
_chemical_formula_sum "Si O2"
_cell_formula_units_Z 16
_cell_length_a 13.688641
_cell_length_b 8.733977
_cell_length_c 8.550716
_cell_angle_alpha 87.942607
_cell_angle_beta 131.780873
_cell_angle_gamma 107.116345
_cell_volume 709.913089
_symmetry_space_group_name_H-M "P -1"
_symmetry_group_IT_number 2
_symmetry_cell_setting 'triclinic'
loop_
_space_group_symop_operation_xyz
x,y,z
-x,-y,-z
loop_
_atom_site_type_symbol
_atom_site_label
_atom_site_fract_x
_atom_site_fract_y
_atom_site_fract_z
Si Si1 0.592718 0.288279 0.764707
Si Si2 0.904393 0.755067 0.292567
Si Si3 0.425479 0.423628 0.085458
Si Si4 0.108422 0.526176 0.892465
Si Si5 0.608448 0.999076 0.252627
Si Si6 0.132120 0.375021 0.245256
Si Si7 0.634970 0.303742 0.446382
Si Si8 0.878297 0.913382 0.564851
O O1 0.535921 0.432108 0.747843
O O2 0.612163 0.264732 0.604793
O O3 0.486337 0.115566 0.712032
O O4 0.744643 0.335287 0.010224
O O5 0.958372 0.605254 0.313822
O O6 0.931296 0.809819 0.498972
O O7 0.738361 0.682587 0.089666
O O8 0.994434 0.913087 0.276935
O O9 0.489036 0.290804 0.213960
O O10 0.500000 0.500000 0.000000
O O11 0.015870 0.625686 0.849776
O O12 0.143398 0.416077 0.071823
O O13 0.685023 0.175139 0.410248
O O14 0.736426 0.937389 0.347724
O O15 0.500000 0.000000 0.000000
O O16 0.250803 0.514825 0.464673
O O17 0.146834 0.198143 0.300317
#
# Coordination Sequence:
#
# PCOD8012740 Si02
#       8
#     2   2   2   2   2   2   2   2
#     4  10  22  39  61  89 118 156 201 247 300 356
#     4  10  22  39  58  89 121 154 197 243 293 349
#     4  11  21  39  64  90 122 157 198 246 300 354
#     4   9  21  40  62  89 119 153 197 245 295 352
#     4  12  25  41  60  87 123 159 200 249 302 355
#     4  10  21  40  63  88 119 156 197 242 296 355
#     4  11  22  38  62  88 120 158 201 250 296 355
#     4  11  24  40  60  86 120 158 198 242 295 355
#
# _framework density 22.537970000000001
#
# number of rings (size 3 to 8) (size 9 to 14) (size 15 to 20)
#    0.000    1.500    0.000    5.250    0.000    7.000 
#    0.000    2.500    0.000    0.000    0.000    0.000 
#    0.000    0.000    0.000    0.000    0.000    0.000 
#
# Total GULP energy -198291.522476 kJ/mol
# GULP energy per Si atom -12393.220155 kJ/mol
# Density = 2.248667 g / cm^3
# Si number density = 22.537970 Si / 1000 Ang^3
#
#
#
# Elastic Constant Matrix: (Units=GPa)
#
#
# Indices 1 2 3 4 5 6 
#
# 1 78.4918 21.7386 15.6905 8.2178 5.9547 -3.9812
# 2 21.7386 92.8100 33.9154 11.3075 10.7781 12.9755
# 3 15.6905 33.9154 69.3168 1.3372 7.0560 2.9830
# 4 8.2178 11.3075 1.3372 36.3930 -3.7942 4.2265
# 5 5.9547 10.7781 7.0560 -3.7942 33.4429 14.6547
# 6 -3.9812 12.9755 2.9830 4.2265 14.6547 41.5640
#
#
#
# Elastic Compliance Matrix: (Units=1/GPa)
#
#
# Indices 1 2 3 4 5 6 
#
# 1 0.014598 -0.002486 -0.001837 -0.003267 -0.003474 0.003863
# 2 -0.002486 0.014777 -0.006256 -0.003613 -0.001942 -0.003350
# 3 -0.001837 -0.006256 0.018010 0.001409 -0.001710 0.000944
# 4 -0.003267 -0.003613 0.001409 0.030590 0.007061 -0.004886
# 5 -0.003474 -0.001942 -0.001710 0.007061 0.038379 -0.013853
# 6 0.003863 -0.003350 0.000944 -0.004886 -0.013853 0.030789
#
#
# Mechanical properties :
#
#
# Convention : Reuss Voigt Hill
#
# Bulk Modulus (GPa) = 38.13132 42.58975 40.36053
# Shear Modulus (GPa) = 28.24174 33.56492 30.90333
#
# Velocity S-wave (km/s) = 3.54372 3.86328 3.70694
# Velocity P-wave (km/s) = 5.80511 6.23200 6.02234
#
# Compressibility (1/GPa) = 0.02622516
#
# Stress axis : x y z
#
# Youngs Moduli (GPa) = 68.50424 67.67144 55.52594
#
# Poissons Ratio (x) = 0.16826 0.10202
# Poissons Ratio (y) = 0.17033 0.34736
# Poissons Ratio (z) = 0.12587 0.42335
#
# Static dielectric constant tensor:
#      x y z
#    x 4.231270 -0.032520 0.120940 
#    y -0.032520 4.266340 0.289390 
#    z 0.120940 0.289390 4.138660 
# 
# 
# High freq. dielectric constant tensor:
#      x y z
#    x 1.900980 0.000870 0.007030 
#    y 0.000870 1.889220 0.016530 
#    z 0.007030 0.016530 1.873580 
# 
# From -- ./inp_files/298448.got.cif
#   From: 2010.06.25/outbox.cif.g09.slc.cpg/sg2_150_cif.got.tgz:298448.got - 2010.06.27 13:26:56.
