data_PCOD8012333
_publ_section_title
;
Structure prediction by ZEFSAII (Michael W. Deem and Ramdas Pophale) SiO2 
 PCOD8012333
Probable space group: P -1
;
_chemical_formula_sum "Si O2"
_cell_formula_units_Z 16
_cell_length_a 10.288653
_cell_length_b 13.407715
_cell_length_c 12.472525
_cell_angle_alpha 135.394833
_cell_angle_beta 131.913083
_cell_angle_gamma 46.446630
_cell_volume 820.677712
_symmetry_space_group_name_H-M "P -1"
_symmetry_group_IT_number 2
_symmetry_cell_setting 'triclinic'
loop_
_space_group_symop_operation_xyz
x,y,z
-x,-y,-z
loop_
_atom_site_type_symbol
_atom_site_label
_atom_site_fract_x
_atom_site_fract_y
_atom_site_fract_z
Si Si1 0.970110 0.535111 0.887300
Si Si2 0.174825 0.886893 0.438922
Si Si3 0.703131 0.919416 0.493806
Si Si4 0.671719 0.622393 0.171298
Si Si5 0.732295 0.313044 0.065493
Si Si6 0.986294 0.835085 0.086020
Si Si7 0.887995 0.167020 0.264700
Si Si8 0.289943 0.628071 0.469339
O O1 0.847884 0.453864 0.702672
O O2 0.185737 0.470446 0.914305
O O3 0.875420 0.721350 0.952281
O O4 0.000000 0.500000 0.000000
O O5 0.303995 0.743421 0.474077
O O6 0.108734 0.817272 0.247621
O O7 0.296092 0.982514 0.537562
O O8 0.000000 0.000000 0.500000
O O9 0.743394 0.744045 0.354009
O O10 0.880047 0.905711 0.656734
O O11 0.500000 0.000000 0.500000
O O12 0.676555 0.498155 0.169478
O O13 0.461039 0.713545 0.075643
O O14 0.820369 0.259255 0.188975
O O15 0.879830 0.213311 0.981291
O O16 0.836530 0.015303 0.125800
O O17 0.788099 0.280892 0.394166
O O18 0.500000 0.500000 0.500000
#
# Coordination Sequence:
#
# PCOD8012333 Si02
#       8
#     2   2   2   2   2   2   2   2
#     4  11  22  40  66  90 125 168 220 266 317 399
#     4  11  20  43  70  92 132 178 215 271 330 392
#     4  11  23  40  68  97 127 173 229 267 323 399
#     4  10  21  41  61  94 123 170 221 260 326 397
#     4  10  23  39  66  92 133 170 209 271 336 391
#     4  10  21  39  69  92 123 174 218 259 328 393
#     4  11  23  43  65  94 138 169 212 281 331 386
#     4  12  26  43  65  99 131 173 220 276 338 384
#
# _framework density 19.496082000000001
#
# number of rings (size 3 to 8) (size 9 to 14) (size 15 to 20)
#    0.000    1.250    5.000    1.875    1.750    2.500 
#    6.750    0.625    0.000    0.000    0.000    0.000 
#    0.000    0.000    0.000    0.000    0.000    0.000 
#
# Total GULP energy -198379.414779 kJ/mol
# GULP energy per Si atom -12398.713424 kJ/mol
# Density = 1.945171 g / cm^3
# Si number density = 19.496082 Si / 1000 Ang^3
#
#
#
# Elastic Constant Matrix: (Units=GPa)
#
#
# Indices 1 2 3 4 5 6 
#
# 1 114.5457 64.9795 46.2836 -0.9028 -6.6366 14.6504
# 2 64.9795 148.1437 60.4128 -3.7177 -4.5039 17.7744
# 3 46.2836 60.4128 108.6202 13.6724 -11.6105 19.8540
# 4 -0.9028 -3.7177 13.6724 40.0055 8.9862 -0.7649
# 5 -6.6366 -4.5039 -11.6105 8.9862 33.5795 -0.3331
# 6 14.6504 17.7744 19.8540 -0.7649 -0.3331 31.5433
#
#
#
# Elastic Compliance Matrix: (Units=1/GPa)
#
#
# Indices 1 2 3 4 5 6 
#
# 1 0.012415 -0.004104 -0.002679 0.000601 0.000799 -0.001744
# 2 -0.004104 0.010506 -0.004399 0.002739 -0.001668 -0.001196
# 3 -0.002679 -0.004399 0.015481 -0.007250 0.006113 -0.006133
# 4 0.000601 0.002739 -0.007250 0.030060 -0.010032 0.003364
# 5 0.000799 -0.001668 0.006113 -0.010032 0.034481 -0.003158
# 6 -0.001744 -0.001196 -0.006133 0.003364 -0.003158 0.037095
#
#
# Mechanical properties :
#
#
# Convention : Reuss Voigt Hill
#
# Bulk Modulus (GPa) = 62.35008 79.40684 70.87846
# Shear Modulus (GPa) = 29.80657 34.33458 32.07057
#
# Velocity S-wave (km/s) = 3.91429 4.20110 4.06023
# Velocity P-wave (km/s) = 7.24425 8.02187 7.64296
#
# Compressibility (1/GPa) = 0.01603847
#
# Stress axis : x y z
#
# Youngs Moduli (GPa) = 80.54752 95.18541 64.59423
#
# Poissons Ratio (x) = 0.39069 0.17303
# Poissons Ratio (y) = 0.33061 0.28412
# Poissons Ratio (z) = 0.21577 0.41868
#
# Static dielectric constant tensor:
#      x y z
#    x 3.684860 0.520740 0.019770 
#    y 0.520740 3.103940 0.454780 
#    z 0.019770 0.454780 3.797080 
# 
# 
# High freq. dielectric constant tensor:
#      x y z
#    x 1.761850 0.014440 -0.006940 
#    y 0.014440 1.762430 0.022470 
#    z -0.006940 0.022470 1.764990 
# 
# From -- ./inp_files/242954.got.cif
#   From: 2010.06.25/outbox.cif.g09.slc.cpg/sg2_122_cif.got.tgz:242954.got - 2010.06.27 13:26:56.
