data_PCOD8012908
_publ_section_title
;
Structure prediction by ZEFSAII (Michael W. Deem and Ramdas Pophale) SiO2 
 PCOD8012908
Probable space group: P -1
;
_chemical_formula_sum "Si O2"
_cell_formula_units_Z 16
_cell_length_a 9.057770
_cell_length_b 13.652022
_cell_length_c 11.320566
_cell_angle_alpha 79.292471
_cell_angle_beta 37.563380
_cell_angle_gamma 64.946962
_cell_volume 744.109838
_symmetry_space_group_name_H-M "P -1"
_symmetry_group_IT_number 2
_symmetry_cell_setting 'triclinic'
loop_
_space_group_symop_operation_xyz
x,y,z
-x,-y,-z
loop_
_atom_site_type_symbol
_atom_site_label
_atom_site_fract_x
_atom_site_fract_y
_atom_site_fract_z
Si Si1 0.822838 0.528714 0.845784
Si Si2 0.645720 0.137576 0.191655
Si Si3 0.198672 0.100759 0.157951
Si Si4 0.149720 0.281203 0.323734
Si Si5 0.789447 0.890387 0.110791
Si Si6 0.336800 0.522375 0.290568
Si Si7 0.370407 0.840970 0.535072
Si Si8 0.577777 0.587379 0.495935
O O1 0.802543 0.652005 0.830333
O O2 0.805740 0.505822 0.721857
O O3 0.115507 0.438899 0.728938
O O4 0.601145 0.527042 0.072747
O O5 0.399256 0.243402 0.264884
O O6 0.577018 0.130247 0.373200
O O7 0.673431 0.024403 0.138723
O O8 0.916685 0.154948 0.000623
O O9 0.138558 0.176592 0.294316
O O10 0.940450 0.071852 0.327382
O O11 0.179251 0.160358 0.029829
O O12 0.500000 0.000000 0.000000
O O13 0.866627 0.356527 0.553816
O O14 0.591690 0.853969 0.312676
O O15 0.434580 0.426927 0.351179
O O16 0.392118 0.715452 0.544674
O O17 0.500000 0.500000 0.500000
#
# Coordination Sequence:
#
# PCOD8012908 Si02
#       8
#     2   2   2   2   2   2   2   2
#     4  10  22  40  65  93 120 160 212 256 308 376
#     4  10  21  40  64  90 127 160 207 266 309 358
#     4  11  24  43  60  88 130 166 205 259 307 366
#     4  11  21  39  65  90 126 167 202 254 318 363
#     4  10  23  42  62  90 124 166 212 257 308 370
#     4  10  22  41  63  94 125 159 209 260 308 370
#     4  11  23  40  66  92 122 170 214 251 316 375
#     4  11  23  40  62  91 133 164 201 260 312 372
#
# _framework density 21.502202
#
# number of rings (size 3 to 8) (size 9 to 14) (size 15 to 20)
#    0.000    1.500    1.250    4.875    0.000    8.000 
#    2.250    0.000    0.000    0.000    0.000    0.000 
#    0.000    0.000    0.000    0.000    0.000    0.000 
#
# Total GULP energy -198328.751098 kJ/mol
# GULP energy per Si atom -12395.546944 kJ/mol
# Density = 2.145326 g / cm^3
# Si number density = 21.502202 Si / 1000 Ang^3
#
#
#
# Elastic Constant Matrix: (Units=GPa)
#
#
# Indices 1 2 3 4 5 6 
#
# 1 96.2286 23.0978 57.4920 -1.7688 -12.7328 -0.6876
# 2 23.0978 58.6361 44.6051 1.0085 -7.4483 -0.9329
# 3 57.4920 44.6051 126.0208 -12.5068 -7.8208 -2.4109
# 4 -1.7688 1.0085 -12.5068 33.6404 1.8117 -1.3400
# 5 -12.7328 -7.4483 -7.8208 1.8117 29.3002 10.3146
# 6 -0.6876 -0.9329 -2.4109 -1.3400 10.3146 29.1877
#
#
#
# Elastic Compliance Matrix: (Units=1/GPa)
#
#
# Indices 1 2 3 4 5 6 
#
# 1 0.015169 -0.000085 -0.006792 -0.002125 0.005706 -0.002320
# 2 -0.000085 0.024406 -0.008770 -0.004324 0.004734 -0.001818
# 3 -0.006792 -0.008770 0.014579 0.005521 -0.002271 0.001820
# 4 -0.002125 -0.004324 0.005521 0.032110 -0.003595 0.003012
# 5 0.005706 0.004734 -0.002271 -0.003595 0.042773 -0.015182
# 6 -0.002320 -0.001818 0.001820 0.003012 -0.015182 0.039802
#
#
# Mechanical properties :
#
#
# Convention : Reuss Voigt Hill
#
# Bulk Modulus (GPa) = 43.74017 59.03060 51.38538
# Shear Modulus (GPa) = 24.06703 28.80502 26.43602
#
# Velocity S-wave (km/s) = 3.34920 3.66407 3.51016
# Velocity P-wave (km/s) = 5.94496 6.73895 6.35436
#
# Compressibility (1/GPa) = 0.02286228
#
# Stress axis : x y z
#
# Youngs Moduli (GPa) = 65.92299 40.97379 68.58949
#
# Poissons Ratio (x) = 0.00347 0.46583
# Poissons Ratio (y) = 0.00558 0.60153
# Poissons Ratio (z) = 0.44772 0.35934
#
# Static dielectric constant tensor:
#      x y z
#    x 4.098780 0.005030 -0.106240 
#    y 0.005030 3.622190 0.195460 
#    z -0.106240 0.195460 3.979510 
# 
# 
# High freq. dielectric constant tensor:
#      x y z
#    x 1.860270 0.003560 -0.008000 
#    y 0.003560 1.818770 0.012980 
#    z -0.008000 0.012980 1.856630 
# 
# From -- ./inp_files/399089.got.cif
#   From: 2010.06.25/outbox.cif.g09.slc.cpg/sg2_200_cif.got.tgz:399089.got - 2010.06.27 13:26:56.
