data_PCOD8012916
_publ_section_title
;
Structure prediction by ZEFSAII (Michael W. Deem and Ramdas Pophale) SiO2 
 PCOD8012916
Probable space group: P -1
;
_chemical_formula_sum "Si O2"
_cell_formula_units_Z 16
_cell_length_a 6.434655
_cell_length_b 18.689488
_cell_length_c 7.983931
_cell_angle_alpha 128.112779
_cell_angle_beta 97.502864
_cell_angle_gamma 65.331223
_cell_volume 675.577236
_symmetry_space_group_name_H-M "P -1"
_symmetry_group_IT_number 2
_symmetry_cell_setting 'triclinic'
loop_
_space_group_symop_operation_xyz
x,y,z
-x,-y,-z
loop_
_atom_site_type_symbol
_atom_site_label
_atom_site_fract_x
_atom_site_fract_y
_atom_site_fract_z
Si Si1 0.023637 0.713256 0.051262
Si Si2 0.662202 0.990434 0.228863
Si Si3 0.498488 0.848490 0.839993
Si Si4 0.463401 0.160636 0.690028
Si Si5 0.161015 0.838792 0.019204
Si Si6 0.494839 0.658960 0.183488
Si Si7 0.260538 0.376608 0.509546
Si Si8 0.808683 0.559404 0.763167
O O1 0.100598 0.747133 0.933653
O O2 0.225883 0.682631 0.167761
O O3 0.801305 0.809621 0.239439
O O4 0.966191 0.620413 0.875272
O O5 0.534356 0.079797 0.214951
O O6 0.581729 0.044590 0.476889
O O7 0.939999 0.945638 0.174587
O O8 0.576406 0.902068 0.077267
O O9 0.704122 0.738556 0.669953
O O10 0.260738 0.835624 0.836966
O O11 0.614125 0.175110 0.873518
O O12 0.465503 0.239392 0.661921
O O13 0.584463 0.608597 0.302437
O O14 0.636485 0.585209 0.939223
O O15 0.988052 0.441948 0.617658
O O16 0.326326 0.412696 0.390283
#
# Coordination Sequence:
#
# PCOD8012916 Si02
#       8
#     2   2   2   2   2   2   2   2
#     4  10  22  42  66  96 131 167 213 267 322 387
#     4  11  23  41  62  92 126 168 215 260 318 384
#     4  11  24  41  60  91 131 164 213 263 317 382
#     4  10  21  40  64  91 126 165 213 261 319 379
#     4  11  22  39  64  89 127 169 208 266 317 378
#     4  10  21  42  66  96 133 170 213 267 325 385
#     4  11  21  43  68  95 131 172 214 268 327 384
#     4  10  23  42  69  97 132 168 215 267 325 391
#
# _framework density 23.683451000000002
#
# number of rings (size 3 to 8) (size 9 to 14) (size 15 to 20)
#    0.000    1.500    1.250    4.875    0.000    4.500 
#    4.500   10.625    0.000    0.000    0.000    0.000 
#    0.000    0.000    0.000    0.000    0.000    0.000 
#
# Total GULP energy -198325.388844 kJ/mol
# GULP energy per Si atom -12395.336803 kJ/mol
# Density = 2.362955 g / cm^3
# Si number density = 23.683451 Si / 1000 Ang^3
#
#
#
# Elastic Constant Matrix: (Units=GPa)
#
#
# Indices 1 2 3 4 5 6 
#
# 1 121.9689 36.5598 32.2524 7.7943 -13.3454 -8.9165
# 2 36.5598 105.6409 25.5425 16.2817 -7.5381 -14.3980
# 3 32.2524 25.5425 105.4434 23.6423 -17.3340 -7.8562
# 4 7.7943 16.2817 23.6423 42.0451 -9.4220 -3.9958
# 5 -13.3454 -7.5381 -17.3340 -9.4220 14.9484 4.1966
# 6 -8.9165 -14.3980 -7.8562 -3.9958 4.1966 33.2558
#
#
#
# Elastic Compliance Matrix: (Units=1/GPa)
#
#
# Indices 1 2 3 4 5 6 
#
# 1 0.010139 -0.002828 -0.001671 0.001682 0.006618 0.000466
# 2 -0.002828 0.011653 -0.001125 -0.003233 -0.001047 0.003765
# 3 -0.001671 -0.001125 0.012905 -0.004202 0.010165 0.000326
# 4 0.001682 -0.003233 -0.004202 0.030234 0.014079 -0.000085
# 5 0.006618 -0.001047 0.010165 0.014079 0.094776 -0.006546
# 6 0.000466 0.003765 0.000326 -0.000085 -0.006546 0.032718
#
#
# Mechanical properties :
#
#
# Convention : Reuss Voigt Hill
#
# Bulk Modulus (GPa) = 42.64416 57.97363 50.30889
# Shear Modulus (GPa) = 23.64186 33.96310 28.80248
#
# Velocity S-wave (km/s) = 3.16293 3.79099 3.49111
# Velocity P-wave (km/s) = 5.60212 6.61013 6.12689
#
# Compressibility (1/GPa) = 0.02344987
#
# Stress axis : x y z
#
# Youngs Moduli (GPa) = 98.62822 85.81130 77.49045
#
# Poissons Ratio (x) = 0.24272 0.12947
# Poissons Ratio (y) = 0.27897 0.08714
# Poissons Ratio (z) = 0.16478 0.09650
#
# Static dielectric constant tensor:
#      x y z
#    x 4.176690 0.023260 -0.082480 
#    y 0.023260 4.566830 -0.000060 
#    z -0.082480 -0.000060 4.307330 
# 
# 
# High freq. dielectric constant tensor:
#      x y z
#    x 1.918290 -0.004790 -0.012270 
#    y -0.004790 1.959580 0.003510 
#    z -0.012270 0.003510 1.931500 
# 
# From -- ./inp_files/141616.got.cif
#   From: 2010.06.25/outbox.cif.g09.slc.cpg/sg2_71_cif.got.tgz:141616.got - 2010.06.27 13:26:56.
