data_PCOD8012229
_publ_section_title
;
Structure prediction by ZEFSAII (Michael W. Deem and Ramdas Pophale) SiO2 
 PCOD8012229
Probable space group: P -1
;
_chemical_formula_sum "Si O2"
_cell_formula_units_Z 14
_cell_length_a 14.466808
_cell_length_b 14.835120
_cell_length_c 8.382174
_cell_angle_alpha 111.453904
_cell_angle_beta 49.613175
_cell_angle_gamma 151.678518
_cell_volume 535.790662
_symmetry_space_group_name_H-M "P -1"
_symmetry_group_IT_number 2
_symmetry_cell_setting 'triclinic'
loop_
_space_group_symop_operation_xyz
x,y,z
-x,-y,-z
loop_
_atom_site_type_symbol
_atom_site_label
_atom_site_fract_x
_atom_site_fract_y
_atom_site_fract_z
Si Si1 0.901243 0.534073 0.082977
Si Si2 0.447103 0.459867 0.720275
Si Si3 0.931112 0.310074 0.521976
Si Si4 0.613638 0.266578 0.911979
Si Si5 0.657873 0.828582 0.358691
Si Si6 0.897615 0.176976 0.167250
Si Si7 0.052064 0.875711 0.457917
O O1 0.684883 0.416382 0.381620
O O2 0.753386 0.422060 0.004959
O O3 0.141219 0.792598 0.939736
O O4 0.000000 0.500000 0.000000
O O5 0.500000 0.500000 0.500000
O O6 0.287095 0.242176 0.803829
O O7 0.744267 0.696047 0.634415
O O8 0.233396 0.391203 0.963377
O O9 0.697804 0.214138 0.796629
O O10 0.986005 0.265693 0.558162
O O11 0.240436 0.585664 0.316985
O O12 0.785673 0.161997 0.428194
O O13 0.272316 0.040909 0.167685
O O14 0.839722 0.989744 0.417853
O O15 0.715922 0.945197 0.222812
#
# Coordination Sequence:
#
# PCOD8012229 Si02
#       7
#     2   2   2   2   2   2   2
#     4  10  21  39  67  99 137 169 216 279 327 393
#     4  12  25  45  68  97 136 172 226 273 325 401
#     4   9  19  38  65  95 129 169 225 267 319 396
#     4   9  19  39  64  96 130 172 220 267 326 395
#     4  10  23  45  66  99 130 175 222 269 332 388
#     4  10  22  44  62  96 136 172 223 274 323 395
#     4  10  23  42  68  94 129 177 214 270 335 383
#
# _framework density 26.12961
#
# number of rings (size 3 to 8) (size 9 to 14) (size 15 to 20)
#    0.000    2.000    1.429    0.857    2.000    3.429 
#    5.143    0.000    0.000    0.000    0.000    0.000 
#    0.000    0.000    0.000    0.000    0.000    0.000 
#
# Total GULP energy -173511.361050 kJ/mol
# GULP energy per Si atom -12393.668646 kJ/mol
# Density = 2.607014 g / cm^3
# Si number density = 26.129610 Si / 1000 Ang^3
#
#
#
# Elastic Constant Matrix: (Units=GPa)
#
#
# Indices 1 2 3 4 5 6 
#
# 1 97.9435 35.4611 19.3612 -20.9836 13.5152 -38.5545
# 2 35.4611 67.6379 19.9468 -0.9295 4.5867 -14.0043
# 3 19.3612 19.9468 77.9016 -10.5453 6.1092 -9.4898
# 4 -20.9836 -0.9295 -10.5453 33.7903 -20.3484 -0.8105
# 5 13.5152 4.5867 6.1092 -20.3484 39.2212 -9.0098
# 6 -38.5545 -14.0043 -9.4898 -0.8105 -9.0098 46.6844
#
#
#
# Elastic Compliance Matrix: (Units=1/GPa)
#
#
# Indices 1 2 3 4 5 6 
#
# 1 0.024124 -0.009149 0.000784 0.019835 0.007311 0.019093
# 2 -0.009149 0.020297 -0.004211 -0.008868 -0.003908 -0.003231
# 3 0.000784 -0.004211 0.014752 0.006084 0.001729 0.002823
# 4 0.019835 -0.008868 0.006084 0.062646 0.030808 0.021990
# 5 0.007311 -0.003908 0.001729 0.030808 0.042347 0.013925
# 6 0.019093 -0.003231 0.002823 0.021990 0.013925 0.039862
#
#
# Mechanical properties :
#
#
# Convention : Reuss Voigt Hill
#
# Bulk Modulus (GPa) = 29.39280 43.66900 36.53090
# Shear Modulus (GPa) = 20.78844 35.18679 27.98762
#
# Velocity S-wave (km/s) = 2.82368 3.67362 3.27633
# Velocity P-wave (km/s) = 4.68019 5.89430 5.32198
#
# Compressibility (1/GPa) = 0.03402194
#
# Stress axis : x y z
#
# Youngs Moduli (GPa) = 41.45326 49.26807 67.78847
#
# Poissons Ratio (x) = 0.45075 -0.05318
# Poissons Ratio (y) = 0.37925 0.28545
# Poissons Ratio (z) = -0.03252 0.20746
#
# Static dielectric constant tensor:
#      x y z
#    x 4.849630 -0.661170 0.216490 
#    y -0.661170 4.904340 -0.189010 
#    z 0.216490 -0.189010 5.038740 
# 
# 
# High freq. dielectric constant tensor:
#      x y z
#    x 2.035270 -0.031400 0.008030 
#    y -0.031400 2.045760 -0.000670 
#    z 0.008030 -0.000670 2.052150 
# 
# From -- ./inp_files/315532.got.cif
#   From: 2010.06.25/outbox.cif.g09.slc.cpg/sg2_158_cif.got.tgz:315532.got - 2010.06.27 13:26:56.
