data_PCOD8012243
_publ_section_title
;
Structure prediction by ZEFSAII (Michael W. Deem and Ramdas Pophale) SiO2 
 PCOD8012243
Probable space group: P -1
;
_chemical_formula_sum "Si O2"
_cell_formula_units_Z 14
_cell_length_a 17.101184
_cell_length_b 7.206330
_cell_length_c 8.372992
_cell_angle_alpha 58.025882
_cell_angle_beta 79.143043
_cell_angle_gamma 118.653480
_cell_volume 617.848338
_symmetry_space_group_name_H-M "P -1"
_symmetry_group_IT_number 2
_symmetry_cell_setting 'triclinic'
loop_
_space_group_symop_operation_xyz
x,y,z
-x,-y,-z
loop_
_atom_site_type_symbol
_atom_site_label
_atom_site_fract_x
_atom_site_fract_y
_atom_site_fract_z
Si Si1 0.259375 0.243801 0.189226
Si Si2 0.806545 0.072399 0.957757
Si Si3 0.599079 0.854567 0.284685
Si Si4 0.122880 0.220049 0.785903
Si Si5 0.515207 0.127452 0.260072
Si Si6 0.886251 0.690821 0.620661
Si Si7 0.704292 0.106188 0.474454
O O1 0.215096 0.387057 0.212534
O O2 0.180508 0.020209 0.175881
O O3 0.251070 0.042422 0.418909
O O4 0.384450 0.509437 0.955295
O O5 0.887945 0.435271 0.773290
O O6 0.681107 0.921973 0.087701
O O7 0.835457 0.950992 0.138180
O O8 0.500000 0.500000 0.500000
O O9 0.543434 0.979542 0.197867
O O10 0.668597 0.017138 0.346033
O O11 0.128057 0.300110 0.565042
O O12 0.200870 0.528951 0.718526
O O13 0.000000 0.000000 0.000000
O O14 0.500000 0.000000 0.500000
O O15 0.399113 0.023413 0.311210
O O16 0.000000 0.000000 0.500000
#
# Coordination Sequence:
#
# PCOD8012243 Si02
#       7
#     2   2   2   2   2   2   2
#     4  12  24  47  72 106 149 186 240 305 356 432
#     4  12  25  47  76 102 149 189 238 300 364 424
#     4  11  22  42  69 105 144 190 237 293 361 429
#     4  12  28  49  77 106 142 195 244 297 367 429
#     4  10  21  39  68 102 142 185 236 285 355 428
#     4  12  29  48  74 110 141 190 248 298 363 430
#     4  11  24  44  71 107 146 189 245 298 360 432
#
# _framework density 22.659282000000001
#
# number of rings (size 3 to 8) (size 9 to 14) (size 15 to 20)
#    0.000    0.571    2.857    6.429    4.000    1.714 
#    0.000    2.143    0.000    0.000    0.000    0.000 
#    0.000    0.000    0.000    0.000    0.000    0.000 
#
# Total GULP energy -173646.776811 kJ/mol
# GULP energy per Si atom -12403.341201 kJ/mol
# Density = 2.260771 g / cm^3
# Si number density = 22.659282 Si / 1000 Ang^3
#
#
#
# Elastic Constant Matrix: (Units=GPa)
#
#
# Indices 1 2 3 4 5 6 
#
# 1 76.4446 29.0642 22.8523 -11.2295 1.6225 -11.3009
# 2 29.0642 129.8538 46.5561 -24.6608 0.8068 4.3540
# 3 22.8523 46.5561 108.6861 -27.4163 -3.3248 0.6618
# 4 -11.2295 -24.6608 -27.4163 51.2071 -3.7591 -3.2886
# 5 1.6225 0.8068 -3.3248 -3.7591 52.3993 -6.8685
# 6 -11.3009 4.3540 0.6618 -3.2886 -6.8685 42.7169
#
#
#
# Elastic Compliance Matrix: (Units=1/GPa)
#
#
# Indices 1 2 3 4 5 6 
#
# 1 0.015524 -0.002723 -0.001753 0.001458 0.000151 0.004548
# 2 -0.002723 0.009923 -0.003068 0.002419 -0.000292 -0.001545
# 3 -0.001753 -0.003068 0.012113 0.004729 0.001239 0.000224
# 4 0.001458 0.002419 0.004729 0.023853 0.002225 0.002260
# 5 0.000151 -0.000292 0.001239 0.002225 0.019768 0.003400
# 6 0.004548 -0.001545 0.000224 0.002260 0.003400 0.025488
#
#
# Mechanical properties :
#
#
# Convention : Reuss Voigt Hill
#
# Bulk Modulus (GPa) = 44.49771 56.88110 50.68940
# Shear Modulus (GPa) = 38.68571 43.69879 41.19225
#
# Velocity S-wave (km/s) = 4.13641 4.39625 4.26831
# Velocity P-wave (km/s) = 6.51870 7.13629 6.83448
#
# Compressibility (1/GPa) = 0.02247307
#
# Stress axis : x y z
#
# Youngs Moduli (GPa) = 64.41693 100.77474 82.55733
#
# Poissons Ratio (x) = 0.27437 0.14474
# Poissons Ratio (y) = 0.17538 0.25325
# Poissons Ratio (z) = 0.11294 0.30913
#
# Static dielectric constant tensor:
#      x y z
#    x 4.572910 -0.431570 -0.047090 
#    y -0.431570 4.053600 -0.061040 
#    z -0.047090 -0.061040 4.110970 
# 
# 
# High freq. dielectric constant tensor:
#      x y z
#    x 1.897030 -0.016130 -0.003540 
#    y -0.016130 1.898640 -0.013210 
#    z -0.003540 -0.013210 1.900910 
# 
# From -- ./inp_files/323317.got.cif
#   From: 2010.06.25/outbox.cif.g09.slc.cpg/sg2_162_cif.got.tgz:323317.got - 2010.06.27 13:26:56.
