data_PCOD8012197
_publ_section_title
;
Structure prediction by ZEFSAII (Michael W. Deem and Ramdas Pophale) SiO2 
 PCOD8012197
Probable space group: P -1
;
_chemical_formula_sum "Si O2"
_cell_formula_units_Z 16
_cell_length_a 8.595251
_cell_length_b 14.143341
_cell_length_c 13.948486
_cell_angle_alpha 51.358853
_cell_angle_beta 32.910862
_cell_angle_gamma 52.085334
_cell_volume 703.143481
_symmetry_space_group_name_H-M "P -1"
_symmetry_group_IT_number 2
_symmetry_cell_setting 'triclinic'
loop_
_space_group_symop_operation_xyz
x,y,z
-x,-y,-z
loop_
_atom_site_type_symbol
_atom_site_label
_atom_site_fract_x
_atom_site_fract_y
_atom_site_fract_z
Si Si1 0.342920 0.498053 0.482333
Si Si2 0.532627 0.071551 0.728145
Si Si3 0.941934 0.171189 0.052301
Si Si4 0.396750 0.063338 0.414372
Si Si5 0.726377 0.851636 0.915420
Si Si6 0.237029 0.780754 0.339700
Si Si7 0.160581 0.548661 0.125119
Si Si8 0.061172 0.595375 0.831082
O O1 0.500000 0.500000 0.500000
O O2 0.274255 0.636828 0.388513
O O3 0.586835 0.410706 0.344427
O O4 0.044602 0.443785 0.677617
O O5 0.645741 0.192825 0.630709
O O6 0.643040 0.034643 0.586475
O O7 0.670099 0.963894 0.799735
O O8 0.178826 0.105870 0.892298
O O9 0.636711 0.136671 0.204898
O O10 0.054351 0.122654 0.130552
O O11 0.900756 0.319581 0.979263
O O12 0.102844 0.159977 0.528283
O O13 0.500000 0.000000 0.500000
O O14 0.879908 0.731936 0.853954
O O15 0.419292 0.838116 0.129150
O O16 0.049922 0.445256 0.186758
O O17 0.500000 0.500000 0.000000
O O18 0.000000 0.500000 0.000000
#
# Coordination Sequence:
#
# PCOD8012197 Si02
#       8
#     2   2   2   2   2   2   2   2
#     4  10  21  39  67  95 131 167 221 265 316 387
#     4  11  24  42  69  94 122 180 219 259 333 393
#     4  11  23  45  65  94 138 172 211 277 326 384
#     4  12  26  44  62  98 135 163 215 273 332 390
#     4  11  22  41  70  94 132 171 222 265 321 398
#     4  11  22  42  66  97 131 168 220 271 317 386
#     4  11  24  43  64  97 136 173 221 267 325 389
#     4  11  20  42  66  96 129 176 217 271 326 377
#
# _framework density 22.754957999999998
#
# number of rings (size 3 to 8) (size 9 to 14) (size 15 to 20)
#    0.000    1.000    2.500    6.750    5.250    0.000 
#    4.500    0.625    0.000    0.000    0.000    0.000 
#    0.000    0.000    0.000    0.000    0.000    0.000 
#
# Total GULP energy -198386.375642 kJ/mol
# GULP energy per Si atom -12399.148478 kJ/mol
# Density = 2.270317 g / cm^3
# Si number density = 22.754958 Si / 1000 Ang^3
#
#
#
# Elastic Constant Matrix: (Units=GPa)
#
#
# Indices 1 2 3 4 5 6 
#
# 1 68.0353 24.2110 31.1312 12.6172 1.0932 -10.2875
# 2 24.2110 116.3881 27.1353 32.6176 -6.8530 -0.1714
# 3 31.1312 27.1353 116.7566 33.4368 -25.9760 -10.5291
# 4 12.6172 32.6176 33.4368 46.2226 -6.2375 -5.7933
# 5 1.0932 -6.8530 -25.9760 -6.2375 41.6827 5.0063
# 6 -10.2875 -0.1714 -10.5291 -5.7933 5.0063 29.9599
#
#
#
# Elastic Compliance Matrix: (Units=1/GPa)
#
#
# Indices 1 2 3 4 5 6 
#
# 1 0.018966 -0.003279 -0.005099 0.000893 -0.004761 0.005670
# 2 -0.003279 0.011375 0.000500 -0.007626 0.001439 -0.002600
# 3 -0.005099 0.000500 0.013776 -0.007864 0.007587 0.000305
# 4 0.000893 -0.007626 -0.007864 0.032738 -0.001775 0.004126
# 5 -0.004761 0.001439 0.007587 -0.001775 0.029320 -0.004203
# 6 0.005670 -0.002600 0.000305 0.004126 -0.004203 0.036917
#
#
# Mechanical properties :
#
#
# Convention : Reuss Voigt Hill
#
# Bulk Modulus (GPa) = 35.25818 51.79278 43.52548
# Shear Modulus (GPa) = 29.70839 38.15320 33.93079
#
# Velocity S-wave (km/s) = 3.61720 4.09919 3.86572
# Velocity P-wave (km/s) = 5.74229 6.72421 6.25255
#
# Compressibility (1/GPa) = 0.02836221
#
# Stress axis : x y z
#
# Youngs Moduli (GPa) = 52.72477 87.90888 72.59100
#
# Poissons Ratio (x) = 0.28825 0.37013
# Poissons Ratio (y) = 0.17288 -0.03630
# Poissons Ratio (z) = 0.26883 -0.04396
#
# Static dielectric constant tensor:
#      x y z
#    x 3.940410 0.059070 0.046260 
#    y 0.059070 4.269600 0.631830 
#    z 0.046260 0.631830 4.884430 
# 
# 
# High freq. dielectric constant tensor:
#      x y z
#    x 1.864970 -0.010570 -0.003200 
#    y -0.010570 1.912510 0.015740 
#    z -0.003200 0.015740 1.918830 
# 
# From -- ./inp_files/226779.got.cif
#   From: 2010.06.25/outbox.cif.g09.slc.cpg/sg2_114_cif.got.tgz:226779.got - 2010.06.27 13:26:56.
