data_PCOD8012110
_publ_section_title
;
Structure prediction by ZEFSAII (Michael W. Deem and Ramdas Pophale) SiO2 
 PCOD8012110
Probable space group: P -1
;
_chemical_formula_sum "Si O2"
_cell_formula_units_Z 16
_cell_length_a 9.602974
_cell_length_b 16.100382
_cell_length_c 8.712890
_cell_angle_alpha 77.620638
_cell_angle_beta 85.381314
_cell_angle_gamma 36.004681
_cell_volume 763.297923
_symmetry_space_group_name_H-M "P -1"
_symmetry_group_IT_number 2
_symmetry_cell_setting 'triclinic'
loop_
_space_group_symop_operation_xyz
x,y,z
-x,-y,-z
loop_
_atom_site_type_symbol
_atom_site_label
_atom_site_fract_x
_atom_site_fract_y
_atom_site_fract_z
Si Si1 0.925884 0.880497 0.638048
Si Si2 0.631901 0.350663 0.497908
Si Si3 0.236542 0.318742 0.709839
Si Si4 0.526769 0.005472 0.816167
Si Si5 0.354600 0.779641 0.165842
Si Si6 0.609013 0.094569 0.314627
Si Si7 0.890068 0.093645 0.152108
Si Si8 0.708896 0.611261 0.637511
O O1 0.113949 0.741896 0.560662
O O2 0.104483 0.860767 0.705317
O O3 0.802454 0.888097 0.784135
O O4 0.708543 0.029293 0.503049
O O5 0.500000 0.500000 0.500000
O O6 0.680085 0.270768 0.676294
O O7 0.472487 0.377248 0.379308
O O8 0.344144 0.172088 0.731814
O O9 0.387733 0.301220 0.824344
O O10 0.243896 0.362420 0.532069
O O11 0.962200 0.448832 0.742544
O O12 0.464275 0.956389 0.736450
O O13 0.500000 0.000000 0.000000
O O14 0.290839 0.770512 0.007976
O O15 0.164180 0.952024 0.125457
O O16 0.809853 0.036508 0.212416
O O17 0.394884 0.270005 0.276961
#
# Coordination Sequence:
#
# PCOD8012110 Si02
#       8
#     2   2   2   2   2   2   2   2
#     4  12  23  42  68  95 132 170 230 278 325 392
#     4  11  24  42  66  99 132 176 232 274 330 397
#     4  10  21  41  63  94 138 170 222 271 339 392
#     4  12  27  42  65 103 139 174 222 279 340 395
#     4  10  21  39  66  96 128 174 214 273 337 395
#     4  12  23  41  69 101 130 174 231 276 328 399
#     4  11  21  39  69  97 127 165 223 276 331 391
#     4  10  22  39  67  96 128 176 225 278 323 401
#
# _framework density 20.961670999999999
#
# number of rings (size 3 to 8) (size 9 to 14) (size 15 to 20)
#    0.000    1.000    5.000    2.250    3.500    2.000 
#    0.000    4.375    0.000    0.000    0.000    0.000 
#    0.000    0.000    0.000    0.000    0.000    0.000 
#
# Total GULP energy -198279.730532 kJ/mol
# GULP energy per Si atom -12392.483158 kJ/mol
# Density = 2.091396 g / cm^3
# Si number density = 20.961671 Si / 1000 Ang^3
#
#
#
# Elastic Constant Matrix: (Units=GPa)
#
#
# Indices 1 2 3 4 5 6 
#
# 1 118.5440 70.5037 55.4787 -1.6739 6.3939 -3.8063
# 2 70.5037 144.7278 35.4118 -1.9003 6.0558 -3.2727
# 3 55.4787 35.4118 97.9797 4.5779 13.5210 -9.4286
# 4 -1.6739 -1.9003 4.5779 23.3211 -5.9524 2.0993
# 5 6.3939 6.0558 13.5210 -5.9524 33.8247 7.4072
# 6 -3.8063 -3.2727 -9.4286 2.0993 7.4072 35.7156
#
#
#
# Elastic Compliance Matrix: (Units=1/GPa)
#
#
# Indices 1 2 3 4 5 6 
#
# 1 0.014916 -0.005651 -0.006865 0.002487 0.001643 -0.001227
# 2 -0.005651 0.009752 -0.000216 0.000240 -0.000626 0.000350
# 3 -0.006865 -0.000216 0.015965 -0.005977 -0.007262 0.005321
# 4 0.002487 0.000240 -0.005977 0.047831 0.011724 -0.006534
# 5 0.001643 -0.000626 -0.007262 0.011724 0.036536 -0.010066
# 6 -0.001227 0.000350 0.005321 -0.006534 -0.010066 0.031776
#
#
# Mechanical properties :
#
#
# Convention : Reuss Voigt Hill
#
# Bulk Modulus (GPa) = 65.91945 76.00444 70.96195
# Shear Modulus (GPa) = 26.69551 31.89611 29.29581
#
# Velocity S-wave (km/s) = 3.57254 3.90505 3.74249
# Velocity P-wave (km/s) = 6.96658 7.52795 7.25270
#
# Compressibility (1/GPa) = 0.01517003
#
# Stress axis : x y z
#
# Youngs Moduli (GPa) = 67.04155 102.53928 62.63774
#
# Poissons Ratio (x) = 0.57940 0.42999
# Poissons Ratio (y) = 0.37882 0.01356
# Poissons Ratio (z) = 0.46022 0.02219
#
# Static dielectric constant tensor:
#      x y z
#    x 3.946510 -0.250960 0.119830 
#    y -0.250960 3.889740 -0.054520 
#    z 0.119830 -0.054520 3.942870 
# 
# 
# High freq. dielectric constant tensor:
#      x y z
#    x 1.824100 -0.015910 0.005800 
#    y -0.015910 1.812420 0.009580 
#    z 0.005800 0.009580 1.815140 
# 
# From -- ./inp_files/206338.got.cif
#   From: 2010.06.25/outbox.cif.g09.slc.cpg/sg2_104_cif.got.tgz:206338.got - 2010.06.27 13:26:56.
