data_PCOD8012573
_publ_section_title
;
Structure prediction by ZEFSAII (Michael W. Deem and Ramdas Pophale) SiO2 
 PCOD8012573
Probable space group: P -1
;
_chemical_formula_sum "Si O2"
_cell_formula_units_Z 16
_cell_length_a 8.492230
_cell_length_b 13.445552
_cell_length_c 10.749464
_cell_angle_alpha 111.475318
_cell_angle_beta 40.140305
_cell_angle_gamma 105.964995
_cell_volume 736.302861
_symmetry_space_group_name_H-M "P -1"
_symmetry_group_IT_number 2
_symmetry_cell_setting 'triclinic'
loop_
_space_group_symop_operation_xyz
x,y,z
-x,-y,-z
loop_
_atom_site_type_symbol
_atom_site_label
_atom_site_fract_x
_atom_site_fract_y
_atom_site_fract_z
Si Si1 0.513885 0.018289 0.151347
Si Si2 0.270650 0.442113 0.666799
Si Si3 0.731705 0.524708 0.028628
Si Si4 0.144073 0.846973 0.343587
Si Si5 0.335096 0.933010 0.661350
Si Si6 0.127402 0.144453 0.234105
Si Si7 0.554407 0.672044 0.985210
Si Si8 0.663257 0.791813 0.534395
O O1 0.681202 0.003023 0.167975
O O2 0.446436 0.146803 0.243996
O O3 0.257849 0.962286 0.310389
O O4 0.661833 0.952772 0.922370
O O5 0.500000 0.500000 0.500000
O O6 0.285423 0.429877 0.800869
O O7 0.307145 0.332296 0.520417
O O8 0.010482 0.493552 0.810516
O O9 0.655326 0.620532 0.027592
O O10 0.549709 0.423366 0.082147
O O11 0.006632 0.832165 0.548563
O O12 0.337809 0.752383 0.182481
O O13 0.936713 0.834378 0.357168
O O14 0.066213 0.904554 0.766953
O O15 0.485824 0.821510 0.540849
O O16 0.500000 0.000000 0.500000
O O17 0.234453 0.257319 0.174081
#
# Coordination Sequence:
#
# PCOD8012573 Si02
#       8
#     2   2   2   2   2   2   2   2
#     4   9  22  38  63  90 130 159 214 255 316 385
#     4  11  25  44  69  96 132 168 219 265 329 384
#     4  10  24  46  64  95 130 169 217 277 318 378
#     4  11  21  41  62  96 129 168 210 262 318 391
#     4  10  21  40  61  91 127 167 208 260 315 380
#     4  11  22  38  66  94 126 170 216 258 318 396
#     4  10  24  41  67  94 130 169 219 268 321 378
#     4  10  23  39  63  92 130 167 208 264 321 375
#
# _framework density 21.730187999999998
#
# number of rings (size 3 to 8) (size 9 to 14) (size 15 to 20)
#    0.750    1.000    2.500    0.750    5.250    0.500 
#    0.000    8.750    0.000    0.000    0.000    0.000 
#    0.000    0.000    0.000    0.000    0.000    0.000 
#
# Total GULP energy -198217.048687 kJ/mol
# GULP energy per Si atom -12388.565543 kJ/mol
# Density = 2.168073 g / cm^3
# Si number density = 21.730188 Si / 1000 Ang^3
#
#
#
# Elastic Constant Matrix: (Units=GPa)
#
#
# Indices 1 2 3 4 5 6 
#
# 1 56.1031 16.8106 26.9418 1.9882 -15.3732 8.8177
# 2 16.8106 112.2095 49.4526 1.5220 -2.9326 14.5562
# 3 26.9418 49.4526 120.0021 -3.3278 -2.2333 4.2771
# 4 1.9882 1.5220 -3.3278 44.4358 6.4146 -8.2946
# 5 -15.3732 -2.9326 -2.2333 6.4146 41.1216 -1.9452
# 6 8.8177 14.5562 4.2771 -8.2946 -1.9452 33.0537
#
#
#
# Elastic Compliance Matrix: (Units=1/GPa)
#
#
# Indices 1 2 3 4 5 6 
#
# 1 0.023821 -0.000327 -0.004939 -0.003835 0.008928 -0.006008
# 2 -0.000327 0.011650 -0.004593 -0.001705 0.000496 -0.004847
# 3 -0.004939 -0.004593 0.011274 0.001896 -0.001751 0.002254
# 4 -0.003835 -0.001705 0.001896 0.024999 -0.004997 0.007508
# 5 0.008928 0.000496 -0.001751 -0.004997 0.028283 -0.001963
# 6 -0.006008 -0.004847 0.002254 0.007508 -0.001963 0.035468
#
#
# Mechanical properties :
#
#
# Convention : Reuss Voigt Hill
#
# Bulk Modulus (GPa) = 37.00013 52.74719 44.87366
# Shear Modulus (GPa) = 30.44652 36.72953 33.58803
#
# Velocity S-wave (km/s) = 3.74721 4.11573 3.93579
# Velocity P-wave (km/s) = 5.98215 6.84924 6.43033
#
# Compressibility (1/GPa) = 0.02702693
#
# Stress axis : x y z
#
# Youngs Moduli (GPa) = 41.98003 85.83757 88.69638
#
# Poissons Ratio (x) = 0.02808 0.43810
# Poissons Ratio (y) = 0.01373 0.40736
# Poissons Ratio (z) = 0.20735 0.39423
#
# Static dielectric constant tensor:
#      x y z
#    x 4.308170 -0.067680 -0.242640 
#    y -0.067680 3.376530 0.209740 
#    z -0.242640 0.209740 3.930890 
# 
# 
# High freq. dielectric constant tensor:
#      x y z
#    x 1.876570 0.008220 -0.017770 
#    y 0.008220 1.853330 0.009210 
#    z -0.017770 0.009210 1.858250 
# 
# From -- ./inp_files/399232.got.cif
#   From: 2010.06.25/outbox.cif.g09.slc.cpg/sg2_200_cif.got.tgz:399232.got - 2010.06.27 13:26:56.
