data_PCOD8012554
_publ_section_title
;
Structure prediction by ZEFSAII (Michael W. Deem and Ramdas Pophale) SiO2 
 PCOD8012554
Probable space group: P -1
;
_chemical_formula_sum "Si O2"
_cell_formula_units_Z 14
_cell_length_a 9.764984
_cell_length_b 11.007761
_cell_length_c 9.053893
_cell_angle_alpha 85.953011
_cell_angle_beta 135.622548
_cell_angle_gamma 101.631714
_cell_volume 662.814685
_symmetry_space_group_name_H-M "P -1"
_symmetry_group_IT_number 2
_symmetry_cell_setting 'triclinic'
loop_
_space_group_symop_operation_xyz
x,y,z
-x,-y,-z
loop_
_atom_site_type_symbol
_atom_site_label
_atom_site_fract_x
_atom_site_fract_y
_atom_site_fract_z
Si Si1 0.047301 0.202396 0.779108
Si Si2 0.448914 0.351615 0.958847
Si Si3 0.903468 0.576103 0.718787
Si Si4 0.817928 0.320499 0.810605
Si Si5 0.005413 0.057760 0.340213
Si Si6 0.847130 0.267299 0.324731
Si Si7 0.380279 0.261277 0.579620
O O1 0.941804 0.224148 0.849378
O O2 0.906752 0.225375 0.533712
O O3 0.261357 0.296693 0.924078
O O4 0.071992 0.058567 0.819178
O O5 0.401215 0.310820 0.758389
O O6 0.500000 0.500000 0.000000
O O7 0.626552 0.291212 0.161393
O O8 0.822656 0.428389 0.682581
O O9 0.717804 0.642148 0.599125
O O10 0.995559 0.608746 0.622573
O O11 0.085474 0.620820 0.968709
O O12 0.589966 0.250636 0.671127
O O13 0.234035 0.125273 0.471983
O O14 0.863369 0.158976 0.224344
O O15 0.000000 0.000000 0.500000
#
# Coordination Sequence:
#
# PCOD8012554 Si02
#       7
#     2   2   2   2   2   2   2
#     4  11  24  42  62  96 126 153 216 266 285 367
#     4  12  24  36  65  97 120 159 211 249 303 373
#     4  10  21  40  61  88 126 170 196 242 324 371
#     4  11  24  37  62  93 127 161 201 254 316 363
#     4   9  19  43  65  88 120 166 209 253 304 356
#     4  10  21  41  66  88 122 170 202 251 313 356
#     4  11  22  42  63  86 130 165 200 251 312 370
#
# _framework density 21.122042
#
# number of rings (size 3 to 8) (size 9 to 14) (size 15 to 20)
#    0.000    1.429    5.714    1.286    4.000    3.429 
#    0.000    2.857    0.000    0.000    0.000    0.000 
#    0.000    0.000    0.000    0.000    0.000    0.000 
#
# Total GULP energy -173585.222225 kJ/mol
# GULP energy per Si atom -12398.944445 kJ/mol
# Density = 2.107397 g / cm^3
# Si number density = 21.122042 Si / 1000 Ang^3
#
#
#
# Elastic Constant Matrix: (Units=GPa)
#
#
# Indices 1 2 3 4 5 6 
#
# 1 118.0374 36.0095 14.6150 13.9419 36.6836 -3.6569
# 2 36.0095 99.6569 11.4094 19.7599 17.2050 -0.9941
# 3 14.6150 11.4094 50.2378 0.3126 30.0659 -0.3911
# 4 13.9419 19.7599 0.3126 32.9390 0.5494 1.4951
# 5 36.6836 17.2050 30.0659 0.5494 41.0346 -0.1308
# 6 -3.6569 -0.9941 -0.3911 1.4951 -0.1308 24.3221
#
#
#
# Elastic Compliance Matrix: (Units=1/GPa)
#
#
# Indices 1 2 3 4 5 6 
#
# 1 0.013896 -0.002038 0.005964 -0.004555 -0.015870 0.002297
# 2 -0.002038 0.012694 -0.000363 -0.006724 -0.003143 0.000603
# 3 0.005964 -0.000363 0.038036 -0.002183 -0.033014 0.001450
# 4 -0.004555 -0.006724 -0.002183 0.036353 0.007994 -0.003186
# 5 -0.015870 -0.003143 -0.033014 0.007994 0.063947 -0.003193
# 6 0.002297 0.000603 0.001450 -0.003186 -0.003193 0.041687
#
#
# Mechanical properties :
#
#
# Convention : Reuss Voigt Hill
#
# Bulk Modulus (GPa) = 13.93668 43.55554 28.74611
# Shear Modulus (GPa) = 22.38099 33.38570 27.88335
#
# Velocity S-wave (km/s) = 3.25869 3.98000 3.63727
# Velocity P-wave (km/s) = 4.55754 6.46423 5.59274
#
# Compressibility (1/GPa) = 0.07175312
#
# Stress axis : x y z
#
# Youngs Moduli (GPa) = 71.96074 78.77605 26.29113
#
# Poissons Ratio (x) = 0.16055 -0.15680
# Poissons Ratio (y) = 0.14666 0.00953
# Poissons Ratio (z) = -0.42918 0.02857
#
# Static dielectric constant tensor:
#      x y z
#    x 3.773960 -0.082210 0.203150 
#    y -0.082210 4.379810 -0.107000 
#    z 0.203150 -0.107000 3.763420 
# 
# 
# High freq. dielectric constant tensor:
#      x y z
#    x 1.826530 0.002900 0.011950 
#    y 0.002900 1.832690 -0.006520 
#    z 0.011950 -0.006520 1.811430 
# 
# From -- ./inp_files/178470.got.cif
#   From: 2010.06.25/outbox.cif.g09.slc.cpg/sg2_90_cif.got.tgz:178470.got - 2010.06.27 13:26:56.
