data_PCOD8012311
_publ_section_title
;
Structure prediction by ZEFSAII (Michael W. Deem and Ramdas Pophale) SiO2 
 PCOD8012311
Probable space group: P -1
;
_chemical_formula_sum "Si O2"
_cell_formula_units_Z 16
_cell_length_a 5.673913
_cell_length_b 8.273911
_cell_length_c 19.400101
_cell_angle_alpha 97.492936
_cell_angle_beta 123.045115
_cell_angle_gamma 59.071874
_cell_volume 640.495758
_symmetry_space_group_name_H-M "P -1"
_symmetry_group_IT_number 2
_symmetry_cell_setting 'triclinic'
loop_
_space_group_symop_operation_xyz
x,y,z
-x,-y,-z
loop_
_atom_site_type_symbol
_atom_site_label
_atom_site_fract_x
_atom_site_fract_y
_atom_site_fract_z
Si Si1 0.670129 0.772565 0.511312
Si Si2 0.883601 0.283362 0.302777
Si Si3 0.816380 0.941770 0.282205
Si Si4 0.015753 0.828380 0.450483
Si Si5 0.113211 0.749717 0.073055
Si Si6 0.223041 0.607240 0.859005
Si Si7 0.126539 0.613301 0.209049
Si Si8 0.781477 0.917309 0.900260
O O1 0.387877 0.715284 0.467103
O O2 0.894044 0.673808 0.609421
O O3 0.913814 0.705925 0.477442
O O4 0.500000 0.000000 0.500000
O O5 0.960268 0.297319 0.236680
O O6 0.504164 0.442920 0.267347
O O7 0.993165 0.062508 0.321838
O O8 0.749912 0.907657 0.349013
O O9 0.032275 0.731513 0.271312
O O10 0.492293 0.079409 0.192019
O O11 0.000000 0.000000 0.500000
O O12 0.377305 0.522521 0.089413
O O13 0.031035 0.772021 0.142114
O O14 0.284809 0.870932 0.091669
O O15 0.799031 0.830677 0.975070
O O16 0.094228 0.470799 0.852387
O O17 0.134300 0.769784 0.911214
#
# Coordination Sequence:
#
# PCOD8012311 Si02
#       8
#     2   2   2   2   2   2   2   2
#     4  10  21  39  69 100 133 180 227 290 344 414
#     4  11  24  42  69  93 133 179 224 279 349 409
#     4  12  23  43  70  99 128 183 228 279 350 412
#     4  10  22  40  68 101 138 176 229 295 341 414
#     4  10  24  46  61 100 139 171 227 285 337 407
#     4  11  23  42  66  96 136 173 226 280 338 418
#     4  11  25  43  64  99 136 171 228 285 334 420
#     4  11  23  41  72  95 132 183 224 278 348 410
#
# _framework density 24.980650000000001
#
# number of rings (size 3 to 8) (size 9 to 14) (size 15 to 20)
#    0.000    1.250    5.000    1.125    5.250    2.000 
#    2.250    1.250    0.000    0.000    0.000    0.000 
#    0.000    0.000    0.000    0.000    0.000    0.000 
#
# Total GULP energy -198280.269717 kJ/mol
# GULP energy per Si atom -12392.516857 kJ/mol
# Density = 2.492379 g / cm^3
# Si number density = 24.980650 Si / 1000 Ang^3
#
#
#
# Elastic Constant Matrix: (Units=GPa)
#
#
# Indices 1 2 3 4 5 6 
#
# 1 97.7470 2.8110 25.2488 -5.9103 -13.0938 3.6037
# 2 2.8110 67.3217 12.4846 6.6850 -9.3733 -7.2784
# 3 25.2488 12.4846 160.6676 -8.4273 -13.3593 -2.9790
# 4 -5.9103 6.6850 -8.4273 27.1489 -0.1906 -12.1913
# 5 -13.0938 -9.3733 -13.3593 -0.1906 35.6240 0.2468
# 6 3.6037 -7.2784 -2.9790 -12.1913 0.2468 21.9179
#
#
#
# Elastic Compliance Matrix: (Units=1/GPa)
#
#
# Indices 1 2 3 4 5 6 
#
# 1 0.011213 0.000015 -0.001410 0.001460 0.003613 -0.001259
# 2 0.000015 0.016243 -0.001009 -0.002589 0.003861 0.003770
# 3 -0.001410 -0.001009 0.006895 0.003279 0.001801 0.002637
# 4 0.001460 -0.002589 0.003279 0.051339 0.001166 0.027888
# 5 0.003613 0.003861 0.001801 0.001166 0.031088 0.001231
# 6 -0.001259 0.003770 0.002637 0.027888 0.001231 0.062941
#
#
# Mechanical properties :
#
#
# Convention : Reuss Voigt Hill
#
# Bulk Modulus (GPa) = 33.84916 45.20281 39.52599
# Shear Modulus (GPa) = 25.72376 35.95097 30.83737
#
# Velocity S-wave (km/s) = 3.21245 3.79773 3.51729
# Velocity P-wave (km/s) = 5.22870 6.11267 5.68789
#
# Compressibility (1/GPa) = 0.02954283
#
# Stress axis : x y z
#
# Youngs Moduli (GPa) = 89.18324 61.56528 145.04080
#
# Poissons Ratio (x) = -0.00094 0.20445
# Poissons Ratio (y) = -0.00136 0.14641
# Poissons Ratio (z) = 0.12571 0.06215
#
# Static dielectric constant tensor:
#      x y z
#    x 5.210060 -0.094180 -0.353520 
#    y -0.094180 4.184280 -0.149600 
#    z -0.353520 -0.149600 4.785390 
# 
# 
# High freq. dielectric constant tensor:
#      x y z
#    x 1.977580 -0.008090 -0.013330 
#    y -0.008090 1.981960 -0.009530 
#    z -0.013330 -0.009530 2.012160 
# 
# From -- ./inp_files/49164.got.cif
#   From: 2010.06.25/outbox.cif.g09.slc.cpg/sg2_25_cif.got.tgz:49164.got - 2010.06.27 13:26:56.
