data_PCOD8012329
_publ_section_title
;
Structure prediction by ZEFSAII (Michael W. Deem and Ramdas Pophale) SiO2 
 PCOD8012329
Probable space group: P -1
;
_chemical_formula_sum "Si O2"
_cell_formula_units_Z 16
_cell_length_a 14.383050
_cell_length_b 14.061124
_cell_length_c 9.291631
_cell_angle_alpha 116.576145
_cell_angle_beta 59.684609
_cell_angle_gamma 151.670680
_cell_volume 769.775297
_symmetry_space_group_name_H-M "P -1"
_symmetry_group_IT_number 2
_symmetry_cell_setting 'triclinic'
loop_
_space_group_symop_operation_xyz
x,y,z
-x,-y,-z
loop_
_atom_site_type_symbol
_atom_site_label
_atom_site_fract_x
_atom_site_fract_y
_atom_site_fract_z
Si Si1 0.499919 0.511977 0.680872
Si Si2 0.205202 0.612818 0.456943
Si Si3 0.109843 0.230593 0.945624
Si Si4 0.687741 0.530472 0.781975
Si Si5 0.443358 0.858234 0.184632
Si Si6 0.649162 0.813833 0.967859
Si Si7 0.727288 0.274905 0.197744
Si Si8 0.876968 0.517062 0.993506
O O1 0.500000 0.500000 0.500000
O O2 0.268652 0.298593 0.769297
O O3 0.643349 0.545338 0.671221
O O4 0.583121 0.697084 0.794070
O O5 0.187777 0.473706 0.338859
O O6 0.402874 0.828183 0.367715
O O7 0.247099 0.657258 0.620573
O O8 0.000000 0.500000 0.500000
O O9 0.134677 0.373315 0.974793
O O10 0.170125 0.274180 0.097524
O O11 0.887269 0.997774 0.937193
O O12 0.475596 0.337137 0.901867
O O13 0.515458 0.033084 0.188227
O O14 0.602857 0.900028 0.043289
O O15 0.219559 0.643526 0.156298
O O16 0.741067 0.386776 0.155757
O O17 0.893044 0.325719 0.057515
#
# Coordination Sequence:
#
# PCOD8012329 Si02
#       8
#     2   2   2   2   2   2   2   2
#     4  11  25  42  65  93 126 156 199 263 318 364
#     4  11  21  39  62  88 128 162 203 250 302 359
#     4  11  20  42  68  85 124 162 210 249 308 368
#     4  10  23  41  65  92 120 166 206 253 306 368
#     4  11  20  39  61  90 120 163 212 249 301 367
#     4  10  21  39  69  90 116 164 211 251 304 371
#     4  11  23  35  60  91 126 162 212 247 312 353
#     4  11  21  38  60  90 121 166 204 258 297 375
#
# _framework density 20.785285999999999
#
# number of rings (size 3 to 8) (size 9 to 14) (size 15 to 20)
#    0.000    1.250    6.250    2.250    1.750    2.500 
#    0.000    0.000    0.000    0.000    0.000    0.000 
#    0.000    0.000    0.000    0.000    0.000    0.000 
#
# Total GULP energy -198320.900611 kJ/mol
# GULP energy per Si atom -12395.056288 kJ/mol
# Density = 2.073798 g / cm^3
# Si number density = 20.785286 Si / 1000 Ang^3
#
#
#
# Elastic Constant Matrix: (Units=GPa)
#
#
# Indices 1 2 3 4 5 6 
#
# 1 83.2132 22.7898 49.6443 -3.1545 10.9149 9.5325
# 2 22.7898 93.1547 32.7971 4.5387 -0.1839 11.4479
# 3 49.6443 32.7971 131.2703 -2.9672 14.0337 -4.4125
# 4 -3.1545 4.5387 -2.9672 20.3525 2.8638 0.9204
# 5 10.9149 -0.1839 14.0337 2.8638 37.2848 -6.7216
# 6 9.5325 11.4479 -4.4125 0.9204 -6.7216 30.7053
#
#
#
# Elastic Compliance Matrix: (Units=1/GPa)
#
#
# Indices 1 2 3 4 5 6 
#
# 1 0.017407 -0.001514 -0.005898 0.003090 -0.004334 -0.006728
# 2 -0.001514 0.012872 -0.002989 -0.003497 0.001105 -0.004412
# 3 -0.005898 -0.002989 0.010955 0.001416 -0.001784 0.004087
# 4 0.003090 -0.003497 0.001416 0.051521 -0.005821 -0.002271
# 5 -0.004334 0.001105 -0.001784 -0.005821 0.030573 0.007544
# 6 -0.006728 -0.004412 0.004087 -0.002271 0.007544 0.038608
#
#
# Mechanical properties :
#
#
# Convention : Reuss Voigt Hill
#
# Bulk Modulus (GPa) = 48.94150 57.56671 53.25410
# Shear Modulus (GPa) = 26.37836 31.16234 28.77035
#
# Velocity S-wave (km/s) = 3.56629 3.87622 3.72448
# Velocity P-wave (km/s) = 6.36830 6.91299 6.64623
#
# Compressibility (1/GPa) = 0.02043256
#
# Stress axis : x y z
#
# Youngs Moduli (GPa) = 57.44848 77.68592 91.28189
#
# Poissons Ratio (x) = 0.11764 0.53835
# Poissons Ratio (y) = 0.08700 0.27283
# Poissons Ratio (z) = 0.33881 0.23219
#
# Static dielectric constant tensor:
#      x y z
#    x 3.855620 0.153890 0.084430 
#    y 0.153890 3.959550 -0.057690 
#    z 0.084430 -0.057690 3.816920 
# 
# 
# High freq. dielectric constant tensor:
#      x y z
#    x 1.816350 0.002230 0.004930 
#    y 0.002230 1.807580 -0.001080 
#    z 0.004930 -0.001080 1.806180 
# 
# From -- ./inp_files/285178.got.cif
#   From: 2010.06.25/outbox.cif.g09.slc.cpg/sg2_143_cif.got.tgz:285178.got - 2010.06.27 13:26:56.
