data_PCOD8012581
_publ_section_title
;
Structure prediction by ZEFSAII (Michael W. Deem and Ramdas Pophale) SiO2 
 PCOD8012581
Probable space group: P -1
;
_chemical_formula_sum "Si O2"
_cell_formula_units_Z 16
_cell_length_a 9.163800
_cell_length_b 24.430511
_cell_length_c 9.293484
_cell_angle_alpha 48.778102
_cell_angle_beta 120.964475
_cell_angle_gamma 150.425613
_cell_volume 762.693935
_symmetry_space_group_name_H-M "P -1"
_symmetry_group_IT_number 2
_symmetry_cell_setting 'triclinic'
loop_
_space_group_symop_operation_xyz
x,y,z
-x,-y,-z
loop_
_atom_site_type_symbol
_atom_site_label
_atom_site_fract_x
_atom_site_fract_y
_atom_site_fract_z
Si Si1 0.679305 0.006119 0.988088
Si Si2 0.002164 0.066363 0.495269
Si Si3 0.816282 0.305347 0.271642
Si Si4 0.672018 0.343021 0.403163
Si Si5 0.558249 0.055227 0.586058
Si Si6 0.728492 0.861103 0.903676
Si Si7 0.343642 0.750953 0.167424
Si Si8 0.210679 0.449225 0.959155
O O1 0.720904 0.052387 0.769387
O O2 0.012490 0.107988 0.039979
O O3 0.500000 0.000000 0.000000
O O4 0.476824 0.862865 0.135982
O O5 0.320872 0.213379 0.422873
O O6 0.774975 0.045208 0.348469
O O7 0.000000 0.000000 0.500000
O O8 0.868169 0.989649 0.712662
O O9 0.858203 0.359633 0.353244
O O10 0.754211 0.197640 0.439965
O O11 0.543115 0.251675 0.147800
O O12 0.117177 0.418434 0.133266
O O13 0.752621 0.345225 0.601594
O O14 0.744494 0.453013 0.239695
O O15 0.500000 0.000000 0.500000
O O16 0.608824 0.817424 0.081472
O O17 0.060080 0.677977 0.055364
O O18 0.500000 0.500000 0.000000
#
# Coordination Sequence:
#
# PCOD8012581 Si02
#       8
#     2   2   2   2   2   2   2   2
#     4  12  23  35  60  99 132 158 197 257 319 365
#     4  11  20  38  63  96 125 167 208 251 312 385
#     4  10  23  45  64  92 125 169 216 251 306 391
#     4  12  23  41  71  85 126 171 216 252 308 382
#     4  11  23  35  59  94 135 157 198 254 323 357
#     4  10  21  40  61  92 132 163 198 250 312 380
#     4  11  25  43  62  93 131 163 214 253 308 386
#     4  11  27  46  65  91 120 167 219 271 313 355
#
# _framework density 20.978269999999998
#
# number of rings (size 3 to 8) (size 9 to 14) (size 15 to 20)
#    0.000    1.000    3.750    4.875    5.250    0.000 
#    0.000    0.625    0.000    0.000    0.000    0.000 
#    0.000    0.000    0.000    0.000    0.000    0.000 
#
# Total GULP energy -198365.494506 kJ/mol
# GULP energy per Si atom -12397.843407 kJ/mol
# Density = 2.093052 g / cm^3
# Si number density = 20.978270 Si / 1000 Ang^3
#
#
#
# Elastic Constant Matrix: (Units=GPa)
#
#
# Indices 1 2 3 4 5 6 
#
# 1 115.6558 29.1811 34.6159 -9.1604 -6.5768 9.8088
# 2 29.1811 57.7064 10.2491 -3.0716 -3.2650 16.1849
# 3 34.6159 10.2491 116.9061 -5.2864 -7.2066 3.1955
# 4 -9.1604 -3.0716 -5.2864 23.3105 2.4069 0.7785
# 5 -6.5768 -3.2650 -7.2066 2.4069 39.0178 -0.0742
# 6 9.8088 16.1849 3.1955 0.7785 -0.0742 40.9614
#
#
#
# Elastic Compliance Matrix: (Units=1/GPa)
#
#
# Indices 1 2 3 4 5 6 
#
# 1 0.010955 -0.004693 -0.002630 0.003030 0.000780 -0.000620
# 2 -0.004693 0.021977 -0.000221 0.001159 0.000921 -0.007563
# 3 -0.002630 -0.000221 0.009472 0.000960 0.001228 -0.000038
# 4 0.003030 0.001159 0.000960 0.044735 -0.001979 -0.002112
# 5 0.000780 0.000921 0.001228 -0.001979 0.026186 -0.000562
# 6 -0.000620 -0.007563 -0.000038 -0.002112 -0.000562 0.027592
#
#
# Mechanical properties :
#
#
# Convention : Reuss Voigt Hill
#
# Bulk Modulus (GPa) = 36.61059 48.70669 42.65864
# Shear Modulus (GPa) = 30.28287 35.07277 32.67782
#
# Velocity S-wave (km/s) = 3.80351 4.09328 3.95105
# Velocity P-wave (km/s) = 6.06453 6.75337 6.41819
#
# Compressibility (1/GPa) = 0.02731450
#
# Stress axis : x y z
#
# Youngs Moduli (GPa) = 91.28582 45.50302 105.57200
#
# Poissons Ratio (x) = 0.21355 0.27767
# Poissons Ratio (y) = 0.42842 0.02334
# Poissons Ratio (z) = 0.24010 0.01006
#
# Static dielectric constant tensor:
#      x y z
#    x 4.490410 1.007420 0.371340 
#    y 1.007420 6.094000 0.176790 
#    z 0.371340 0.176790 4.932500 
# 
# 
# High freq. dielectric constant tensor:
#      x y z
#    x 1.825630 0.003740 -0.009530 
#    y 0.003740 1.806530 0.006030 
#    z -0.009530 0.006030 1.832890 
# 
# From -- ./inp_files/223255.got.cif
#   From: 2010.06.25/outbox.cif.g09.slc.cpg/sg2_112_cif.got.tgz:223255.got - 2010.06.27 13:26:56.
