data_PCOD8012687
_publ_section_title
;
Structure prediction by ZEFSAII (Michael W. Deem and Ramdas Pophale) SiO2 
 PCOD8012687
Probable space group: P -1
;
_chemical_formula_sum "Si O2"
_cell_formula_units_Z 16
_cell_length_a 13.606890
_cell_length_b 13.491266
_cell_length_c 11.628071
_cell_angle_alpha 80.213267
_cell_angle_beta 148.822492
_cell_angle_gamma 119.966087
_cell_volume 784.029098
_symmetry_space_group_name_H-M "P -1"
_symmetry_group_IT_number 2
_symmetry_cell_setting 'triclinic'
loop_
_space_group_symop_operation_xyz
x,y,z
-x,-y,-z
loop_
_atom_site_type_symbol
_atom_site_label
_atom_site_fract_x
_atom_site_fract_y
_atom_site_fract_z
Si Si1 0.336871 0.635100 0.934014
Si Si2 0.709116 0.609136 0.281426
Si Si3 0.723701 0.552975 0.557520
Si Si4 0.674620 0.234899 0.882754
Si Si5 0.888138 0.323078 0.491175
Si Si6 0.429535 0.322290 0.481876
Si Si7 0.108357 0.930029 0.100680
Si Si8 0.409594 0.941759 0.597778
O O1 0.300742 0.666738 0.763934
O O2 0.110318 0.465871 0.758350
O O3 0.629845 0.693341 0.222882
O O4 0.324458 0.716899 0.999972
O O5 0.704695 0.535721 0.403818
O O6 0.990357 0.704171 0.481935
O O7 0.500000 0.500000 0.000000
O O8 0.605275 0.410507 0.527772
O O9 0.545360 0.582699 0.413714
O O10 0.026855 0.673539 0.876733
O O11 0.525157 0.250282 0.638471
O O12 0.527784 0.073634 0.770142
O O13 0.712568 0.191156 0.423095
O O14 0.123643 0.215126 0.164550
O O15 0.177883 0.901384 0.295236
O O16 0.365120 0.027605 0.258577
O O17 0.000000 0.000000 0.000000
#
# Coordination Sequence:
#
# PCOD8012687 Si02
#       8
#     2   2   2   2   2   2   2   2
#     4  10  22  40  65  92 125 165 221 263 313 385
#     4  10  21  40  62  94 129 165 215 272 314 381
#     4  11  23  40  65  97 131 167 216 273 325 379
#     4  12  22  43  63  97 134 163 213 274 323 388
#     4  10  23  43  63  92 128 170 212 265 321 380
#     4  11  24  40  66  94 128 175 214 267 327 382
#     4  11  24  45  63  92 130 171 218 261 316 401
#     4  11  26  42  66  95 132 172 210 266 333 389
#
# _framework density 20.407406000000002
#
# number of rings (size 3 to 8) (size 9 to 14) (size 15 to 20)
#    0.000    1.250    5.000    0.375    3.500    2.500 
#    0.000    0.625    0.000    0.000    0.000    0.000 
#    0.000    0.000    0.000    0.000    0.000    0.000 
#
# Total GULP energy -198382.782124 kJ/mol
# GULP energy per Si atom -12398.923883 kJ/mol
# Density = 2.036096 g / cm^3
# Si number density = 20.407406 Si / 1000 Ang^3
#
#
#
# Elastic Constant Matrix: (Units=GPa)
#
#
# Indices 1 2 3 4 5 6 
#
# 1 88.4004 36.4844 23.8277 -0.0972 -3.8257 1.4542
# 2 36.4844 127.0657 41.3644 4.9073 -1.8544 13.3787
# 3 23.8277 41.3644 101.5502 -9.5886 -2.8884 11.7001
# 4 -0.0972 4.9073 -9.5886 22.8795 -4.9147 2.7548
# 5 -3.8257 -1.8544 -2.8884 -4.9147 28.3950 -2.6470
# 6 1.4542 13.3787 11.7001 2.7548 -2.6470 39.1432
#
#
#
# Elastic Compliance Matrix: (Units=1/GPa)
#
#
# Indices 1 2 3 4 5 6 
#
# 1 0.013222 -0.003317 -0.001840 0.000170 0.001527 0.001284
# 2 -0.003317 0.010335 -0.003557 -0.003671 -0.000970 -0.002153
# 3 -0.001840 -0.003557 0.012754 0.006820 0.001728 -0.002891
# 4 0.000170 -0.003671 0.006820 0.049674 0.008730 -0.003696
# 5 0.001527 -0.000970 0.001728 0.008730 0.037201 0.001660
# 6 0.001284 -0.002153 -0.002891 -0.003696 0.001660 0.027472
#
#
# Mechanical properties :
#
#
# Convention : Reuss Voigt Hill
#
# Bulk Modulus (GPa) = 52.95849 57.81881 55.38865
# Shear Modulus (GPa) = 28.67287 32.43952 30.55619
#
# Velocity S-wave (km/s) = 3.75243 3.99130 3.87371
# Velocity P-wave (km/s) = 6.69188 7.04517 6.87080
#
# Compressibility (1/GPa) = 0.01888271
#
# Stress axis : x y z
#
# Youngs Moduli (GPa) = 75.63033 96.76092 78.40506
#
# Poissons Ratio (x) = 0.32096 0.14425
# Poissons Ratio (y) = 0.25087 0.27892
# Poissons Ratio (z) = 0.13914 0.34422
#
# Static dielectric constant tensor:
#      x y z
#    x 3.990000 -0.218880 0.174240 
#    y -0.218880 3.553680 -0.192430 
#    z 0.174240 -0.192430 4.095880 
# 
# 
# High freq. dielectric constant tensor:
#      x y z
#    x 1.807160 -0.008420 0.004090 
#    y -0.008420 1.780090 -0.020120 
#    z 0.004090 -0.020120 1.805730 
# 
# From -- ./inp_files/454788.got.cif
#   From: 2010.06.25/outbox.cif.g09.slc.cpg/sg2_228_cif.got.tgz:454788.got - 2010.06.27 13:26:56.
