data_PCOD8012803
_publ_section_title
;
Structure prediction by ZEFSAII (Michael W. Deem and Ramdas Pophale) SiO2 
 PCOD8012803
Probable space group: P -1
;
_chemical_formula_sum "Si O2"
_cell_formula_units_Z 16
_cell_length_a 6.696322
_cell_length_b 8.615123
_cell_length_c 17.061096
_cell_angle_alpha 110.030249
_cell_angle_beta 120.170441
_cell_angle_gamma 61.502908
_cell_volume 740.953266
_symmetry_space_group_name_H-M "P -1"
_symmetry_group_IT_number 2
_symmetry_cell_setting 'triclinic'
loop_
_space_group_symop_operation_xyz
x,y,z
-x,-y,-z
loop_
_atom_site_type_symbol
_atom_site_label
_atom_site_fract_x
_atom_site_fract_y
_atom_site_fract_z
Si Si1 0.949575 0.560430 0.347599
Si Si2 0.492509 0.276017 0.890266
Si Si3 0.520553 0.443872 0.177453
Si Si4 0.065331 0.653155 0.218626
Si Si5 0.255548 0.182733 0.387672
Si Si6 0.809420 0.918745 0.477022
Si Si7 0.678461 0.107063 0.055365
Si Si8 0.827382 0.050896 0.793741
O O1 0.729255 0.490831 0.273353
O O2 0.833488 0.734814 0.408241
O O3 0.071120 0.612726 0.304616
O O4 0.171349 0.397996 0.406071
O O5 0.532490 0.452479 0.898650
O O6 0.570677 0.139725 0.807525
O O7 0.208261 0.311789 0.863701
O O8 0.665686 0.205774 0.987655
O O9 0.270044 0.486251 0.186004
O O10 0.608301 0.236937 0.139022
O O11 0.144132 0.820743 0.247010
O O12 0.132645 0.126369 0.428095
O O13 0.548975 0.078253 0.436224
O O14 0.164570 0.127637 0.278038
O O15 0.000000 0.000000 0.500000
O O16 0.961917 0.978849 0.103955
O O17 0.500000 0.000000 0.000000
#
# Coordination Sequence:
#
# PCOD8012803 Si02
#       8
#     2   2   2   2   2   2   2   2
#     4  11  23  44  68 100 132 175 217 263 337 394
#     4  10  22  40  62  87 127 177 219 269 326 376
#     4  10  23  42  64  90 132 174 215 273 320 388
#     4  10  21  40  63  93 128 172 218 269 321 385
#     4  11  24  43  70  99 132 174 216 265 336 394
#     4  11  25  44  70 102 133 166 216 274 326 399
#     4  12  23  41  62  97 128 171 226 270 322 380
#     4  11  22  43  65  92 134 172 214 276 326 389
#
# _framework density 21.593803999999999
#
# number of rings (size 3 to 8) (size 9 to 14) (size 15 to 20)
#    0.000    1.250    2.500    4.125    0.000    4.000 
#    6.750    0.000    0.000    0.000    0.000    0.000 
#    0.000    0.000    0.000    0.000    0.000    0.000 
#
# Total GULP energy -198394.003371 kJ/mol
# GULP energy per Si atom -12399.625211 kJ/mol
# Density = 2.154466 g / cm^3
# Si number density = 21.593804 Si / 1000 Ang^3
#
#
#
# Elastic Constant Matrix: (Units=GPa)
#
#
# Indices 1 2 3 4 5 6 
#
# 1 125.7617 33.1604 32.1283 0.2008 -8.0045 -15.2435
# 2 33.1604 114.5835 32.5316 -6.9614 0.3546 -10.6767
# 3 32.1283 32.5316 86.1434 -2.7582 -2.7745 2.5618
# 4 0.2008 -6.9614 -2.7582 44.3996 5.9025 -4.0135
# 5 -8.0045 0.3546 -2.7745 5.9025 23.6881 2.9547
# 6 -15.2435 -10.6767 2.5618 -4.0135 2.9547 20.4062
#
#
#
# Elastic Compliance Matrix: (Units=1/GPa)
#
#
# Indices 1 2 3 4 5 6 
#
# 1 0.010166 -0.001333 -0.003429 -0.000132 0.002216 0.006980
# 2 -0.001333 0.010899 -0.003799 0.002338 -0.002388 0.005989
# 3 -0.003429 -0.003799 0.014556 -0.000489 0.001560 -0.006698
# 4 -0.000132 0.002338 -0.000489 0.024438 -0.007102 0.007021
# 5 0.002216 -0.002388 0.001560 -0.007102 0.045930 -0.007837
# 6 0.006980 0.005989 -0.006698 0.007021 -0.007837 0.060709
#
#
# Mechanical properties :
#
#
# Convention : Reuss Voigt Hill
#
# Bulk Modulus (GPa) = 54.05480 58.01436 56.03458
# Shear Modulus (GPa) = 26.31763 32.94335 29.63049
#
# Velocity S-wave (km/s) = 3.49486 3.91012 3.70831
# Velocity P-wave (km/s) = 6.43213 6.87822 6.65891
#
# Compressibility (1/GPa) = 0.01849974
#
# Stress axis : x y z
#
# Youngs Moduli (GPa) = 98.36408 91.75054 68.70121
#
# Poissons Ratio (x) = 0.12231 0.23555
# Poissons Ratio (y) = 0.13113 0.26099
# Poissons Ratio (z) = 0.33726 0.34856
#
# Static dielectric constant tensor:
#      x y z
#    x 3.850710 -0.180420 -0.209480 
#    y -0.180420 4.421490 -0.016200 
#    z -0.209480 -0.016200 3.824680 
# 
# 
# High freq. dielectric constant tensor:
#      x y z
#    x 1.849360 -0.010570 -0.010810 
#    y -0.010570 1.861100 -0.007900 
#    z -0.010810 -0.007900 1.839980 
# 
# From -- ./inp_files/44543.got.cif
#   From: 2010.06.25/outbox.cif.g09.slc.cpg/sg2_23_cif.got.tgz:44543.got - 2010.06.27 13:26:56.
