data_PCOD8012720
_publ_section_title
;
Structure prediction by ZEFSAII (Michael W. Deem and Ramdas Pophale) SiO2 
 PCOD8012720
Probable space group: P -1
;
_chemical_formula_sum "Si O2"
_cell_formula_units_Z 14
_cell_length_a 6.932220
_cell_length_b 18.628151
_cell_length_c 8.151061
_cell_angle_alpha 42.968672
_cell_angle_beta 55.805497
_cell_angle_gamma 46.935474
_cell_volume 520.023117
_symmetry_space_group_name_H-M "P -1"
_symmetry_group_IT_number 2
_symmetry_cell_setting 'triclinic'
loop_
_space_group_symop_operation_xyz
x,y,z
-x,-y,-z
loop_
_atom_site_type_symbol
_atom_site_label
_atom_site_fract_x
_atom_site_fract_y
_atom_site_fract_z
Si Si1 0.812342 0.670748 0.037827
Si Si2 0.137208 0.099996 0.879462
Si Si3 0.291980 0.730593 0.992270
Si Si4 0.523144 0.846025 0.142853
Si Si5 0.663654 0.508598 0.579254
Si Si6 0.944235 0.332401 0.399340
Si Si7 0.585673 0.653612 0.663116
O O1 0.559327 0.712811 0.973512
O O2 0.752825 0.784047 0.996756
O O3 0.846156 0.556656 0.320414
O O4 0.048649 0.644121 0.839722
O O5 0.390905 0.109004 0.811541
O O6 0.004014 0.194854 0.635154
O O7 0.932408 0.136261 0.070227
O O8 0.253479 0.959437 0.006244
O O9 0.195571 0.636755 0.263845
O O10 0.337495 0.706218 0.818047
O O11 0.467026 0.741496 0.412620
O O12 0.655900 0.528135 0.749499
O O13 0.354094 0.569568 0.561492
O O14 0.150423 0.359860 0.353955
#
# Coordination Sequence:
#
# PCOD8012720 Si02
#       7
#     2   2   2   2   2   2   2
#     4  10  22  39  62  93 118 161 208 246 307 369
#     4  10  21  40  63  85 124 166 196 262 308 356
#     4  11  22  39  61  91 125 159 206 249 309 364
#     4   9  21  42  60  88 122 157 213 253 304 367
#     4  11  22  43  61  92 131 160 201 259 299 371
#     4  10  22  41  63  93 127 160 202 254 312 357
#     4   9  22  41  61  94 121 162 210 246 306 375
#
# _framework density 26.921879000000001
#
# number of rings (size 3 to 8) (size 9 to 14) (size 15 to 20)
#    0.000    2.000    1.429    0.857    2.000    4.000 
#    5.143    2.143    0.000    0.000    0.000    0.000 
#    0.000    0.000    0.000    0.000    0.000    0.000 
#
# Total GULP energy -173505.279129 kJ/mol
# GULP energy per Si atom -12393.234224 kJ/mol
# Density = 2.686060 g / cm^3
# Si number density = 26.921879 Si / 1000 Ang^3
#
#
#
# Elastic Constant Matrix: (Units=GPa)
#
#
# Indices 1 2 3 4 5 6 
#
# 1 26.7068 -4.6374 -2.4360 1.8038 18.4337 5.6472
# 2 -4.6374 161.0031 56.9400 5.9073 2.8308 -8.3643
# 3 -2.4360 56.9400 101.4371 19.9332 13.0490 -4.5858
# 4 1.8038 5.9073 19.9332 39.0028 4.1759 -2.6781
# 5 18.4337 2.8308 13.0490 4.1759 27.1047 4.6587
# 6 5.6472 -8.3643 -4.5858 -2.6781 4.6587 37.5193
#
#
#
# Elastic Compliance Matrix: (Units=1/GPa)
#
#
# Indices 1 2 3 4 5 6 
#
# 1 0.078698 -0.000278 0.009757 -0.002731 -0.057113 -0.003818
# 2 -0.000278 0.007888 -0.004785 0.001204 0.001287 0.001142
# 3 0.009757 -0.004785 0.015695 -0.006341 -0.012805 0.000520
# 4 -0.002731 0.001204 -0.006341 0.028961 -0.000016 0.001974
# 5 -0.057113 0.001287 -0.012805 -0.000016 0.082267 -0.002898
# 6 -0.003818 0.001142 0.000520 0.001974 -0.002898 0.028046
#
#
# Mechanical properties :
#
#
# Convention : Reuss Voigt Hill
#
# Bulk Modulus (GPa) = 8.95493 43.20892 26.08192
# Shear Modulus (GPa) = 18.56037 36.67737 27.61887
#
# Velocity S-wave (km/s) = 2.62852 3.69502 3.20643
# Velocity P-wave (km/s) = 3.54198 5.85567 4.83914
#
# Compressibility (1/GPa) = 0.11167028
#
# Stress axis : x y z
#
# Youngs Moduli (GPa) = 12.70676 126.77823 63.71258
#
# Poissons Ratio (x) = 0.03524 -0.62166
# Poissons Ratio (y) = 0.00353 0.30486
# Poissons Ratio (z) = -0.12398 0.60663
#
# Static dielectric constant tensor:
#      x y z
#    x 4.918600 0.217420 0.254100 
#    y 0.217420 5.320270 0.208480 
#    z 0.254100 0.208480 5.235510 
# 
# 
# High freq. dielectric constant tensor:
#      x y z
#    x 2.105170 0.006410 0.014730 
#    y 0.006410 2.093210 0.015680 
#    z 0.014730 0.015680 2.055870 
# 
# From -- ./inp_files/178740.got.cif
#   From: 2010.06.25/outbox.cif.g09.slc.cpg/sg2_90_cif.got.tgz:178740.got - 2010.06.27 13:26:56.
