data_PCOD8012388
_publ_section_title
;
Structure prediction by ZEFSAII (Michael W. Deem and Ramdas Pophale) SiO2 
 PCOD8012388
Probable space group: P -1
;
_chemical_formula_sum "Si O2"
_cell_formula_units_Z 14
_cell_length_a 15.103209
_cell_length_b 8.824921
_cell_length_c 18.476520
_cell_angle_alpha 38.030510
_cell_angle_beta 152.262357
_cell_angle_gamma 140.295474
_cell_volume 683.393897
_symmetry_space_group_name_H-M "P -1"
_symmetry_group_IT_number 2
_symmetry_cell_setting 'triclinic'
loop_
_space_group_symop_operation_xyz
x,y,z
-x,-y,-z
loop_
_atom_site_type_symbol
_atom_site_label
_atom_site_fract_x
_atom_site_fract_y
_atom_site_fract_z
Si Si1 0.182548 0.203427 0.524307
Si Si2 0.265878 0.446790 0.342597
Si Si3 0.465209 0.417896 0.117994
Si Si4 0.168684 0.951494 0.036132
Si Si5 0.522876 0.132097 0.136398
Si Si6 0.376108 0.643624 0.593933
Si Si7 0.240944 0.141042 0.297508
O O1 0.155766 0.286094 0.391441
O O2 0.208991 0.445266 0.504395
O O3 0.370776 0.091236 0.708112
O O4 0.000000 0.000000 0.500000
O O5 0.500000 0.500000 0.500000
O O6 0.202793 0.710669 0.195262
O O7 0.191469 0.289113 0.275687
O O8 0.595269 0.317235 0.188794
O O9 0.586334 0.468053 0.260031
O O10 0.255227 0.203982 0.053786
O O11 0.436121 0.693124 0.971033
O O12 0.291681 0.991675 0.034227
O O13 0.941631 0.921043 0.866203
O O14 0.574438 0.688577 0.674652
O O15 0.296661 0.888820 0.459218
#
# Coordination Sequence:
#
# PCOD8012388 Si02
#       7
#     2   2   2   2   2   2   2
#     4  12  27  41  65  97 133 172 214 268 329 384
#     4  12  21  45  69  89 132 175 214 265 323 385
#     4   9  21  40  68  90 131 174 207 273 322 377
#     4  10  21  39  71  94 121 173 224 258 315 394
#     4   9  20  43  63  89 132 170 215 260 327 381
#     4  11  24  41  61  98 136 166 214 276 320 376
#     4  11  24  39  67  99 127 168 223 264 323 384
#
# _framework density 20.485989
#
# number of rings (size 3 to 8) (size 9 to 14) (size 15 to 20)
#    0.857    0.571    2.857    2.143    4.000    3.429 
#    0.000    2.143    0.000    0.000    0.000    0.000 
#    0.000    0.000    0.000    0.000    0.000    0.000 
#
# Total GULP energy -173571.638464 kJ/mol
# GULP energy per Si atom -12397.974176 kJ/mol
# Density = 2.043936 g / cm^3
# Si number density = 20.485989 Si / 1000 Ang^3
#
#
#
# Elastic Constant Matrix: (Units=GPa)
#
#
# Indices 1 2 3 4 5 6 
#
# 1 68.4516 39.7470 32.6253 -7.0346 -24.8547 9.7028
# 2 39.7470 55.2075 26.3092 -13.4117 6.5553 33.7665
# 3 32.6253 26.3092 94.0221 -10.2612 -19.5032 16.7116
# 4 -7.0346 -13.4117 -10.2612 40.0023 11.7857 -2.5896
# 5 -24.8547 6.5553 -19.5032 11.7857 26.3092 -4.5934
# 6 9.7028 33.7665 16.7116 -2.5896 -4.5934 29.0927
#
#
#
# Elastic Compliance Matrix: (Units=1/GPa)
#
#
# Indices 1 2 3 4 5 6 
#
# 1 -0.000442 0.026158 -0.004989 0.011695 -0.021046 -0.029629
# 2 0.026158 -0.027908 0.001174 -0.015738 0.044585 0.028631
# 3 -0.004989 0.001174 0.014229 0.001657 0.003549 -0.007165
# 4 0.011695 -0.015738 0.001657 0.020339 0.010021 0.016807
# 5 -0.021046 0.044585 0.003549 0.010021 -0.002931 -0.046338
# 6 -0.029629 0.028631 -0.007165 0.016807 -0.046338 0.009319
#
#
# Mechanical properties :
#
#
# Convention : Reuss Voigt Hill
#
# Bulk Modulus (GPa) = 32.71667 46.11603 39.41635
# Shear Modulus (GPa) = -228.38097 27.01417 -100.68340
#
# Velocity S-wave (km/s) = -10.56994 3.63528 -7.01813
# Velocity P-wave (km/s) = 11.53082 6.33879 6.81100
#
# Compressibility (1/GPa) = 0.03056546
#
# Stress axis : x y z
#
# Youngs Moduli (GPa) = -2260.07506 -35.83185 70.27972
#
# Poissons Ratio (x) = 0.93731 0.35063
# Poissons Ratio (y) = 59.12006 -0.08252
# Poissons Ratio (z) = -11.27570 0.04207
#
# Static dielectric constant tensor:
#      x y z
#    x 3.704010 0.056650 -0.060670 
#    y 0.056650 3.716950 -0.160940 
#    z -0.060670 -0.160940 3.574570 
# 
# 
# High freq. dielectric constant tensor:
#      x y z
#    x 1.790470 0.002840 -0.009240 
#    y 0.002840 1.804110 -0.017610 
#    z -0.009240 -0.017610 1.795630 
# 
# From -- ./inp_files/572832.got.cif
#   From: 2010.06.25/outbox.cif.g09.slc.cpg/sg2_287_cif.got.tgz:572832.got - 2010.06.27 13:26:56.
