data_PCOD8012933
_publ_section_title
;
Structure prediction by ZEFSAII (Michael W. Deem and Ramdas Pophale) SiO2 
 PCOD8012933
Probable space group: P -1
;
_chemical_formula_sum "Si O2"
_cell_formula_units_Z 16
_cell_length_a 10.374553
_cell_length_b 9.004392
_cell_length_c 15.517029
_cell_angle_alpha 89.270195
_cell_angle_beta 61.169278
_cell_angle_gamma 133.916310
_cell_volume 763.853943
_symmetry_space_group_name_H-M "P -1"
_symmetry_group_IT_number 2
_symmetry_cell_setting 'triclinic'
loop_
_space_group_symop_operation_xyz
x,y,z
-x,-y,-z
loop_
_atom_site_type_symbol
_atom_site_label
_atom_site_fract_x
_atom_site_fract_y
_atom_site_fract_z
Si Si1 0.480862 0.542878 0.408356
Si Si2 0.979654 0.658925 0.004527
Si Si3 0.081691 0.406436 0.444002
Si Si4 0.931313 0.088610 0.181987
Si Si5 0.279254 0.480370 0.202658
Si Si6 0.240216 0.058618 0.049818
Si Si7 0.413406 0.249461 0.174387
Si Si8 0.236492 0.090374 0.410520
O O1 0.500000 0.500000 0.500000
O O2 0.245868 0.458319 0.465271
O O3 0.468130 0.375196 0.363158
O O4 0.714808 0.822303 0.298328
O O5 0.147713 0.870790 0.873588
O O6 0.702460 0.474105 0.074338
O O7 0.000000 0.500000 0.000000
O O8 0.061280 0.789834 0.069883
O O9 0.223031 0.526793 0.307008
O O10 0.000000 0.500000 0.500000
O O11 0.828165 0.109744 0.513034
O O12 0.049513 0.293033 0.213222
O O13 0.126764 0.131324 0.078406
O O14 0.341589 0.362666 0.206655
O O15 0.505111 0.744030 0.083824
O O16 0.291536 0.068409 0.133676
O O17 0.293775 0.075069 0.296789
O O18 0.000000 0.000000 0.500000
#
# Coordination Sequence:
#
# PCOD8012933 Si02
#       8
#     2   2   2   2   2   2   2   2
#     4  11  23  40  71 101 129 179 237 289 339 408
#     4  12  26  42  62 104 145 176 221 281 352 413
#     4  11  25  44  66  98 136 185 226 287 356 406
#     4  11  22  42  70 101 133 171 234 284 337 410
#     4  11  20  43  71  96 128 177 230 279 340 413
#     4  11  23  39  75  97 128 179 226 278 345 403
#     4  11  21  42  65 101 128 175 229 278 330 414
#     4  10  21  40  64  92 133 172 231 277 330 413
#
# _framework density 20.946411999999999
#
# number of rings (size 3 to 8) (size 9 to 14) (size 15 to 20)
#    0.000    1.000    5.000    3.375    5.250    2.500 
#    2.250    2.500    0.000    0.000    0.000    0.000 
#    0.000    0.000    0.000    0.000    0.000    0.000 
#
# Total GULP energy -198302.011877 kJ/mol
# GULP energy per Si atom -12393.875742 kJ/mol
# Density = 2.089874 g / cm^3
# Si number density = 20.946412 Si / 1000 Ang^3
#
#
#
# Elastic Constant Matrix: (Units=GPa)
#
#
# Indices 1 2 3 4 5 6 
#
# 1 74.1448 61.8171 56.1529 12.4128 9.2747 3.8149
# 2 61.8171 128.9288 47.7131 16.3593 5.3058 3.6256
# 3 56.1529 47.7131 135.2886 10.5119 22.4482 -6.2675
# 4 12.4128 16.3593 10.5119 43.9820 -0.3482 4.0858
# 5 9.2747 5.3058 22.4482 -0.3482 29.0158 3.6899
# 6 3.8149 3.6256 -6.2675 4.0858 3.6899 32.4084
#
#
#
# Elastic Compliance Matrix: (Units=1/GPa)
#
#
# Indices 1 2 3 4 5 6 
#
# 1 0.029126 -0.010518 -0.008299 -0.001999 -0.000540 -0.003543
# 2 -0.010518 0.013105 -0.000329 -0.001799 0.001225 -0.000204
# 3 -0.008299 -0.000329 0.012480 -0.000987 -0.007515 0.004407
# 4 -0.001999 -0.001799 -0.000987 0.024515 0.002423 -0.003121
# 5 -0.000540 0.001225 -0.007515 0.002423 0.041083 -0.006510
# 6 -0.003543 -0.000204 0.004407 -0.003121 -0.006510 0.033283
#
#
# Mechanical properties :
#
#
# Convention : Reuss Voigt Hill
#
# Bulk Modulus (GPa) = 60.90623 74.41427 67.66025
# Shear Modulus (GPa) = 25.33480 32.59318 28.96399
#
# Velocity S-wave (km/s) = 3.48157 3.94893 3.72259
# Velocity P-wave (km/s) = 6.73068 7.50967 7.13082
#
# Compressibility (1/GPa) = 0.01641868
#
# Stress axis : x y z
#
# Youngs Moduli (GPa) = 34.33332 76.30857 80.12905
#
# Poissons Ratio (x) = 0.80264 0.66498
# Poissons Ratio (y) = 0.36113 0.02635
# Poissons Ratio (z) = 0.28493 0.02510
#
# Static dielectric constant tensor:
#      x y z
#    x -9.685050 10.572150 5.828030 
#    y 10.572150 -4.021940 -4.296800 
#    z 5.828030 -4.296800 1.404850 
# 
# 
# High freq. dielectric constant tensor:
#      x y z
#    x 1.788600 0.011790 0.015340 
#    y 0.011790 1.829340 -0.005780 
#    z 0.015340 -0.005780 1.830430 
# 
# From -- ./inp_files/515886.got.cif
#   From: 2010.06.25/outbox.cif.g09.slc.cpg/sg2_258_cif.got.tgz:515886.got - 2010.06.27 13:26:56.
