data_PCOD8012734
_publ_section_title
;
Structure prediction by ZEFSAII (Michael W. Deem and Ramdas Pophale) SiO2 
 PCOD8012734
Probable space group: P -1
;
_chemical_formula_sum "Si O2"
_cell_formula_units_Z 14
_cell_length_a 9.287740
_cell_length_b 10.831110
_cell_length_c 19.256900
_cell_angle_alpha 33.782957
_cell_angle_beta 60.958026
_cell_angle_gamma 85.077566
_cell_volume 712.839791
_symmetry_space_group_name_H-M "P -1"
_symmetry_group_IT_number 2
_symmetry_cell_setting 'triclinic'
loop_
_space_group_symop_operation_xyz
x,y,z
-x,-y,-z
loop_
_atom_site_type_symbol
_atom_site_label
_atom_site_fract_x
_atom_site_fract_y
_atom_site_fract_z
Si Si1 0.787711 0.796897 0.241623
Si Si2 0.533050 0.297909 0.049338
Si Si3 0.490696 0.857735 0.358838
Si Si4 0.539786 0.420905 0.842367
Si Si5 0.917150 0.545711 0.759778
Si Si6 0.573412 0.960098 0.573422
Si Si7 0.230936 0.061443 0.967067
O O1 0.707527 0.922569 0.252184
O O2 0.710210 0.490614 0.431942
O O3 0.689250 0.739677 0.213596
O O4 0.049553 0.042292 0.061055
O O5 0.424633 0.001816 0.255863
O O6 0.500000 0.500000 0.000000
O O7 0.428217 0.223193 0.031339
O O8 0.792783 0.478796 0.893744
O O9 0.536266 0.995409 0.360132
O O10 0.800380 0.599462 0.703054
O O11 0.488125 0.634832 0.748274
O O12 0.438798 0.207050 0.899430
O O13 0.167950 0.819139 0.580893
O O14 0.885275 0.265418 0.875595
O O15 0.500000 0.000000 0.500000
#
# Coordination Sequence:
#
# PCOD8012734 Si02
#       7
#     2   2   2   2   2   2   2
#     4  10  22  35  66  90 129 159 200 263 312 357
#     4  10  21  40  63  87 123 168 205 253 311 364
#     4  11  20  40  60  90 124 165 203 256 310 363
#     4  10  23  37  67  89 124 160 211 251 306 373
#     4  10  22  41  65  87 123 169 202 252 312 367
#     4  12  24  41  63  95 122 164 209 258 309 371
#     4  11  20  41  64  95 120 164 212 247 314 368
#
# _framework density 19.639758
#
# number of rings (size 3 to 8) (size 9 to 14) (size 15 to 20)
#    0.857    0.571    4.286    1.714    2.000    0.000 
#    2.571    2.143    6.286    0.000    0.000    0.000 
#    0.000    0.000    0.000    0.000    0.000    0.000 
#
# Total GULP energy -173509.922385 kJ/mol
# GULP energy per Si atom -12393.565885 kJ/mol
# Density = 1.959506 g / cm^3
# Si number density = 19.639758 Si / 1000 Ang^3
#
#
#
# Elastic Constant Matrix: (Units=GPa)
#
#
# Indices 1 2 3 4 5 6 
#
# 1 118.9465 47.9109 43.2056 7.0490 15.3086 12.1375
# 2 47.9109 103.8022 45.9642 17.1672 0.8773 -7.3035
# 3 43.2056 45.9642 81.1137 7.7052 21.4506 0.1214
# 4 7.0490 17.1672 7.7052 32.9424 -6.5473 2.3161
# 5 15.3086 0.8773 21.4506 -6.5473 44.6046 -1.5450
# 6 12.1375 -7.3035 0.1214 2.3161 -1.5450 36.4767
#
#
#
# Elastic Compliance Matrix: (Units=1/GPa)
#
#
# Indices 1 2 3 4 5 6 
#
# 1 0.012306 -0.004649 -0.003234 0.000371 -0.002701 -0.005153
# 2 -0.004649 0.016251 -0.007354 -0.005290 0.004221 0.005340
# 3 -0.003234 -0.007354 0.020824 -0.002103 -0.009093 -0.000717
# 4 0.000371 -0.005290 -0.002103 0.034940 0.006008 -0.003140
# 5 -0.002701 0.004221 -0.009093 0.006008 0.028608 0.002604
# 6 -0.005153 0.005340 -0.000717 -0.003140 0.002604 0.030511
#
#
# Mechanical properties :
#
#
# Convention : Reuss Voigt Hill
#
# Bulk Modulus (GPa) = 52.89121 64.22487 58.55804
# Shear Modulus (GPa) = 27.74454 33.92351 30.83403
#
# Velocity S-wave (km/s) = 3.76263 4.16057 3.96660
# Velocity P-wave (km/s) = 6.77242 7.47348 7.13157
#
# Compressibility (1/GPa) = 0.01890673
#
# Stress axis : x y z
#
# Youngs Moduli (GPa) = 81.26307 61.53453 48.02226
#
# Poissons Ratio (x) = 0.28608 0.15528
# Poissons Ratio (y) = 0.37780 0.35316
# Poissons Ratio (z) = 0.26276 0.45254
#
# Static dielectric constant tensor:
#      x y z
#    x 3.552920 -0.188480 0.255910 
#    y -0.188480 3.678760 0.179400 
#    z 0.255910 0.179400 3.525180 
# 
# 
# High freq. dielectric constant tensor:
#      x y z
#    x 1.756960 -0.019710 0.025330 
#    y -0.019710 1.773020 0.005240 
#    z 0.025330 0.005240 1.753260 
# 
# From -- ./inp_files/588558.got.cif
#   From: 2010.06.25/outbox.cif.g09.slc.cpg/sg2_295_cif.got.tgz:588558.got - 2010.06.27 13:26:56.
