data_PCOD8012709
_publ_section_title
;
Structure prediction by ZEFSAII (Michael W. Deem and Ramdas Pophale) SiO2 
 PCOD8012709
Probable space group: P -1
;
_chemical_formula_sum "Si O2"
_cell_formula_units_Z 16
_cell_length_a 12.848511
_cell_length_b 8.855076
_cell_length_c 21.356022
_cell_angle_alpha 132.120038
_cell_angle_beta 151.659082
_cell_angle_gamma 38.371713
_cell_volume 714.474683
_symmetry_space_group_name_H-M "P -1"
_symmetry_group_IT_number 2
_symmetry_cell_setting 'triclinic'
loop_
_space_group_symop_operation_xyz
x,y,z
-x,-y,-z
loop_
_atom_site_type_symbol
_atom_site_label
_atom_site_fract_x
_atom_site_fract_y
_atom_site_fract_z
Si Si1 0.740169 0.608526 0.352916
Si Si2 0.457359 0.410800 0.312433
Si Si3 0.144573 0.210036 0.874771
Si Si4 0.611410 0.751477 0.527406
Si Si5 0.246629 0.823968 0.713194
Si Si6 0.498294 0.238587 0.987776
Si Si7 0.801467 0.504076 0.217473
Si Si8 0.342876 0.920554 0.553749
O O1 0.631859 0.437441 0.259997
O O2 0.792164 0.620496 0.310736
O O3 0.000000 0.500000 0.500000
O O4 0.553967 0.896676 0.350357
O O5 0.611960 0.549266 0.427793
O O6 0.544852 0.235350 0.248782
O O7 0.524397 0.253462 0.366127
O O8 0.147081 0.608791 0.205408
O O9 0.275595 0.352156 0.956981
O O10 0.195715 0.025262 0.793072
O O11 0.305694 0.051230 0.976771
O O12 0.423481 0.772819 0.490402
O O13 0.889852 0.668974 0.682625
O O14 0.500000 0.000000 0.500000
O O15 0.969896 0.923357 0.560201
O O16 0.348935 0.285737 0.855711
O O17 0.671220 0.350916 0.110737
#
# Coordination Sequence:
#
# PCOD8012709 Si02
#       8
#     2   2   2   2   2   2   2   2
#     4  10  21  40  62  98 135 172 215 274 341 404
#     4  12  25  40  69 107 134 173 225 284 351 406
#     4  11  23  46  69  96 134 179 231 279 337 395
#     4  12  22  38  67 103 138 175 220 278 349 416
#     4  11  22  41  67  97 140 175 216 276 350 408
#     4  10  24  42  69  93 130 188 231 277 323 400
#     4  11  22  41  69  96 133 180 232 272 337 402
#     4  11  23  38  62 104 144 169 210 285 354 405
#
# _framework density 22.394075999999998
#
# number of rings (size 3 to 8) (size 9 to 14) (size 15 to 20)
#    0.000    1.000    2.500    6.000    3.500    0.000 
#    0.000    2.500    5.500    3.000    0.000    0.000 
#    0.000    0.000    0.000    0.000    0.000    0.000 
#
# Total GULP energy -198255.552233 kJ/mol
# GULP energy per Si atom -12390.972015 kJ/mol
# Density = 2.234311 g / cm^3
# Si number density = 22.394076 Si / 1000 Ang^3
#
#
#
# Elastic Constant Matrix: (Units=GPa)
#
#
# Indices 1 2 3 4 5 6 
#
# 1 128.8775 37.2417 43.5113 -29.7360 -8.1562 -2.3513
# 2 37.2417 75.0866 37.8833 -21.6019 -1.3110 0.9319
# 3 43.5113 37.8833 107.1940 -34.0110 4.5233 -0.2249
# 4 -29.7360 -21.6019 -34.0110 33.2974 7.6593 -4.4135
# 5 -8.1562 -1.3110 4.5233 7.6593 44.9926 -6.6431
# 6 -2.3513 0.9319 -0.2249 -4.4135 -6.6431 48.3606
#
#
#
# Elastic Compliance Matrix: (Units=1/GPa)
#
#
# Indices 1 2 3 4 5 6 
#
# 1 0.010531 -0.002755 -0.001417 0.006080 0.001123 0.001268
# 2 -0.002755 0.018087 -0.003338 0.006011 -0.000666 -0.000041
# 3 -0.001417 -0.003338 0.015534 0.013477 -0.004102 0.000734
# 4 0.006080 0.006011 0.013477 0.055732 -0.008960 0.004098
# 5 0.001123 -0.000666 -0.004102 -0.008960 0.024736 0.002629
# 6 0.001268 -0.000041 0.000734 0.004098 0.002629 0.021479
#
#
# Mechanical properties :
#
#
# Convention : Reuss Voigt Hill
#
# Bulk Modulus (GPa) = 34.32687 60.93675 47.63181
# Shear Modulus (GPa) = 29.26873 38.16491 33.71682
#
# Velocity S-wave (km/s) = 3.61915 4.13272 3.88443
# Velocity P-wave (km/s) = 5.72941 7.07409 6.43696
#
# Compressibility (1/GPa) = 0.02913170
#
# Stress axis : x y z
#
# Youngs Moduli (GPa) = 94.95986 55.28757 64.37291
#
# Poissons Ratio (x) = 0.15234 0.09119
# Poissons Ratio (y) = 0.26166 0.21490
# Poissons Ratio (z) = 0.13452 0.18457
#
# Static dielectric constant tensor:
#      x y z
#    x 4.258480 0.208500 -0.007200 
#    y 0.208500 4.225200 0.042310 
#    z -0.007200 0.042310 4.048850 
# 
# 
# High freq. dielectric constant tensor:
#      x y z
#    x 1.894850 0.016540 -0.005620 
#    y 0.016540 1.876520 0.000340 
#    z -0.005620 0.000340 1.876950 
# 
# From -- ./inp_files/594208.got.cif
#   From: 2010.06.25/outbox.cif.g09.slc.cpg/sg2_298_cif.got.tgz:594208.got - 2010.06.27 13:26:56.
