data_PCOD8012793
_publ_section_title
;
Structure prediction by ZEFSAII (Michael W. Deem and Ramdas Pophale) SiO2 
 PCOD8012793
Probable space group: P -1
;
_chemical_formula_sum "Si O2"
_cell_formula_units_Z 16
_cell_length_a 5.554142
_cell_length_b 15.439224
_cell_length_c 15.015129
_cell_angle_alpha 38.215291
_cell_angle_beta 101.770192
_cell_angle_gamma 84.203459
_cell_volume 703.471674
_symmetry_space_group_name_H-M "P -1"
_symmetry_group_IT_number 2
_symmetry_cell_setting 'triclinic'
loop_
_space_group_symop_operation_xyz
x,y,z
-x,-y,-z
loop_
_atom_site_type_symbol
_atom_site_label
_atom_site_fract_x
_atom_site_fract_y
_atom_site_fract_z
Si Si1 0.796183 0.970468 0.580080
Si Si2 0.082645 0.761496 0.172904
Si Si3 0.128097 0.621811 0.920199
Si Si4 0.349701 0.526246 0.828254
Si Si5 0.602798 0.067469 0.873882
Si Si6 0.049680 0.266408 0.619878
Si Si7 0.649111 0.231022 0.498829
Si Si8 0.082767 0.480398 0.309678
O O1 0.911379 0.797708 0.767026
O O2 0.500000 0.000000 0.500000
O O3 0.738397 0.071727 0.582663
O O4 0.000000 0.000000 0.500000
O O5 0.338868 0.791298 0.197764
O O6 0.175756 0.615752 0.230322
O O7 0.962034 0.715265 0.289241
O O8 0.871135 0.919026 0.979047
O O9 0.291790 0.607609 0.853593
O O10 0.327322 0.588709 0.048891
O O11 0.000000 0.500000 0.000000
O O12 0.262099 0.662852 0.641211
O O13 0.155095 0.446780 0.843722
O O14 0.363413 0.140637 0.722302
O O15 0.500000 0.000000 0.000000
O O16 0.981180 0.429447 0.434022
O O17 0.831113 0.200188 0.627395
O O18 0.326908 0.324635 0.415685
#
# Coordination Sequence:
#
# PCOD8012793 Si02
#       8
#     2   2   2   2   2   2   2   2
#     4  12  26  46  74 103 139 183 232 284 360 420
#     4  10  21  40  63  92 128 176 221 273 341 400
#     4  11  23  43  71  98 132 177 227 281 348 417
#     4  10  22  41  64  93 132 170 221 275 342 405
#     4   9  20  39  62  86 123 171 224 275 330 401
#     4  10  22  39  63  93 130 172 221 277 338 402
#     4  11  24  42  63  97 135 173 225 286 335 419
#     4  11  23  39  64  96 135 172 222 278 338 408
#
# _framework density 22.744342
#
# number of rings (size 3 to 8) (size 9 to 14) (size 15 to 20)
#    0.000    1.500    1.250    3.375    3.500    7.000 
#    0.000    8.750    0.000    0.000    0.000    0.000 
#    0.000    0.000    0.000    0.000    0.000    0.000 
#
# Total GULP energy -198226.489971 kJ/mol
# GULP energy per Si atom -12389.155623 kJ/mol
# Density = 2.269257 g / cm^3
# Si number density = 22.744342 Si / 1000 Ang^3
#
#
#
# Elastic Constant Matrix: (Units=GPa)
#
#
# Indices 1 2 3 4 5 6 
#
# 1 111.2362 37.9261 38.3493 -6.7649 28.6090 26.1279
# 2 37.9261 126.3534 60.7208 -19.5583 15.1139 18.6317
# 3 38.3493 60.7208 119.9469 -10.7434 34.9748 23.4951
# 4 -6.7649 -19.5583 -10.7434 37.8373 9.1819 4.0422
# 5 28.6090 15.1139 34.9748 9.1819 44.9133 8.8092
# 6 26.1279 18.6317 23.4951 4.0422 8.8092 32.3985
#
#
#
# Elastic Compliance Matrix: (Units=1/GPa)
#
#
# Indices 1 2 3 4 5 6 
#
# 1 0.013772 -0.001491 0.001049 0.004998 -0.008268 -0.009385
# 2 -0.001491 0.011660 -0.004456 0.004783 0.000085 -0.002891
# 3 0.001049 -0.004456 0.015327 0.005634 -0.010854 -0.007150
# 4 0.004998 0.004783 0.005634 0.036093 -0.014308 -0.011480
# 5 -0.008268 0.000085 -0.010854 -0.014308 0.037698 0.006025
# 6 -0.009385 -0.002891 -0.007150 -0.011480 0.006025 0.045076
#
#
# Mechanical properties :
#
#
# Convention : Reuss Voigt Hill
#
# Bulk Modulus (GPa) = 32.29747 70.16986 51.23367
# Shear Modulus (GPa) = 27.81733 37.73251 32.77492
#
# Velocity S-wave (km/s) = 3.50100 4.07748 3.80019
# Velocity P-wave (km/s) = 5.52935 7.28604 6.46761
#
# Compressibility (1/GPa) = 0.03096217
#
# Stress axis : x y z
#
# Youngs Moduli (GPa) = 72.61358 85.76486 65.24257
#
# Poissons Ratio (x) = 0.12788 -0.06841
# Poissons Ratio (y) = 0.10827 0.29071
# Poissons Ratio (z) = -0.07614 0.38215
#
# Static dielectric constant tensor:
#      x y z
#    x 4.381240 0.248560 0.403240 
#    y 0.248560 4.316580 0.438820 
#    z 0.403240 0.438820 4.954420 
# 
# 
# High freq. dielectric constant tensor:
#      x y z
#    x 1.907240 0.012530 0.005820 
#    y 0.012530 1.874510 0.009800 
#    z 0.005820 0.009800 1.906200 
# 
# From -- ./inp_files/351024.got.cif
#   From: 2010.06.25/outbox.cif.g09.slc.cpg/sg2_176_cif.got.tgz:351024.got - 2010.06.27 13:26:56.
