data_PCOD8012399
_publ_section_title
;
Structure prediction by ZEFSAII (Michael W. Deem and Ramdas Pophale) SiO2 
 PCOD8012399
Probable space group: P -1
;
_chemical_formula_sum "Si O2"
_cell_formula_units_Z 14
_cell_length_a 8.550512
_cell_length_b 10.049925
_cell_length_c 12.011099
_cell_angle_alpha 142.987270
_cell_angle_beta 83.375930
_cell_angle_gamma 101.537199
_cell_volume 607.061721
_symmetry_space_group_name_H-M "P -1"
_symmetry_group_IT_number 2
_symmetry_cell_setting 'triclinic'
loop_
_space_group_symop_operation_xyz
x,y,z
-x,-y,-z
loop_
_atom_site_type_symbol
_atom_site_label
_atom_site_fract_x
_atom_site_fract_y
_atom_site_fract_z
Si Si1 0.845327 0.332680 0.856832
Si Si2 0.940612 0.690263 0.707198
Si Si3 0.565584 0.149352 0.330990
Si Si4 0.559268 0.322192 0.033550
Si Si5 0.240579 0.644495 0.748774
Si Si6 0.803816 0.851138 0.622949
Si Si7 0.696719 0.412503 0.696347
O O1 0.688275 0.386320 0.968000
O O2 0.817925 0.362197 0.747793
O O3 0.870806 0.076284 0.699223
O O4 0.000000 0.500000 0.000000
O O5 0.897318 0.876405 0.750522
O O6 0.785702 0.608850 0.741092
O O7 0.000000 0.500000 0.500000
O O8 0.091957 0.779327 0.835739
O O9 0.656313 0.326391 0.353378
O O10 0.383193 0.174144 0.358998
O O11 0.641769 0.194334 0.477668
O O12 0.576018 0.892724 0.129266
O O13 0.654179 0.255407 0.088853
O O14 0.466353 0.525385 0.199055
O O15 0.171870 0.377045 0.595121
#
# Coordination Sequence:
#
# PCOD8012399 Si02
#       7
#     2   2   2   2   2   2   2
#     4  11  27  49  66 100 142 181 234 280 343 415
#     4  10  21  39  72 101 132 181 229 278 343 404
#     4  11  22  41  72 104 138 175 234 278 348 402
#     4  11  25  42  71 105 137 183 229 282 341 408
#     4  11  20  42  69 104 140 173 231 286 336 407
#     4  10  21  41  70  96 134 183 221 280 343 400
#     4  12  23  47  73  97 145 181 224 290 338 409
#
# _framework density 23.061906
#
# number of rings (size 3 to 8) (size 9 to 14) (size 15 to 20)
#    0.000    1.143    4.286    3.000    0.000    4.571 
#    2.571    7.857    0.000    0.000    0.000    0.000 
#    0.000    0.000    0.000    0.000    0.000    0.000 
#
# Total GULP energy -173577.698827 kJ/mol
# GULP energy per Si atom -12398.407059 kJ/mol
# Density = 2.300942 g / cm^3
# Si number density = 23.061906 Si / 1000 Ang^3
#
#
#
# Elastic Constant Matrix: (Units=GPa)
#
#
# Indices 1 2 3 4 5 6 
#
# 1 89.6395 25.5428 21.9498 -6.8972 30.1768 -13.5626
# 2 25.5428 104.0845 40.3901 -8.4163 16.8184 -16.3327
# 3 21.9498 40.3901 111.7610 -15.3747 38.7352 -5.6166
# 4 -6.8972 -8.4163 -15.3747 31.7682 1.6356 11.0945
# 5 30.1768 16.8184 38.7352 1.6356 32.8392 -13.8914
# 6 -13.5626 -16.3327 -5.6166 11.0945 -13.8914 38.4617
#
#
#
# Elastic Compliance Matrix: (Units=1/GPa)
#
#
# Indices 1 2 3 4 5 6 
#
# 1 0.020843 -0.004036 0.010545 0.013446 -0.033993 -0.008980
# 2 -0.004036 0.012723 -0.006967 -0.003833 0.008643 0.007190
# 3 0.010545 -0.006967 0.029047 0.024069 -0.050051 -0.020018
# 4 0.013446 -0.003833 0.024069 0.058221 -0.054275 -0.029769
# 5 -0.033993 0.008643 -0.050051 -0.054275 0.140478 0.050767
# 6 -0.008980 0.007190 -0.020018 -0.029769 0.050767 0.049886
#
#
# Mechanical properties :
#
#
# Convention : Reuss Voigt Hill
#
# Bulk Modulus (GPa) = 16.20822 53.47229 34.84026
# Shear Modulus (GPa) = 15.02947 35.12062 25.07505
#
# Velocity S-wave (km/s) = 2.55561 3.90665 3.30099
# Velocity P-wave (km/s) = 3.96883 6.60197 5.44691
#
# Compressibility (1/GPa) = 0.06169707
#
# Stress axis : x y z
#
# Youngs Moduli (GPa) = 47.97703 78.59592 34.42745
#
# Poissons Ratio (x) = 0.31724 -0.36304
# Poissons Ratio (y) = 0.19365 0.23986
# Poissons Ratio (z) = -0.50593 0.54758
#
# Static dielectric constant tensor:
#      x y z
#    x 4.408480 -0.162440 0.261480 
#    y -0.162440 4.095970 -0.028530 
#    z 0.261480 -0.028530 4.409620 
# 
# 
# High freq. dielectric constant tensor:
#      x y z
#    x 1.922560 -0.006510 0.013310 
#    y -0.006510 1.898330 -0.012470 
#    z 0.013310 -0.012470 1.907930 
# 
# From -- ./inp_files/380622.got.cif
#   From: 2010.06.25/outbox.cif.g09.slc.cpg/sg2_191_cif.got.tgz:380622.got - 2010.06.27 13:26:56.
