data_PCOD8012832
_publ_section_title
;
Structure prediction by ZEFSAII (Michael W. Deem and Ramdas Pophale) SiO2 
 PCOD8012832
Probable space group: P -1
;
_chemical_formula_sum "Si O2"
_cell_formula_units_Z 14
_cell_length_a 12.202062
_cell_length_b 9.347081
_cell_length_c 11.808711
_cell_angle_alpha 116.785647
_cell_angle_beta 129.523475
_cell_angle_gamma 37.246141
_cell_volume 624.249706
_symmetry_space_group_name_H-M "P -1"
_symmetry_group_IT_number 2
_symmetry_cell_setting 'triclinic'
loop_
_space_group_symop_operation_xyz
x,y,z
-x,-y,-z
loop_
_atom_site_type_symbol
_atom_site_label
_atom_site_fract_x
_atom_site_fract_y
_atom_site_fract_z
Si Si1 0.542492 0.335184 0.802783
Si Si2 0.157379 0.489657 0.314498
Si Si3 0.633180 0.378626 0.431001
Si Si4 0.783579 0.375786 0.118396
Si Si5 0.411317 0.919930 0.644344
Si Si6 0.702479 0.778786 0.123875
Si Si7 0.761176 0.902290 0.655359
O O1 0.511774 0.468712 0.718789
O O2 0.326156 0.509622 0.791745
O O3 0.612418 0.097752 0.726972
O O4 0.720795 0.263366 0.975569
O O5 0.182041 0.641962 0.446805
O O6 0.332050 0.319195 0.268902
O O7 0.186360 0.326605 0.369892
O O8 0.917551 0.676382 0.176309
O O9 0.500000 0.500000 0.500000
O O10 0.709136 0.130101 0.391958
O O11 0.721980 0.571206 0.062596
O O12 0.030179 0.163279 0.232235
O O13 0.334053 0.137981 0.740277
O O14 0.357580 0.982369 0.499727
O O15 0.500000 0.000000 0.000000
#
# Coordination Sequence:
#
# PCOD8012832 Si02
#       7
#     2   2   2   2   2   2   2
#     4  11  21  43  64  88 137 165 211 264 314 374
#     4  10  23  40  65  94 124 165 207 265 316 371
#     4  10  21  40  63  96 127 164 212 261 311 376
#     4  10  25  40  63  98 125 173 210 261 315 382
#     4  11  23  40  66  96 125 167 211 262 317 374
#     4  11  25  44  62  92 130 167 215 262 317 382
#     4  11  22  39  68  95 125 166 215 258 317 378
#
# _framework density 22.426925000000001
#
# number of rings (size 3 to 8) (size 9 to 14) (size 15 to 20)
#    0.000    1.429    2.857    2.571    4.000    2.286 
#    5.143    2.857    0.000    0.000    0.000    0.000 
#    0.000    0.000    0.000    0.000    0.000    0.000 
#
# Total GULP energy -173573.535093 kJ/mol
# GULP energy per Si atom -12398.109649 kJ/mol
# Density = 2.237588 g / cm^3
# Si number density = 22.426925 Si / 1000 Ang^3
#
#
#
# Elastic Constant Matrix: (Units=GPa)
#
#
# Indices 1 2 3 4 5 6 
#
# 1 85.7922 17.8170 32.0635 -8.7467 7.2910 -4.0845
# 2 17.8170 69.3097 32.8604 -8.4048 5.2216 -7.0768
# 3 32.0635 32.8604 91.3333 -3.4102 1.8596 -7.5482
# 4 -8.7467 -8.4048 -3.4102 32.6716 -4.1704 1.0392
# 5 7.2910 5.2216 1.8596 -4.1704 32.0963 1.0281
# 6 -4.0845 -7.0768 -7.5482 1.0392 1.0281 28.6267
#
#
#
# Elastic Compliance Matrix: (Units=1/GPa)
#
#
# Indices 1 2 3 4 5 6 
#
# 1 0.014000 -0.000952 -0.004372 0.002717 -0.002438 0.000598
# 2 -0.000952 0.018311 -0.005850 0.003493 -0.002059 0.002795
# 3 -0.004372 -0.005850 0.014679 -0.001086 0.000895 0.001808
# 4 0.002717 0.003493 -0.001086 0.032528 0.003115 -0.000328
# 5 -0.002438 -0.002059 0.000895 0.003115 0.032459 -0.001900
# 6 0.000598 0.002795 0.001808 -0.000328 -0.001900 0.036266
#
#
# Mechanical properties :
#
#
# Convention : Reuss Voigt Hill
#
# Bulk Modulus (GPa) = 40.58162 45.76856 43.17509
# Shear Modulus (GPa) = 27.96344 29.59190 28.77767
#
# Velocity S-wave (km/s) = 3.53493 3.63641 3.58603
# Velocity P-wave (km/s) = 5.89876 6.17118 6.03650
#
# Compressibility (1/GPa) = 0.02464169
#
# Stress axis : x y z
#
# Youngs Moduli (GPa) = 71.42653 54.61335 68.12371
#
# Poissons Ratio (x) = 0.05199 0.29783
# Poissons Ratio (y) = 0.06800 0.39854
# Poissons Ratio (z) = 0.31227 0.31950
#
# Static dielectric constant tensor:
#      x y z
#    x 4.438790 0.219860 0.458870 
#    y 0.219860 4.310730 0.332910 
#    z 0.458870 0.332910 4.052320 
# 
# 
# High freq. dielectric constant tensor:
#      x y z
#    x 1.887490 0.000720 0.016170 
#    y 0.000720 1.878800 0.011710 
#    z 0.016170 0.011710 1.879200 
# 
# From -- ./inp_files/419787.got.cif
#   From: 2010.06.25/outbox.cif.g09.slc.cpg/sg2_210_cif.got.tgz:419787.got - 2010.06.27 13:26:56.
