data_PCOD8012439
_publ_section_title
;
Structure prediction by ZEFSAII (Michael W. Deem and Ramdas Pophale) SiO2 
 PCOD8012439
Probable space group: P -1
;
_chemical_formula_sum "Si O2"
_cell_formula_units_Z 14
_cell_length_a 11.742576
_cell_length_b 15.002211
_cell_length_c 20.673695
_cell_angle_alpha 159.055819
_cell_angle_beta 148.249580
_cell_angle_gamma 43.996574
_cell_volume 628.592923
_symmetry_space_group_name_H-M "P -1"
_symmetry_group_IT_number 2
_symmetry_cell_setting 'triclinic'
loop_
_space_group_symop_operation_xyz
x,y,z
-x,-y,-z
loop_
_atom_site_type_symbol
_atom_site_label
_atom_site_fract_x
_atom_site_fract_y
_atom_site_fract_z
Si Si1 0.560162 0.767138 0.407919
Si Si2 0.674731 0.906743 0.326541
Si Si3 0.110461 0.532838 0.646504
Si Si4 0.870650 0.615377 0.121620
Si Si5 0.164273 0.459313 0.357604
Si Si6 0.537830 0.892935 0.752609
Si Si7 0.241565 0.794689 0.108848
O O1 0.763257 0.674586 0.415998
O O2 0.500000 0.000000 0.500000
O O3 0.650524 0.882504 0.601599
O O4 0.314378 0.496622 0.102949
O O5 0.769622 0.726371 0.208085
O O6 0.476432 0.732311 0.164836
O O7 0.540647 0.043737 0.310996
O O8 0.891708 0.151469 0.632895
O O9 0.000000 0.500000 0.500000
O O10 0.903572 0.475661 0.560130
O O11 0.298809 0.841709 0.949934
O O12 0.903859 0.368598 0.008803
O O13 0.302875 0.743488 0.580788
O O14 0.330108 0.298290 0.331190
O O15 0.925396 0.269384 0.077016
#
# Coordination Sequence:
#
# PCOD8012439 Si02
#       7
#     2   2   2   2   2   2   2
#     4  10  23  42  62  97 137 168 213 263 325 380
#     4  11  21  36  66  89 121 165 217 256 318 382
#     4  12  25  44  70  96 130 174 215 267 325 387
#     4  10  21  40  58  93 127 162 211 266 313 384
#     4  11  24  42  68  95 128 164 219 272 318 386
#     4  11  23  42  66  96 124 167 217 267 324 384
#     4  11  21  38  65  91 123 169 206 264 319 375
#
# _framework density 22.271963
#
# number of rings (size 3 to 8) (size 9 to 14) (size 15 to 20)
#    0.000    1.143    4.286    1.714    2.000    2.286 
#    0.000    2.857    0.000    0.000    0.000    0.000 
#    0.000    0.000    0.000    0.000    0.000    0.000 
#
# Total GULP energy -173451.190661 kJ/mol
# GULP energy per Si atom -12389.370761 kJ/mol
# Density = 2.222127 g / cm^3
# Si number density = 22.271963 Si / 1000 Ang^3
#
#
#
# Elastic Constant Matrix: (Units=GPa)
#
#
# Indices 1 2 3 4 5 6 
#
# 1 86.6389 15.1014 34.4702 -14.3338 -0.6339 -1.3980
# 2 15.1014 76.0038 16.7339 -8.6890 -1.9975 -4.8100
# 3 34.4702 16.7339 118.0960 -19.4569 -2.7050 -5.1418
# 4 -14.3338 -8.6890 -19.4569 28.1677 -1.5853 3.1768
# 5 -0.6339 -1.9975 -2.7050 -1.5853 38.0999 -0.4114
# 6 -1.3980 -4.8100 -5.1418 3.1768 -0.4114 17.3499
#
#
#
# Elastic Compliance Matrix: (Units=1/GPa)
#
#
# Indices 1 2 3 4 5 6 
#
# 1 0.013784 -0.001607 -0.003098 0.004506 0.000101 -0.001075
# 2 -0.001607 0.014200 -0.000964 0.002596 0.000790 0.003065
# 3 -0.003098 -0.000964 0.010459 0.005214 0.000875 0.001649
# 4 0.004506 0.002596 0.005214 0.042911 0.002311 -0.005174
# 5 0.000101 0.000790 0.000875 0.002311 0.026456 0.000691
# 6 -0.001075 0.003065 0.001649 -0.005174 0.000691 0.059853
#
#
# Mechanical properties :
#
#
# Convention : Reuss Voigt Hill
#
# Bulk Modulus (GPa) = 36.89208 45.92773 41.40991
# Shear Modulus (GPa) = 26.59084 31.01905 28.80495
#
# Velocity S-wave (km/s) = 3.45906 3.73599 3.60019
# Velocity P-wave (km/s) = 5.70559 6.26708 5.99291
#
# Compressibility (1/GPa) = 0.02710609
#
# Stress axis : x y z
#
# Youngs Moduli (GPa) = 72.55051 70.42134 95.60809
#
# Poissons Ratio (x) = 0.11317 0.29616
# Poissons Ratio (y) = 0.11659 0.09216
# Poissons Ratio (z) = 0.22474 0.06788
#
# Static dielectric constant tensor:
#      x y z
#    x 4.036120 -0.164210 0.074050 
#    y -0.164210 3.957310 -0.039160 
#    z 0.074050 -0.039160 4.652270 
# 
# 
# High freq. dielectric constant tensor:
#      x y z
#    x 1.859650 -0.013200 -0.002510 
#    y -0.013200 1.872250 -0.005410 
#    z -0.002510 -0.005410 1.899540 
# 
# From -- ./inp_files/261104.got.cif
#   From: 2010.06.25/outbox.cif.g09.slc.cpg/sg2_131_cif.got.tgz:261104.got - 2010.06.27 13:26:56.
