data_PCOD8012286
_publ_section_title
;
Structure prediction by ZEFSAII (Michael W. Deem and Ramdas Pophale) SiO2 
 PCOD8012286
Probable space group: P -1
;
_chemical_formula_sum "Si O2"
_cell_formula_units_Z 16
_cell_length_a 10.679408
_cell_length_b 8.517603
_cell_length_c 15.222157
_cell_angle_alpha 131.731591
_cell_angle_beta 128.183785
_cell_angle_gamma 41.705496
_cell_volume 666.664008
_symmetry_space_group_name_H-M "P -1"
_symmetry_group_IT_number 2
_symmetry_cell_setting 'triclinic'
loop_
_space_group_symop_operation_xyz
x,y,z
-x,-y,-z
loop_
_atom_site_type_symbol
_atom_site_label
_atom_site_fract_x
_atom_site_fract_y
_atom_site_fract_z
Si Si1 0.910605 0.848272 0.070651
Si Si2 0.645294 0.809808 0.242026
Si Si3 0.746592 0.622712 0.025999
Si Si4 0.174208 0.790582 0.321905
Si Si5 0.390557 0.589985 0.839584
Si Si6 0.369107 0.394243 0.397668
Si Si7 0.142114 0.253550 0.527805
Si Si8 0.586629 0.674571 0.415638
O O1 0.760271 0.782605 0.012967
O O2 0.053734 0.789039 0.190601
O O3 0.787991 0.142431 0.096400
O O4 0.048059 0.659055 0.981529
O O5 0.705111 0.780037 0.155801
O O6 0.839444 0.695123 0.342817
O O7 0.485589 0.106585 0.304426
O O8 0.559110 0.642063 0.160312
O O9 0.579753 0.589217 0.913375
O O10 0.200799 0.580091 0.324709
O O11 0.367822 0.759998 0.360046
O O12 0.068799 0.068677 0.425688
O O13 0.321552 0.560757 0.702744
O O14 0.500000 0.500000 0.500000
O O15 0.295213 0.413165 0.472714
O O16 0.363826 0.132991 0.537525
O O17 0.000000 0.500000 0.500000
#
# Coordination Sequence:
#
# PCOD8012286 Si02
#       8
#     2   2   2   2   2   2   2   2
#     4  11  26  45  70 101 135 184 232 285 347 402
#     4  11  24  43  68 104 135 183 231 276 349 407
#     4  11  26  46  68  99 141 178 236 287 335 409
#     4  11  21  41  67  96 133 175 226 275 340 407
#     4  11  24  45  73 100 136 184 231 285 342 404
#     4  10  22  39  67 101 135 175 224 276 342 413
#     4  11  23  40  63 102 137 174 226 276 342 414
#     4  10  21  39  68  95 133 177 221 280 332 407
#
# _framework density 24.000095999999999
#
# number of rings (size 3 to 8) (size 9 to 14) (size 15 to 20)
#    0.000    1.250    3.750    2.625    5.250    3.500 
#    0.000    3.125    0.000    0.000    0.000    0.000 
#    0.000    0.000    0.000    0.000    0.000    0.000 
#
# Total GULP energy -198281.426461 kJ/mol
# GULP energy per Si atom -12392.589154 kJ/mol
# Density = 2.394547 g / cm^3
# Si number density = 24.000096 Si / 1000 Ang^3
#
#
#
# Elastic Constant Matrix: (Units=GPa)
#
#
# Indices 1 2 3 4 5 6 
#
# 1 58.6552 28.6784 28.5726 8.3696 -8.6869 5.5336
# 2 28.6784 139.6746 30.9747 25.0105 -0.4864 17.1530
# 3 28.5726 30.9747 86.0743 16.3658 -10.0817 7.7389
# 4 8.3696 25.0105 16.3658 43.9433 -5.0298 2.8911
# 5 -8.6869 -0.4864 -10.0817 -5.0298 42.4954 5.4261
# 6 5.5336 17.1530 7.7389 2.8911 5.4261 24.1755
#
#
#
# Elastic Compliance Matrix: (Units=1/GPa)
#
#
# Indices 1 2 3 4 5 6 
#
# 1 0.021941 -0.003043 -0.005662 0.000167 0.003360 -0.001824
# 2 -0.003043 0.009387 -0.001230 -0.004055 -0.000656 -0.004938
# 3 -0.005662 -0.001230 0.015114 -0.003396 0.002369 -0.002796
# 4 0.000167 -0.004055 -0.003396 0.026545 0.002294 0.000237
# 5 0.003360 -0.000656 0.002369 0.002294 0.025959 -0.007163
# 6 -0.001824 -0.004938 -0.002796 0.000237 -0.007163 0.047760
#
#
# Mechanical properties :
#
#
# Convention : Reuss Voigt Hill
#
# Bulk Modulus (GPa) = 37.63345 51.20618 44.41981
# Shear Modulus (GPa) = 28.50062 35.20139 31.85101
#
# Velocity S-wave (km/s) = 3.44978 3.83393 3.64692
# Velocity P-wave (km/s) = 5.61984 6.40163 6.02343
#
# Compressibility (1/GPa) = 0.02657211
#
# Stress axis : x y z
#
# Youngs Moduli (GPa) = 45.57684 106.52576 66.16169
#
# Poissons Ratio (x) = 0.32420 0.37463
# Poissons Ratio (y) = 0.13871 0.08136
# Poissons Ratio (z) = 0.25807 0.13099
#
# Static dielectric constant tensor:
#      x y z
#    x 4.635650 0.296670 -0.011690 
#    y 0.296670 4.608640 0.253820 
#    z -0.011690 0.253820 4.684800 
# 
# 
# High freq. dielectric constant tensor:
#      x y z
#    x 1.945960 0.005530 0.006660 
#    y 0.005530 1.946460 0.018480 
#    z 0.006660 0.018480 1.965020 
# 
# From -- ./inp_files/516284.got.cif
#   From: 2010.06.25/outbox.cif.g09.slc.cpg/sg2_259_cif.got.tgz:516284.got - 2010.06.27 13:26:56.
