data_PCOD8012598
_publ_section_title
;
Structure prediction by ZEFSAII (Michael W. Deem and Ramdas Pophale) SiO2 
 PCOD8012598
Probable space group: P -1
;
_chemical_formula_sum "Si O2"
_cell_formula_units_Z 14
_cell_length_a 11.122737
_cell_length_b 5.429222
_cell_length_c 12.399613
_cell_angle_alpha 116.053108
_cell_angle_beta 92.211963
_cell_angle_gamma 115.989053
_cell_volume 579.394933
_symmetry_space_group_name_H-M "P -1"
_symmetry_group_IT_number 2
_symmetry_cell_setting 'triclinic'
loop_
_space_group_symop_operation_xyz
x,y,z
-x,-y,-z
loop_
_atom_site_type_symbol
_atom_site_label
_atom_site_fract_x
_atom_site_fract_y
_atom_site_fract_z
Si Si1 0.880834 0.145148 0.944087
Si Si2 0.084215 0.409722 0.601109
Si Si3 0.591939 0.158480 0.638161
Si Si4 0.584896 0.799865 0.780218
Si Si5 0.917302 0.056087 0.169226
Si Si6 0.796188 0.160094 0.498310
Si Si7 0.705146 0.618343 0.240517
O O1 0.939403 0.948272 0.844624
O O2 0.731954 0.085559 0.883544
O O3 0.000000 0.500000 0.000000
O O4 0.858023 0.079367 0.056952
O O5 0.153430 0.518788 0.507138
O O6 0.189292 0.443891 0.701699
O O7 0.926291 0.095653 0.518567
O O8 0.039070 0.661680 0.690217
O O9 0.608742 0.500827 0.719521
O O10 0.739575 0.194688 0.617218
O O11 0.500000 0.000000 0.500000
O O12 0.543404 0.922217 0.694299
O O13 0.450543 0.691071 0.834109
O O14 0.780184 0.740558 0.151904
O O15 0.685368 0.873530 0.361736
#
# Coordination Sequence:
#
# PCOD8012598 Si02
#       7
#     2   2   2   2   2   2   2
#     4  11  26  49  72 103 133 187 240 306 354 422
#     4  10  21  40  62 102 134 186 230 289 350 422
#     4  12  25  46  69 109 146 192 232 289 350 432
#     4  12  29  44  76 104 149 188 242 291 362 415
#     4  10  24  44  72  95 139 174 245 295 356 416
#     4  10  22  36  66  94 146 183 237 279 349 421
#     4  11  23  42  66 103 136 188 226 299 346 435
#
# _framework density 24.163141
#
# number of rings (size 3 to 8) (size 9 to 14) (size 15 to 20)
#    0.000    1.143    1.429    3.429   12.000    0.571 
#    0.000    2.857    0.000    0.000    0.000    0.000 
#    0.000    0.000    0.000    0.000    0.000    0.000 
#
# Total GULP energy -173440.306953 kJ/mol
# GULP energy per Si atom -12388.593354 kJ/mol
# Density = 2.410814 g / cm^3
# Si number density = 24.163141 Si / 1000 Ang^3
#
#
#
# Elastic Constant Matrix: (Units=GPa)
#
#
# Indices 1 2 3 4 5 6 
#
# 1 76.1258 49.2729 32.9328 -12.8005 31.9435 22.0271
# 2 49.2729 116.8868 28.6301 -30.5449 21.7834 25.8547
# 3 32.9328 28.6301 63.5286 -18.3239 20.3800 19.8869
# 4 -12.8005 -30.5449 -18.3239 44.3282 8.8702 1.7169
# 5 31.9435 21.7834 20.3800 8.8702 43.8077 2.5499
# 6 22.0271 25.8547 19.8869 1.7169 2.5499 51.1825
#
#
#
# Elastic Compliance Matrix: (Units=1/GPa)
#
#
# Indices 1 2 3 4 5 6 
#
# 1 0.028687 -0.003332 -0.000963 0.010021 -0.020283 -0.009615
# 2 -0.003332 0.016560 0.004588 0.014768 -0.010424 -0.008690
# 3 -0.000963 0.004588 0.029951 0.019519 -0.018693 -0.013264
# 4 0.010021 0.014768 0.019519 0.051040 -0.032935 -0.019428
# 5 -0.020283 -0.010424 -0.018693 -0.032935 0.057029 0.019522
# 6 -0.009615 -0.008690 -0.013264 -0.019428 0.019522 0.032898
#
#
# Mechanical properties :
#
#
# Convention : Reuss Voigt Hill
#
# Bulk Modulus (GPa) = 13.19516 53.13475 33.16496
# Shear Modulus (GPa) = 20.76065 37.57737 29.16901
#
# Velocity S-wave (km/s) = 2.93437 3.94782 3.47820
# Velocity P-wave (km/s) = 4.11745 6.54356 5.46679
#
# Compressibility (1/GPa) = 0.07578535
#
# Stress axis : x y z
#
# Youngs Moduli (GPa) = 34.85872 60.38703 33.38760
#
# Poissons Ratio (x) = 0.20119 0.03215
# Poissons Ratio (y) = 0.11614 -0.15318
# Poissons Ratio (z) = 0.03356 -0.27705
#
# Static dielectric constant tensor:
#      x y z
#    x 5.006360 0.169410 -0.269050 
#    y 0.169410 4.936420 -0.086930 
#    z -0.269050 -0.086930 4.342300 
# 
# 
# High freq. dielectric constant tensor:
#      x y z
#    x 1.981480 0.006630 0.003840 
#    y 0.006630 1.965690 -0.002790 
#    z 0.003840 -0.002790 1.943500 
# 
# From -- ./inp_files/26987.got.cif
#   From: 2010.06.25/outbox.cif.g09.slc.cpg/sg2_14_cif.got.tgz:26987.got - 2010.06.27 13:26:56.
