data_PCOD8012857
_publ_section_title
;
Structure prediction by ZEFSAII (Michael W. Deem and Ramdas Pophale) SiO2 
 PCOD8012857
Probable space group: P -1
;
_chemical_formula_sum "Si O2"
_cell_formula_units_Z 12
_cell_length_a 8.622658
_cell_length_b 12.171029
_cell_length_c 15.023419
_cell_angle_alpha 50.357346
_cell_angle_beta 143.622766
_cell_angle_gamma 143.793216
_cell_volume 552.067145
_symmetry_space_group_name_H-M "P -1"
_symmetry_group_IT_number 2
_symmetry_cell_setting 'triclinic'
loop_
_space_group_symop_operation_xyz
x,y,z
-x,-y,-z
loop_
_atom_site_type_symbol
_atom_site_label
_atom_site_fract_x
_atom_site_fract_y
_atom_site_fract_z
Si Si1 0.821191 0.802262 0.143837
Si Si2 0.709253 0.545736 0.810017
Si Si3 0.176634 0.625219 0.835960
Si Si4 0.824200 0.114568 0.027975
Si Si5 0.695825 0.678457 0.559616
Si Si6 0.254813 0.760320 0.252561
O O1 0.616497 0.658303 0.204296
O O2 0.132622 0.812778 0.251811
O O3 0.967193 0.004462 0.139545
O O4 0.577029 0.743110 0.975079
O O5 0.577849 0.616719 0.640060
O O6 0.984453 0.538641 0.889362
O O7 0.870131 0.683368 0.897557
O O8 0.092657 0.760335 0.694927
O O9 0.035898 0.460916 0.785745
O O10 0.683566 0.123429 0.865241
O O11 0.500000 0.000000 0.000000
O O12 0.500000 0.500000 0.500000
O O13 0.614295 0.810135 0.420829
#
# Coordination Sequence:
#
# PCOD8012857 Si02
#       6
#     2   2   2   2   2   2
#     4  12  22  37  64  93 120 154 199 253 295 344
#     4  10  21  40  64  86 119 155 208 235 295 356
#     4   9  18  37  60  87 113 158 198 235 289 355
#     4  12  23  38  63  89 120 160 205 241 289 360
#     4   8  19  37  63  85 119 158 198 238 296 364
#     4  11  22  38  61  92 123 153 198 251 301 344
#
# _framework density 21.736487
#
# number of rings (size 3 to 8) (size 9 to 14) (size 15 to 20)
#    1.000    0.667    3.333    2.500    0.000    0.667 
#    0.000    4.167    0.000    0.000    0.000    0.000 
#    0.000    0.000    0.000    0.000    0.000    0.000 
#
# Total GULP energy -148702.663865 kJ/mol
# GULP energy per Si atom -12391.888655 kJ/mol
# Density = 2.168701 g / cm^3
# Si number density = 21.736487 Si / 1000 Ang^3
#
#
#
# Elastic Constant Matrix: (Units=GPa)
#
#
# Indices 1 2 3 4 5 6 
#
# 1 89.1423 19.7389 27.2738 -19.8942 13.6174 -19.4047
# 2 19.7389 58.1356 16.1508 -19.0573 1.2462 -19.0657
# 3 27.2738 16.1508 87.2416 -19.7677 2.6531 -5.0416
# 4 -19.8942 -19.0573 -19.7677 31.2529 -3.5030 2.7764
# 5 13.6174 1.2462 2.6531 -3.5030 35.2576 -6.2386
# 6 -19.4047 -19.0657 -5.0416 2.7764 -6.2386 32.8010
#
#
#
# Elastic Compliance Matrix: (Units=1/GPa)
#
#
# Indices 1 2 3 4 5 6 
#
# 1 0.015962 0.000534 -0.002795 0.007585 -0.003812 0.007957
# 2 0.000534 0.027277 -0.000945 0.015366 0.003138 0.015322
# 3 -0.002795 -0.000945 0.013956 0.006586 0.000629 -0.000495
# 4 0.007585 0.015366 0.006586 0.049727 0.002878 0.010769
# 5 -0.003812 0.003138 0.000629 0.002878 0.030900 0.005299
# 6 0.007957 0.015322 -0.000495 0.010769 0.005299 0.044120
#
#
# Mechanical properties :
#
#
# Convention : Reuss Voigt Hill
#
# Bulk Modulus (GPa) = 19.69136 40.09405 29.89270
# Shear Modulus (GPa) = 24.35695 31.28603 27.82149
#
# Velocity S-wave (km/s) = 3.35110 3.79797 3.58151
# Velocity P-wave (km/s) = 4.90428 6.14152 5.55744
#
# Compressibility (1/GPa) = 0.05078370
#
# Stress axis : x y z
#
# Youngs Moduli (GPa) = 62.64944 36.66103 71.65551
#
# Poissons Ratio (x) = -0.01959 0.20025
# Poissons Ratio (y) = -0.03348 0.06772
# Poissons Ratio (z) = 0.17508 0.03465
#
# Static dielectric constant tensor:
#      x y z
#    x 3.696090 -0.335560 -0.002380 
#    y -0.335560 3.663610 -0.112050 
#    z -0.002380 -0.112050 4.546400 
# 
# 
# High freq. dielectric constant tensor:
#      x y z
#    x 1.836460 -0.023510 -0.003170 
#    y -0.023510 1.835330 -0.015000 
#    z -0.003170 -0.015000 1.855170 
# 
# From -- ./inp_files/260992.got.cif
#   From: 2010.06.25/outbox.cif.g09.slc.cpg/sg2_131_cif.got.tgz:260992.got - 2010.06.27 13:26:56.
