data_PCOD8012430
_publ_section_title
;
Structure prediction by ZEFSAII (Michael W. Deem and Ramdas Pophale) SiO2 
 PCOD8012430
Probable space group: P -1
;
_chemical_formula_sum "Si O2"
_cell_formula_units_Z 16
_cell_length_a 26.774566
_cell_length_b 9.735785
_cell_length_c 23.300532
_cell_angle_alpha 38.058412
_cell_angle_beta 162.527531
_cell_angle_gamma 152.024407
_cell_volume 787.493582
_symmetry_space_group_name_H-M "P -1"
_symmetry_group_IT_number 2
_symmetry_cell_setting 'triclinic'
loop_
_space_group_symop_operation_xyz
x,y,z
-x,-y,-z
loop_
_atom_site_type_symbol
_atom_site_label
_atom_site_fract_x
_atom_site_fract_y
_atom_site_fract_z
Si Si1 0.934670 0.462302 0.742304
Si Si2 0.915660 0.749870 0.943166
Si Si3 0.020074 0.829625 0.208286
Si Si4 0.453751 0.112087 0.089482
Si Si5 0.231127 0.227858 0.515801
Si Si6 0.400674 0.196410 0.599798
Si Si7 0.308763 0.388463 0.904847
Si Si8 0.554049 0.288196 0.935364
O O1 0.848851 0.202887 0.685032
O O2 0.755379 0.497984 0.541471
O O3 0.970431 0.380119 0.871511
O O4 0.185420 0.791948 0.886202
O O5 0.630093 0.465775 0.724165
O O6 0.003672 0.936813 0.917779
O O7 0.000000 0.000000 0.000000
O O8 0.763447 0.476707 0.055740
O O9 0.167079 0.995516 0.372379
O O10 0.587028 0.292912 0.116640
O O11 0.601809 0.057613 0.297836
O O12 0.462753 0.326257 0.072900
O O13 0.392388 0.351642 0.594984
O O14 0.322731 0.165896 0.689890
O O15 0.966237 0.899882 0.317554
O O16 0.353029 0.451384 0.000282
O O17 0.500000 0.000000 0.000000
#
# Coordination Sequence:
#
# PCOD8012430 Si02
#       8
#     2   2   2   2   2   2   2   2
#     4   9  20  40  61  87 118 160 203 251 302 356
#     4   9  19  40  64  84 119 161 202 246 303 365
#     4  11  22  39  61  91 121 162 205 243 302 370
#     4   9  20  38  61  80 123 159 203 246 307 353
#     4  11  23  39  62  90 124 158 204 252 302 354
#     4  11  21  37  63  89 121 158 202 251 305 354
#     4  10  21  40  57  89 119 163 202 254 295 357
#     4  12  25  39  61  90 128 160 205 245 302 356
#
# _framework density 20.317625
#
# number of rings (size 3 to 8) (size 9 to 14) (size 15 to 20)
#    0.000    1.750    1.250    4.125    3.500    1.000 
#    0.000    8.750    0.000    0.000    0.000    0.000 
#    0.000    0.000    0.000    0.000    0.000    0.000 
#
# Total GULP energy -198353.125729 kJ/mol
# GULP energy per Si atom -12397.070358 kJ/mol
# Density = 2.027138 g / cm^3
# Si number density = 20.317625 Si / 1000 Ang^3
#
#
#
# Elastic Constant Matrix: (Units=GPa)
#
#
# Indices 1 2 3 4 5 6 
#
# 1 97.4806 33.2368 42.4876 -17.6441 -10.2016 -0.0476
# 2 33.2368 93.6099 33.3645 -17.2648 1.8210 16.1068
# 3 42.4876 33.3645 102.1416 -19.4354 -13.9161 0.2208
# 4 -17.6441 -17.2648 -19.4354 30.5603 -5.2569 -2.4049
# 5 -10.2016 1.8210 -13.9161 -5.2569 23.9722 5.7995
# 6 -0.0476 16.1068 0.2208 -2.4049 5.7995 33.6600
#
#
#
# Elastic Compliance Matrix: (Units=1/GPa)
#
#
# Indices 1 2 3 4 5 6 
#
# 1 0.014276 -0.003243 -0.003096 0.005464 0.005471 0.001040
# 2 -0.003243 0.014733 -0.002996 0.003718 -0.001863 -0.006448
# 3 -0.003096 -0.002996 0.014698 0.007439 0.008998 0.000314
# 4 0.005464 0.003718 0.007439 0.045464 0.016681 -0.001446
# 5 0.005471 -0.001863 0.008998 0.016681 0.054861 -0.007420
# 6 0.001040 -0.006448 0.000314 -0.001446 -0.007420 0.033969
#
#
# Mechanical properties :
#
#
# Convention : Reuss Voigt Hill
#
# Bulk Modulus (GPa) = 39.94194 56.82332 48.38263
# Shear Modulus (GPa) = 24.38824 29.91470 27.15147
#
# Velocity S-wave (km/s) = 3.46836 3.84129 3.65958
# Velocity P-wave (km/s) = 5.97836 6.90668 6.45922
#
# Compressibility (1/GPa) = 0.02503634
#
# Stress axis : x y z
#
# Youngs Moduli (GPa) = 70.04968 67.87311 68.03773
#
# Poissons Ratio (x) = 0.22009 0.21066
# Poissons Ratio (y) = 0.22715 0.20386
# Poissons Ratio (z) = 0.21689 0.20337
#
# Static dielectric constant tensor:
#      x y z
#    x 3.400330 -0.420680 0.000980 
#    y -0.420680 3.224410 -0.267960 
#    z 0.000980 -0.267960 3.713330 
# 
# 
# High freq. dielectric constant tensor:
#      x y z
#    x 1.788810 0.003300 -0.008400 
#    y 0.003300 1.800490 -0.004010 
#    z -0.008400 -0.004010 1.784380 
# 
# From -- ./inp_files/212269.got.cif
#   From: 2010.06.25/outbox.cif.g09.slc.cpg/sg2_107_cif.got.tgz:212269.got - 2010.06.27 13:26:56.
