data_PCOD8012313
_publ_section_title
;
Structure prediction by ZEFSAII (Michael W. Deem and Ramdas Pophale) SiO2 
 PCOD8012313
Probable space group: P -1
;
_chemical_formula_sum "Si O2"
_cell_formula_units_Z 16
_cell_length_a 12.215378
_cell_length_b 12.758650
_cell_length_c 23.592473
_cell_angle_alpha 22.571329
_cell_angle_beta 40.069973
_cell_angle_gamma 45.404608
_cell_volume 908.349598
_symmetry_space_group_name_H-M "P -1"
_symmetry_group_IT_number 2
_symmetry_cell_setting 'triclinic'
loop_
_space_group_symop_operation_xyz
x,y,z
-x,-y,-z
loop_
_atom_site_type_symbol
_atom_site_label
_atom_site_fract_x
_atom_site_fract_y
_atom_site_fract_z
Si Si1 0.850543 0.354854 0.789903
Si Si2 0.430560 0.110339 0.559615
Si Si3 0.684017 0.939492 0.147404
Si Si4 0.685636 0.212514 0.608275
Si Si5 0.678519 0.728571 0.594993
Si Si6 0.724479 0.341892 0.401386
Si Si7 0.210928 0.178351 0.714083
Si Si8 0.952966 0.940558 0.453676
O O1 0.720812 0.427660 0.753417
O O2 0.923431 0.641347 0.645125
O O3 0.006286 0.182925 0.788995
O O4 0.751369 0.194622 0.957867
O O5 0.344576 0.286398 0.455741
O O6 0.579425 0.294450 0.436012
O O7 0.286557 0.027675 0.704148
O O8 0.507355 0.834805 0.640311
O O9 0.480447 0.922769 0.230043
O O10 0.769076 0.662764 0.228641
O O11 0.737777 0.985662 0.168110
O O12 0.656446 0.222550 0.547351
O O13 0.708028 0.517543 0.470680
O O14 0.846057 0.026646 0.654626
O O15 0.839013 0.933746 0.444570
O O16 0.895487 0.184409 0.395448
#
# Coordination Sequence:
#
# PCOD8012313 Si02
#       8
#     2   2   2   2   2   2   2   2
#     4   9  20  34  47  74 110 128 160 208 254 289
#     4  10  16  33  55  75  92 132 178 207 230 293
#     4  11  19  31  50  78 107 128 160 206 255 298
#     4  10  17  30  50  77  98 129 169 205 242 296
#     4   8  19  33  52  72 100 130 171 208 241 283
#     4  10  17  30  53  73  98 131 171 200 246 294
#     4  10  18  32  51  75 100 136 167 201 245 298
#     4   8  18  34  49  70 100 134 168 202 243 291
#
# _framework density 17.614363000000001
#
# number of rings (size 3 to 8) (size 9 to 14) (size 15 to 20)
#    0.750    1.750    2.500    1.500    0.000    0.500 
#    0.000    4.375    0.000    0.000    0.000    5.250 
#    0.000    0.000    0.000    0.000    0.000    0.000 
#
# Total GULP energy -198296.682153 kJ/mol
# GULP energy per Si atom -12393.542635 kJ/mol
# Density = 1.757427 g / cm^3
# Si number density = 17.614363 Si / 1000 Ang^3
#
#
#
# Elastic Constant Matrix: (Units=GPa)
#
#
# Indices 1 2 3 4 5 6 
#
# 1 89.7943 43.7001 44.0369 16.2218 13.6464 -11.6621
# 2 43.7001 81.7320 36.1564 17.6478 0.5156 -15.3612
# 3 44.0369 36.1564 70.5553 19.3501 8.5579 -12.8932
# 4 16.2218 17.6478 19.3501 18.7823 -0.1383 -3.3912
# 5 13.6464 0.5156 8.5579 -0.1383 18.1950 3.4983
# 6 -11.6621 -15.3612 -12.8932 -3.3912 3.4983 32.2296
#
#
#
# Elastic Compliance Matrix: (Units=1/GPa)
#
#
# Indices 1 2 3 4 5 6 
#
# 1 0.020527 -0.006677 -0.005971 -0.004903 -0.012963 0.002748
# 2 -0.006677 0.019998 -0.003624 -0.008493 0.005273 0.004200
# 3 -0.005971 -0.003624 0.027000 -0.018237 -0.009413 0.006016
# 4 -0.004903 -0.008493 -0.018237 0.083284 0.014264 -0.005903
# 5 -0.012963 0.005273 -0.009413 0.014264 0.071414 -0.012194
# 6 0.002748 0.004200 0.006016 -0.005903 -0.012194 0.037132
#
#
# Mechanical properties :
#
#
# Convention : Reuss Voigt Hill
#
# Bulk Modulus (GPa) = 28.58655 54.42982 41.50818
# Shear Modulus (GPa) = 16.47125 21.72060 19.09592
#
# Velocity S-wave (km/s) = 3.06126 3.51539 3.29616
# Velocity P-wave (km/s) = 5.36278 6.88805 6.17271
#
# Compressibility (1/GPa) = 0.03498149
#
# Stress axis : x y z
#
# Youngs Moduli (GPa) = 48.71604 50.00486 37.03714
#
# Poissons Ratio (x) = 0.33388 0.22116
# Poissons Ratio (y) = 0.32528 0.13421
# Poissons Ratio (z) = 0.29089 0.18120
#
# Static dielectric constant tensor:
#      x y z
#    x 3.322630 -0.209960 0.017920 
#    y -0.209960 3.396400 0.128610 
#    z 0.017920 0.128610 2.781020 
# 
# 
# High freq. dielectric constant tensor:
#      x y z
#    x 1.683090 -0.020480 -0.000230 
#    y -0.020480 1.683270 0.015290 
#    z -0.000230 0.015290 1.628660 
# 
# From -- ./inp_files/338668.got.cif
#   From: 2010.06.25/outbox.cif.g09.slc.cpg/sg2_170_cif.got.tgz:338668.got - 2010.06.27 13:26:56.
