data_PCOD8012506
_publ_section_title
;
Structure prediction by ZEFSAII (Michael W. Deem and Ramdas Pophale) SiO2 
 PCOD8012506
Probable space group: P -1
;
_chemical_formula_sum "Si O2"
_cell_formula_units_Z 14
_cell_length_a 5.112323
_cell_length_b 6.455224
_cell_length_c 20.196530
_cell_angle_alpha 118.922861
_cell_angle_beta 56.090837
_cell_angle_gamma 111.878193
_cell_volume 479.282603
_symmetry_space_group_name_H-M "P -1"
_symmetry_group_IT_number 2
_symmetry_cell_setting 'triclinic'
loop_
_space_group_symop_operation_xyz
x,y,z
-x,-y,-z
loop_
_atom_site_type_symbol
_atom_site_label
_atom_site_fract_x
_atom_site_fract_y
_atom_site_fract_z
Si Si1 0.729361 0.910984 0.608928
Si Si2 0.500905 0.578785 0.916955
Si Si3 0.388626 0.859242 0.090039
Si Si4 0.702653 0.819154 0.210540
Si Si5 0.751961 0.248794 0.168962
Si Si6 0.275349 0.276969 0.554923
Si Si7 0.326412 0.496704 0.350658
O O1 0.582619 0.733031 0.541858
O O2 0.747450 0.768445 0.651107
O O3 0.511727 0.125803 0.685933
O O4 0.091369 0.012482 0.554958
O O5 0.422135 0.340301 0.936451
O O6 0.372715 0.464407 0.846099
O O7 0.872560 0.687153 0.878103
O O8 0.316679 0.777243 0.010742
O O9 0.075653 0.862591 0.180461
O O10 0.585483 0.134537 0.105402
O O11 0.647819 0.013288 0.192486
O O12 0.603897 0.479662 0.254210
O O13 0.550037 0.328705 0.578903
O O14 0.005349 0.451676 0.625727
#
# Coordination Sequence:
#
# PCOD8012506 Si02
#       7
#     2   2   2   2   2   2   2
#     4  10  24  43  67  97 137 171 229 276 335 399
#     4  10  21  40  60  90 124 164 212 260 330 397
#     4  10  22  38  62  89 124 164 209 269 325 393
#     4  10  22  40  60  93 123 165 212 272 326 391
#     4  10  23  38  61  91 126 165 216 266 327 395
#     4  11  25  45  67 102 132 185 220 279 337 403
#     4  11  25  43  69  99 139 173 229 274 339 396
#
# _framework density 29.210319999999999
#
# number of rings (size 3 to 8) (size 9 to 14) (size 15 to 20)
#    0.000    1.714    0.000    2.571    6.000    5.143 
#    5.143    0.000    0.000    0.000    0.000    0.000 
#    0.000    0.000    0.000    0.000    0.000    0.000 
#
# Total GULP energy -173567.728790 kJ/mol
# GULP energy per Si atom -12397.694914 kJ/mol
# Density = 2.914384 g / cm^3
# Si number density = 29.210320 Si / 1000 Ang^3
#
#
#
# Elastic Constant Matrix: (Units=GPa)
#
#
# Indices 1 2 3 4 5 6 
#
# 1 68.3732 8.5262 12.5442 6.1120 -0.5782 18.5117
# 2 8.5262 96.3081 20.2950 27.3346 -3.5050 18.0013
# 3 12.5442 20.2950 134.8486 6.3929 -8.3823 -0.0978
# 4 6.1120 27.3346 6.3929 49.4311 -0.7115 -6.3879
# 5 -0.5782 -3.5050 -8.3823 -0.7115 48.9012 -0.6171
# 6 18.5117 18.0013 -0.0978 -6.3879 -0.6171 35.6319
#
#
#
# Elastic Compliance Matrix: (Units=1/GPa)
#
#
# Indices 1 2 3 4 5 6 
#
# 1 0.018203 0.002255 -0.001825 -0.004744 -0.000150 -0.011455
# 2 0.002255 0.015471 -0.002043 -0.009954 0.000505 -0.010769
# 3 -0.001825 -0.002043 0.007941 0.000622 0.001229 0.002135
# 4 -0.004744 -0.009954 0.000622 0.027853 -0.000100 0.012487
# 5 -0.000150 0.000505 0.001229 -0.000100 0.020695 0.000167
# 6 -0.011455 -0.010769 0.002135 0.012487 0.000167 0.041703
#
#
# Mechanical properties :
#
#
# Convention : Reuss Voigt Hill
#
# Bulk Modulus (GPa) = 26.04876 42.47342 34.26109
# Shear Modulus (GPa) = 33.80909 44.00380 38.90645
#
# Velocity S-wave (km/s) = 3.40580 3.88551 3.65354
# Velocity P-wave (km/s) = 4.93994 5.89081 5.43621
#
# Compressibility (1/GPa) = 0.03838955
#
# Stress axis : x y z
#
# Youngs Moduli (GPa) = 54.93481 64.63902 125.92167
#
# Poissons Ratio (x) = -0.14578 0.22987
# Poissons Ratio (y) = -0.12389 0.25722
# Poissons Ratio (z) = 0.10028 0.13204
#
# Static dielectric constant tensor:
#      x y z
#    x 4.967180 -0.513920 0.234400 
#    y -0.513920 5.778540 0.152110 
#    z 0.234400 0.152110 5.873400 
# 
# 
# High freq. dielectric constant tensor:
#      x y z
#    x 2.172650 -0.037980 0.010060 
#    y -0.037980 2.236180 0.001570 
#    z 0.010060 0.001570 2.208870 
# 
# From -- ./inp_files/112201.got.cif
#   From: 2010.06.25/outbox.cif.g09.slc.cpg/sg2_57_cif.got.tgz:112201.got - 2010.06.27 13:26:56.
