data_PCOD8012690
_publ_section_title
;
Structure prediction by ZEFSAII (Michael W. Deem and Ramdas Pophale) SiO2 
 PCOD8012690
Probable space group: P -1
;
_chemical_formula_sum "Si O2"
_cell_formula_units_Z 16
_cell_length_a 14.956606
_cell_length_b 6.537446
_cell_length_c 10.977482
_cell_angle_alpha 87.249066
_cell_angle_beta 52.520346
_cell_angle_gamma 65.317472
_cell_volume 741.671246
_symmetry_space_group_name_H-M "P -1"
_symmetry_group_IT_number 2
_symmetry_cell_setting 'triclinic'
loop_
_space_group_symop_operation_xyz
x,y,z
-x,-y,-z
loop_
_atom_site_type_symbol
_atom_site_label
_atom_site_fract_x
_atom_site_fract_y
_atom_site_fract_z
Si Si1 0.195488 0.084505 0.030748
Si Si2 0.497919 0.702886 0.414838
Si Si3 0.576540 0.120549 0.987615
Si Si4 0.293982 0.155591 0.702078
Si Si5 0.944850 0.566991 0.272696
Si Si6 0.861048 0.331744 0.531931
Si Si7 0.067561 0.842637 0.266294
Si Si8 0.588871 0.413480 0.751795
O O1 0.066297 0.332053 0.130479
O O2 0.294811 0.082760 0.049716
O O3 0.167317 0.871906 0.094090
O O4 0.260727 0.036894 0.845799
O O5 0.500000 0.500000 0.500000
O O6 0.630265 0.710774 0.319173
O O7 0.485719 0.648762 0.286417
O O8 0.377357 0.953347 0.542397
O O9 0.617404 0.241405 0.846109
O O10 0.492935 0.313580 0.152627
O O11 0.500000 0.000000 0.000000
O O12 0.163365 0.350479 0.743040
O O13 0.888411 0.531788 0.448405
O O14 0.985722 0.763737 0.252982
O O15 0.857440 0.345730 0.682237
O O16 0.725897 0.370793 0.589558
O O17 0.974326 0.087158 0.398880
#
# Coordination Sequence:
#
# PCOD8012690 Si02
#       8
#     2   2   2   2   2   2   2   2
#     4  11  24  43  63  94 136 171 218 268 328 391
#     4  11  24  44  71  95 132 177 220 275 323 386
#     4  11  25  41  65  97 129 169 212 272 332 390
#     4  11  25  44  65 102 132 173 228 268 322 390
#     4  11  24  39  66  94 131 178 215 267 327 384
#     4  10  21  40  62  94 131 163 223 264 324 389
#     4  10  22  40  63  93 129 173 214 268 321 392
#     4  11  23  41  67  96 128 167 218 271 328 388
#
# _framework density 21.572900000000001
#
# number of rings (size 3 to 8) (size 9 to 14) (size 15 to 20)
#    0.000    1.250    1.250    3.750    1.750    7.500 
#    0.000    0.000    0.000    0.000    0.000    0.000 
#    0.000    0.000    0.000    0.000    0.000    0.000 
#
# Total GULP energy -198489.802833 kJ/mol
# GULP energy per Si atom -12405.612677 kJ/mol
# Density = 2.152380 g / cm^3
# Si number density = 21.572900 Si / 1000 Ang^3
#
#
#
# Elastic Constant Matrix: (Units=GPa)
#
#
# Indices 1 2 3 4 5 6 
#
# 1 173.8834 59.2067 58.1954 -0.1745 -8.7408 -0.5879
# 2 59.2067 87.6094 40.0622 -15.5563 -2.1653 2.0042
# 3 58.1954 40.0622 94.7453 -24.4988 0.7638 6.0544
# 4 -0.1745 -15.5563 -24.4988 35.9548 3.5124 -4.5403
# 5 -8.7408 -2.1653 0.7638 3.5124 36.3040 -2.0049
# 6 -0.5879 2.0042 6.0544 -4.5403 -2.0049 43.7893
#
#
#
# Elastic Compliance Matrix: (Units=1/GPa)
#
#
# Indices 1 2 3 4 5 6 
#
# 1 0.009276 -0.004869 -0.005193 -0.005785 0.002644 0.000587
# 2 -0.004869 0.016917 -0.002740 0.005501 -0.000633 0.000081
# 3 -0.005193 -0.002740 0.017883 0.011084 -0.002940 -0.001402
# 4 -0.005785 0.005501 0.011084 0.038437 -0.004912 0.001898
# 5 0.002644 -0.000633 -0.002940 -0.004912 0.028752 0.001278
# 6 0.000587 0.000081 -0.001402 0.001898 0.001278 0.023290
#
#
# Mechanical properties :
#
#
# Convention : Reuss Voigt Hill
#
# Bulk Modulus (GPa) = 54.14038 74.57407 64.35723
# Shear Modulus (GPa) = 30.06317 36.46122 33.26220
#
# Velocity S-wave (km/s) = 3.73709 4.11559 3.93090
# Velocity P-wave (km/s) = 6.61605 7.56489 7.10632
#
# Compressibility (1/GPa) = 0.01847050
#
# Stress axis : x y z
#
# Youngs Moduli (GPa) = 107.80347 59.11146 55.92040
#
# Poissons Ratio (x) = 0.28783 0.29041
# Poissons Ratio (y) = 0.52492 0.15323
# Poissons Ratio (z) = 0.55986 0.16197
#
# Static dielectric constant tensor:
#      x y z
#    x 3.996500 -0.051030 -0.060690 
#    y -0.051030 3.953390 -0.233040 
#    z -0.060690 -0.233040 3.985830 
# 
# 
# High freq. dielectric constant tensor:
#      x y z
#    x 1.857290 -0.005180 -0.010740 
#    y -0.005180 1.848190 -0.012840 
#    z -0.010740 -0.012840 1.849900 
# 
# From -- ./inp_files/68525.got.cif
#   From: 2010.06.25/outbox.cif.g09.slc.cpg/sg2_35_cif.got.tgz:68525.got - 2010.06.27 13:26:56.
