data_PCOD8012771
_publ_section_title
;
Structure prediction by ZEFSAII (Michael W. Deem and Ramdas Pophale) SiO2 
 PCOD8012771
Probable space group: P -1
;
_chemical_formula_sum "Si O2"
_cell_formula_units_Z 12
_cell_length_a 15.049584
_cell_length_b 8.902501
_cell_length_c 9.223962
_cell_angle_alpha 114.963819
_cell_angle_beta 63.196283
_cell_angle_gamma 149.446131
_cell_volume 559.175722
_symmetry_space_group_name_H-M "P -1"
_symmetry_group_IT_number 2
_symmetry_cell_setting 'triclinic'
loop_
_space_group_symop_operation_xyz
x,y,z
-x,-y,-z
loop_
_atom_site_type_symbol
_atom_site_label
_atom_site_fract_x
_atom_site_fract_y
_atom_site_fract_z
Si Si1 0.162157 0.203039 0.076618
Si Si2 0.846265 0.309752 0.421126
Si Si3 0.978983 0.320691 0.047822
Si Si4 0.162294 0.321546 0.440825
Si Si5 0.643013 0.328213 0.077921
Si Si6 0.522763 0.340157 0.460343
O O1 0.144502 0.290961 0.267923
O O2 0.343957 0.503791 0.980961
O O3 0.158231 0.005492 0.049377
O O4 0.000000 0.000000 0.000000
O O5 0.891391 0.251648 0.233840
O O6 0.838088 0.485627 0.438015
O O7 0.000000 0.500000 0.500000
O O8 0.662475 0.999989 0.502161
O O9 0.000000 0.500000 0.000000
O O10 0.172227 0.511843 0.003584
O O11 0.344753 0.490371 0.431388
O O12 0.000000 0.000000 0.500000
O O13 0.607064 0.353038 0.271766
O O14 0.500000 0.000000 0.000000
O O15 0.500000 0.500000 0.500000
#
# Coordination Sequence:
#
# PCOD8012771 Si02
#       6
#     2   2   2   2   2   2
#     4  10  21  40  63  91 126 170 213 262 324 391
#     4  12  24  43  68  98 132 174 220 273 331 395
#     4  11  23  41  64  93 127 166 212 265 324 389
#     4  12  24  42  68  99 135 177 220 275 335 394
#     4  11  23  43  66  92 128 171 215 269 326 386
#     4  12  26  45  67  99 135 176 226 276 328 395
#
# _framework density 21.460159999999998
#
# number of rings (size 3 to 8) (size 9 to 14) (size 15 to 20)
#    0.000    0.667    0.000   10.500    0.000    2.667 
#    0.000    2.500    0.000    0.000    0.000    0.000 
#    0.000    0.000    0.000    0.000    0.000    0.000 
#
# Total GULP energy -148789.537871 kJ/mol
# GULP energy per Si atom -12399.128156 kJ/mol
# Density = 2.141132 g / cm^3
# Si number density = 21.460160 Si / 1000 Ang^3
#
#
#
# Elastic Constant Matrix: (Units=GPa)
#
#
# Indices 1 2 3 4 5 6 
#
# 1 112.2003 58.6448 14.1052 2.7653 -6.0957 -10.2913
# 2 58.6448 195.1694 37.8175 -9.8809 -1.7201 -24.6543
# 3 14.1052 37.8175 133.4455 -11.1544 -2.5606 2.8544
# 4 2.7653 -9.8809 -11.1544 43.2177 -4.0497 1.2617
# 5 -6.0957 -1.7201 -2.5606 -4.0497 37.8530 6.0904
# 6 -10.2913 -24.6543 2.8544 1.2617 6.0904 46.9518
#
#
#
# Elastic Compliance Matrix: (Units=1/GPa)
#
#
# Indices 1 2 3 4 5 6 
#
# 1 0.010764 -0.003151 -0.000348 -0.001392 0.001322 0.000592
# 2 -0.003151 0.006814 -0.001575 0.001202 -0.000664 0.003037
# 3 -0.000348 -0.001575 0.008187 0.001903 0.000882 -0.001567
# 4 -0.001392 0.001202 0.001903 0.024268 0.002683 -0.000790
# 5 0.001322 -0.000664 0.000882 0.002683 0.027552 -0.003759
# 6 0.000592 0.003037 -0.001567 -0.000790 -0.003759 0.023627
#
#
# Mechanical properties :
#
#
# Convention : Reuss Voigt Hill
#
# Bulk Modulus (GPa) = 64.03954 73.55002 68.79478
# Shear Modulus (GPa) = 42.89385 47.62100 45.25742
#
# Velocity S-wave (km/s) = 4.47561 4.71578 4.59726
# Velocity P-wave (km/s) = 7.52423 7.99992 7.76572
#
# Compressibility (1/GPa) = 0.01561535
#
# Stress axis : x y z
#
# Youngs Moduli (GPa) = 92.90415 146.74663 122.15209
#
# Poissons Ratio (x) = 0.46238 0.04257
# Poissons Ratio (y) = 0.29273 0.19243
# Poissons Ratio (z) = 0.03237 0.23118
#
# Static dielectric constant tensor:
#      x y z
#    x 11.791180 -10.195260 4.890520 
#    y -10.195260 16.738560 -6.262990 
#    z 4.890520 -6.262990 7.201320 
# 
# 
# High freq. dielectric constant tensor:
#      x y z
#    x 1.841080 -0.022540 -0.000780 
#    y -0.022540 1.867590 -0.000140 
#    z -0.000780 -0.000140 1.856860 
# 
# From -- ./inp_files/148830.got.cif
#   From: 2010.06.25/outbox.cif.g09.slc.cpg/sg2_75_cif.got.tgz:148830.got - 2010.06.27 13:26:56.
