data_PCOD8012739
_publ_section_title
;
Structure prediction by ZEFSAII (Michael W. Deem and Ramdas Pophale) SiO2 
 PCOD8012739
Probable space group: P -1
;
_chemical_formula_sum "Si O2"
_cell_formula_units_Z 12
_cell_length_a 9.344337
_cell_length_b 8.084285
_cell_length_c 11.623705
_cell_angle_alpha 75.972978
_cell_angle_beta 136.785631
_cell_angle_gamma 93.450756
_cell_volume 574.287346
_symmetry_space_group_name_H-M "P -1"
_symmetry_group_IT_number 2
_symmetry_cell_setting 'triclinic'
loop_
_space_group_symop_operation_xyz
x,y,z
-x,-y,-z
loop_
_atom_site_type_symbol
_atom_site_label
_atom_site_fract_x
_atom_site_fract_y
_atom_site_fract_z
Si Si1 0.640237 0.860100 0.344765
Si Si2 0.313102 0.907770 0.856898
Si Si3 0.587821 0.596021 0.162280
Si Si4 0.926922 0.787269 0.743909
Si Si5 0.218307 0.437053 0.945017
Si Si6 0.797666 0.912660 0.886424
O O1 0.644489 0.694880 0.291467
O O2 0.776060 0.793484 0.545077
O O3 0.745123 0.008622 0.316492
O O4 0.401355 0.940621 0.224902
O O5 0.098065 0.917721 0.804749
O O6 0.419544 0.707407 0.953504
O O7 0.500000 0.000000 0.000000
O O8 0.788681 0.542021 0.203982
O O9 0.449112 0.448932 0.137527
O O10 0.779440 0.846914 0.756550
O O11 0.037952 0.588560 0.863311
O O12 0.173076 0.248163 0.981676
O O13 0.000000 0.000000 0.000000
#
# Coordination Sequence:
#
# PCOD8012739 Si02
#       6
#     2   2   2   2   2   2
#     4  11  22  39  62  91 126 154 203 260 304 347
#     4   9  17  36  62  87 114 160 206 239 283 363
#     4   9  19  38  67  87 115 162 211 244 294 361
#     4  11  24  38  59  96 126 156 195 260 314 349
#     4  10  21  40  63  88 117 163 210 244 293 374
#     4  12  24  41  64  88 120 168 207 242 301 376
#
# _framework density 20.895464
#
# number of rings (size 3 to 8) (size 9 to 14) (size 15 to 20)
#    0.000    1.667    1.667    4.500    2.333    0.667 
#    0.000    5.000    0.000    0.000    0.000    0.000 
#    0.000    0.000    0.000    0.000    0.000    0.000 
#
# Total GULP energy -148669.313802 kJ/mol
# GULP energy per Si atom -12389.109483 kJ/mol
# Density = 2.084790 g / cm^3
# Si number density = 20.895464 Si / 1000 Ang^3
#
#
#
# Elastic Constant Matrix: (Units=GPa)
#
#
# Indices 1 2 3 4 5 6 
#
# 1 100.0201 34.6104 20.3745 12.0725 -2.7991 -6.2031
# 2 34.6104 89.7750 27.6148 16.5349 0.2557 9.3587
# 3 20.3745 27.6148 75.3757 12.6466 -11.0507 5.6566
# 4 12.0725 16.5349 12.6466 20.5779 -3.0471 -5.9934
# 5 -2.7991 0.2557 -11.0507 -3.0471 30.3085 7.4729
# 6 -6.2031 9.3587 5.6566 -5.9934 7.4729 43.6333
#
#
#
# Elastic Compliance Matrix: (Units=1/GPa)
#
#
# Indices 1 2 3 4 5 6 
#
# 1 0.012147 -0.004037 -0.001682 -0.002146 -0.000306 0.002569
# 2 -0.004037 0.015986 -0.002881 -0.010314 -0.001411 -0.004804
# 3 -0.001682 -0.002881 0.017278 -0.007532 0.006395 -0.003991
# 4 -0.002146 -0.010314 -0.007532 0.066354 0.000893 0.011845
# 5 -0.000306 -0.001411 0.006395 0.000893 0.037075 -0.006797
# 6 0.002569 -0.004804 -0.003991 0.011845 -0.006797 0.027622
#
#
# Mechanical properties :
#
#
# Convention : Reuss Voigt Hill
#
# Bulk Modulus (GPa) = 35.44774 47.81891 41.63333
# Shear Modulus (GPa) = 24.62233 31.07535 27.84884
#
# Velocity S-wave (km/s) = 3.43645 3.86058 3.65467
# Velocity P-wave (km/s) = 5.72247 6.54268 6.14627
#
# Compressibility (1/GPa) = 0.02821054
#
# Stress axis : x y z
#
# Youngs Moduli (GPa) = 82.32184 62.55359 57.87733
#
# Poissons Ratio (x) = 0.25255 0.09735
# Poissons Ratio (y) = 0.33237 0.16675
# Poissons Ratio (z) = 0.13847 0.18023
#
# Static dielectric constant tensor:
#      x y z
#    x 4.243180 0.130850 -0.032270 
#    y 0.130850 4.044690 -0.127140 
#    z -0.032270 -0.127140 3.552440 
# 
# 
# High freq. dielectric constant tensor:
#      x y z
#    x 1.831940 -0.004170 0.000140 
#    y -0.004170 1.828320 0.004980 
#    z 0.000140 0.004980 1.781200 
# 
# From -- ./inp_files/151692.got.cif
#   From: 2010.06.25/outbox.cif.g09.slc.cpg/sg2_76_cif.got.tgz:151692.got - 2010.06.27 13:26:56.
