data_PCOD8012540
_publ_section_title
;
Structure prediction by ZEFSAII (Michael W. Deem and Ramdas Pophale) SiO2 
 PCOD8012540
Probable space group: P -1
;
_chemical_formula_sum "Si O2"
_cell_formula_units_Z 16
_cell_length_a 15.087190
_cell_length_b 13.886325
_cell_length_c 14.497717
_cell_angle_alpha 44.628037
_cell_angle_beta 30.166337
_cell_angle_gamma 31.351072
_cell_volume 789.969354
_symmetry_space_group_name_H-M "P -1"
_symmetry_group_IT_number 2
_symmetry_cell_setting 'triclinic'
loop_
_space_group_symop_operation_xyz
x,y,z
-x,-y,-z
loop_
_atom_site_type_symbol
_atom_site_label
_atom_site_fract_x
_atom_site_fract_y
_atom_site_fract_z
Si Si1 0.797641 0.996635 0.665864
Si Si2 0.232510 0.987630 0.525975
Si Si3 0.679924 0.584044 0.162658
Si Si4 0.502929 0.653647 0.787275
Si Si5 0.045547 0.610105 0.766918
Si Si6 0.488927 0.402039 0.392679
Si Si7 0.142548 0.746565 0.183283
Si Si8 0.325358 0.144522 0.480957
O O1 0.535827 0.194538 0.785945
O O2 0.817340 0.936661 0.583652
O O3 0.000000 0.000000 0.500000
O O4 0.854484 0.835486 0.789334
O O5 0.380614 0.032521 0.412653
O O6 0.985284 0.091335 0.734683
O O7 0.375750 0.769904 0.541328
O O8 0.774012 0.480331 0.247042
O O9 0.593169 0.500323 0.238264
O O10 0.899794 0.543939 0.940220
O O11 0.465463 0.683270 0.691539
O O12 0.646074 0.441523 0.825660
O O13 0.644130 0.710271 0.660592
O O14 0.246138 0.782990 0.981551
O O15 0.207476 0.544688 0.574224
O O16 0.948893 0.741199 0.319353
O O17 0.500000 0.000000 0.500000
#
# Coordination Sequence:
#
# PCOD8012540 Si02
#       8
#     2   2   2   2   2   2   2   2
#     4  12  22  43  72  95 133 171 211 271 323 380
#     4  10  23  41  63  96 129 166 219 259 323 386
#     4  11  25  43  66  98 129 172 216 261 324 386
#     4  11  21  42  65  89 129 167 209 269 317 376
#     4  11  24  44  66  93 135 167 217 268 317 386
#     4  12  22  41  65  93 131 169 210 265 324 378
#     4   9  23  40  60  93 125 160 220 258 314 384
#     4  10  21  40  61  86 123 167 208 261 312 370
#
# _framework density 20.253951000000001
#
# number of rings (size 3 to 8) (size 9 to 14) (size 15 to 20)
#    0.750    0.500    3.750    2.625    0.000    3.000 
#    6.750    1.250    0.000    0.000    0.000    0.000 
#    0.000    0.000    0.000    0.000    0.000    0.000 
#
# Total GULP energy -198370.735411 kJ/mol
# GULP energy per Si atom -12398.170963 kJ/mol
# Density = 2.020785 g / cm^3
# Si number density = 20.253951 Si / 1000 Ang^3
#
#
#
# Elastic Constant Matrix: (Units=GPa)
#
#
# Indices 1 2 3 4 5 6 
#
# 1 89.3678 20.9893 38.6282 -1.7748 -14.8063 7.9747
# 2 20.9893 105.7359 15.7920 -2.1739 -2.3963 -3.2659
# 3 38.6282 15.7920 117.5865 4.0869 -19.9346 11.0051
# 4 -1.7748 -2.1739 4.0869 29.1730 -1.5311 -1.4428
# 5 -14.8063 -2.3963 -19.9346 -1.5311 22.9277 -2.8318
# 6 7.9747 -3.2659 11.0051 -1.4428 -2.8318 34.6818
#
#
#
# Elastic Compliance Matrix: (Units=1/GPa)
#
#
# Indices 1 2 3 4 5 6 
#
# 1 0.014322 -0.002252 -0.003245 0.001380 0.006047 -0.001924
# 2 -0.002252 0.010097 -0.000971 0.000786 -0.000977 0.001730
# 3 -0.003245 -0.000971 0.011187 -0.001580 0.007130 -0.002379
# 4 0.001380 0.000786 -0.001580 0.034849 0.002159 0.001884
# 5 0.006047 -0.000977 0.007130 0.002159 0.053853 0.000742
# 6 -0.001924 0.001730 -0.002379 0.001884 0.000742 0.030333
#
#
# Mechanical properties :
#
#
# Convention : Reuss Voigt Hill
#
# Bulk Modulus (GPa) = 44.11259 51.50102 47.80681
# Shear Modulus (GPa) = 28.54935 33.17521 30.86228
#
# Velocity S-wave (km/s) = 3.75850 4.05157 3.90778
# Velocity P-wave (km/s) = 6.37668 6.88257 6.63445
#
# Compressibility (1/GPa) = 0.02266926
#
# Stress axis : x y z
#
# Youngs Moduli (GPa) = 69.82073 99.03840 89.38741
#
# Poissons Ratio (x) = 0.22308 0.29009
# Poissons Ratio (y) = 0.15727 0.08680
# Poissons Ratio (z) = 0.22659 0.09617
#
# Static dielectric constant tensor:
#      x y z
#    x 3.445690 -0.076630 -0.105780 
#    y -0.076630 3.762940 0.004210 
#    z -0.105780 0.004210 3.728610 
# 
# 
# High freq. dielectric constant tensor:
#      x y z
#    x 1.779870 -0.009060 -0.003360 
#    y -0.009060 1.803440 -0.000060 
#    z -0.003360 -0.000060 1.786340 
# 
# From -- ./inp_files/534230.got.cif
#   From: 2010.06.25/outbox.cif.g09.slc.cpg/sg2_268_cif.got.tgz:534230.got - 2010.06.27 13:26:56.
