data_PCOD8012040
_publ_section_title
;
Structure prediction by ZEFSAII (Michael W. Deem and Ramdas Pophale) SiO2 
 PCOD8012040
Probable space group: P -1
;
_chemical_formula_sum "Si O2"
_cell_formula_units_Z 14
_cell_length_a 9.988522
_cell_length_b 12.385576
_cell_length_c 18.810187
_cell_angle_alpha 153.604478
_cell_angle_beta 36.593459
_cell_angle_gamma 133.964292
_cell_volume 613.977874
_symmetry_space_group_name_H-M "P -1"
_symmetry_group_IT_number 2
_symmetry_cell_setting 'triclinic'
loop_
_space_group_symop_operation_xyz
x,y,z
-x,-y,-z
loop_
_atom_site_type_symbol
_atom_site_label
_atom_site_fract_x
_atom_site_fract_y
_atom_site_fract_z
Si Si1 0.867802 0.776855 0.938091
Si Si2 0.569067 0.712688 0.147391
Si Si3 0.567744 0.829696 0.963787
Si Si4 0.449724 0.355220 0.285964
Si Si5 0.738199 0.611627 0.472307
Si Si6 0.266819 0.181970 0.545222
Si Si7 0.141771 0.620042 0.070267
O O1 0.042937 0.546951 0.742694
O O2 0.737799 0.853618 0.110961
O O3 0.705730 0.722876 0.909922
O O4 0.000000 0.000000 0.000000
O O5 0.368713 0.918607 0.376704
O O6 0.500000 0.500000 0.000000
O O7 0.692476 0.601204 0.098527
O O8 0.300534 0.810872 0.080474
O O9 0.611782 0.111136 0.095150
O O10 0.648923 0.670917 0.766390
O O11 0.243156 0.353205 0.429882
O O12 0.584050 0.594346 0.369809
O O13 0.500000 0.500000 0.500000
O O14 0.740057 0.842371 0.553328
O O15 0.021137 0.240369 0.719448
O O16 0.000000 0.500000 0.000000
#
# Coordination Sequence:
#
# PCOD8012040 Si02
#       7
#     2   2   2   2   2   2   2
#     4  12  23  42  71 102 142 183 240 305 351 422
#     4  12  27  46  71 108 145 189 248 294 356 439
#     4  11  24  43  71 102 143 187 243 296 359 435
#     4  10  22  44  67 102 141 181 240 295 356 427
#     4  10  21  39  66 100 133 180 234 287 354 419
#     4  11  23  46  76 100 142 192 235 297 365 422
#     4  12  26  48  74 106 149 193 234 300 368 429
#
# _framework density 22.802126000000001
#
# number of rings (size 3 to 8) (size 9 to 14) (size 15 to 20)
#    0.000    0.857    4.286    4.286    0.000    2.857 
#    0.000    0.000    0.000    0.000    0.000    0.000 
#    0.000    0.000    0.000    0.000    0.000    0.000 
#
# Total GULP energy -173485.069432 kJ/mol
# GULP energy per Si atom -12391.790674 kJ/mol
# Density = 2.275023 g / cm^3
# Si number density = 22.802126 Si / 1000 Ang^3
#
#
#
# Elastic Constant Matrix: (Units=GPa)
#
#
# Indices 1 2 3 4 5 6 
#
# 1 105.6343 27.1228 28.4428 2.0663 -5.2192 -9.0263
# 2 27.1228 89.7246 33.8535 -0.4343 5.2165 -1.5244
# 3 28.4428 33.8535 119.8109 0.6146 -11.6308 -6.1152
# 4 2.0663 -0.4343 0.6146 46.7986 -10.5064 6.2000
# 5 -5.2192 5.2165 -11.6308 -10.5064 40.9589 -1.5219
# 6 -9.0263 -1.5244 -6.1152 6.2000 -1.5219 37.2993
#
#
#
# Elastic Compliance Matrix: (Units=1/GPa)
#
#
# Indices 1 2 3 4 5 6 
#
# 1 0.010865 -0.002729 -0.001562 -0.000523 0.001243 0.002399
# 2 -0.002729 0.013460 -0.003500 -0.000319 -0.003166 -0.000760
# 3 -0.001562 -0.003500 0.010083 0.000483 0.003278 0.001185
# 4 -0.000523 -0.000319 0.000483 0.023199 0.005925 -0.003675
# 5 0.001243 -0.003166 0.003278 0.005925 0.027458 0.000844
# 6 0.002399 -0.000760 0.001185 -0.003675 0.000844 0.028199
#
#
# Mechanical properties :
#
#
# Convention : Reuss Voigt Hill
#
# Bulk Modulus (GPa) = 53.12058 54.88978 54.00518
# Shear Modulus (GPa) = 37.00372 40.06141 38.53256
#
# Velocity S-wave (km/s) = 4.03279 4.19610 4.11526
# Velocity P-wave (km/s) = 6.71055 6.89934 6.80560
#
# Compressibility (1/GPa) = 0.01882510
#
# Stress axis : x y z
#
# Youngs Moduli (GPa) = 92.04177 74.29266 99.18142
#
# Poissons Ratio (x) = 0.20273 0.15496
# Poissons Ratio (y) = 0.25117 0.34713
# Poissons Ratio (z) = 0.14380 0.26002
#
# Static dielectric constant tensor:
#      x y z
#    x 4.056310 -0.274590 0.191390 
#    y -0.274590 4.641220 -0.413770 
#    z 0.191390 -0.413770 4.142300 
# 
# 
# High freq. dielectric constant tensor:
#      x y z
#    x 1.891910 -0.013400 0.007220 
#    y -0.013400 1.917900 -0.004750 
#    z 0.007220 -0.004750 1.892410 
# 
# From -- ./inp_files/560095.got.cif
#   From: 2010.06.25/outbox.cif.g09.slc.cpg/sg2_281_cif.got.tgz:560095.got - 2010.06.27 13:26:56.
