data_PCOD8012267
_publ_section_title
;
Structure prediction by ZEFSAII (Michael W. Deem and Ramdas Pophale) SiO2 
 PCOD8012267
Probable space group: P -1
;
_chemical_formula_sum "Si O2"
_cell_formula_units_Z 16
_cell_length_a 11.949134
_cell_length_b 11.785807
_cell_length_c 9.137867
_cell_angle_alpha 56.963672
_cell_angle_beta 99.161874
_cell_angle_gamma 130.043087
_cell_volume 788.278793
_symmetry_space_group_name_H-M "P -1"
_symmetry_group_IT_number 2
_symmetry_cell_setting 'triclinic'
loop_
_space_group_symop_operation_xyz
x,y,z
-x,-y,-z
loop_
_atom_site_type_symbol
_atom_site_label
_atom_site_fract_x
_atom_site_fract_y
_atom_site_fract_z
Si Si1 0.124487 0.702478 0.808931
Si Si2 0.037370 0.491452 0.677006
Si Si3 0.144638 0.023204 0.512269
Si Si4 0.336133 0.298330 0.607627
Si Si5 0.804068 0.917091 0.856568
Si Si6 0.289031 0.772255 0.061494
Si Si7 0.115066 0.258272 0.813574
Si Si8 0.422464 0.142068 0.946902
O O1 0.150810 0.681181 0.659009
O O2 0.091486 0.837647 0.703204
O O3 0.278177 0.810937 0.862038
O O4 0.000000 0.500000 0.000000
O O5 0.879338 0.384951 0.803566
O O6 0.000000 0.500000 0.500000
O O7 0.127565 0.422825 0.749105
O O8 0.276844 0.209845 0.497177
O O9 0.199117 0.055184 0.334455
O O10 0.000000 0.000000 0.500000
O O11 0.500000 0.500000 0.500000
O O12 0.217009 0.301450 0.663542
O O13 0.349874 0.167032 0.782818
O O14 0.832183 0.782930 0.002333
O O15 0.638510 0.838485 0.930402
O O16 0.937221 0.101457 0.843318
O O17 0.391544 0.716393 0.121754
O O18 0.365518 0.942693 0.064521
#
# Coordination Sequence:
#
# PCOD8012267 Si02
#       8
#     2   2   2   2   2   2   2   2
#     4  10  24  40  63  99 132 171 216 274 328 393
#     4  11  23  38  64  97 134 162 223 268 334 386
#     4  12  24  41  70 100 132 170 228 277 325 390
#     4  11  25  43  66  95 133 171 223 271 333 393
#     4  10  21  39  68  93 125 169 228 267 327 388
#     4  10  21  40  64  88 128 174 208 260 332 395
#     4  10  21  40  64  93 128 175 211 276 326 392
#     4  10  21  42  64  86 128 172 212 260 334 394
#
# _framework density 20.297385999999999
#
# number of rings (size 3 to 8) (size 9 to 14) (size 15 to 20)
#    0.000    1.500    3.750    0.750    5.250    1.000 
#    2.250    1.875    0.000    0.000    0.000    0.000 
#    0.000    0.000    0.000    0.000    0.000    0.000 
#
# Total GULP energy -198210.171172 kJ/mol
# GULP energy per Si atom -12388.135698 kJ/mol
# Density = 2.025119 g / cm^3
# Si number density = 20.297386 Si / 1000 Ang^3
#
#
#
# Elastic Constant Matrix: (Units=GPa)
#
#
# Indices 1 2 3 4 5 6 
#
# 1 154.0731 38.1869 40.2743 8.5267 6.0975 -5.0790
# 2 38.1869 90.6534 39.3359 12.3608 10.0662 -12.3032
# 3 40.2743 39.3359 93.2421 20.4649 -1.1016 -1.9642
# 4 8.5267 12.3608 20.4649 37.4845 -1.2125 3.1611
# 5 6.0975 10.0662 -1.1016 -1.2125 20.1840 -0.3874
# 6 -5.0790 -12.3032 -1.9642 3.1611 -0.3874 19.6978
#
#
#
# Elastic Compliance Matrix: (Units=1/GPa)
#
#
# Indices 1 2 3 4 5 6 
#
# 1 0.007702 -0.001932 -0.002563 0.000197 -0.001483 0.000463
# 2 -0.001932 0.016909 -0.005475 -0.003244 -0.008153 0.009877
# 3 -0.002563 -0.005475 0.015423 -0.005774 0.003970 -0.001538
# 4 0.000197 -0.003244 -0.005774 0.031589 0.002995 -0.007561
# 5 -0.001483 -0.008153 0.003970 0.002995 0.054369 -0.004490
# 6 0.000463 0.009877 -0.001538 -0.007561 -0.004490 0.058027
#
#
# Mechanical properties :
#
#
# Convention : Reuss Voigt Hill
#
# Bulk Modulus (GPa) = 49.76489 63.72920 56.74705
# Shear Modulus (GPa) = 23.73520 30.15137 26.94328
#
# Velocity S-wave (km/s) = 3.42332 3.85837 3.64734
# Velocity P-wave (km/s) = 6.34008 7.16347 6.76431
#
# Compressibility (1/GPa) = 0.02009449
#
# Stress axis : x y z
#
# Youngs Moduli (GPa) = 129.83338 59.14121 64.83690
#
# Poissons Ratio (x) = 0.11425 0.16617
# Poissons Ratio (y) = 0.25082 0.35499
# Poissons Ratio (z) = 0.33275 0.32380
#
# Static dielectric constant tensor:
#      x y z
#    x 3.834730 0.180830 0.312930 
#    y 0.180830 3.680180 0.259540 
#    z 0.312930 0.259540 3.866160 
# 
# 
# High freq. dielectric constant tensor:
#      x y z
#    x 1.800870 -0.009210 0.011860 
#    y -0.009210 1.785030 0.017060 
#    z 0.011860 0.017060 1.786800 
# 
# From -- ./inp_files/256977.got.cif
#   From: 2010.06.25/outbox.cif.g09.slc.cpg/sg2_129_cif.got.tgz:256977.got - 2010.06.27 13:26:56.
