data_PCOD8012781
_publ_section_title
;
Structure prediction by ZEFSAII (Michael W. Deem and Ramdas Pophale) SiO2 
 PCOD8012781
Probable space group: P -1
;
_chemical_formula_sum "Si O2"
_cell_formula_units_Z 16
_cell_length_a 8.972305
_cell_length_b 14.858418
_cell_length_c 12.645472
_cell_angle_alpha 149.858003
_cell_angle_beta 76.408059
_cell_angle_gamma 93.839040
_cell_volume 790.096405
_symmetry_space_group_name_H-M "P -1"
_symmetry_group_IT_number 2
_symmetry_cell_setting 'triclinic'
loop_
_space_group_symop_operation_xyz
x,y,z
-x,-y,-z
loop_
_atom_site_type_symbol
_atom_site_label
_atom_site_fract_x
_atom_site_fract_y
_atom_site_fract_z
Si Si1 0.140607 0.623557 0.901968
Si Si2 0.894274 0.881531 0.346818
Si Si3 0.667515 0.110205 0.940424
Si Si4 0.974771 0.462635 0.586506
Si Si5 0.673496 0.749901 0.926316
Si Si6 0.322334 0.230202 0.554726
Si Si7 0.605858 0.015834 0.399578
Si Si8 0.137977 0.079871 0.100111
O O1 0.268484 0.440932 0.738603
O O2 0.065880 0.577408 0.759124
O O3 0.223709 0.787200 0.037724
O O4 0.001671 0.696500 0.084558
O O5 0.795458 0.806897 0.374464
O O6 0.778939 0.017413 0.417137
O O7 0.000000 0.000000 0.500000
O O8 0.672941 0.912612 0.686603
O O9 0.728448 0.074915 0.015025
O O10 0.486006 0.245282 0.108355
O O11 0.782955 0.537593 0.714543
O O12 0.000000 0.500000 0.500000
O O13 0.051556 0.241424 0.363837
O O14 0.779089 0.855606 0.948775
O O15 0.626044 0.839758 0.140043
O O16 0.503457 0.198464 0.537981
O O17 0.500000 0.000000 0.500000
O O18 0.000000 0.000000 0.000000
#
# Coordination Sequence:
#
# PCOD8012781 Si02
#       8
#     2   2   2   2   2   2   2   2
#     4  12  22  41  65  92 130 168 218 267 315 382
#     4  11  21  38  67  94 125 170 217 262 322 377
#     4  11  22  40  63  92 128 166 209 263 323 384
#     4  10  21  40  63  92 124 165 216 262 311 382
#     4  10  21  41  64  91 130 168 211 265 325 381
#     4  10  22  41  61  92 128 169 211 264 321 376
#     4   9  20  39  66  88 129 167 203 261 323 380
#     4  11  23  41  65  94 128 167 216 270 322 381
#
# _framework density 20.250692999999998
#
# number of rings (size 3 to 8) (size 9 to 14) (size 15 to 20)
#    0.000    1.500    3.750    2.250    0.000    0.000 
#    4.500    3.750    0.000    0.000    0.000    0.000 
#    0.000    0.000    0.000    0.000    0.000    0.000 
#
# Total GULP energy -198306.049565 kJ/mol
# GULP energy per Si atom -12394.128098 kJ/mol
# Density = 2.020460 g / cm^3
# Si number density = 20.250693 Si / 1000 Ang^3
#
#
#
# Elastic Constant Matrix: (Units=GPa)
#
#
# Indices 1 2 3 4 5 6 
#
# 1 130.5848 24.7090 40.9578 4.4212 -5.4378 -36.6435
# 2 24.7090 63.0016 23.8850 0.1250 -1.6226 -21.0878
# 3 40.9578 23.8850 96.5695 -5.3958 -12.7907 -14.8713
# 4 4.4212 0.1250 -5.3958 31.3975 -3.2199 -4.9798
# 5 -5.4378 -1.6226 -12.7907 -3.2199 36.6403 1.4438
# 6 -36.6435 -21.0878 -14.8713 -4.9798 1.4438 43.2142
#
#
#
# Elastic Compliance Matrix: (Units=1/GPa)
#
#
# Indices 1 2 3 4 5 6 
#
# 1 0.011053 -0.000391 -0.003418 -0.000885 0.000041 0.007902
# 2 -0.000391 0.020170 -0.003592 0.000614 -0.000695 0.008369
# 3 -0.003418 -0.003592 0.013484 0.003292 0.004321 0.000224
# 4 -0.000885 0.000614 0.003292 0.033632 0.003826 0.004430
# 5 0.000041 -0.000695 0.004321 0.003826 0.029087 0.000652
# 6 0.007902 0.008369 0.000224 0.004430 0.000652 0.034490
#
#
# Mechanical properties :
#
#
# Convention : Reuss Voigt Hill
#
# Bulk Modulus (GPa) = 33.44007 52.13997 42.79002
# Shear Modulus (GPa) = 29.99630 35.62400 32.81015
#
# Velocity S-wave (km/s) = 3.85287 4.19877 4.02954
# Velocity P-wave (km/s) = 6.02841 7.02206 6.54412
#
# Compressibility (1/GPa) = 0.02990424
#
# Stress axis : x y z
#
# Youngs Moduli (GPa) = 90.47286 49.57915 74.16113
#
# Poissons Ratio (x) = 0.01940 0.25351
# Poissons Ratio (y) = 0.03541 0.26636
# Poissons Ratio (z) = 0.30927 0.17807
#
# Static dielectric constant tensor:
#      x y z
#    x 4.063990 -0.500870 -0.562060 
#    y -0.500870 3.665640 0.004780 
#    z -0.562060 0.004780 4.080890 
# 
# 
# High freq. dielectric constant tensor:
#      x y z
#    x 1.802090 -0.029450 -0.020390 
#    y -0.029450 1.780740 -0.014950 
#    z -0.020390 -0.014950 1.791880 
# 
# From -- ./inp_files/215231.got.cif
#   From: 2010.06.25/outbox.cif.g09.slc.cpg/sg2_108_cif.got.tgz:215231.got - 2010.06.27 13:26:56.
