data_PCOD8012121
_publ_section_title
;
Structure prediction by ZEFSAII (Michael W. Deem and Ramdas Pophale) SiO2 
 PCOD8012121
Probable space group: P -1
;
_chemical_formula_sum "Si O2"
_cell_formula_units_Z 16
_cell_length_a 8.763012
_cell_length_b 26.132027
_cell_length_c 26.199410
_cell_angle_alpha 168.809973
_cell_angle_beta 139.961059
_cell_angle_gamma 40.216994
_cell_volume 745.203354
_symmetry_space_group_name_H-M "P -1"
_symmetry_group_IT_number 2
_symmetry_cell_setting 'triclinic'
loop_
_space_group_symop_operation_xyz
x,y,z
-x,-y,-z
loop_
_atom_site_type_symbol
_atom_site_label
_atom_site_fract_x
_atom_site_fract_y
_atom_site_fract_z
Si Si1 0.286768 0.149356 0.935260
Si Si2 0.439023 0.093828 0.806597
Si Si3 0.740665 0.551320 0.321956
Si Si4 0.023480 0.768500 0.239728
Si Si5 0.976512 0.660818 0.385337
Si Si6 0.493653 0.267642 0.730801
Si Si7 0.942444 0.688609 0.739870
Si Si8 0.273014 0.767815 0.806000
O O1 0.439242 0.112002 0.885772
O O2 0.464873 0.176708 0.054770
O O3 0.134749 0.904385 0.664585
O O4 0.114002 0.418175 0.152705
O O5 0.167880 0.152061 0.775708
O O6 0.563222 0.809488 0.542978
O O7 0.582684 0.318043 0.037404
O O8 0.917972 0.598407 0.367556
O O9 0.901131 0.451111 0.312358
O O10 0.283518 0.735493 0.251465
O O11 0.000000 0.000000 0.500000
O O12 0.000000 0.500000 0.000000
O O13 0.735388 0.721219 0.352183
O O14 0.500000 0.000000 0.500000
O O15 0.500000 0.500000 0.000000
O O16 0.730046 0.502537 0.491667
O O17 0.107011 0.726698 0.771124
O O18 0.824820 0.983773 0.012044
#
# Coordination Sequence:
#
# PCOD8012121 Si02
#       8
#     2   2   2   2   2   2   2   2
#     4  12  25  44  66 100 129 173 218 271 318 383
#     4  12  24  42  69  96 128 168 228 271 317 385
#     4  12  25  44  66 100 133 175 212 268 336 387
#     4  12  25  43  66  97 130 168 218 278 328 379
#     4  12  26  44  65  95 140 172 211 270 335 391
#     4  12  25  45  68  93 129 179 222 263 327 395
#     4  10  21  39  66  97 127 167 214 267 320 381
#     4  10  21  39  66  97 127 165 218 269 311 379
#
# _framework density 21.470649999999999
#
# number of rings (size 3 to 8) (size 9 to 14) (size 15 to 20)
#    0.000    0.500    1.250    8.250    3.500    0.000 
#    0.000    3.750    0.000    0.000    0.000    0.000 
#    0.000    0.000    0.000    0.000    0.000    0.000 
#
# Total GULP energy -198426.695192 kJ/mol
# GULP energy per Si atom -12401.668450 kJ/mol
# Density = 2.142178 g / cm^3
# Si number density = 21.470650 Si / 1000 Ang^3
#
#
#
# Elastic Constant Matrix: (Units=GPa)
#
#
# Indices 1 2 3 4 5 6 
#
# 1 69.6540 4.0247 62.2365 18.4658 12.6892 -32.5779
# 2 4.0247 130.8169 56.7921 -5.3589 8.5897 -8.3218
# 3 62.2365 56.7921 172.3470 -2.8601 19.1166 8.5145
# 4 18.4658 -5.3589 -2.8601 45.7485 -2.0758 18.8501
# 5 12.6892 8.5897 19.1166 -2.0758 36.8581 -0.6639
# 6 -32.5779 -8.3218 8.5145 18.8501 -0.6639 1.2566
#
#
#
# Elastic Compliance Matrix: (Units=1/GPa)
#
#
# Indices 1 2 3 4 5 6 
#
# 1 0.003426 -0.001161 0.000340 0.006523 -0.001071 -0.019584
# 2 -0.001161 0.008484 -0.002090 0.002930 -0.000399 -0.003922
# 3 0.000340 -0.002090 0.006181 -0.003828 -0.002890 0.008982
# 4 0.006523 0.002930 -0.003828 0.013326 0.000070 0.014577
# 5 -0.001071 -0.000399 -0.002890 0.000070 0.029159 0.003538
# 6 -0.019584 -0.003922 0.008982 0.014577 0.003538 -0.015556
#
#
# Mechanical properties :
#
#
# Convention : Reuss Voigt Hill
#
# Bulk Modulus (GPa) = 81.50291 68.76940 75.13615
# Shear Modulus (GPa) = 91.01999 33.42362 62.22180
#
# Velocity S-wave (km/s) = 6.51804 3.94980 5.38914
# Velocity P-wave (km/s) = 9.73082 7.27326 8.59038
#
# Compressibility (1/GPa) = 0.01226950
#
# Stress axis : x y z
#
# Youngs Moduli (GPa) = 291.86651 117.86990 161.77745
#
# Poissons Ratio (x) = 0.13688 -0.05499
# Poissons Ratio (y) = 0.33894 0.33806
# Poissons Ratio (z) = -0.09921 0.24631
#
# Static dielectric constant tensor:
#      x y z
#    x 4.059520 -0.047370 0.133170 
#    y -0.047370 4.076590 0.005940 
#    z 0.133170 0.005940 4.374340 
# 
# 
# High freq. dielectric constant tensor:
#      x y z
#    x 1.834430 -0.003450 0.008700 
#    y -0.003450 1.861190 0.001250 
#    z 0.008700 0.001250 1.870250 
# 
# From -- ./inp_files/226218.got.cif
#   From: 2010.06.25/outbox.cif.g09.slc.cpg/sg2_114_cif.got.tgz:226218.got - 2010.06.27 13:26:56.
