data_PCOD8012612
_publ_section_title
;
Structure prediction by ZEFSAII (Michael W. Deem and Ramdas Pophale) SiO2 
 PCOD8012612
Probable space group: P -1
;
_chemical_formula_sum "Si O2"
_cell_formula_units_Z 16
_cell_length_a 8.908998
_cell_length_b 18.757168
_cell_length_c 21.728788
_cell_angle_alpha 17.596778
_cell_angle_beta 139.360977
_cell_angle_gamma 139.099282
_cell_volume 705.116350
_symmetry_space_group_name_H-M "P -1"
_symmetry_group_IT_number 2
_symmetry_cell_setting 'triclinic'
loop_
_space_group_symop_operation_xyz
x,y,z
-x,-y,-z
loop_
_atom_site_type_symbol
_atom_site_label
_atom_site_fract_x
_atom_site_fract_y
_atom_site_fract_z
Si Si1 0.433858 0.046166 0.588023
Si Si2 0.383697 0.663340 0.481894
Si Si3 0.404458 0.537867 0.004875
Si Si4 0.114937 0.365376 0.869623
Si Si5 0.094411 0.248964 0.229947
Si Si6 0.861313 0.791485 0.470769
Si Si7 0.951536 0.071074 0.709428
Si Si8 0.964082 0.581680 0.337938
O O1 0.521795 0.117058 0.625285
O O2 0.270664 0.219890 0.364816
O O3 0.674825 0.042424 0.627243
O O4 0.281080 0.777398 0.766380
O O5 0.607616 0.630623 0.536947
O O6 0.183681 0.734749 0.315659
O O7 0.271182 0.437625 0.676524
O O8 0.237862 0.296039 0.171822
O O9 0.607576 0.599996 0.067184
O O10 0.500000 0.500000 0.000000
O O11 0.040928 0.604852 0.677562
O O12 0.059660 0.311536 0.824846
O O13 0.991436 0.143249 0.054081
O O14 0.919322 0.998852 0.371010
O O15 0.000000 0.500000 0.000000
O O16 0.879246 0.922555 0.302402
O O17 0.021912 0.313770 0.570256
#
# Coordination Sequence:
#
# PCOD8012612 Si02
#       8
#     2   2   2   2   2   2   2   2
#     4  10  22  41  60  84 124 162 201 245 291 360
#     4  10  21  40  62  86 122 162 197 251 309 351
#     4  11  22  38  62  88 118 162 206 242 293 357
#     4  10  21  40  65  91 120 159 206 249 296 357
#     4  12  25  39  58  88 123 162 199 242 301 357
#     4  11  23  38  59  90 126 154 197 257 304 352
#     4   9  20  40  64  91 119 156 202 248 300 357
#     4   9  20  42  65  85 117 161 207 249 296 361
#
# _framework density 22.691289999999999
#
# number of rings (size 3 to 8) (size 9 to 14) (size 15 to 20)
#    0.000    1.750    0.000    5.250    0.000    7.500 
#    0.000   18.750    0.000    0.000    0.000    0.000 
#    0.000    0.000    0.000    0.000    0.000    0.000 
#
# Total GULP energy -198223.380180 kJ/mol
# GULP energy per Si atom -12388.961261 kJ/mol
# Density = 2.263964 g / cm^3
# Si number density = 22.691290 Si / 1000 Ang^3
#
#
#
# Elastic Constant Matrix: (Units=GPa)
#
#
# Indices 1 2 3 4 5 6 
#
# 1 89.1278 46.5518 38.8257 11.8304 -16.1104 7.7166
# 2 46.5518 108.3253 46.7203 15.3781 -11.8237 -4.5678
# 3 38.8257 46.7203 138.9023 13.2563 -14.0590 -5.4090
# 4 11.8304 15.3781 13.2563 27.3193 0.7222 -8.7543
# 5 -16.1104 -11.8237 -14.0590 0.7222 28.2124 -0.7512
# 6 7.7166 -4.5678 -5.4090 -8.7543 -0.7512 31.3837
#
#
#
# Elastic Compliance Matrix: (Units=1/GPa)
#
#
# Indices 1 2 3 4 5 6 
#
# 1 0.017537 -0.005334 -0.002133 -0.005964 0.006683 -0.006960
# 2 -0.005334 0.013298 -0.002434 -0.003422 0.001453 0.001908
# 3 -0.002133 -0.002434 0.009071 -0.001753 0.002362 0.001301
# 4 -0.005964 -0.003422 -0.001753 0.046452 -0.006544 0.013467
# 5 0.006683 0.001453 0.002362 -0.006544 0.041165 -0.001865
# 6 -0.006960 0.001908 0.001301 0.013467 -0.001865 0.037789
#
#
# Mechanical properties :
#
#
# Convention : Reuss Voigt Hill
#
# Bulk Modulus (GPa) = 49.74052 66.72789 58.23420
# Shear Modulus (GPa) = 26.06656 31.00026 28.53341
#
# Velocity S-wave (km/s) = 3.39299 3.70019 3.54992
# Velocity P-wave (km/s) = 6.10885 6.90839 6.52088
#
# Compressibility (1/GPa) = 0.02010433
#
# Stress axis : x y z
#
# Youngs Moduli (GPa) = 57.02173 75.19822 110.23700
#
# Poissons Ratio (x) = 0.40109 0.23518
# Poissons Ratio (y) = 0.30414 0.26833
# Poissons Ratio (z) = 0.12165 0.18304
#
# Static dielectric constant tensor:
#      x y z
#    x 4.519380 0.244370 -0.199080 
#    y 0.244370 4.245350 -0.055860 
#    z -0.199080 -0.055860 4.174530 
# 
# 
# High freq. dielectric constant tensor:
#      x y z
#    x 1.906520 -0.006400 -0.019860 
#    y -0.006400 1.883120 -0.008240 
#    z -0.019860 -0.008240 1.880610 
# 
# From -- ./inp_files/591201.got.cif
#   From: 2010.06.25/outbox.cif.g09.slc.cpg/sg2_296_cif.got.tgz:591201.got - 2010.06.27 13:26:56.
