data_PCOD8012549
_publ_section_title
;
Structure prediction by ZEFSAII (Michael W. Deem and Ramdas Pophale) SiO2 
 PCOD8012549
Probable space group: P -1
;
_chemical_formula_sum "Si O2"
_cell_formula_units_Z 16
_cell_length_a 26.126328
_cell_length_b 5.687810
_cell_length_c 11.859542
_cell_angle_alpha 129.076024
_cell_angle_beta 148.306579
_cell_angle_gamma 62.460134
_cell_volume 706.854618
_symmetry_space_group_name_H-M "P -1"
_symmetry_group_IT_number 2
_symmetry_cell_setting 'triclinic'
loop_
_space_group_symop_operation_xyz
x,y,z
-x,-y,-z
loop_
_atom_site_type_symbol
_atom_site_label
_atom_site_fract_x
_atom_site_fract_y
_atom_site_fract_z
Si Si1 0.425938 0.851095 0.180546
Si Si2 0.369831 0.826412 0.321158
Si Si3 0.448987 0.273802 0.934274
Si Si4 0.252533 0.138964 0.911197
Si Si5 0.129630 0.866231 0.398433
Si Si6 0.755616 0.094855 0.593888
Si Si7 0.779620 0.775531 0.872954
Si Si8 0.914011 0.825353 0.938602
O O1 0.402502 0.930209 0.287846
O O2 0.525309 0.078421 0.386764
O O3 0.436339 0.495569 0.082377
O O4 0.328287 0.912422 0.950130
O O5 0.290941 0.038246 0.274872
O O6 0.318112 0.477173 0.130452
O O7 0.343566 0.145171 0.641042
O O8 0.500000 0.500000 0.000000
O O9 0.500000 0.000000 0.000000
O O10 0.162690 0.065350 0.632510
O O11 0.202828 0.084362 0.925795
O O12 0.219061 0.933101 0.498350
O O13 0.104074 0.498795 0.260857
O O14 0.030249 0.974888 0.198637
O O15 0.727175 0.420050 0.673580
O O16 0.851320 0.051103 0.830861
O O17 0.881656 0.787129 0.998359
#
# Coordination Sequence:
#
# PCOD8012549 Si02
#       8
#     2   2   2   2   2   2   2   2
#     4  10  23  39  61  90 129 176 226 266 334 407
#     4  10  21  40  61  87 129 174 220 266 335 406
#     4  12  29  42  68 106 141 180 230 285 344 408
#     4  11  22  39  65  94 129 175 215 286 335 410
#     4  10  23  41  68  96 126 168 229 279 348 404
#     4  11  23  43  68  90 137 174 227 275 343 404
#     4  10  23  39  63  95 128 176 218 275 348 403
#     4  10  22  43  67  94 127 172 222 286 340 411
#
# _framework density 22.635490000000001
#
# number of rings (size 3 to 8) (size 9 to 14) (size 15 to 20)
#    0.000    1.500    0.000    3.750   10.500    1.500 
#    0.000    2.500    0.000    0.000    0.000    0.000 
#    0.000    0.000    0.000    0.000    0.000    0.000 
#
# Total GULP energy -198326.432219 kJ/mol
# GULP energy per Si atom -12395.402014 kJ/mol
# Density = 2.258397 g / cm^3
# Si number density = 22.635490 Si / 1000 Ang^3
#
#
#
# Elastic Constant Matrix: (Units=GPa)
#
#
# Indices 1 2 3 4 5 6 
#
# 1 69.3219 15.9940 28.5796 4.3206 -2.2606 -13.5461
# 2 15.9940 127.2822 35.5679 2.2660 3.9482 -16.3962
# 3 28.5796 35.5679 110.6502 -3.0078 0.5755 -10.7444
# 4 4.3206 2.2660 -3.0078 30.7705 -0.7775 -0.6956
# 5 -2.2606 3.9482 0.5755 -0.7775 30.7153 0.7573
# 6 -13.5461 -16.3962 -10.7444 -0.6956 0.7573 34.5200
#
#
#
# Elastic Compliance Matrix: (Units=1/GPa)
#
#
# Indices 1 2 3 4 5 6 
#
# 1 0.017379 -0.000391 -0.003924 -0.002644 0.001204 0.005333
# 2 -0.000391 0.009098 -0.002509 -0.000815 -0.001256 0.003398
# 3 -0.003924 -0.002509 0.010978 0.001822 -0.000144 0.000725
# 4 -0.002644 -0.000815 0.001822 0.033121 0.000720 -0.000206
# 5 0.001204 -0.001256 -0.000144 0.000720 0.032850 -0.000875
# 6 0.005333 0.003398 0.000725 -0.000206 -0.000875 0.032916
#
#
# Mechanical properties :
#
#
# Convention : Reuss Voigt Hill
#
# Bulk Modulus (GPa) = 42.00161 51.94859 46.97510
# Shear Modulus (GPa) = 31.66030 34.34202 33.00116
#
# Velocity S-wave (km/s) = 3.74398 3.89932 3.82244
# Velocity P-wave (km/s) = 6.10621 6.57821 6.34660
#
# Compressibility (1/GPa) = 0.02380861
#
# Stress axis : x y z
#
# Youngs Moduli (GPa) = 57.53925 109.91363 91.08983
#
# Poissons Ratio (x) = 0.04294 0.35740
# Poissons Ratio (y) = 0.02248 0.22857
# Poissons Ratio (z) = 0.22576 0.27580
#
# Static dielectric constant tensor:
#      x y z
#    x 4.244560 -0.229700 0.100420 
#    y -0.229700 4.076180 -0.077360 
#    z 0.100420 -0.077360 3.969680 
# 
# 
# High freq. dielectric constant tensor:
#      x y z
#    x 1.903910 -0.012170 0.003180 
#    y -0.012170 1.891770 -0.001170 
#    z 0.003180 -0.001170 1.880850 
# 
# From -- ./inp_files/39248.got.cif
#   From: 2010.06.25/outbox.cif.g09.slc.cpg/sg2_20_cif.got.tgz:39248.got - 2010.06.27 13:26:56.
