data_PCOD8012638
_publ_section_title
;
Structure prediction by ZEFSAII (Michael W. Deem and Ramdas Pophale) SiO2 
 PCOD8012638
Probable space group: P -1
;
_chemical_formula_sum "Si O2"
_cell_formula_units_Z 16
_cell_length_a 19.717789
_cell_length_b 21.585706
_cell_length_c 8.310389
_cell_angle_alpha 42.804420
_cell_angle_beta 54.473489
_cell_angle_gamma 21.080215
_cell_volume 783.115600
_symmetry_space_group_name_H-M "P -1"
_symmetry_group_IT_number 2
_symmetry_cell_setting 'triclinic'
loop_
_space_group_symop_operation_xyz
x,y,z
-x,-y,-z
loop_
_atom_site_type_symbol
_atom_site_label
_atom_site_fract_x
_atom_site_fract_y
_atom_site_fract_z
Si Si1 0.445389 0.136108 0.197451
Si Si2 0.033304 0.109781 0.431587
Si Si3 0.979227 0.367337 0.007580
Si Si4 0.907488 0.751464 0.283306
Si Si5 0.716481 0.304552 0.001104
Si Si6 0.719969 0.305181 0.627972
Si Si7 0.152555 0.366148 0.902783
Si Si8 0.035446 0.102599 0.072438
O O1 0.251715 0.384173 0.073390
O O2 0.500000 0.000000 0.500000
O O3 0.660404 0.976552 0.184030
O O4 0.374136 0.173600 0.043959
O O5 0.795781 0.314951 0.396226
O O6 0.106193 0.023912 0.310350
O O7 0.058352 0.189681 0.299502
O O8 0.159366 0.915481 0.742727
O O9 0.969503 0.375966 0.811831
O O10 0.156893 0.264770 0.997929
O O11 0.044624 0.550444 0.591330
O O12 0.924504 0.836594 0.166196
O O13 0.797104 0.308788 0.990441
O O14 0.500000 0.500000 0.000000
O O15 0.711453 0.343532 0.751305
O O16 0.500000 0.500000 0.500000
O O17 0.854900 0.079094 0.849718
O O18 0.000000 0.500000 0.000000
#
# Coordination Sequence:
#
# PCOD8012638 Si02
#       8
#     2   2   2   2   2   2   2   2
#     4  11  23  42  65  93 125 176 213 257 326 374
#     4  10  21  40  62  89 125 158 203 261 312 370
#     4  10  23  42  64  94 129 163 213 269 314 379
#     4  11  23  44  64  93 133 163 214 269 315 379
#     4  11  22  41  63  91 126 161 210 253 312 387
#     4  11  22  37  61  88 119 166 200 252 314 367
#     4  10  21  40  65  91 127 166 209 264 311 375
#     4  10  22  40  62  90 122 161 202 261 315 369
#
# _framework density 20.431211999999999
#
# number of rings (size 3 to 8) (size 9 to 14) (size 15 to 20)
#    0.000    1.500    2.500    4.875    1.750    4.500 
#    4.500    0.000    0.000    0.000    0.000    0.000 
#    0.000    0.000    0.000    0.000    0.000    0.000 
#
# Total GULP energy -198229.770681 kJ/mol
# GULP energy per Si atom -12389.360668 kJ/mol
# Density = 2.038471 g / cm^3
# Si number density = 20.431212 Si / 1000 Ang^3
#
#
#
# Elastic Constant Matrix: (Units=GPa)
#
#
# Indices 1 2 3 4 5 6 
#
# 1 128.2573 39.5214 63.1049 -2.3552 -20.8073 -17.9334
# 2 39.5214 88.8518 20.6212 1.5115 -6.0868 -20.1481
# 3 63.1049 20.6212 109.2438 9.5102 -12.0760 -19.0622
# 4 -2.3552 1.5115 9.5102 25.3733 -8.0524 6.5075
# 5 -20.8073 -6.0868 -12.0760 -8.0524 38.5041 5.1315
# 6 -17.9334 -20.1481 -19.0622 6.5075 5.1315 41.6588
#
#
#
# Elastic Compliance Matrix: (Units=1/GPa)
#
#
# Indices 1 2 3 4 5 6 
#
# 1 0.013544 -0.004362 -0.007124 0.006383 0.005898 -0.001263
# 2 -0.004362 0.014342 0.001085 -0.003716 -0.001367 0.006304
# 3 -0.007124 0.001085 0.014574 -0.008112 -0.001548 0.005584
# 4 0.006383 -0.003716 -0.008112 0.050341 0.012466 -0.012161
# 5 0.005898 -0.001367 -0.001548 0.012466 0.031688 -0.004681
# 6 -0.001263 0.006304 0.005584 -0.012161 -0.004681 0.031541
#
#
# Mechanical properties :
#
#
# Convention : Reuss Voigt Hill
#
# Bulk Modulus (GPa) = 46.17371 63.64976 54.91173
# Shear Modulus (GPa) = 27.16639 34.64760 30.90700
#
# Velocity S-wave (km/s) = 3.65039 4.12250 3.89361
# Velocity P-wave (km/s) = 6.35734 7.34035 6.86646
#
# Compressibility (1/GPa) = 0.02165735
#
# Stress axis : x y z
#
# Youngs Moduli (GPa) = 73.83599 69.72470 68.61619
#
# Poissons Ratio (x) = 0.30411 0.48883
# Poissons Ratio (y) = 0.32204 -0.07443
# Poissons Ratio (z) = 0.52602 -0.07563
#
# Static dielectric constant tensor:
#      x y z
#    x 8.798710 -1.063170 2.127440 
#    y -1.063170 4.150260 -0.325060 
#    z 2.127440 -0.325060 4.463850 
# 
# 
# High freq. dielectric constant tensor:
#      x y z
#    x 1.807810 -0.005790 0.000200 
#    y -0.005790 1.800880 0.014520 
#    z 0.000200 0.014520 1.795600 
# 
# From -- ./inp_files/349860.got.cif
#   From: 2010.06.25/outbox.cif.g09.slc.cpg/sg2_175_cif.got.tgz:349860.got - 2010.06.27 13:26:56.
