data_PCOD8012951
_publ_section_title
;
Structure prediction by ZEFSAII (Michael W. Deem and Ramdas Pophale) SiO2 
 PCOD8012951
Probable space group: P -1
;
_chemical_formula_sum "Si O2"
_cell_formula_units_Z 12
_cell_length_a 11.242805
_cell_length_b 19.167490
_cell_length_c 7.219701
_cell_angle_alpha 129.157477
_cell_angle_beta 125.984367
_cell_angle_gamma 29.364292
_cell_volume 588.728520
_symmetry_space_group_name_H-M "P -1"
_symmetry_group_IT_number 2
_symmetry_cell_setting 'triclinic'
loop_
_space_group_symop_operation_xyz
x,y,z
-x,-y,-z
loop_
_atom_site_type_symbol
_atom_site_label
_atom_site_fract_x
_atom_site_fract_y
_atom_site_fract_z
Si Si1 0.768936 0.027167 0.168253
Si Si2 0.082419 0.427646 0.753171
Si Si3 0.590832 0.868073 0.263797
Si Si4 0.211273 0.514077 0.732608
Si Si5 0.093322 0.194251 0.855783
Si Si6 0.737780 0.230189 0.653091
O O1 0.663134 0.172307 0.393783
O O2 0.701610 0.972362 0.144126
O O3 0.638568 0.074166 0.932559
O O4 0.066554 0.886353 0.195334
O O5 0.291555 0.251237 0.672136
O O6 0.193482 0.455481 0.789618
O O7 0.861155 0.493902 0.544116
O O8 0.000000 0.500000 0.000000
O O9 0.794077 0.794663 0.173760
O O10 0.500000 0.000000 0.500000
O O11 0.497612 0.397954 0.787665
O O12 0.039183 0.683279 0.898554
O O13 0.879935 0.230311 0.643281
#
# Coordination Sequence:
#
# PCOD8012951 Si02
#       6
#     2   2   2   2   2   2
#     4   9  21  40  64  89 123 164 207 254 314 369
#     4  11  24  40  61  97 126 165 211 257 312 371
#     4  12  24  39  63  96 129 160 215 264 307 375
#     4  11  22  41  67  89 128 169 206 260 315 371
#     4  10  21  40  64  94 121 165 212 254 315 367
#     4   9  21  39  68  89 122 169 208 252 320 375
#
# _framework density 20.382911
#
# number of rings (size 3 to 8) (size 9 to 14) (size 15 to 20)
#    1.000    0.667    1.667    3.000    4.667    0.000 
#    0.000    5.833    0.000    0.000    0.000    0.000 
#    0.000    0.000    0.000    0.000    0.000    0.000 
#
# Total GULP energy -148663.064749 kJ/mol
# GULP energy per Si atom -12388.588729 kJ/mol
# Density = 2.033652 g / cm^3
# Si number density = 20.382911 Si / 1000 Ang^3
#
#
#
# Elastic Constant Matrix: (Units=GPa)
#
#
# Indices 1 2 3 4 5 6 
#
# 1 48.7606 21.4726 34.6029 -13.4222 13.6369 2.7682
# 2 21.4726 86.7950 42.0417 -6.0549 0.9364 -2.5485
# 3 34.6029 42.0417 111.8620 2.5303 5.1829 -3.4050
# 4 -13.4222 -6.0549 2.5303 33.9583 5.2609 2.3593
# 5 13.6369 0.9364 5.1829 5.2609 26.9048 3.3943
# 6 2.7682 -2.5485 -3.4050 2.3593 3.3943 38.3030
#
#
#
# Elastic Compliance Matrix: (Units=1/GPa)
#
#
# Indices 1 2 3 4 5 6 
#
# 1 0.042326 -0.003389 -0.011342 0.020743 -0.022758 -0.003554
# 2 -0.003389 0.014654 -0.004552 0.001300 0.001757 0.000579
# 3 -0.011342 -0.004552 0.014175 -0.007151 0.004344 0.001833
# 4 0.020743 0.001300 -0.007151 0.041237 -0.016854 -0.003095
# 5 -0.022758 0.001757 0.004344 -0.016854 0.051272 -0.001358
# 6 -0.003554 0.000579 0.001833 -0.003095 -0.001358 0.026877
#
#
# Mechanical properties :
#
#
# Convention : Reuss Voigt Hill
#
# Bulk Modulus (GPa) = 30.68601 49.29467 39.99034
# Shear Modulus (GPa) = 20.83584 29.78658 25.31121
#
# Velocity S-wave (km/s) = 3.20069 3.82691 3.52772
# Velocity P-wave (km/s) = 5.36159 6.61542 6.02123
#
# Compressibility (1/GPa) = 0.03258814
#
# Stress axis : x y z
#
# Youngs Moduli (GPa) = 23.62601 68.24282 70.54536
#
# Poissons Ratio (x) = 0.23128 0.80014
# Poissons Ratio (y) = 0.08007 0.32113
# Poissons Ratio (z) = 0.26797 0.31065
#
# Static dielectric constant tensor:
#      x y z
#    x 3.861940 0.275060 0.138270 
#    y 0.275060 3.943980 0.010580 
#    z 0.138270 0.010580 3.558430 
# 
# 
# High freq. dielectric constant tensor:
#      x y z
#    x 1.784760 0.004390 0.030940 
#    y 0.004390 1.809050 0.012750 
#    z 0.030940 0.012750 1.781250 
# 
# From -- ./inp_files/82921.got.cif
#   From: 2010.06.25/outbox.cif.g09.slc.cpg/sg2_42_cif.got.tgz:82921.got - 2010.06.27 13:26:56.
