data_PCOD8012507
_publ_section_title
;
Structure prediction by ZEFSAII (Michael W. Deem and Ramdas Pophale) SiO2 
 PCOD8012507
Probable space group: P -1
;
_chemical_formula_sum "Si O2"
_cell_formula_units_Z 14
_cell_length_a 7.810145
_cell_length_b 22.135302
_cell_length_c 8.126930
_cell_angle_alpha 38.345803
_cell_angle_beta 59.005892
_cell_angle_gamma 78.237109
_cell_volume 692.353433
_symmetry_space_group_name_H-M "P -1"
_symmetry_group_IT_number 2
_symmetry_cell_setting 'triclinic'
loop_
_space_group_symop_operation_xyz
x,y,z
-x,-y,-z
loop_
_atom_site_type_symbol
_atom_site_label
_atom_site_fract_x
_atom_site_fract_y
_atom_site_fract_z
Si Si1 0.696721 0.083355 0.628504
Si Si2 0.532849 0.198777 0.932124
Si Si3 0.138190 0.116423 0.504805
Si Si4 0.599474 0.262065 0.414275
Si Si5 0.791622 0.083981 0.209546
Si Si6 0.177888 0.249403 0.510938
Si Si7 0.917548 0.378984 0.258051
O O1 0.659747 0.193410 0.392683
O O2 0.738339 0.047553 0.502944
O O3 0.903342 0.105883 0.590813
O O4 0.500000 0.000000 0.000000
O O5 0.498601 0.181466 0.789603
O O6 0.728445 0.312071 0.622535
O O7 0.316121 0.199109 0.121420
O O8 0.590796 0.103702 0.183494
O O9 0.179046 0.159901 0.575389
O O10 0.164045 0.005156 0.725152
O O11 0.419036 0.304414 0.347791
O O12 0.813547 0.358294 0.168528
O O13 0.005734 0.190785 0.863777
O O14 0.114697 0.338614 0.261231
O O15 0.000000 0.500000 0.000000
#
# Coordination Sequence:
#
# PCOD8012507 Si02
#       7
#     2   2   2   2   2   2   2
#     4  12  23  37  58  92 130 167 206 244 298 368
#     4   9  21  38  59  89 120 160 207 250 303 358
#     4  12  21  37  57  88 129 164 207 247 298 366
#     4  10  21  40  60  90 125 156 207 247 307 358
#     4  11  22  36  58  89 127 168 204 244 302 362
#     4  11  22  39  64  91 123 164 202 254 306 359
#     4   9  21  43  66  89 122 155 206 262 310 359
#
# _framework density 20.220887000000001
#
# number of rings (size 3 to 8) (size 9 to 14) (size 15 to 20)
#    0.857    0.571    1.429    4.714    0.000    2.857 
#    0.000    0.714    0.000    4.286    0.000    0.000 
#    0.000    0.000    0.000    0.000    0.000    0.000 
#
# Total GULP energy -173539.237799 kJ/mol
# GULP energy per Si atom -12395.659843 kJ/mol
# Density = 2.017486 g / cm^3
# Si number density = 20.220887 Si / 1000 Ang^3
#
#
#
# Elastic Constant Matrix: (Units=GPa)
#
#
# Indices 1 2 3 4 5 6 
#
# 1 155.8112 37.6898 25.3553 -11.5820 -15.3083 -11.7603
# 2 37.6898 96.7948 38.9299 -11.4565 -3.6015 -3.7050
# 3 25.3553 38.9299 62.7794 -9.0091 -4.7671 -9.0464
# 4 -11.5820 -11.4565 -9.0091 32.9258 1.5369 -0.0234
# 5 -15.3083 -3.6015 -4.7671 1.5369 23.9681 9.1810
# 6 -11.7603 -3.7050 -9.0464 -0.0234 9.1810 30.4577
#
#
#
# Elastic Compliance Matrix: (Units=1/GPa)
#
#
# Indices 1 2 3 4 5 6 
#
# 1 0.007702 -0.002209 -0.001062 0.001474 0.003805 0.001244
# 2 -0.002209 0.014634 -0.008106 0.002117 -0.000445 -0.001345
# 3 -0.001062 -0.008106 0.022590 0.002971 0.000419 0.005190
# 4 0.001474 0.002117 0.002971 0.032488 -0.001014 0.002040
# 5 0.003805 -0.000445 0.000419 -0.001014 0.049342 -0.013335
# 6 0.001244 -0.001345 0.005190 0.002040 -0.013335 0.038712
#
#
# Mechanical properties :
#
#
# Convention : Reuss Voigt Hill
#
# Bulk Modulus (GPa) = 45.09854 57.70393 51.40123
# Shear Modulus (GPa) = 25.56077 31.69769 28.62923
#
# Velocity S-wave (km/s) = 3.55924 3.96355 3.76683
# Velocity P-wave (km/s) = 6.26437 7.03883 6.66286
#
# Compressibility (1/GPa) = 0.02217367
#
# Stress axis : x y z
#
# Youngs Moduli (GPa) = 129.83087 68.33447 44.26667
#
# Poissons Ratio (x) = 0.15092 0.04699
# Poissons Ratio (y) = 0.28674 0.35884
# Poissons Ratio (z) = 0.13782 0.55394
#
# Static dielectric constant tensor:
#      x y z
#    x 3.777010 -0.122740 -0.185880 
#    y -0.122740 3.523140 0.245110 
#    z -0.185880 0.245110 3.383030 
# 
# 
# High freq. dielectric constant tensor:
#      x y z
#    x 1.804850 -0.006750 -0.014140 
#    y -0.006750 1.774250 0.017140 
#    z -0.014140 0.017140 1.759100 
# 
# From -- ./inp_files/220218.got.cif
#   From: 2010.06.25/outbox.cif.g09.slc.cpg/sg2_111_cif.got.tgz:220218.got - 2010.06.27 13:26:56.
