data_PCOD8012862
_publ_section_title
;
Structure prediction by ZEFSAII (Michael W. Deem and Ramdas Pophale) SiO2 
 PCOD8012862
Probable space group: P -1
;
_chemical_formula_sum "Si O2"
_cell_formula_units_Z 14
_cell_length_a 12.319098
_cell_length_b 8.870762
_cell_length_c 8.973788
_cell_angle_alpha 57.565363
_cell_angle_beta 53.262224
_cell_angle_gamma 73.874072
_cell_volume 661.938059
_symmetry_space_group_name_H-M "P -1"
_symmetry_group_IT_number 2
_symmetry_cell_setting 'triclinic'
loop_
_space_group_symop_operation_xyz
x,y,z
-x,-y,-z
loop_
_atom_site_type_symbol
_atom_site_label
_atom_site_fract_x
_atom_site_fract_y
_atom_site_fract_z
Si Si1 0.788406 0.917041 0.269429
Si Si2 0.631877 0.983735 0.086515
Si Si3 0.751528 0.325455 0.685784
Si Si4 0.546486 0.745675 0.030097
Si Si5 0.023218 0.756672 0.974037
Si Si6 0.997684 0.648637 0.729536
Si Si7 0.773496 0.656615 0.686368
O O1 0.656323 0.932728 0.264872
O O2 0.742877 0.802961 0.510768
O O3 0.897415 0.812077 0.144415
O O4 0.845118 0.113582 0.168340
O O5 0.489187 0.077818 0.131031
O O6 0.627420 0.806640 0.081113
O O7 0.755370 0.125430 0.857539
O O8 0.844977 0.341671 0.454676
O O9 0.806716 0.468044 0.687522
O O10 0.595024 0.365760 0.751626
O O11 0.642069 0.626537 0.916700
O O12 0.985506 0.767031 0.824800
O O13 0.058734 0.555425 0.088986
O O14 0.904931 0.728950 0.634680
#
# Coordination Sequence:
#
# PCOD8012862 Si02
#       7
#     2   2   2   2   2   2   2
#     4  11  23  37  60  94 123 153 197 253 296 350
#     4   9  21  41  63  80 126 157 199 241 297 348
#     4  10  21  40  64  87 118 162 198 246 291 358
#     4   9  22  41  65  84 120 162 201 241 294 360
#     4  10  24  40  58  90 128 153 197 249 302 349
#     4  11  23  41  64  88 119 162 200 243 298 358
#     4  12  23  37  65  93 119 157 202 242 301 354
#
# _framework density 21.150015
#
# number of rings (size 3 to 8) (size 9 to 14) (size 15 to 20)
#    0.857    0.857    1.429    2.571    6.000    1.143 
#    0.000    0.714    0.000    0.000    0.000    0.000 
#    0.000    0.000    0.000    0.000    0.000    0.000 
#
# Total GULP energy -173582.951368 kJ/mol
# GULP energy per Si atom -12398.782241 kJ/mol
# Density = 2.110188 g / cm^3
# Si number density = 21.150015 Si / 1000 Ang^3
#
#
#
# Elastic Constant Matrix: (Units=GPa)
#
#
# Indices 1 2 3 4 5 6 
#
# 1 119.9149 19.5852 40.2356 2.8020 17.6728 23.3693
# 2 19.5852 59.7527 17.7159 10.9585 5.3965 19.0891
# 3 40.2356 17.7159 87.3710 9.5004 -2.8077 10.8778
# 4 2.8020 10.9585 9.5004 24.4471 -4.9297 -0.4004
# 5 17.6728 5.3965 -2.8077 -4.9297 35.2087 7.6345
# 6 23.3693 19.0891 10.8778 -0.4004 7.6345 29.1512
#
#
#
# Elastic Compliance Matrix: (Units=1/GPa)
#
#
# Indices 1 2 3 4 5 6 
#
# 1 0.011980 0.000211 -0.004820 -0.000731 -0.005097 -0.006619
# 2 0.000211 0.024181 -0.002062 -0.010763 -0.002278 -0.014786
# 3 -0.004820 -0.002062 0.014749 -0.003530 0.003701 -0.001307
# 4 -0.000731 -0.010763 -0.003530 0.048696 0.006857 0.007824
# 5 -0.005097 -0.002278 0.003701 0.006857 0.033539 -0.004493
# 6 -0.006619 -0.014786 -0.001307 0.007824 -0.004493 0.051064
#
#
# Mechanical properties :
#
#
# Convention : Reuss Voigt Hill
#
# Bulk Modulus (GPa) = 26.61877 46.90133 36.76005
# Shear Modulus (GPa) = 23.80118 30.39487 27.09802
#
# Velocity S-wave (km/s) = 3.35826 3.79503 3.58331
# Velocity P-wave (km/s) = 5.25835 6.43636 5.87695
#
# Compressibility (1/GPa) = 0.03756748
#
# Stress axis : x y z
#
# Youngs Moduli (GPa) = 83.47051 41.35459 67.80217
#
# Poissons Ratio (x) = -0.00874 0.32682
# Poissons Ratio (y) = -0.01763 0.13984
# Poissons Ratio (z) = 0.40234 0.08529
#
# Static dielectric constant tensor:
#      x y z
#    x 3.672330 0.216340 0.047680 
#    y 0.216340 3.724380 0.036320 
#    z 0.047680 0.036320 3.576990 
# 
# 
# High freq. dielectric constant tensor:
#      x y z
#    x 1.823830 0.018280 0.000990 
#    y 0.018280 1.829620 0.007110 
#    z 0.000990 0.007110 1.807610 
# 
# From -- ./inp_files/242443.got.cif
#   From: 2010.06.25/outbox.cif.g09.slc.cpg/sg2_122_cif.got.tgz:242443.got - 2010.06.27 13:26:56.
