data_PCOD8012139
_publ_section_title
;
Structure prediction by ZEFSAII (Michael W. Deem and Ramdas Pophale) SiO2 
 PCOD8012139
Probable space group: P -1
;
_chemical_formula_sum "Si O2"
_cell_formula_units_Z 16
_cell_length_a 11.992074
_cell_length_b 13.393633
_cell_length_c 8.116947
_cell_angle_alpha 123.062865
_cell_angle_beta 94.674685
_cell_angle_gamma 45.762400
_cell_volume 678.769141
_symmetry_space_group_name_H-M "P -1"
_symmetry_group_IT_number 2
_symmetry_cell_setting 'triclinic'
loop_
_space_group_symop_operation_xyz
x,y,z
-x,-y,-z
loop_
_atom_site_type_symbol
_atom_site_label
_atom_site_fract_x
_atom_site_fract_y
_atom_site_fract_z
Si Si1 0.779940 0.508567 0.296987
Si Si2 0.929178 0.611817 0.257487
Si Si3 0.509402 0.542014 0.215532
Si Si4 0.380763 0.795692 0.003704
Si Si5 0.248626 0.468672 0.322701
Si Si6 0.122265 0.828437 0.538216
Si Si7 0.872553 0.944130 0.097661
Si Si8 0.803427 0.972062 0.478549
O O1 0.795477 0.627182 0.332409
O O2 0.627067 0.562530 0.233450
O O3 0.694703 0.599597 0.546273
O O4 0.969671 0.282588 0.112092
O O5 0.823908 0.821049 0.406368
O O6 0.102202 0.491398 0.282590
O O7 0.000000 0.500000 0.000000
O O8 0.597321 0.364530 0.179579
O O9 0.303291 0.743238 0.418491
O O10 0.500000 0.500000 0.000000
O O11 0.577365 0.691235 0.915345
O O12 0.246358 0.961347 0.999006
O O13 0.327708 0.861010 0.248220
O O14 0.166998 0.669218 0.491538
O O15 0.984166 0.904761 0.444915
O O16 0.044391 0.990654 0.805593
O O17 0.758493 0.003913 0.304872
#
# Coordination Sequence:
#
# PCOD8012139 Si02
#       8
#     2   2   2   2   2   2   2   2
#     4  12  24  42  72  98 132 182 226 277 334 399
#     4  11  24  47  70  93 128 180 236 275 330 398
#     4  11  23  40  68 104 139 176 220 272 338 404
#     4  11  25  43  68 103 141 172 216 280 340 402
#     4  10  24  44  68  98 135 174 225 277 332 402
#     4  10  21  39  66  99 137 171 218 275 337 402
#     4  12  22  39  66 102 135 172 222 270 342 402
#     4  11  23  44  69  97 133 180 226 279 332 395
#
# _framework density 23.57208
#
# number of rings (size 3 to 8) (size 9 to 14) (size 15 to 20)
#    0.000    1.000    1.250    6.000    3.500    3.500 
#    0.000    4.375    0.000    0.000    0.000    0.000 
#    0.000    0.000    0.000    0.000    0.000    0.000 
#
# Total GULP energy -198271.930020 kJ/mol
# GULP energy per Si atom -12391.995626 kJ/mol
# Density = 2.351843 g / cm^3
# Si number density = 23.572080 Si / 1000 Ang^3
#
#
#
# Elastic Constant Matrix: (Units=GPa)
#
#
# Indices 1 2 3 4 5 6 
#
# 1 167.7765 25.8422 37.9677 1.3675 1.6795 2.4843
# 2 25.8422 62.5705 22.5736 -1.6518 -6.8502 -8.6114
# 3 37.9677 22.5736 102.3269 -2.6860 -10.2810 6.5725
# 4 1.3675 -1.6518 -2.6860 48.5883 5.9330 2.9925
# 5 1.6795 -6.8502 -10.2810 5.9330 38.2683 -6.0324
# 6 2.4843 -8.6114 6.5725 2.9925 -6.0324 21.8958
#
#
#
# Elastic Compliance Matrix: (Units=1/GPa)
#
#
# Indices 1 2 3 4 5 6 
#
# 1 0.006843 -0.002466 -0.002052 -0.000110 -0.001518 -0.001534
# 2 -0.002466 0.020340 -0.003827 -0.000666 0.004521 0.010765
# 3 -0.002052 -0.003827 0.011859 0.000637 0.001795 -0.004424
# 4 -0.000110 -0.000666 0.000637 0.021354 -0.003955 -0.004448
# 5 -0.001518 0.004521 0.001795 -0.003955 0.029700 0.010135
# 6 -0.001534 0.010765 -0.004424 -0.004448 0.010135 0.054807
#
#
# Mechanical properties :
#
#
# Convention : Reuss Voigt Hill
#
# Bulk Modulus (GPa) = 44.73656 56.16009 50.44832
# Shear Modulus (GPa) = 29.57813 38.16983 33.87398
#
# Velocity S-wave (km/s) = 3.54615 4.02840 3.79494
# Velocity P-wave (km/s) = 5.98220 6.74639 6.37576
#
# Compressibility (1/GPa) = 0.02235308
#
# Stress axis : x y z
#
# Youngs Moduli (GPa) = 146.12755 49.16430 84.32131
#
# Poissons Ratio (x) = 0.12125 0.17303
# Poissons Ratio (y) = 0.36038 0.32267
# Poissons Ratio (z) = 0.29986 0.18813
#
# Static dielectric constant tensor:
#      x y z
#    x 3.938750 0.021740 0.083290 
#    y 0.021740 4.780900 0.507330 
#    z 0.083290 0.507330 4.269880 
# 
# 
# High freq. dielectric constant tensor:
#      x y z
#    x 1.926030 0.013190 -0.001720 
#    y 0.013190 1.942330 -0.001180 
#    z -0.001720 -0.001180 1.941550 
# 
# From -- ./inp_files/274397.got.cif
#   From: 2010.06.25/outbox.cif.g09.slc.cpg/sg2_138_cif.got.tgz:274397.got - 2010.06.27 13:26:56.
