data_PCOD8012479
_publ_section_title
;
Structure prediction by ZEFSAII (Michael W. Deem and Ramdas Pophale) SiO2 
 PCOD8012479
Probable space group: P -1
;
_chemical_formula_sum "Si O2"
_cell_formula_units_Z 16
_cell_length_a 8.383690
_cell_length_b 10.947344
_cell_length_c 15.189722
_cell_angle_alpha 87.053344
_cell_angle_beta 75.070090
_cell_angle_gamma 140.833430
_cell_volume 775.366691
_symmetry_space_group_name_H-M "P -1"
_symmetry_group_IT_number 2
_symmetry_cell_setting 'triclinic'
loop_
_space_group_symop_operation_xyz
x,y,z
-x,-y,-z
loop_
_atom_site_type_symbol
_atom_site_label
_atom_site_fract_x
_atom_site_fract_y
_atom_site_fract_z
Si Si1 0.768966 0.804869 0.895516
Si Si2 0.676542 0.538884 0.583996
Si Si3 0.660403 0.023815 0.552988
Si Si4 0.622618 0.406617 0.407412
Si Si5 0.597332 0.783312 0.221808
Si Si6 0.723066 0.170525 0.727957
Si Si7 0.288995 0.360054 0.913169
Si Si8 0.716171 0.045214 0.915028
O O1 0.543089 0.613108 0.866004
O O2 0.648417 0.861056 0.947214
O O3 0.815621 0.735692 0.970134
O O4 0.075667 0.008831 0.796303
O O5 0.565115 0.408988 0.515868
O O6 0.495652 0.550799 0.634562
O O7 0.620134 0.402562 0.669444
O O8 0.006627 0.774826 0.524572
O O9 0.607968 0.051179 0.655317
O O10 0.500000 0.000000 0.500000
O O11 0.552186 0.820235 0.581706
O O12 0.955070 0.584703 0.335460
O O13 0.480204 0.844162 0.209458
O O14 0.595866 0.697095 0.139992
O O15 0.705050 0.058218 0.810876
O O16 0.033965 0.266396 0.897398
O O17 0.500000 0.000000 0.000000
#
# Coordination Sequence:
#
# PCOD8012479 Si02
#       8
#     2   2   2   2   2   2   2   2
#     4  10  22  40  61  87 118 155 200 241 292 357
#     4  10  22  38  60  87 113 154 198 241 297 356
#     4  11  23  40  61  87 121 157 197 248 299 349
#     4  10  21  40  60  83 119 152 194 247 295 349
#     4  11  21  38  60  84 119 154 194 244 294 347
#     4  11  24  38  59  90 118 156 202 240 295 359
#     4  10  22  40  62  87 117 158 199 240 294 352
#     4  11  22  40  63  89 124 157 192 245 297 345
#
# _framework density 20.635397000000001
#
# number of rings (size 3 to 8) (size 9 to 14) (size 15 to 20)
#    0.000    1.500    0.000    6.375    0.000    7.500 
#    0.000    1.250    0.000    0.000    0.000    0.000 
#    0.000    0.000    0.000    0.000    0.000    0.000 
#
# Total GULP energy -198435.442485 kJ/mol
# GULP energy per Si atom -12402.215155 kJ/mol
# Density = 2.058843 g / cm^3
# Si number density = 20.635397 Si / 1000 Ang^3
#
#
#
# Elastic Constant Matrix: (Units=GPa)
#
#
# Indices 1 2 3 4 5 6 
#
# 1 114.3809 45.6629 26.2092 8.7557 -15.2781 2.9075
# 2 45.6629 156.9273 33.4138 -0.4531 -14.4165 0.9318
# 3 26.2092 33.4138 79.3684 2.3451 -2.8646 6.2892
# 4 8.7557 -0.4531 2.3451 24.7427 0.8164 9.5464
# 5 -15.2781 -14.4165 -2.8646 0.8164 44.5463 3.1172
# 6 2.9075 0.9318 6.2892 9.5464 3.1172 26.9605
#
#
#
# Elastic Compliance Matrix: (Units=1/GPa)
#
#
# Indices 1 2 3 4 5 6 
#
# 1 0.010934 -0.002421 -0.002415 -0.003992 0.002846 0.000552
# 2 -0.002421 0.007737 -0.002436 0.001193 0.001497 -0.000033
# 3 -0.002415 -0.002436 0.014644 0.000697 -0.000459 -0.003265
# 4 -0.003992 0.001193 0.000697 0.048286 -0.000648 -0.016796
# 5 0.002846 0.001497 -0.000459 -0.000648 0.024088 -0.002807
# 6 0.000552 -0.000033 -0.003265 -0.016796 -0.002807 0.044066
#
#
# Mechanical properties :
#
#
# Convention : Reuss Voigt Hill
#
# Bulk Modulus (GPa) = 53.27242 62.36096 57.81669
# Shear Modulus (GPa) = 29.31589 35.60927 32.46258
#
# Velocity S-wave (km/s) = 3.77325 4.15859 3.97060
# Velocity P-wave (km/s) = 6.69741 7.30373 7.00713
#
# Compressibility (1/GPa) = 0.01877144
#
# Stress axis : x y z
#
# Youngs Moduli (GPa) = 91.45711 129.25335 68.28707
#
# Poissons Ratio (x) = 0.31290 0.16489
# Poissons Ratio (y) = 0.22140 0.16637
# Poissons Ratio (z) = 0.22083 0.31490
#
# Static dielectric constant tensor:
#      x y z
#    x 3.803830 0.022210 0.023020 
#    y 0.022210 3.821710 -0.000240 
#    z 0.023020 -0.000240 3.681880 
# 
# 
# High freq. dielectric constant tensor:
#      x y z
#    x 1.816250 -0.000340 -0.000230 
#    y -0.000340 1.810470 -0.003220 
#    z -0.000230 -0.003220 1.805240 
# 
# From -- ./inp_files/500405.got.cif
#   From: 2010.06.25/outbox.cif.g09.slc.cpg/sg2_251_cif.got.tgz:500405.got - 2010.06.27 13:26:56.
