data_PCOD8012594
_publ_section_title
;
Structure prediction by ZEFSAII (Michael W. Deem and Ramdas Pophale) SiO2 
 PCOD8012594
Probable space group: P -1
;
_chemical_formula_sum "Si O2"
_cell_formula_units_Z 16
_cell_length_a 10.128740
_cell_length_b 7.392971
_cell_length_c 13.932231
_cell_angle_alpha 77.303691
_cell_angle_beta 125.862617
_cell_angle_gamma 74.260055
_cell_volume 711.440948
_symmetry_space_group_name_H-M "P -1"
_symmetry_group_IT_number 2
_symmetry_cell_setting 'triclinic'
loop_
_space_group_symop_operation_xyz
x,y,z
-x,-y,-z
loop_
_atom_site_type_symbol
_atom_site_label
_atom_site_fract_x
_atom_site_fract_y
_atom_site_fract_z
Si Si1 0.636000 0.450371 0.964861
Si Si2 0.750306 0.745549 0.894981
Si Si3 0.487537 0.567405 0.277980
Si Si4 0.922846 0.008174 0.226378
Si Si5 0.691083 0.115949 0.508583
Si Si6 0.061116 0.790315 0.112892
Si Si7 0.546463 0.090493 0.101308
Si Si8 0.488129 0.892605 0.375541
O O1 0.730820 0.535349 0.914237
O O2 0.514394 0.395586 0.843722
O O3 0.518374 0.648819 0.968635
O O4 0.811261 0.248642 0.110050
O O5 0.572479 0.930083 0.861198
O O6 0.703247 0.877551 0.759971
O O7 0.953878 0.674823 0.035108
O O8 0.625576 0.316948 0.387019
O O9 0.283226 0.637952 0.226618
O O10 0.560682 0.710485 0.345595
O O11 0.772886 0.967389 0.227254
O O12 0.086353 0.985625 0.367971
O O13 0.001196 0.841824 0.191854
O O14 0.570667 0.191773 0.546562
O O15 0.658871 0.936050 0.464669
O O16 0.000000 0.000000 0.000000
O O17 0.500000 0.000000 0.000000
#
# Coordination Sequence:
#
# PCOD8012594 Si02
#       8
#     2   2   2   2   2   2   2   2
#     4  10  23  39  68  94 127 172 210 274 321 379
#     4  10  21  40  61  98 123 165 212 268 322 369
#     4  12  23  42  64  96 135 171 213 256 337 382
#     4  12  21  42  64  97 128 165 222 265 322 377
#     4  11  25  41  64  95 133 176 210 264 322 396
#     4  12  21  35  66  97 126 166 207 271 321 388
#     4  10  22  42  65  95 131 163 219 275 321 374
#     4  11  22  41  61  90 136 167 210 263 321 385
#
# _framework density 22.489567999999998
#
# number of rings (size 3 to 8) (size 9 to 14) (size 15 to 20)
#    0.750    0.250    6.250    0.750    0.000    2.500 
#    2.250    2.500    0.000    1.500    0.000    0.000 
#    0.000    0.000    0.000    0.000    0.000    0.000 
#
# Total GULP energy -198301.857600 kJ/mol
# GULP energy per Si atom -12393.866100 kJ/mol
# Density = 2.243838 g / cm^3
# Si number density = 22.489568 Si / 1000 Ang^3
#
#
#
# Elastic Constant Matrix: (Units=GPa)
#
#
# Indices 1 2 3 4 5 6 
#
# 1 44.5118 3.4888 27.8232 4.4259 21.1602 -7.2612
# 2 3.4888 92.0626 31.7406 24.4513 8.7990 -3.0542
# 3 27.8232 31.7406 138.2011 7.0777 25.6637 0.4973
# 4 4.4259 24.4513 7.0777 43.2162 11.0222 1.3575
# 5 21.1602 8.7990 25.6637 11.0222 34.9243 3.1793
# 6 -7.2612 -3.0542 0.4973 1.3575 3.1793 30.6905
#
#
#
# Elastic Compliance Matrix: (Units=1/GPa)
#
#
# Indices 1 2 3 4 5 6 
#
# 1 0.036502 0.002200 -0.004044 0.000667 -0.020915 0.011058
# 2 0.002200 0.014023 -0.003225 -0.007628 -0.000301 0.002337
# 3 -0.004044 -0.003225 0.009477 0.001783 -0.004166 -0.001079
# 4 0.000667 -0.007628 0.001783 0.029418 -0.008986 -0.001001
# 5 -0.020915 -0.000301 -0.004166 -0.008986 0.048144 -0.009501
# 6 0.011058 0.002337 -0.001079 -0.001001 -0.009501 0.036478
#
#
# Mechanical properties :
#
#
# Convention : Reuss Voigt Hill
#
# Bulk Modulus (GPa) = 20.05513 44.54232 32.29873
# Shear Modulus (GPa) = 24.90025 35.88107 30.39066
#
# Velocity S-wave (km/s) = 3.33106 3.99865 3.68002
# Velocity P-wave (km/s) = 4.87150 6.41620 5.69645
#
# Compressibility (1/GPa) = 0.04986255
#
# Stress axis : x y z
#
# Youngs Moduli (GPa) = 27.39605 71.31137 105.51996
#
# Poissons Ratio (x) = -0.15687 0.42670
# Poissons Ratio (y) = -0.06026 0.34034
# Poissons Ratio (z) = 0.11078 0.23001
#
# Static dielectric constant tensor:
#      x y z
#    x 4.453080 0.020040 -0.011340 
#    y 0.020040 4.191200 0.210200 
#    z -0.011340 0.210200 4.122680 
# 
# 
# High freq. dielectric constant tensor:
#      x y z
#    x 1.879020 0.008190 -0.001610 
#    y 0.008190 1.895150 0.017900 
#    z -0.001610 0.017900 1.874640 
# 
# From -- ./inp_files/514329.got.cif
#   From: 2010.06.25/outbox.cif.g09.slc.cpg/sg2_258_cif.got.tgz:514329.got - 2010.06.27 13:26:56.
