data_PCOD8012309
_publ_section_title
;
Structure prediction by ZEFSAII (Michael W. Deem and Ramdas Pophale) SiO2 
 PCOD8012309
Probable space group: P -1
;
_chemical_formula_sum "Si O2"
_cell_formula_units_Z 16
_cell_length_a 8.849211
_cell_length_b 10.957054
_cell_length_c 14.899886
_cell_angle_alpha 57.223465
_cell_angle_beta 105.829448
_cell_angle_gamma 60.313787
_cell_volume 709.204137
_symmetry_space_group_name_H-M "P -1"
_symmetry_group_IT_number 2
_symmetry_cell_setting 'triclinic'
loop_
_space_group_symop_operation_xyz
x,y,z
-x,-y,-z
loop_
_atom_site_type_symbol
_atom_site_label
_atom_site_fract_x
_atom_site_fract_y
_atom_site_fract_z
Si Si1 0.257192 0.049222 0.288045
Si Si2 0.708061 0.395408 0.001556
Si Si3 0.226513 0.439893 0.669787
Si Si4 0.916824 0.766107 0.332429
Si Si5 0.037367 0.416448 0.245928
Si Si6 0.296482 0.740816 0.135372
Si Si7 0.379583 0.229998 0.111174
Si Si8 0.693593 0.531607 0.637409
O O1 0.351172 0.100496 0.211552
O O2 0.206109 0.165686 0.328031
O O3 0.477741 0.765621 0.447120
O O4 0.003253 0.146439 0.178078
O O5 0.648739 0.352357 0.919069
O O6 0.697252 0.578651 0.913255
O O7 0.500000 0.500000 0.000000
O O8 0.213704 0.294776 0.677978
O O9 0.058899 0.574812 0.678725
O O10 0.525991 0.251040 0.816707
O O11 0.102454 0.643062 0.497902
O O12 0.070208 0.696538 0.295767
O O13 0.670825 0.050039 0.195996
O O14 0.213189 0.427077 0.287210
O O15 0.802135 0.639470 0.056872
O O16 0.404670 0.538055 0.300271
O O17 0.000000 0.000000 0.000000
#
# Coordination Sequence:
#
# PCOD8012309 Si02
#       8
#     2   2   2   2   2   2   2   2
#     4  11  22  42  69  95 138 173 230 283 332 403
#     4  11  26  46  68 102 137 183 221 273 349 403
#     4  10  23  44  63  97 136 174 225 278 339 399
#     4  10  24  42  68  97 131 180 226 282 334 393
#     4  10  21  39  69 100 129 176 228 283 330 393
#     4  12  28  43  69  99 141 178 224 277 341 413
#     4  11  22  41  73  97 133 176 233 277 335 394
#     4  11  25  41  66 102 136 177 227 277 348 396
#
# _framework density 22.560500000000001
#
# number of rings (size 3 to 8) (size 9 to 14) (size 15 to 20)
#    0.000    1.250    0.000    7.125    8.750    3.500 
#    0.000    1.875    0.000    0.000    0.000    0.000 
#    0.000    0.000    0.000    0.000    0.000    0.000 
#
# Total GULP energy -198436.041482 kJ/mol
# GULP energy per Si atom -12402.252593 kJ/mol
# Density = 2.250915 g / cm^3
# Si number density = 22.560500 Si / 1000 Ang^3
#
#
#
# Elastic Constant Matrix: (Units=GPa)
#
#
# Indices 1 2 3 4 5 6 
#
# 1 73.1674 23.4981 25.1111 10.4227 7.1127 -9.3719
# 2 23.4981 92.5244 51.1466 8.8996 7.6871 -14.9346
# 3 25.1111 51.1466 109.8021 1.5492 11.0614 -0.3859
# 4 10.4227 8.8996 1.5492 40.4547 -1.6868 5.6501
# 5 7.1127 7.6871 11.0614 -1.6868 41.7425 0.5339
# 6 -9.3719 -14.9346 -0.3859 5.6501 0.5339 27.2738
#
#
#
# Elastic Compliance Matrix: (Units=1/GPa)
#
#
# Indices 1 2 3 4 5 6 
#
# 1 0.016739 -0.000847 -0.003125 -0.004979 -0.002150 0.006318
# 2 -0.000847 0.017521 -0.007727 -0.004824 -0.001360 0.010220
# 3 -0.003125 -0.007727 0.013508 0.002716 -0.001442 -0.005648
# 4 -0.004979 -0.004824 0.002716 0.028488 0.002299 -0.010261
# 5 -0.002150 -0.001360 -0.001442 0.002299 0.025080 -0.002472
# 6 0.006318 0.010220 -0.005648 -0.010261 -0.002472 0.046526
#
#
# Mechanical properties :
#
#
# Convention : Reuss Voigt Hill
#
# Bulk Modulus (GPa) = 41.03047 52.77840 46.90443
# Shear Modulus (GPa) = 27.87338 33.61008 30.74173
#
# Velocity S-wave (km/s) = 3.51877 3.86395 3.69539
# Velocity P-wave (km/s) = 5.89367 6.58420 6.24848
#
# Compressibility (1/GPa) = 0.02437213
#
# Stress axis : x y z
#
# Youngs Moduli (GPa) = 59.74061 57.07456 74.02921
#
# Poissons Ratio (x) = 0.04832 0.23132
# Poissons Ratio (y) = 0.05057 0.57200
# Poissons Ratio (z) = 0.18667 0.44100
#
# Static dielectric constant tensor:
#      x y z
#    x 4.005180 -0.022380 0.139990 
#    y -0.022380 4.174290 0.034550 
#    z 0.139990 0.034550 4.107500 
# 
# 
# High freq. dielectric constant tensor:
#      x y z
#    x 1.885350 -0.010220 0.009030 
#    y -0.010220 1.899120 0.004970 
#    z 0.009030 0.004970 1.893990 
# 
# From -- ./inp_files/187543.got.cif
#   From: 2010.06.25/outbox.cif.g09.slc.cpg/sg2_94_cif.got.tgz:187543.got - 2010.06.27 13:26:56.
