data_PCOD8012750
_publ_section_title
;
Structure prediction by ZEFSAII (Michael W. Deem and Ramdas Pophale) SiO2 
 PCOD8012750
Probable space group: P -1
;
_chemical_formula_sum "Si O2"
_cell_formula_units_Z 14
_cell_length_a 8.142948
_cell_length_b 18.635109
_cell_length_c 16.687041
_cell_angle_alpha 24.044333
_cell_angle_beta 54.023642
_cell_angle_gamma 43.285028
_cell_volume 679.726643
_symmetry_space_group_name_H-M "P -1"
_symmetry_group_IT_number 2
_symmetry_cell_setting 'triclinic'
loop_
_space_group_symop_operation_xyz
x,y,z
-x,-y,-z
loop_
_atom_site_type_symbol
_atom_site_label
_atom_site_fract_x
_atom_site_fract_y
_atom_site_fract_z
Si Si1 0.427729 0.841329 0.667335
Si Si2 0.885151 0.861015 0.175356
Si Si3 0.160594 0.551747 0.952718
Si Si4 0.434791 0.701112 0.637622
Si Si5 0.975544 0.497819 0.632053
Si Si6 0.631459 0.868574 0.016914
Si Si7 0.076649 0.060907 0.258916
O O1 0.365735 0.854168 0.578267
O O2 0.177683 0.915840 0.711667
O O3 0.500000 0.000000 0.500000
O O4 0.664771 0.609252 0.862690
O O5 0.953729 0.708169 0.389549
O O6 0.970577 0.689747 0.253730
O O7 0.588551 0.053763 0.063309
O O8 0.000000 0.000000 0.000000
O O9 0.344826 0.550351 0.837829
O O10 0.967297 0.772917 0.828799
O O11 0.000000 0.500000 0.000000
O O12 0.727104 0.564976 0.679259
O O13 0.291966 0.826988 0.469798
O O14 0.202472 0.386111 0.745980
O O15 0.823820 0.912895 0.880004
O O16 0.500000 0.000000 0.000000
#
# Coordination Sequence:
#
# PCOD8012750 Si02
#       7
#     2   2   2   2   2   2   2
#     4  11  22  39  59  92 124 161 210 255 311 383
#     4  10  22  41  64  92 122 162 216 262 310 377
#     4  11  22  37  60  91 122 162 206 254 314 381
#     4  11  21  39  62  89 124 164 202 259 322 372
#     4  10  21  41  64  87 128 164 203 263 321 365
#     4  10  21  40  63  89 123 166 208 254 316 371
#     4  11  21  39  63  87 124 165 203 261 313 370
#
# _framework density 20.596516000000001
#
# number of rings (size 3 to 8) (size 9 to 14) (size 15 to 20)
#    0.000    1.429    1.429    6.857    0.000    1.714 
#    7.714    1.429    0.000    0.000    0.000    0.000 
#    0.000    0.000    0.000    0.000    0.000    0.000 
#
# Total GULP energy -173472.493590 kJ/mol
# GULP energy per Si atom -12390.892399 kJ/mol
# Density = 2.054964 g / cm^3
# Si number density = 20.596516 Si / 1000 Ang^3
#
#
#
# Elastic Constant Matrix: (Units=GPa)
#
#
# Indices 1 2 3 4 5 6 
#
# 1 108.8077 29.6365 59.7000 5.6602 -9.0251 -27.5252
# 2 29.6365 115.5448 42.8553 20.1821 -3.8108 -29.6374
# 3 59.7000 42.8553 151.8542 11.9872 10.8822 -18.2245
# 4 5.6602 20.1821 11.9872 34.4917 -8.4299 4.1041
# 5 -9.0251 -3.8108 10.8822 -8.4299 52.0724 -0.5095
# 6 -27.5252 -29.6374 -18.2245 4.1041 -0.5095 31.2868
#
#
#
# Elastic Compliance Matrix: (Units=1/GPa)
#
#
# Indices 1 2 3 4 5 6 
#
# 1 0.014948 0.001640 -0.004948 -0.002289 0.003493 0.012180
# 2 0.001640 0.014746 -0.002202 -0.009877 0.000376 0.015431
# 3 -0.004948 -0.002202 0.009451 -0.001905 -0.003309 -0.000737
# 4 -0.002289 -0.009877 -0.001905 0.039230 0.005458 -0.017536
# 5 0.003493 0.000376 -0.003309 0.005458 0.021423 0.001134
# 6 0.012180 0.015431 -0.000737 -0.017536 0.001134 0.059184
#
#
# Mechanical properties :
#
#
# Convention : Reuss Voigt Hill
#
# Bulk Modulus (GPa) = 35.55329 71.17669 53.36499
# Shear Modulus (GPa) = 27.87423 39.83786 33.85605
#
# Velocity S-wave (km/s) = 3.68278 4.40273 4.05875
# Velocity P-wave (km/s) = 5.94837 7.77676 6.92319
#
# Compressibility (1/GPa) = 0.02812679
#
# Stress axis : x y z
#
# Youngs Moduli (GPa) = 66.89677 67.81430 105.81114
#
# Poissons Ratio (x) = -0.11121 0.52351
# Poissons Ratio (y) = -0.10971 0.23296
# Poissons Ratio (z) = 0.33098 0.14930
#
# Static dielectric constant tensor:
#      x y z
#    x 3.517640 -0.190610 0.297030 
#    y -0.190610 3.713450 0.081280 
#    z 0.297030 0.081280 4.051270 
# 
# 
# High freq. dielectric constant tensor:
#      x y z
#    x 1.793490 -0.024420 0.024770 
#    y -0.024420 1.807820 0.007650 
#    z 0.024770 0.007650 1.820200 
# 
# From -- ./inp_files/202860.got.cif
#   From: 2010.06.25/outbox.cif.g09.slc.cpg/sg2_102_cif.got.tgz:202860.got - 2010.06.27 13:26:56.
