data_PCOD8012962
_publ_section_title
;
Structure prediction by ZEFSAII (Michael W. Deem and Ramdas Pophale) SiO2 
 PCOD8012962
Probable space group: P -1
;
_chemical_formula_sum "Si O2"
_cell_formula_units_Z 16
_cell_length_a 9.112499
_cell_length_b 19.399377
_cell_length_c 11.176080
_cell_angle_alpha 135.753819
_cell_angle_beta 108.165934
_cell_angle_gamma 37.982520
_cell_volume 685.685007
_symmetry_space_group_name_H-M "P -1"
_symmetry_group_IT_number 2
_symmetry_cell_setting 'triclinic'
loop_
_space_group_symop_operation_xyz
x,y,z
-x,-y,-z
loop_
_atom_site_type_symbol
_atom_site_label
_atom_site_fract_x
_atom_site_fract_y
_atom_site_fract_z
Si Si1 0.892355 0.810401 0.230396
Si Si2 0.431937 0.308480 0.967297
Si Si3 0.436169 0.377892 0.575978
Si Si4 0.453063 0.880037 0.816731
Si Si5 0.838840 0.542723 0.158578
Si Si6 0.834108 0.269237 0.029148
Si Si7 0.923580 0.888441 0.585996
Si Si8 0.636768 0.939195 0.765629
O O1 0.823602 0.897098 0.446435
O O2 0.589304 0.954952 0.266899
O O3 0.051408 0.622073 0.066050
O O4 0.098109 0.763850 0.136831
O O5 0.390384 0.299328 0.805983
O O6 0.684874 0.100818 0.827067
O O7 0.544069 0.359711 0.081161
O O8 0.115864 0.466843 0.149393
O O9 0.329574 0.372169 0.654252
O O10 0.228185 0.585607 0.754811
O O11 0.760280 0.238143 0.512689
O O12 0.446212 0.290015 0.363781
O O13 0.668944 0.824076 0.712432
O O14 0.484619 0.905313 0.989156
O O15 0.112785 0.075283 0.930956
O O16 0.931534 0.809093 0.604593
#
# Coordination Sequence:
#
# PCOD8012962 Si02
#       8
#     2   2   2   2   2   2   2   2
#     4  10  21  40  64  94 134 169 213 271 327 385
#     4  11  22  37  62  99 139 172 211 269 328 386
#     4  11  24  42  69  99 129 177 216 267 329 386
#     4  10  23  46  70  91 130 179 218 267 329 380
#     4  10  23  38  59  96 141 171 210 271 324 390
#     4  10  22  43  65  98 135 169 220 271 318 387
#     4  12  23  38  70 101 129 175 215 266 335 390
#     4  10  23  42  67  96 130 170 221 275 317 387
#
# _framework density 23.334330000000001
#
# number of rings (size 3 to 8) (size 9 to 14) (size 15 to 20)
#    0.000    1.500    2.500    1.875    3.500    5.500 
#    0.000   10.625    2.750    0.000    0.000    0.000 
#    0.000    0.000    0.000    0.000    0.000    0.000 
#
# Total GULP energy -198337.916032 kJ/mol
# GULP energy per Si atom -12396.119752 kJ/mol
# Density = 2.328122 g / cm^3
# Si number density = 23.334330 Si / 1000 Ang^3
#
#
#
# Elastic Constant Matrix: (Units=GPa)
#
#
# Indices 1 2 3 4 5 6 
#
# 1 151.2422 42.8578 58.4204 -8.9882 -21.6506 -18.7920
# 2 42.8578 -73.3829 -25.6871 -16.3528 24.6291 8.3749
# 3 58.4204 -25.6871 81.8120 -19.4130 23.2165 3.9028
# 4 -8.9882 -16.3528 -19.4130 35.0169 -3.0901 1.5067
# 5 -21.6506 24.6291 23.2165 -3.0901 28.7990 -0.3207
# 6 -18.7920 8.3749 3.9028 1.5067 -0.3207 22.3947
#
#
#
# Elastic Compliance Matrix: (Units=1/GPa)
#
#
# Indices 1 2 3 4 5 6 
#
# 1 0.007354 0.006482 -0.003636 0.003007 0.003286 0.004225
# 2 0.006482 -0.000599 -0.009574 -0.003121 0.012854 0.007726
# 3 -0.003636 -0.009574 0.013970 0.001935 -0.005624 -0.002116
# 4 0.003007 -0.003121 0.001935 0.029459 0.006547 0.001465
# 5 0.003286 0.012854 -0.005624 0.006547 0.031425 -0.001060
# 6 0.004225 0.007726 -0.002116 0.001465 -0.001060 0.045564
#
#
# Mechanical properties :
#
#
# Convention : Reuss Voigt Hill
#
# Bulk Modulus (GPa) = 137.56398 34.53931 86.05164
# Shear Modulus (GPa) = 34.95245 22.84748 28.89996
#
# Velocity S-wave (km/s) = 3.87447 3.13251 3.52307
# Velocity P-wave (km/s) = 8.89364 5.28371 7.31486
#
# Compressibility (1/GPa) = 0.00726934
#
# Stress axis : x y z
#
# Youngs Moduli (GPa) = 135.98925 -1670.57650 71.58348
#
# Poissons Ratio (x) = 10.82911 0.26029
# Poissons Ratio (y) = -0.88152 0.68532
# Poissons Ratio (z) = 0.49447 -15.99374
#
# Static dielectric constant tensor:
#      x y z
#    x 4.663910 0.024210 -0.023940 
#    y 0.024210 3.867080 -0.007920 
#    z -0.023940 -0.007920 4.126130 
# 
# 
# High freq. dielectric constant tensor:
#      x y z
#    x 1.942240 -0.005000 -0.001600 
#    y -0.005000 1.899890 0.000060 
#    z -0.001600 0.000060 1.912210 
# 
# From -- ./inp_files/333395.got.cif
#   From: 2010.06.25/outbox.cif.g09.slc.cpg/sg2_167_cif.got.tgz:333395.got - 2010.06.27 13:26:56.
