data_PCOD8012328
_publ_section_title
;
Structure prediction by ZEFSAII (Michael W. Deem and Ramdas Pophale) SiO2 
 PCOD8012328
Probable space group: P -1
;
_chemical_formula_sum "Si O2"
_cell_formula_units_Z 16
_cell_length_a 9.066770
_cell_length_b 11.965369
_cell_length_c 16.730412
_cell_angle_alpha 28.057111
_cell_angle_beta 131.062752
_cell_angle_gamma 130.811635
_cell_volume 629.560392
_symmetry_space_group_name_H-M "P -1"
_symmetry_group_IT_number 2
_symmetry_cell_setting 'triclinic'
loop_
_space_group_symop_operation_xyz
x,y,z
-x,-y,-z
loop_
_atom_site_type_symbol
_atom_site_label
_atom_site_fract_x
_atom_site_fract_y
_atom_site_fract_z
Si Si1 0.966685 0.788850 0.738303
Si Si2 0.210470 0.746076 0.619645
Si Si3 0.211647 0.513404 0.610036
Si Si4 0.861676 0.344949 0.806826
Si Si5 0.538513 0.620709 0.523538
Si Si6 0.790691 0.254330 0.006247
Si Si7 0.619305 0.856760 0.997336
Si Si8 0.629561 0.183966 0.210432
O O1 0.131276 0.719853 0.778827
O O2 0.806044 0.540059 0.853442
O O3 0.085010 0.877556 0.805660
O O4 0.866577 0.011027 0.536406
O O5 0.268149 0.743542 0.547603
O O6 0.395817 0.750470 0.745996
O O7 0.050982 0.490857 0.735068
O O8 0.365334 0.531337 0.581482
O O9 0.226392 0.284544 0.816341
O O10 0.000000 0.500000 0.500000
O O11 0.737546 0.538452 0.676245
O O12 0.889975 0.206054 0.987186
O O13 0.739526 0.129126 0.843244
O O14 0.500000 0.500000 0.500000
O O15 0.582261 0.903318 0.350587
O O16 0.557413 0.125487 0.013965
O O17 0.518762 0.718486 0.966794
#
# Coordination Sequence:
#
# PCOD8012328 Si02
#       8
#     2   2   2   2   2   2   2   2
#     4  10  21  40  71 110 145 181 237 299 359 416
#     4  12  26  46  72 110 152 190 230 298 365 430
#     4  12  31  49  67 106 150 191 241 298 372 426
#     4  12  22  42  76 105 140 190 240 300 348 427
#     4  12  24  46  76 107 138 188 246 294 356 429
#     4  10  21  39  69 110 141 180 245 303 347 415
#     4  11  26  44  71 106 141 191 247 295 354 423
#     4  11  23  44  76 108 140 190 245 292 352 430
#
# _framework density 25.414559000000001
#
# number of rings (size 3 to 8) (size 9 to 14) (size 15 to 20)
#    0.000    0.750    5.000    2.250    1.750    1.500 
#    0.000    0.000    0.000    0.000    0.000    0.000 
#    0.000    0.000    0.000    0.000    0.000    0.000 
#
# Total GULP energy -198221.587358 kJ/mol
# GULP energy per Si atom -12388.849210 kJ/mol
# Density = 2.535671 g / cm^3
# Si number density = 25.414559 Si / 1000 Ang^3
#
#
#
# Elastic Constant Matrix: (Units=GPa)
#
#
# Indices 1 2 3 4 5 6 
#
# 1 88.2483 38.9503 16.4950 9.2777 -10.4649 -20.1974
# 2 38.9503 117.0309 32.9360 18.7973 -7.5946 -21.6392
# 3 16.4950 32.9360 82.4402 13.2913 -9.5381 3.3942
# 4 9.2777 18.7973 13.2913 54.5066 -0.4727 -14.0694
# 5 -10.4649 -7.5946 -9.5381 -0.4727 25.1883 -1.0451
# 6 -20.1974 -21.6392 3.3942 -14.0694 -1.0451 44.7336
#
#
#
# Elastic Compliance Matrix: (Units=1/GPa)
#
#
# Indices 1 2 3 4 5 6 
#
# 1 0.014823 -0.003286 -0.001376 0.000394 0.004880 0.005445
# 2 -0.003286 0.011775 -0.003872 -0.001504 0.000859 0.004053
# 3 -0.001376 -0.003872 0.015098 -0.003262 0.003727 -0.004579
# 4 0.000394 -0.001504 -0.003262 0.021226 -0.000863 0.006354
# 5 0.004880 0.000859 0.003727 -0.000863 0.043510 0.003081
# 6 0.005445 0.004053 -0.004579 0.006354 0.003081 0.029192
#
#
# Mechanical properties :
#
#
# Convention : Reuss Voigt Hill
#
# Bulk Modulus (GPa) = 40.60469 51.60910 46.10689
# Shear Modulus (GPa) = 31.07537 38.17491 34.62514
#
# Velocity S-wave (km/s) = 3.50056 3.87988 3.69509
# Velocity P-wave (km/s) = 5.68772 6.35785 6.03210
#
# Compressibility (1/GPa) = 0.02462770
#
# Stress axis : x y z
#
# Youngs Moduli (GPa) = 67.46413 84.92834 66.23518
#
# Poissons Ratio (x) = 0.27905 0.09115
# Poissons Ratio (y) = 0.22167 0.25645
# Poissons Ratio (z) = 0.09284 0.32883
#
# Static dielectric constant tensor:
#      x y z
#    x 4.500870 -0.113970 -0.208090 
#    y -0.113970 4.993310 0.439040 
#    z -0.208090 0.439040 5.046470 
# 
# 
# High freq. dielectric constant tensor:
#      x y z
#    x 1.986170 -0.013060 -0.022930 
#    y -0.013060 2.035310 0.016730 
#    z -0.022930 0.016730 2.015570 
# 
# From -- ./inp_files/559591.got.cif
#   From: 2010.06.25/outbox.cif.g09.slc.cpg/sg2_280_cif.got.tgz:559591.got - 2010.06.27 13:26:56.
