data_PCOD8012777
_publ_section_title
;
Structure prediction by ZEFSAII (Michael W. Deem and Ramdas Pophale) SiO2 
 PCOD8012777
Probable space group: P -1
;
_chemical_formula_sum "Si O2"
_cell_formula_units_Z 16
_cell_length_a 8.571618
_cell_length_b 14.607620
_cell_length_c 12.750424
_cell_angle_alpha 30.198596
_cell_angle_beta 110.728996
_cell_angle_gamma 110.261138
_cell_volume 748.276663
_symmetry_space_group_name_H-M "P -1"
_symmetry_group_IT_number 2
_symmetry_cell_setting 'triclinic'
loop_
_space_group_symop_operation_xyz
x,y,z
-x,-y,-z
loop_
_atom_site_type_symbol
_atom_site_label
_atom_site_fract_x
_atom_site_fract_y
_atom_site_fract_z
Si Si1 0.744696 0.464551 0.165844
Si Si2 0.432035 0.792150 0.214667
Si Si3 0.809227 0.800868 0.987855
Si Si4 0.558158 0.238802 0.980719
Si Si5 0.056352 0.835684 0.407763
Si Si6 0.630597 0.571162 0.816665
Si Si7 0.933670 0.289542 0.699609
Si Si8 0.691088 0.851220 0.383289
O O1 0.855154 0.292598 0.363003
O O2 0.556572 0.403351 0.216134
O O3 0.827719 0.610163 0.123649
O O4 0.748767 0.546237 0.969120
O O5 0.238407 0.751981 0.237030
O O6 0.544059 0.737489 0.393616
O O7 0.458301 0.684444 0.218470
O O8 0.500000 0.000000 0.000000
O O9 0.622342 0.828312 0.951237
O O10 0.863981 0.957961 0.761225
O O11 0.927449 0.817185 0.101974
O O12 0.669197 0.065768 0.179622
O O13 0.645084 0.398701 0.914544
O O14 0.098458 0.784452 0.350316
O O15 0.859747 0.824409 0.388572
O O16 0.697208 0.758008 0.590594
O O17 0.000000 0.500000 0.500000
#
# Coordination Sequence:
#
# PCOD8012777 Si02
#       8
#     2   2   2   2   2   2   2   2
#     4  10  23  44  64  94 119 164 219 263 316 369
#     4  10  21  40  63  91 133 166 207 257 311 387
#     4  11  22  41  67  92 127 166 208 262 315 377
#     4  10  22  40  65  93 125 167 211 255 314 379
#     4  12  24  41  65  92 130 167 207 261 318 378
#     4  10  23  42  67  88 125 163 213 270 311 373
#     4  12  24  39  66  98 133 165 212 264 317 385
#     4  11  24  40  63  93 127 168 208 255 316 382
#
# _framework density 21.382463999999999
#
# number of rings (size 3 to 8) (size 9 to 14) (size 15 to 20)
#    0.000    1.250    1.250    5.625    3.500    3.000 
#    0.000    5.000    0.000    0.000    0.000    0.000 
#    0.000    0.000    0.000    0.000    0.000    0.000 
#
# Total GULP energy -198434.522719 kJ/mol
# GULP energy per Si atom -12402.157670 kJ/mol
# Density = 2.133380 g / cm^3
# Si number density = 21.382464 Si / 1000 Ang^3
#
#
#
# Elastic Constant Matrix: (Units=GPa)
#
#
# Indices 1 2 3 4 5 6 
#
# 1 85.1691 23.2031 32.8434 -5.3934 -2.1174 0.9864
# 2 23.2031 45.5962 10.0282 15.6337 3.3085 -3.4584
# 3 32.8434 10.0282 107.6722 7.2695 6.0933 0.8770
# 4 -5.3934 15.6337 7.2695 35.0709 0.7328 -3.9383
# 5 -2.1174 3.3085 6.0933 0.7328 41.4067 0.7249
# 6 0.9864 -3.4584 0.8770 -3.9383 0.7249 27.0453
#
#
#
# Elastic Compliance Matrix: (Units=1/GPa)
#
#
# Indices 1 2 3 4 5 6 
#
# 1 0.017149 -0.010714 -0.004920 0.008307 0.002322 -0.000689
# 2 -0.010714 0.033080 0.001453 -0.016373 -0.003155 0.002274
# 3 -0.004920 0.001453 0.011015 -0.003701 -0.001915 -0.000480
# 4 0.008307 -0.016373 -0.003701 0.038189 0.001545 0.003243
# 5 0.002322 -0.003155 -0.001915 0.001545 0.024791 -0.000866
# 6 -0.000689 0.002274 -0.000480 0.003243 -0.000866 0.037802
#
#
# Mechanical properties :
#
#
# Convention : Reuss Voigt Hill
#
# Bulk Modulus (GPa) = 30.41213 41.17634 35.79423
# Shear Modulus (GPa) = 24.83255 32.19544 28.51399
#
# Velocity S-wave (km/s) = 3.41156 3.88454 3.65570
# Velocity P-wave (km/s) = 5.45638 6.27840 5.88177
#
# Compressibility (1/GPa) = 0.03288162
#
# Stress axis : x y z
#
# Youngs Moduli (GPa) = 58.31183 30.23006 90.78517
#
# Poissons Ratio (x) = 0.32388 0.44665
# Poissons Ratio (y) = 0.62475 -0.13188
# Poissons Ratio (z) = 0.28689 -0.04391
#
# Static dielectric constant tensor:
#      x y z
#    x 3.759990 -0.030760 -0.118940 
#    y -0.030760 3.984560 0.051060 
#    z -0.118940 0.051060 4.502060 
# 
# 
# High freq. dielectric constant tensor:
#      x y z
#    x 1.839890 -0.001130 -0.004780 
#    y -0.001130 1.831670 0.000820 
#    z -0.004780 0.000820 1.849600 
# 
# From -- ./inp_files/344970.got.cif
#   From: 2010.06.25/outbox.cif.g09.slc.cpg/sg2_173_cif.got.tgz:344970.got - 2010.06.27 13:26:56.
