data_PCOD8012768
_publ_section_title
;
Structure prediction by ZEFSAII (Michael W. Deem and Ramdas Pophale) SiO2 
 PCOD8012768
Probable space group: P -1
;
_chemical_formula_sum "Si O2"
_cell_formula_units_Z 16
_cell_length_a 11.234580
_cell_length_b 14.134579
_cell_length_c 14.311170
_cell_angle_alpha 152.210693
_cell_angle_beta 127.785426
_cell_angle_gamma 68.419096
_cell_volume 737.821279
_symmetry_space_group_name_H-M "P -1"
_symmetry_group_IT_number 2
_symmetry_cell_setting 'triclinic'
loop_
_space_group_symop_operation_xyz
x,y,z
-x,-y,-z
loop_
_atom_site_type_symbol
_atom_site_label
_atom_site_fract_x
_atom_site_fract_y
_atom_site_fract_z
Si Si1 0.897475 0.790914 0.838388
Si Si2 0.349780 0.088507 0.064249
Si Si3 0.215462 0.493360 0.939271
Si Si4 0.900539 0.138028 0.819492
Si Si5 0.653319 0.776714 0.125222
Si Si6 0.391275 0.673048 0.755119
Si Si7 0.100642 0.934955 0.650236
Si Si8 0.556285 0.829840 0.327447
O O1 0.802352 0.540110 0.524216
O O2 0.737157 0.807933 0.818843
O O3 0.032442 0.795946 0.984615
O O4 0.000000 0.000000 0.000000
O O5 0.219446 0.924444 0.779567
O O6 0.393310 0.914264 0.991783
O O7 0.514890 0.294000 0.272156
O O8 0.249980 0.376491 0.944209
O O9 0.162495 0.691123 0.108502
O O10 0.395398 0.577362 0.043522
O O11 0.063608 0.310861 0.644331
O O12 0.048892 0.134690 0.824701
O O13 0.733994 0.882147 0.510749
O O14 0.797362 0.008260 0.348204
O O15 0.592095 0.861207 0.260925
O O16 0.497547 0.632101 0.853133
O O17 0.500000 0.000000 0.500000
#
# Coordination Sequence:
#
# PCOD8012768 Si02
#       8
#     2   2   2   2   2   2   2   2
#     4  11  24  39  64  94 124 160 207 256 302 362
#     4   9  21  42  65  87 122 171 197 256 310 355
#     4  11  22  38  64  85 123 166 194 247 310 356
#     4  10  23  41  61  89 126 162 205 246 305 362
#     4  11  23  39  63  95 121 159 205 254 300 365
#     4  10  22  42  64  91 124 158 212 251 304 365
#     4  10  21  40  63  91 125 152 210 256 297 362
#     4  10  23  41  59  86 122 163 199 242 303 369
#
# _framework density 21.685469000000001
#
# number of rings (size 3 to 8) (size 9 to 14) (size 15 to 20)
#    0.000    1.750    1.250    1.875    1.750    4.000 
#    4.500    0.000    0.000    0.000    0.000    0.000 
#    0.000    0.000    0.000    0.000    0.000    0.000 
#
# Total GULP energy -198257.146594 kJ/mol
# GULP energy per Si atom -12391.071662 kJ/mol
# Density = 2.163611 g / cm^3
# Si number density = 21.685469 Si / 1000 Ang^3
#
#
#
# Elastic Constant Matrix: (Units=GPa)
#
#
# Indices 1 2 3 4 5 6 
#
# 1 76.7284 10.5609 15.1320 3.2858 1.8520 3.8193
# 2 10.5609 73.5152 27.4990 -6.7777 0.6125 -3.3680
# 3 15.1320 27.4990 130.8143 -9.3099 28.0573 16.5574
# 4 3.2858 -6.7777 -9.3099 27.1503 -4.0826 0.0859
# 5 1.8520 0.6125 28.0573 -4.0826 29.5112 -2.0873
# 6 3.8193 -3.3680 16.5574 0.0859 -2.0873 26.5348
#
#
#
# Elastic Compliance Matrix: (Units=1/GPa)
#
#
# Indices 1 2 3 4 5 6 
#
# 1 0.013700 -0.001839 -0.001150 -0.002534 -0.000185 -0.001494
# 2 -0.001839 0.016188 -0.004787 0.003386 0.005203 0.005705
# 3 -0.001150 -0.004787 0.012732 0.001476 -0.012392 -0.009366
# 4 -0.002534 0.003386 0.001476 0.039107 0.004100 0.000069
# 5 -0.000185 0.005203 -0.012392 0.004100 0.046993 0.012102
# 6 -0.001494 0.005705 -0.009366 0.000069 0.012102 0.045422
#
#
# Mechanical properties :
#
#
# Convention : Reuss Voigt Hill
#
# Bulk Modulus (GPa) = 36.94300 43.04907 39.99603
# Shear Modulus (GPa) = 25.16158 31.83033 28.49596
#
# Velocity S-wave (km/s) = 3.41001 3.83537 3.62893
# Velocity P-wave (km/s) = 5.70763 6.28554 6.00354
#
# Compressibility (1/GPa) = 0.02706873
#
# Stress axis : x y z
#
# Youngs Moduli (GPa) = 72.99172 61.77563 78.54151
#
# Poissons Ratio (x) = 0.11358 0.09032
# Poissons Ratio (y) = 0.13420 0.37599
# Poissons Ratio (z) = 0.08394 0.29573
#
# Static dielectric constant tensor:
#      x y z
#    x 4.016960 -0.152390 0.326030 
#    y -0.152390 3.804740 -0.068150 
#    z 0.326030 -0.068150 4.103780 
# 
# 
# High freq. dielectric constant tensor:
#      x y z
#    x 1.852390 -0.015080 0.018110 
#    y -0.015080 1.839610 -0.007270 
#    z 0.018110 -0.007270 1.859030 
# 
# From -- ./inp_files/521946.got.cif
#   From: 2010.06.25/outbox.cif.g09.slc.cpg/sg2_261_cif.got.tgz:521946.got - 2010.06.27 13:26:56.
