data_PCOD8012837
_publ_section_title
;
Structure prediction by ZEFSAII (Michael W. Deem and Ramdas Pophale) SiO2 
 PCOD8012837
Probable space group: P -1
;
_chemical_formula_sum "Si O2"
_cell_formula_units_Z 16
_cell_length_a 19.050356
_cell_length_b 13.189142
_cell_length_c 6.468111
_cell_angle_alpha 49.118346
_cell_angle_beta 137.742912
_cell_angle_gamma 137.531157
_cell_volume 716.488641
_symmetry_space_group_name_H-M "P -1"
_symmetry_group_IT_number 2
_symmetry_cell_setting 'triclinic'
loop_
_space_group_symop_operation_xyz
x,y,z
-x,-y,-z
loop_
_atom_site_type_symbol
_atom_site_label
_atom_site_fract_x
_atom_site_fract_y
_atom_site_fract_z
Si Si1 0.370209 0.276799 0.078235
Si Si2 0.099674 0.086618 0.773951
Si Si3 0.119740 0.829201 0.352800
Si Si4 0.052321 0.353824 0.454643
Si Si5 0.540856 0.437037 0.863971
Si Si6 0.168960 0.700189 0.228924
Si Si7 0.665421 0.108904 0.009732
Si Si8 0.472008 0.789389 0.160259
O O1 0.364480 0.422214 0.975044
O O2 0.439523 0.225226 0.460796
O O3 0.235165 0.142854 0.913142
O O4 0.431515 0.321577 0.927950
O O5 0.098879 0.233614 0.672927
O O6 0.000000 0.000000 0.500000
O O7 0.074178 0.951843 0.059572
O O8 0.174436 0.781680 0.346469
O O9 0.225351 0.909640 0.642748
O O10 0.006550 0.676994 0.404575
O O11 0.159699 0.531883 0.449889
O O12 0.952229 0.324394 0.107408
O O13 0.500000 0.500000 0.500000
O O14 0.592114 0.341030 0.982986
O O15 0.293752 0.814851 0.229900
O O16 0.544141 0.944259 0.972679
O O17 0.640551 0.223325 0.943897
#
# Coordination Sequence:
#
# PCOD8012837 Si02
#       8
#     2   2   2   2   2   2   2   2
#     4  10  22  41  65  93 134 169 214 269 320 387
#     4  12  24  42  67  98 130 177 218 265 324 386
#     4  11  22  42  65  93 127 171 216 267 325 382
#     4  10  23  41  62  91 129 169 219 265 315 384
#     4   9  21  41  65  93 132 170 213 265 328 383
#     4  10  22  42  64  91 129 169 214 269 318 385
#     4  10  23  38  66  94 127 163 216 266 326 386
#     4  10  21  40  63  97 126 166 213 270 324 387
#
# _framework density 22.331126999999999
#
# number of rings (size 3 to 8) (size 9 to 14) (size 15 to 20)
#    0.000    1.750    2.500    0.750    1.750    5.000 
#    4.500    2.500    0.000    0.000    0.000    0.000 
#    0.000    0.000    0.000    0.000    0.000    0.000 
#
# Total GULP energy -198256.539475 kJ/mol
# GULP energy per Si atom -12391.033717 kJ/mol
# Density = 2.228030 g / cm^3
# Si number density = 22.331127 Si / 1000 Ang^3
#
#
#
# Elastic Constant Matrix: (Units=GPa)
#
#
# Indices 1 2 3 4 5 6 
#
# 1 98.7764 24.9921 31.8444 -11.2053 -21.7278 -5.0575
# 2 24.9921 69.5624 32.2402 -17.6943 -5.5734 -8.1297
# 3 31.8444 32.2402 72.1762 -8.8125 -0.9905 4.6368
# 4 -11.2053 -17.6943 -8.8125 31.5358 4.8501 5.2417
# 5 -21.7278 -5.5734 -0.9905 4.8501 36.1487 -7.2242
# 6 -5.0575 -8.1297 4.6368 5.2417 -7.2242 50.5564
#
#
#
# Elastic Compliance Matrix: (Units=1/GPa)
#
#
# Indices 1 2 3 4 5 6 
#
# 1 0.014509 -0.001216 -0.005804 0.001004 0.008829 0.002946
# 2 -0.001216 0.021265 -0.008137 0.008362 0.001892 0.003448
# 3 -0.005804 -0.008137 0.020347 0.000612 -0.005179 -0.004559
# 4 0.001004 0.008362 0.000612 0.038031 -0.003813 -0.003099
# 5 0.008829 0.001892 -0.005179 -0.003813 0.035043 0.007065
# 6 0.002946 0.003448 -0.004559 -0.003099 0.007065 0.022378
#
#
# Mechanical properties :
#
#
# Convention : Reuss Voigt Hill
#
# Bulk Modulus (GPa) = 38.74806 46.51871 42.63339
# Shear Modulus (GPa) = 26.24811 33.74407 29.99609
#
# Velocity S-wave (km/s) = 3.43214 3.89148 3.66900
# Velocity P-wave (km/s) = 5.75286 6.40843 6.08947
#
# Compressibility (1/GPa) = 0.02580774
#
# Stress axis : x y z
#
# Youngs Moduli (GPa) = 68.92090 47.02537 49.14746
#
# Poissons Ratio (x) = 0.05718 0.28525
# Poissons Ratio (y) = 0.08380 0.39991
# Poissons Ratio (z) = 0.40001 0.38264
#
# Static dielectric constant tensor:
#      x y z
#    x 4.128350 -0.123840 -0.098450 
#    y -0.123840 4.256230 -0.360500 
#    z -0.098450 -0.360500 3.959640 
# 
# 
# High freq. dielectric constant tensor:
#      x y z
#    x 1.881200 -0.001820 -0.006330 
#    y -0.001820 1.884440 -0.018120 
#    z -0.006330 -0.018120 1.874970 
# 
# From -- ./inp_files/109606.got.cif
#   From: 2010.06.25/outbox.cif.g09.slc.cpg/sg2_55_cif.got.tgz:109606.got - 2010.06.27 13:26:56.
