data_PCOD8012171
_publ_section_title
;
Structure prediction by ZEFSAII (Michael W. Deem and Ramdas Pophale) SiO2 
 PCOD8012171
Probable space group: P -1
;
_chemical_formula_sum "Si O2"
_cell_formula_units_Z 16
_cell_length_a 15.073504
_cell_length_b 12.125744
_cell_length_c 8.746833
_cell_angle_alpha 118.365328
_cell_angle_beta 112.839195
_cell_angle_gamma 119.726478
_cell_volume 705.751016
_symmetry_space_group_name_H-M "P -1"
_symmetry_group_IT_number 2
_symmetry_cell_setting 'triclinic'
loop_
_space_group_symop_operation_xyz
x,y,z
-x,-y,-z
loop_
_atom_site_type_symbol
_atom_site_label
_atom_site_fract_x
_atom_site_fract_y
_atom_site_fract_z
Si Si1 0.934783 0.784790 0.826732
Si Si2 0.506358 0.370742 0.581811
Si Si3 0.717216 0.317153 0.929509
Si Si4 0.547908 0.408650 0.301135
Si Si5 0.011578 0.658106 0.568955
Si Si6 0.204761 0.965084 0.622262
Si Si7 0.875331 0.684545 0.068556
Si Si8 0.338034 0.992446 0.437903
O O1 0.735439 0.554844 0.475344
O O2 0.047248 0.801998 0.820047
O O3 0.946562 0.755147 0.990552
O O4 0.000000 0.000000 0.000000
O O5 0.492421 0.290561 0.351804
O O6 0.414504 0.403781 0.529198
O O7 0.389247 0.170650 0.494504
O O8 0.716446 0.613912 0.929489
O O9 0.513473 0.116904 0.701916
O O10 0.758976 0.214372 0.871862
O O11 0.777742 0.449011 0.898022
O O12 0.825052 0.490527 0.257319
O O13 0.399644 0.234581 0.955953
O O14 0.000000 0.500000 0.500000
O O15 0.163142 0.837901 0.660405
O O16 0.211040 0.885520 0.423798
O O17 0.046389 0.893587 0.433244
#
# Coordination Sequence:
#
# PCOD8012171 Si02
#       8
#     2   2   2   2   2   2   2   2
#     4  11  26  46  70  96 136 178 223 272 339 395
#     4   9  21  41  66  91 129 175 223 271 334 394
#     4   9  21  43  63  93 132 168 221 279 329 398
#     4  10  23  42  65  97 129 171 226 276 324 400
#     4  11  27  43  66  98 136 176 221 277 331 397
#     4  11  25  39  65  98 133 170 225 276 328 399
#     4   9  22  42  62  96 130 173 209 277 334 394
#     4  10  21  39  67  93 126 176 223 271 336 391
#
# _framework density 22.670884000000001
#
# number of rings (size 3 to 8) (size 9 to 14) (size 15 to 20)
#    0.000    2.000    0.000    0.750   12.250    2.000 
#    4.500    1.250    0.000    0.000    0.000    0.000 
#    0.000    0.000    0.000    0.000    0.000    0.000 
#
# Total GULP energy -198258.183600 kJ/mol
# GULP energy per Si atom -12391.136475 kJ/mol
# Density = 2.261928 g / cm^3
# Si number density = 22.670884 Si / 1000 Ang^3
#
#
#
# Elastic Constant Matrix: (Units=GPa)
#
#
# Indices 1 2 3 4 5 6 
#
# 1 84.5997 47.6016 4.1079 0.4983 -7.9211 6.0888
# 2 47.6016 122.1283 7.9133 -2.4517 -7.3297 9.9768
# 3 4.1079 7.9133 88.2583 -6.5807 11.1133 -1.5433
# 4 0.4983 -2.4517 -6.5807 23.3826 -4.2519 3.9516
# 5 -7.9211 -7.3297 11.1133 -4.2519 33.8589 -0.3878
# 6 6.0888 9.9768 -1.5433 3.9516 -0.3878 32.1513
#
#
#
# Elastic Compliance Matrix: (Units=1/GPa)
#
#
# Indices 1 2 3 4 5 6 
#
# 1 0.015385 -0.005733 -0.000567 -0.000457 0.002475 -0.001076
# 2 -0.005733 0.010800 -0.000799 0.001714 0.001446 -0.002497
# 3 -0.000567 -0.000799 0.012126 0.002522 -0.003962 0.000580
# 4 -0.000457 0.001714 0.002522 0.045584 0.005094 -0.005866
# 5 0.002475 0.001446 -0.003962 0.005094 0.032351 -0.001343
# 6 -0.001076 -0.002497 0.000580 -0.005866 -0.001343 0.032814
#
#
# Mechanical properties :
#
#
# Convention : Reuss Voigt Hill
#
# Bulk Modulus (GPa) = 41.47125 46.02579 43.74852
# Shear Modulus (GPa) = 29.18955 33.56945 31.37950
#
# Velocity S-wave (km/s) = 3.59212 3.85220 3.72443
# Velocity P-wave (km/s) = 5.96128 6.33496 6.15096
#
# Compressibility (1/GPa) = 0.02411309
#
# Stress axis : x y z
#
# Youngs Moduli (GPa) = 64.99693 92.59670 82.47069
#
# Poissons Ratio (x) = 0.53083 0.04672
# Poissons Ratio (y) = 0.37261 0.06592
# Poissons Ratio (z) = 0.03682 0.07402
#
# Static dielectric constant tensor:
#      x y z
#    x 3.952820 -0.029070 0.250290 
#    y -0.029070 4.103030 -0.115090 
#    z 0.250290 -0.115090 4.141000 
# 
# 
# High freq. dielectric constant tensor:
#      x y z
#    x 1.878930 0.002770 0.024200 
#    y 0.002770 1.896250 -0.006810 
#    z 0.024200 -0.006810 1.895640 
# 
# From -- ./inp_files/308339.got.cif
#   From: 2010.06.25/outbox.cif.g09.slc.cpg/sg2_155_cif.got.tgz:308339.got - 2010.06.27 13:26:56.
