data_PCOD8012420
_publ_section_title
;
Structure prediction by ZEFSAII (Michael W. Deem and Ramdas Pophale) SiO2 
 PCOD8012420
Probable space group: P -1
;
_chemical_formula_sum "Si O2"
_cell_formula_units_Z 16
_cell_length_a 9.083733
_cell_length_b 10.854968
_cell_length_c 16.423939
_cell_angle_alpha 45.906800
_cell_angle_beta 42.549075
_cell_angle_gamma 42.445477
_cell_volume 696.765751
_symmetry_space_group_name_H-M "P -1"
_symmetry_group_IT_number 2
_symmetry_cell_setting 'triclinic'
loop_
_space_group_symop_operation_xyz
x,y,z
-x,-y,-z
loop_
_atom_site_type_symbol
_atom_site_label
_atom_site_fract_x
_atom_site_fract_y
_atom_site_fract_z
Si Si1 0.425135 0.013246 0.892145
Si Si2 0.054799 0.547096 0.546682
Si Si3 0.233993 0.033324 0.562601
Si Si4 0.379891 0.617295 0.623055
Si Si5 0.779971 0.451441 0.118423
Si Si6 0.617683 0.607776 0.951214
Si Si7 0.883608 0.578167 0.251894
Si Si8 0.872792 0.977999 0.836213
O O1 0.302423 0.204011 0.799455
O O2 0.499153 0.837620 0.878245
O O3 0.668428 0.995877 0.845427
O O4 0.243143 0.986738 0.043010
O O5 0.340281 0.478259 0.470204
O O6 0.011234 0.431355 0.694255
O O7 0.000000 0.500000 0.500000
O O8 0.879123 0.773011 0.535113
O O9 0.500000 0.000000 0.500000
O O10 0.263977 0.847760 0.582846
O O11 0.018957 0.095543 0.692369
O O12 0.360545 0.492660 0.764591
O O13 0.239562 0.567454 0.631277
O O14 0.886348 0.226691 0.164164
O O15 0.577839 0.578414 0.076109
O O16 0.000000 0.500000 0.000000
O O17 0.904729 0.504352 0.863275
O O18 0.500000 0.500000 0.000000
#
# Coordination Sequence:
#
# PCOD8012420 Si02
#       8
#     2   2   2   2   2   2   2   2
#     4  11  23  45  72 111 140 183 233 298 360 420
#     4  12  28  48  71  99 140 195 241 292 356 417
#     4  11  24  44  70 104 141 190 236 288 352 427
#     4  11  24  45  75 104 138 186 242 296 347 425
#     4  11  19  43  73 104 144 179 233 287 353 426
#     4  12  27  42  67 109 150 187 222 292 361 423
#     4  12  27  48  71 106 144 182 246 297 352 426
#     4  10  21  39  78 104 139 182 239 287 353 425
#
# _framework density 22.963244
#
# number of rings (size 3 to 8) (size 9 to 14) (size 15 to 20)
#    0.000    0.750    5.000    1.875    5.250    2.000 
#    4.500    0.000    0.000    0.000    0.000    0.000 
#    0.000    0.000    0.000    0.000    0.000    0.000 
#
# Total GULP energy -198223.487540 kJ/mol
# GULP energy per Si atom -12388.967971 kJ/mol
# Density = 2.291098 g / cm^3
# Si number density = 22.963244 Si / 1000 Ang^3
#
#
#
# Elastic Constant Matrix: (Units=GPa)
#
#
# Indices 1 2 3 4 5 6 
#
# 1 100.5457 38.3430 36.5099 -18.8642 8.6069 7.8664
# 2 38.3430 141.6114 29.3032 -25.5783 3.8861 -8.0893
# 3 36.5099 29.3032 93.1165 -1.2807 6.2663 -9.0994
# 4 -18.8642 -25.5783 -1.2807 42.4953 -6.4000 -3.2860
# 5 8.6069 3.8861 6.2663 -6.4000 41.4180 -0.9777
# 6 7.8664 -8.0893 -9.0994 -3.2860 -0.9777 28.8534
#
#
#
# Elastic Compliance Matrix: (Units=1/GPa)
#
#
# Indices 1 2 3 4 5 6 
#
# 1 0.014023 -0.002279 -0.005185 0.004042 -0.001425 -0.005685
# 2 -0.002279 0.009031 -0.001616 0.004725 0.000677 0.003205
# 3 -0.005185 -0.001616 0.013808 -0.002647 -0.001152 0.004975
# 4 0.004042 0.004725 -0.002647 0.028856 0.003642 0.002798
# 5 -0.001425 0.000677 -0.001152 0.003642 0.025149 0.001482
# 6 -0.005685 0.003205 0.004975 0.002798 0.001482 0.039044
#
#
# Mechanical properties :
#
#
# Convention : Reuss Voigt Hill
#
# Bulk Modulus (GPa) = 53.47090 60.39843 56.93467
# Shear Modulus (GPa) = 32.40345 37.96115 35.18230
#
# Velocity S-wave (km/s) = 3.76054 4.07028 3.91847
# Velocity P-wave (km/s) = 6.49550 6.96052 6.73203
#
# Compressibility (1/GPa) = 0.01870176
#
# Stress axis : x y z
#
# Youngs Moduli (GPa) = 71.31138 110.72918 72.42256
#
# Poissons Ratio (x) = 0.25241 0.37551
# Poissons Ratio (y) = 0.16255 0.11701
# Poissons Ratio (z) = 0.36975 0.17889
#
# Static dielectric constant tensor:
#      x y z
#    x 3.473510 -0.253320 0.363630 
#    y -0.253320 4.091170 -0.065350 
#    z 0.363630 -0.065350 4.576610 
# 
# 
# High freq. dielectric constant tensor:
#      x y z
#    x 1.889060 -0.006230 0.001010 
#    y -0.006230 1.920800 0.002280 
#    z 0.001010 0.002280 1.915900 
# 
# From -- ./inp_files/559633.got.cif
#   From: 2010.06.25/outbox.cif.g09.slc.cpg/sg2_280_cif.got.tgz:559633.got - 2010.06.27 13:26:56.
