data_PCOD8012975
_publ_section_title
;
Structure prediction by ZEFSAII (Michael W. Deem and Ramdas Pophale) SiO2 
 PCOD8012975
Probable space group: P -1
;
_chemical_formula_sum "Si O2"
_cell_formula_units_Z 14
_cell_length_a 11.983655
_cell_length_b 6.692464
_cell_length_c 12.243176
_cell_angle_alpha 62.567678
_cell_angle_beta 47.844496
_cell_angle_gamma 64.633793
_cell_volume 635.370706
_symmetry_space_group_name_H-M "P -1"
_symmetry_group_IT_number 2
_symmetry_cell_setting 'triclinic'
loop_
_space_group_symop_operation_xyz
x,y,z
-x,-y,-z
loop_
_atom_site_type_symbol
_atom_site_label
_atom_site_fract_x
_atom_site_fract_y
_atom_site_fract_z
Si Si1 0.562625 0.325358 0.809172
Si Si2 0.179205 0.409904 0.385019
Si Si3 0.874766 0.668333 0.160082
Si Si4 0.600068 0.427710 0.347686
Si Si5 0.063838 0.195110 0.141605
Si Si6 0.204138 0.052812 0.638606
Si Si7 0.318003 0.175102 0.143885
O O1 0.723081 0.387089 0.728296
O O2 0.495986 0.505965 0.714941
O O3 0.593078 0.067055 0.806160
O O4 0.440251 0.333129 0.987026
O O5 0.249906 0.226238 0.476172
O O6 0.200688 0.297827 0.279806
O O7 0.000000 0.500000 0.500000
O O8 0.739915 0.559893 0.223283
O O9 0.830906 0.815625 0.258316
O O10 0.011801 0.458215 0.148947
O O11 0.922715 0.827843 0.992973
O O12 0.500000 0.500000 0.500000
O O13 0.655567 0.154352 0.381327
O O14 0.224183 0.109290 0.117229
O O15 0.941867 0.037194 0.293601
#
# Coordination Sequence:
#
# PCOD8012975 Si02
#       7
#     2   2   2   2   2   2   2
#     4  11  25  45  66  97 130 177 220 267 327 389
#     4  12  26  44  67  99 133 171 219 273 327 393
#     4  10  21  40  64  95 131 166 214 267 320 385
#     4  11  23  41  65  96 134 170 215 268 325 389
#     4  10  21  41  66  95 127 169 216 266 322 383
#     4  11  24  40  66 100 129 171 212 266 328 383
#     4  11  24  45  69  94 132 176 221 267 328 387
#
# _framework density 22.034381
#
# number of rings (size 3 to 8) (size 9 to 14) (size 15 to 20)
#    0.000    1.143    1.429    4.286    0.000    8.000 
#    5.143    0.000    0.000    0.000    0.000    0.000 
#    0.000    0.000    0.000    0.000    0.000    0.000 
#
# Total GULP energy -173642.856539 kJ/mol
# GULP energy per Si atom -12403.061181 kJ/mol
# Density = 2.198423 g / cm^3
# Si number density = 22.034381 Si / 1000 Ang^3
#
#
#
# Elastic Constant Matrix: (Units=GPa)
#
#
# Indices 1 2 3 4 5 6 
#
# 1 96.0571 41.3717 34.2353 -0.4509 -4.0261 -7.2940
# 2 41.3717 102.2046 58.7703 9.4995 17.8295 -4.4711
# 3 34.2353 58.7703 127.3063 11.9977 3.1462 0.1015
# 4 -0.4509 9.4995 11.9977 43.1347 4.2272 1.7189
# 5 -4.0261 17.8295 3.1462 4.2272 35.1138 0.2872
# 6 -7.2940 -4.4711 0.1015 1.7189 0.2872 30.1197
#
#
#
# Elastic Compliance Matrix: (Units=1/GPa)
#
#
# Indices 1 2 3 4 5 6 
#
# 1 0.013627 -0.005502 -0.001347 0.001212 0.004312 0.002378
# 2 -0.005502 0.017245 -0.006140 -0.001352 -0.008686 0.001408
# 3 -0.001347 -0.006140 0.011181 -0.001941 0.002205 -0.001186
# 4 0.001212 -0.001352 -0.001941 0.024271 -0.001912 -0.001268
# 5 0.004312 -0.008686 0.002205 -0.001912 0.033420 -0.000462
# 6 0.002378 0.001408 -0.001186 -0.001268 -0.000462 0.034066
#
#
# Mechanical properties :
#
#
# Convention : Reuss Voigt Hill
#
# Bulk Modulus (GPa) = 62.21271 66.03587 64.12429
# Shear Modulus (GPa) = 30.27554 34.41967 32.34760
#
# Velocity S-wave (km/s) = 3.71079 3.95662 3.83567
# Velocity P-wave (km/s) = 6.83049 7.13496 6.98438
#
# Compressibility (1/GPa) = 0.01607388
#
# Stress axis : x y z
#
# Youngs Moduli (GPa) = 73.38119 57.98759 89.43436
#
# Poissons Ratio (x) = 0.31907 0.12048
# Poissons Ratio (y) = 0.40378 0.54916
# Poissons Ratio (z) = 0.09886 0.35607
#
# Static dielectric constant tensor:
#      x y z
#    x 3.656070 -0.122250 -0.122710 
#    y -0.122250 3.949600 -0.095840 
#    z -0.122710 -0.095840 4.144820 
# 
# 
# High freq. dielectric constant tensor:
#      x y z
#    x 1.865760 -0.007920 -0.005970 
#    y -0.007920 1.866900 -0.006470 
#    z -0.005970 -0.006470 1.881260 
# 
# From -- ./inp_files/68402.got.cif
#   From: 2010.06.25/outbox.cif.g09.slc.cpg/sg2_35_cif.got.tgz:68402.got - 2010.06.27 13:26:56.
