data_PCOD8012935
_publ_section_title
;
Structure prediction by ZEFSAII (Michael W. Deem and Ramdas Pophale) SiO2 
 PCOD8012935
Probable space group: P -1
;
_chemical_formula_sum "Si O2"
_cell_formula_units_Z 16
_cell_length_a 5.356982
_cell_length_b 15.805824
_cell_length_c 8.626223
_cell_angle_alpha 71.022473
_cell_angle_beta 91.194302
_cell_angle_gamma 99.574274
_cell_volume 680.641764
_symmetry_space_group_name_H-M "P -1"
_symmetry_group_IT_number 2
_symmetry_cell_setting 'triclinic'
loop_
_space_group_symop_operation_xyz
x,y,z
-x,-y,-z
loop_
_atom_site_type_symbol
_atom_site_label
_atom_site_fract_x
_atom_site_fract_y
_atom_site_fract_z
Si Si1 0.984245 0.863470 0.064215
Si Si2 0.513125 0.560790 0.115837
Si Si3 0.663190 0.895772 0.305146
Si Si4 0.653935 0.757305 0.905618
Si Si5 0.958504 0.438565 0.687823
Si Si6 0.975923 0.817724 0.586394
Si Si7 0.776159 0.249200 0.640995
Si Si8 0.657339 0.086659 0.222840
O O1 0.779247 0.911352 0.123811
O O2 0.176430 0.837720 0.208201
O O3 0.862615 0.768200 0.037333
O O4 0.122513 0.924884 0.891752
O O5 0.258568 0.526518 0.232233
O O6 0.774858 0.558810 0.217444
O O7 0.500000 0.500000 0.000000
O O8 0.484100 0.660278 0.991010
O O9 0.870190 0.895585 0.443365
O O10 0.514389 0.790993 0.380527
O O11 0.519192 0.980859 0.296901
O O12 0.776117 0.761492 0.734899
O O13 0.518174 0.844487 0.881660
O O14 0.826560 0.339524 0.687425
O O15 0.000000 0.500000 0.500000
O O16 0.057105 0.740995 0.519433
O O17 0.224581 0.871664 0.640662
#
# Coordination Sequence:
#
# PCOD8012935 Si02
#       8
#     2   2   2   2   2   2   2   2
#     4  10  21  40  64  92 134 182 232 298 357 424
#     4  12  28  51  82 117 154 195 247 311 380 456
#     4  11  23  40  63  98 136 187 243 297 359 431
#     4  11  24  43  69  96 142 183 239 293 369 429
#     4  12  28  51  82 117 154 195 247 311 380 456
#     4  10  25  40  64  94 138 190 234 302 359 432
#     4  11  24  43  69  96 142 183 239 293 369 429
#     4  11  23  40  63  98 136 187 243 297 359 431
#
# _framework density 23.507225999999999
#
# number of rings (size 3 to 8) (size 9 to 14) (size 15 to 20)
#    0.000    1.000    1.250    4.500    5.250   10.000 
#    0.000    0.000    0.000    0.000    0.000    0.000 
#    0.000    0.000    0.000    0.000    0.000    0.000 
#
# Total GULP energy -198219.154371 kJ/mol
# GULP energy per Si atom -12388.697148 kJ/mol
# Density = 2.345372 g / cm^3
# Si number density = 23.507226 Si / 1000 Ang^3
#
#
#
# Elastic Constant Matrix: (Units=GPa)
#
#
# Indices 1 2 3 4 5 6 
#
# 1 101.9273 30.4483 34.9441 9.0142 -7.2275 -4.8802
# 2 30.4483 108.0493 43.0589 4.0745 -2.5963 1.7026
# 3 34.9441 43.0589 108.6532 24.8346 1.0031 -6.2031
# 4 9.0142 4.0745 24.8346 30.8606 -6.3034 -2.4400
# 5 -7.2275 -2.5963 1.0031 -6.3034 30.6363 7.8556
# 6 -4.8802 1.7026 -6.2031 -2.4400 7.8556 32.1575
#
#
#
# Elastic Compliance Matrix: (Units=1/GPa)
#
#
# Indices 1 2 3 4 5 6 
#
# 1 0.011638 -0.002096 -0.002825 -0.000299 0.002414 0.000720
# 2 -0.002096 0.011730 -0.004834 0.003165 0.001843 -0.002081
# 3 -0.002825 -0.004834 0.014786 -0.011144 -0.004612 0.002961
# 4 -0.000299 0.003165 -0.011144 0.042920 0.009777 -0.001494
# 5 0.002414 0.001843 -0.004612 0.009777 0.037871 -0.009130
# 6 0.000720 -0.002081 0.002961 -0.001494 -0.009130 0.034004
#
#
# Mechanical properties :
#
#
# Convention : Reuss Voigt Hill
#
# Bulk Modulus (GPa) = 53.63464 59.50359 56.56911
# Shear Modulus (GPa) = 27.98418 32.74279 30.36348
#
# Velocity S-wave (km/s) = 3.45403 3.73618 3.59787
# Velocity P-wave (km/s) = 6.22679 6.63174 6.43245
#
# Compressibility (1/GPa) = 0.01864467
#
# Stress axis : x y z
#
# Youngs Moduli (GPa) = 85.92844 85.25430 67.62926
#
# Poissons Ratio (x) = 0.17867 0.19106
# Poissons Ratio (y) = 0.18008 0.32690
# Poissons Ratio (z) = 0.24276 0.41210
#
# Static dielectric constant tensor:
#      x y z
#    x 4.269340 0.024970 -0.016590 
#    y 0.024970 4.129210 0.257050 
#    z -0.016590 0.257050 4.318530 
# 
# 
# High freq. dielectric constant tensor:
#      x y z
#    x 1.928060 0.005260 -0.001750 
#    y 0.005260 1.925670 0.022380 
#    z -0.001750 0.022380 1.946050 
# 
# From -- ./inp_files/134992.got.cif
#   From: 2010.06.25/outbox.cif.g09.slc.cpg/sg2_68_cif.got.tgz:134992.got - 2010.06.27 13:26:56.
