data_PCOD8012477
_publ_section_title
;
Structure prediction by ZEFSAII (Michael W. Deem and Ramdas Pophale) SiO2 
 PCOD8012477
Probable space group: P -1
;
_chemical_formula_sum "Si O2"
_cell_formula_units_Z 16
_cell_length_a 11.110712
_cell_length_b 18.726211
_cell_length_c 16.459198
_cell_angle_alpha 158.923940
_cell_angle_beta 147.467115
_cell_angle_gamma 42.518879
_cell_volume 640.092452
_symmetry_space_group_name_H-M "P -1"
_symmetry_group_IT_number 2
_symmetry_cell_setting 'triclinic'
loop_
_space_group_symop_operation_xyz
x,y,z
-x,-y,-z
loop_
_atom_site_type_symbol
_atom_site_label
_atom_site_fract_x
_atom_site_fract_y
_atom_site_fract_z
Si Si1 0.300862 0.635942 0.622412
Si Si2 0.114377 0.957171 0.780653
Si Si3 0.219283 0.307000 0.088675
Si Si4 0.539460 0.734541 0.463608
Si Si5 0.785094 0.695473 0.203310
Si Si6 0.092019 0.797928 0.337958
Si Si7 0.448838 0.941602 0.313709
Si Si8 0.042537 0.287056 0.209756
O O1 0.281859 0.866610 0.837896
O O2 0.245787 0.497976 0.364694
O O3 0.569957 0.654818 0.816411
O O4 0.140699 0.521465 0.483058
O O5 0.927342 0.749394 0.425583
O O6 0.225803 0.090613 0.906624
O O7 0.012862 0.115813 0.941248
O O8 0.989637 0.306573 0.906851
O O9 0.596136 0.862512 0.549239
O O10 0.787257 0.750612 0.663284
O O11 0.368565 0.816811 0.516483
O O12 0.420145 0.507306 0.123544
O O13 0.960890 0.670293 0.204574
O O14 0.665475 0.886997 0.333009
O O15 0.000000 0.000000 0.500000
O O16 0.500000 0.000000 0.500000
O O17 0.227580 0.748242 0.960153
#
# Coordination Sequence:
#
# PCOD8012477 Si02
#       8
#     2   2   2   2   2   2   2   2
#     4  10  23  39  66  97 146 181 240 291 350 424
#     4  11  22  39  70 100 139 191 237 285 364 421
#     4  10  21  40  60 104 141 188 232 289 354 430
#     4  12  28  47  75 110 148 184 243 300 362 429
#     4  12  26  45  76 110 139 197 240 295 365 428
#     4  12  23  43  72 103 148 182 232 293 367 428
#     4  12  27  51  77 102 147 190 250 299 350 428
#     4  11  27  47  70 106 143 188 242 300 354 421
#
# _framework density 24.996388
#
# number of rings (size 3 to 8) (size 9 to 14) (size 15 to 20)
#    0.000    0.750    3.750    2.625    5.250    6.000 
#    0.000    0.000    0.000    0.000    0.000    0.000 
#    0.000    0.000    0.000    0.000    0.000    0.000 
#
# Total GULP energy -198269.125319 kJ/mol
# GULP energy per Si atom -12391.820332 kJ/mol
# Density = 2.493950 g / cm^3
# Si number density = 24.996388 Si / 1000 Ang^3
#
#
#
# Elastic Constant Matrix: (Units=GPa)
#
#
# Indices 1 2 3 4 5 6 
#
# 1 81.1818 25.5628 15.3740 -6.0663 9.8813 9.5975
# 2 25.5628 92.3607 6.5283 -1.8914 9.8303 10.5029
# 3 15.3740 6.5283 82.1169 -6.5421 7.3671 5.1451
# 4 -6.0663 -1.8914 -6.5421 42.9485 -1.4594 7.2669
# 5 9.8813 9.8303 7.3671 -1.4594 37.2340 5.4737
# 6 9.5975 10.5029 5.1451 7.2669 5.4737 42.7667
#
#
#
# Elastic Compliance Matrix: (Units=1/GPa)
#
#
# Indices 1 2 3 4 5 6 
#
# 1 0.014402 -0.003327 -0.001948 0.001894 -0.002157 -0.002226
# 2 -0.003327 0.012204 -0.000010 0.000344 -0.002022 -0.002049
# 3 -0.001948 -0.000010 0.012925 0.001835 -0.001790 -0.001198
# 4 0.001894 0.000344 0.001835 0.024722 0.000751 -0.005027
# 5 -0.002157 -0.002022 -0.001790 0.000751 0.028731 -0.002609
# 6 -0.002226 -0.002049 -0.001198 -0.005027 -0.002609 0.025718
#
#
# Mechanical properties :
#
#
# Convention : Reuss Voigt Hill
#
# Bulk Modulus (GPa) = 34.52920 38.95443 36.74182
# Shear Modulus (GPa) = 35.99075 38.46945 37.23010
#
# Velocity S-wave (km/s) = 3.79864 3.92727 3.86349
# Velocity P-wave (km/s) = 5.75180 6.01518 5.88496
#
# Compressibility (1/GPa) = 0.02896099
#
# Stress axis : x y z
#
# Youngs Moduli (GPa) = 69.43596 81.94115 77.36889
#
# Poissons Ratio (x) = 0.27260 0.15071
# Poissons Ratio (y) = 0.23100 0.00079
# Poissons Ratio (z) = 0.13526 0.00083
#
# Static dielectric constant tensor:
#      x y z
#    x 4.470880 -0.028590 0.116900 
#    y -0.028590 4.508150 -0.198300 
#    z 0.116900 -0.198300 4.765010 
# 
# 
# High freq. dielectric constant tensor:
#      x y z
#    x 1.977600 -0.004200 0.002830 
#    y -0.004200 2.002940 -0.002100 
#    z 0.002830 -0.002100 2.007650 
# 
# From -- ./inp_files/570833.got.cif
#   From: 2010.06.25/outbox.cif.g09.slc.cpg/sg2_286_cif.got.tgz:570833.got - 2010.06.27 13:26:56.
