data_PCOD8012742
_publ_section_title
;
Structure prediction by ZEFSAII (Michael W. Deem and Ramdas Pophale) SiO2 
 PCOD8012742
Probable space group: P -1
;
_chemical_formula_sum "Si O2"
_cell_formula_units_Z 16
_cell_length_a 6.804845
_cell_length_b 22.414430
_cell_length_c 10.887017
_cell_angle_alpha 44.124557
_cell_angle_beta 69.207014
_cell_angle_gamma 103.706054
_cell_volume 708.042238
_symmetry_space_group_name_H-M "P -1"
_symmetry_group_IT_number 2
_symmetry_cell_setting 'triclinic'
loop_
_space_group_symop_operation_xyz
x,y,z
-x,-y,-z
loop_
_atom_site_type_symbol
_atom_site_label
_atom_site_fract_x
_atom_site_fract_y
_atom_site_fract_z
Si Si1 0.339568 0.276434 0.974006
Si Si2 0.212246 0.739023 0.390770
Si Si3 0.613800 0.476522 0.811141
Si Si4 0.682342 0.613132 0.389072
Si Si5 0.582739 0.173165 0.042923
Si Si6 0.712927 0.092439 0.523055
Si Si7 0.861170 0.767917 0.556197
Si Si8 0.657549 0.872554 0.324289
O O1 0.365658 0.182941 0.132116
O O2 0.995071 0.207786 0.196837
O O3 0.614488 0.406790 0.803525
O O4 0.370098 0.307195 0.774159
O O5 0.399883 0.775407 0.419166
O O6 0.959488 0.585484 0.640504
O O7 0.025873 0.772211 0.398382
O O8 0.452625 0.828753 0.093185
O O9 0.547694 0.549908 0.649947
O O10 0.349402 0.371206 0.126058
O O11 0.500000 0.500000 0.500000
O O12 0.056026 0.703433 0.174758
O O13 0.458096 0.041520 0.304699
O O14 0.457135 0.089104 0.611874
O O15 0.870905 0.113490 0.585905
O O16 0.658033 0.785642 0.529945
O O17 0.000000 0.000000 0.000000
#
# Coordination Sequence:
#
# PCOD8012742 Si02
#       8
#     2   2   2   2   2   2   2   2
#     4  10  22  40  62  88 121 162 200 243 299 355
#     4  10  22  38  59  90 121 155 200 246 294 356
#     4   9  20  40  62  86 121 157 194 248 299 347
#     4   9  21  39  58  85 120 157 202 246 289 350
#     4  11  22  38  61  89 124 163 200 243 297 355
#     4  10  23  41  61  90 123 154 200 253 296 353
#     4  10  21  40  63  88 122 157 195 248 305 355
#     4  11  23  40  64  91 119 157 200 246 304 360
#
# _framework density 22.597522999999999
#
# number of rings (size 3 to 8) (size 9 to 14) (size 15 to 20)
#    0.000    2.000    0.000    2.250    0.000   13.500 
#    0.000    8.750    0.000    0.000    0.000    0.000 
#    0.000    0.000    0.000    0.000    0.000    0.000 
#
# Total GULP energy -198257.770119 kJ/mol
# GULP energy per Si atom -12391.110632 kJ/mol
# Density = 2.254609 g / cm^3
# Si number density = 22.597523 Si / 1000 Ang^3
#
#
#
# Elastic Constant Matrix: (Units=GPa)
#
#
# Indices 1 2 3 4 5 6 
#
# 1 131.2111 47.9197 41.7038 -5.9544 7.0699 -10.2056
# 2 47.9197 82.8445 41.5212 -9.1427 2.8465 -6.4619
# 3 41.7038 41.5212 102.5680 -16.8293 0.8741 -4.6764
# 4 -5.9544 -9.1427 -16.8293 30.5350 2.4340 -1.5769
# 5 7.0699 2.8465 0.8741 2.4340 27.1525 2.0251
# 6 -10.2056 -6.4619 -4.6764 -1.5769 2.0251 29.5175
#
#
#
# Elastic Compliance Matrix: (Units=1/GPa)
#
#
# Indices 1 2 3 4 5 6 
#
# 1 0.010311 -0.004609 -0.002251 -0.000308 -0.002276 0.002339
# 2 -0.004609 0.017515 -0.004836 0.001825 -0.000765 0.001625
# 3 -0.002251 -0.004836 0.013571 0.005615 0.000108 0.000606
# 4 -0.000308 0.001825 0.005615 0.036813 -0.003847 0.003413
# 5 -0.002276 -0.000765 0.000108 -0.003847 0.038123 -0.003758
# 6 0.002339 0.001625 0.000606 0.003413 -0.003758 0.035579
#
#
# Mechanical properties :
#
#
# Convention : Reuss Voigt Hill
#
# Bulk Modulus (GPa) = 55.54408 64.32366 59.93387
# Shear Modulus (GPa) = 27.57768 29.80626 28.69197
#
# Velocity S-wave (km/s) = 3.49719 3.63575 3.56714
# Velocity P-wave (km/s) = 6.39845 6.79350 6.59893
#
# Compressibility (1/GPa) = 0.01800372
#
# Stress axis : x y z
#
# Youngs Moduli (GPa) = 96.98734 57.09313 73.68831
#
# Poissons Ratio (x) = 0.26315 0.16586
# Poissons Ratio (y) = 0.44703 0.35638
# Poissons Ratio (z) = 0.21831 0.27612
#
# Static dielectric constant tensor:
#      x y z
#    x 4.125590 0.232600 0.149190 
#    y 0.232600 4.159610 -0.051110 
#    z 0.149190 -0.051110 4.173610 
# 
# 
# High freq. dielectric constant tensor:
#      x y z
#    x 1.875350 0.016230 0.005210 
#    y 0.016230 1.892570 -0.010880 
#    z 0.005210 -0.010880 1.893520 
# 
# From -- ./inp_files/77824.got.cif
#   From: 2010.06.25/outbox.cif.g09.slc.cpg/sg2_39_cif.got.tgz:77824.got - 2010.06.27 13:26:56.
