data_PCOD8012383
_publ_section_title
;
Structure prediction by ZEFSAII (Michael W. Deem and Ramdas Pophale) SiO2 
 PCOD8012383
Probable space group: P -1
;
_chemical_formula_sum "Si O2"
_cell_formula_units_Z 14
_cell_length_a 7.478451
_cell_length_b 8.182923
_cell_length_c 13.376435
_cell_angle_alpha 80.054540
_cell_angle_beta 60.433166
_cell_angle_gamma 113.472686
_cell_volume 578.907855
_symmetry_space_group_name_H-M "P -1"
_symmetry_group_IT_number 2
_symmetry_cell_setting 'triclinic'
loop_
_space_group_symop_operation_xyz
x,y,z
-x,-y,-z
loop_
_atom_site_type_symbol
_atom_site_label
_atom_site_fract_x
_atom_site_fract_y
_atom_site_fract_z
Si Si1 0.706201 0.079325 0.202977
Si Si2 0.820683 0.602617 0.078355
Si Si3 0.492062 0.164718 0.426244
Si Si4 0.514902 0.237496 0.866011
Si Si5 0.439310 0.294212 0.088469
Si Si6 0.920100 0.940679 0.317346
Si Si7 0.949554 0.591667 0.265103
O O1 0.549251 0.153020 0.294945
O O2 0.549451 0.952293 0.162754
O O3 0.742244 0.940384 0.282282
O O4 0.981052 0.260663 0.075580
O O5 0.633382 0.670449 0.144661
O O6 0.661086 0.372886 0.101249
O O7 0.955860 0.613659 0.141167
O O8 0.220750 0.119997 0.529285
O O9 0.701843 0.383856 0.389045
O O10 0.500000 0.000000 0.500000
O O11 0.811279 0.406569 0.765822
O O12 0.437588 0.162219 0.010902
O O13 0.500000 0.500000 0.000000
O O14 0.175790 0.161881 0.231547
O O15 0.971163 0.775399 0.294489
#
# Coordination Sequence:
#
# PCOD8012383 Si02
#       7
#     2   2   2   2   2   2   2
#     4  11  21  45  69 102 140 187 218 284 346 400
#     4  11  23  42  72 102 145 171 228 285 346 398
#     4  10  26  45  72  95 140 187 230 280 341 406
#     4  11  23  40  70 105 139 173 223 284 349 397
#     4  10  21  39  71 102 139 182 219 281 350 400
#     4  11  22  45  71  99 142 182 230 280 335 409
#     4  12  26  44  73 106 133 181 232 285 339 407
#
# _framework density 24.18347
#
# number of rings (size 3 to 8) (size 9 to 14) (size 15 to 20)
#    0.000    1.143    4.286    2.571    6.000    5.714 
#    0.000    7.143    0.000    0.000    0.000    0.000 
#    0.000    0.000    0.000    0.000    0.000    0.000 
#
# Total GULP energy -173555.244050 kJ/mol
# GULP energy per Si atom -12396.803146 kJ/mol
# Density = 2.412843 g / cm^3
# Si number density = 24.183470 Si / 1000 Ang^3
#
#
#
# Elastic Constant Matrix: (Units=GPa)
#
#
# Indices 1 2 3 4 5 6 
#
# 1 78.2080 32.8979 36.6478 3.1401 -8.8821 12.8471
# 2 32.8979 145.0847 78.7161 4.3318 -18.1481 29.3591
# 3 36.6478 78.7161 175.2224 -7.5682 -30.0037 3.6637
# 4 3.1401 4.3318 -7.5682 45.7546 1.6368 0.6093
# 5 -8.8821 -18.1481 -30.0037 1.6368 31.8081 -4.5583
# 6 12.8471 29.3591 3.6637 0.6093 -4.5583 32.1774
#
#
#
# Elastic Compliance Matrix: (Units=1/GPa)
#
#
# Indices 1 2 3 4 5 6 
#
# 1 0.015341 -0.000953 -0.002629 -0.001356 0.000637 -0.004841
# 2 -0.000953 0.011876 -0.004910 -0.001761 0.000567 -0.009782
# 3 -0.002629 -0.004910 0.009473 0.001925 0.006056 0.005273
# 4 -0.001356 -0.001761 0.001925 0.022433 -0.000517 0.001431
# 5 0.000637 0.000567 0.006056 -0.000517 0.038247 0.003967
# 6 -0.004841 -0.009782 0.005273 0.001431 0.003967 0.041871
#
#
# Mechanical properties :
#
#
# Convention : Reuss Voigt Hill
#
# Bulk Modulus (GPa) = 50.74671 77.22653 63.98662
# Shear Modulus (GPa) = 30.71396 38.63158 34.67277
#
# Velocity S-wave (km/s) = 3.56763 4.00113 3.79058
# Velocity P-wave (km/s) = 6.16443 7.30399 6.75827
#
# Compressibility (1/GPa) = 0.01970571
#
# Stress axis : x y z
#
# Youngs Moduli (GPa) = 65.18512 84.20646 105.56713
#
# Poissons Ratio (x) = 0.08021 0.27754
# Poissons Ratio (y) = 0.06209 0.51835
# Poissons Ratio (z) = 0.17137 0.41347
#
# Static dielectric constant tensor:
#      x y z
#    x 4.350290 0.178160 -0.406770 
#    y 0.178160 4.700180 0.306010 
#    z -0.406770 0.306010 7.585750 
# 
# 
# High freq. dielectric constant tensor:
#      x y z
#    x 1.952660 -0.000770 -0.011510 
#    y -0.000770 1.970360 0.002880 
#    z -0.011510 0.002880 1.960590 
# 
# From -- ./inp_files/202197.got.cif
#   From: 2010.06.25/outbox.cif.g09.slc.cpg/sg2_102_cif.got.tgz:202197.got - 2010.06.27 13:26:56.
