data_PCOD8012318
_publ_section_title
;
Structure prediction by ZEFSAII (Michael W. Deem and Ramdas Pophale) SiO2 
 PCOD8012318
Probable space group: P -1
;
_chemical_formula_sum "Si O2"
_cell_formula_units_Z 12
_cell_length_a 12.750232
_cell_length_b 12.443203
_cell_length_c 9.624055
_cell_angle_alpha 145.584246
_cell_angle_beta 51.758393
_cell_angle_gamma 142.145193
_cell_volume 527.271574
_symmetry_space_group_name_H-M "P -1"
_symmetry_group_IT_number 2
_symmetry_cell_setting 'triclinic'
loop_
_space_group_symop_operation_xyz
x,y,z
-x,-y,-z
loop_
_atom_site_type_symbol
_atom_site_label
_atom_site_fract_x
_atom_site_fract_y
_atom_site_fract_z
Si Si1 0.269019 0.664413 0.492898
Si Si2 0.849180 0.943114 0.471298
Si Si3 0.254622 0.088837 0.949469
Si Si4 0.425021 0.000669 0.208945
Si Si5 0.644285 0.399743 0.953710
Si Si6 0.022171 0.168863 0.311834
O O1 0.224606 0.843346 0.740775
O O2 0.101683 0.412897 0.420959
O O3 0.434257 0.767082 0.562480
O O4 0.303532 0.648863 0.287122
O O5 0.764229 0.681983 0.193429
O O6 0.715393 0.964392 0.678371
O O7 0.000000 0.000000 0.500000
O O8 0.941793 0.162066 0.515557
O O9 0.143579 0.064292 0.882884
O O10 0.452992 0.313897 0.003844
O O11 0.169222 0.141034 0.196722
O O12 0.348934 0.753274 0.093218
O O13 0.500000 0.000000 0.000000
#
# Coordination Sequence:
#
# PCOD8012318 Si02
#       6
#     2   2   2   2   2   2
#     4  11  23  43  74 102 137 177 233 285 339 409
#     4  12  29  45  68 100 145 183 231 283 345 410
#     4  10  21  39  69 102 136 170 226 286 343 399
#     4  11  27  48  73 101 139 188 228 276 350 417
#     4  11  24  46  74  99 137 184 235 283 340 408
#     4  11  23  39  66 104 139 174 224 286 345 396
#
# _framework density 22.758672000000001
#
# number of rings (size 3 to 8) (size 9 to 14) (size 15 to 20)
#    0.000    1.000    0.000    7.500    7.000    4.667 
#    0.000    0.000    0.000    0.000    0.000    0.000 
#    0.000    0.000    0.000    0.000    0.000    0.000 
#
# Total GULP energy -148720.392311 kJ/mol
# GULP energy per Si atom -12393.366026 kJ/mol
# Density = 2.270687 g / cm^3
# Si number density = 22.758672 Si / 1000 Ang^3
#
#
#
# Elastic Constant Matrix: (Units=GPa)
#
#
# Indices 1 2 3 4 5 6 
#
# 1 117.9907 44.3441 31.7917 -1.3207 2.2570 9.3186
# 2 44.3441 126.5942 53.4795 -1.5153 13.8619 -13.8302
# 3 31.7917 53.4795 99.2626 -6.7096 -1.9860 -9.2448
# 4 -1.3207 -1.5153 -6.7096 34.2914 1.3660 5.6939
# 5 2.2570 13.8619 -1.9860 1.3660 32.2640 -1.7595
# 6 9.3186 -13.8302 -9.2448 5.6939 -1.7595 35.4463
#
#
#
# Elastic Compliance Matrix: (Units=1/GPa)
#
#
# Indices 1 2 3 4 5 6 
#
# 1 0.010679 -0.003468 -0.001944 0.000654 0.000336 -0.004756
# 2 -0.003468 0.012387 -0.005344 -0.001138 -0.005127 0.004279
# 3 -0.001944 -0.005344 0.013953 0.001970 0.003312 0.001913
# 4 0.000654 -0.001138 0.001970 0.030398 -0.000997 -0.005035
# 5 0.000336 -0.005127 0.003312 -0.000997 0.033452 0.000596
# 6 -0.004756 0.004279 0.001913 -0.005035 0.000596 0.032469
#
#
# Mechanical properties :
#
#
# Convention : Reuss Voigt Hill
#
# Bulk Modulus (GPa) = 64.48324 67.00869 65.74596
# Shear Modulus (GPa) = 31.24640 34.68248 32.96444
#
# Velocity S-wave (km/s) = 3.70935 3.90798 3.80996
# Velocity P-wave (km/s) = 6.83671 7.06188 6.95021
#
# Compressibility (1/GPa) = 0.01550791
#
# Stress axis : x y z
#
# Youngs Moduli (GPa) = 93.64298 80.73112 71.66682
#
# Poissons Ratio (x) = 0.27998 0.13930
# Poissons Ratio (y) = 0.32476 0.38297
# Poissons Ratio (z) = 0.18202 0.43141
#
# Static dielectric constant tensor:
#      x y z
#    x 4.297420 0.314980 0.004280 
#    y 0.314980 4.636890 -0.142130 
#    z 0.004280 -0.142130 4.099570 
# 
# 
# High freq. dielectric constant tensor:
#      x y z
#    x 1.907800 0.011420 -0.011490 
#    y 0.011420 1.910890 0.000040 
#    z -0.011490 0.000040 1.892520 
# 
# From -- ./inp_files/263741.got.cif
#   From: 2010.06.25/outbox.cif.g09.slc.cpg/sg2_132_cif.got.tgz:263741.got - 2010.06.27 13:26:56.
