data_PCOD8012314
_publ_section_title
;
Structure prediction by ZEFSAII (Michael W. Deem and Ramdas Pophale) SiO2 
 PCOD8012314
Probable space group: P -1
;
_chemical_formula_sum "Si O2"
_cell_formula_units_Z 14
_cell_length_a 8.753036
_cell_length_b 12.452401
_cell_length_c 8.061910
_cell_angle_alpha 56.987803
_cell_angle_beta 56.270245
_cell_angle_gamma 70.921102
_cell_volume 612.442327
_symmetry_space_group_name_H-M "P -1"
_symmetry_group_IT_number 2
_symmetry_cell_setting 'triclinic'
loop_
_space_group_symop_operation_xyz
x,y,z
-x,-y,-z
loop_
_atom_site_type_symbol
_atom_site_label
_atom_site_fract_x
_atom_site_fract_y
_atom_site_fract_z
Si Si1 0.058549 0.688962 0.125696
Si Si2 0.182402 0.957154 0.827043
Si Si3 0.201328 0.182981 0.373047
Si Si4 0.173643 0.460809 0.815797
Si Si5 0.835309 0.287751 0.585461
Si Si6 0.683050 0.547911 0.924277
Si Si7 0.472889 0.892288 0.975809
O O1 0.052722 0.704521 0.314526
O O2 0.862368 0.665207 0.172329
O O3 0.164589 0.557114 0.129987
O O4 0.149048 0.816041 0.887906
O O5 0.228142 0.059231 0.575062
O O6 0.361860 0.950960 0.837906
O O7 0.000000 0.000000 0.000000
O O8 0.323261 0.158519 0.155975
O O9 0.982837 0.209775 0.442634
O O10 0.272912 0.315018 0.299657
O O11 0.224171 0.575523 0.567181
O O12 0.333439 0.434365 0.879207
O O13 0.000000 0.500000 0.000000
O O14 0.644876 0.218363 0.778290
O O15 0.500000 0.500000 0.000000
O O16 0.500000 0.000000 0.000000
#
# Coordination Sequence:
#
# PCOD8012314 Si02
#       7
#     2   2   2   2   2   2   2
#     4  10  21  41  70  99 137 180 235 283 343 418
#     4  11  23  45  71 103 137 188 233 281 356 415
#     4  12  24  46  73 100 141 186 235 284 354 414
#     4  10  21  39  69 101 132 183 232 281 348 412
#     4  11  22  45  72 101 140 184 235 290 348 411
#     4  11  24  43  68 106 140 180 232 286 350 414
#     4  11  27  45  66 107 145 178 236 294 345 419
#
# _framework density 22.859294999999999
#
# number of rings (size 3 to 8) (size 9 to 14) (size 15 to 20)
#    0.000    1.143    5.714    2.571    0.000    5.143 
#    0.000    2.857    0.000    0.000    0.000    0.000 
#    0.000    0.000    0.000    0.000    0.000    0.000 
#
# Total GULP energy -173467.464740 kJ/mol
# GULP energy per Si atom -12390.533196 kJ/mol
# Density = 2.280727 g / cm^3
# Si number density = 22.859295 Si / 1000 Ang^3
#
#
#
# Elastic Constant Matrix: (Units=GPa)
#
#
# Indices 1 2 3 4 5 6 
#
# 1 115.5243 34.7380 51.3827 -14.4743 4.3867 32.3432
# 2 34.7380 139.1581 68.1374 -21.3388 -3.8854 16.6594
# 3 51.3827 68.1374 160.9917 -33.6656 -12.7586 9.2679
# 4 -14.4743 -21.3388 -33.6656 58.7403 -16.6886 -5.4688
# 5 4.3867 -3.8854 -12.7586 -16.6886 22.4884 -1.0313
# 6 32.3432 16.6594 9.2679 -5.4688 -1.0313 37.0237
#
#
#
# Elastic Compliance Matrix: (Units=1/GPa)
#
#
# Indices 1 2 3 4 5 6 
#
# 1 0.014200 -0.000403 -0.004979 -0.002973 -0.008405 -0.011651
# 2 -0.000403 0.009519 -0.003409 0.001319 0.000637 -0.002865
# 3 -0.004979 -0.003409 0.011891 0.008693 0.013789 0.004575
# 4 -0.002973 0.001319 0.008693 0.030317 0.028472 0.005099
# 5 -0.008405 0.000637 0.013789 0.028472 0.075624 0.009917
# 6 -0.011651 -0.002865 0.004575 0.005099 0.009917 0.038361
#
#
# Mechanical properties :
#
#
# Convention : Reuss Voigt Hill
#
# Bulk Modulus (GPa) = 55.46757 80.46559 67.96658
# Shear Modulus (GPa) = 24.56974 41.07822 32.82398
#
# Velocity S-wave (km/s) = 3.28201 4.24371 3.79346
# Velocity P-wave (km/s) = 6.21929 7.69993 6.99887
#
# Compressibility (1/GPa) = 0.01802855
#
# Stress axis : x y z
#
# Youngs Moduli (GPa) = 70.42078 105.05492 84.09923
#
# Poissons Ratio (x) = 0.04231 0.41873
# Poissons Ratio (y) = 0.02836 0.28669
# Poissons Ratio (z) = 0.35062 0.35813
#
# Static dielectric constant tensor:
#      x y z
#    x 4.016640 0.150040 -0.085180 
#    y 0.150040 3.582490 0.807640 
#    z -0.085180 0.807640 3.084830 
# 
# 
# High freq. dielectric constant tensor:
#      x y z
#    x 1.892080 -0.000260 -0.002170 
#    y -0.000260 1.906100 -0.019650 
#    z -0.002170 -0.019650 1.906060 
# 
# From -- ./inp_files/184688.got.cif
#   From: 2010.06.25/outbox.cif.g09.slc.cpg/sg2_93_cif.got.tgz:184688.got - 2010.06.27 13:26:56.
