data_PCOD8012876
_publ_section_title
;
Structure prediction by ZEFSAII (Michael W. Deem and Ramdas Pophale) SiO2 
 PCOD8012876
Probable space group: P -1
;
_chemical_formula_sum "Si O2"
_cell_formula_units_Z 16
_cell_length_a 9.022449
_cell_length_b 8.582527
_cell_length_c 14.123305
_cell_angle_alpha 85.922359
_cell_angle_beta 130.267620
_cell_angle_gamma 111.214514
_cell_volume 757.291508
_symmetry_space_group_name_H-M "P -1"
_symmetry_group_IT_number 2
_symmetry_cell_setting 'triclinic'
loop_
_space_group_symop_operation_xyz
x,y,z
-x,-y,-z
loop_
_atom_site_type_symbol
_atom_site_label
_atom_site_fract_x
_atom_site_fract_y
_atom_site_fract_z
Si Si1 0.464906 0.140119 0.545776
Si Si2 0.292991 0.006704 0.866985
Si Si3 0.488739 0.325122 0.243211
Si Si4 0.678098 0.669535 0.029172
Si Si5 0.088601 0.370067 0.583123
Si Si6 0.084839 0.754129 0.273379
Si Si7 0.171061 0.147287 0.278316
Si Si8 0.259305 0.911665 0.641978
O O1 0.706458 0.284671 0.656712
O O2 0.318778 0.221276 0.429607
O O3 0.500000 0.000000 0.500000
O O4 0.354080 0.067527 0.602044
O O5 0.298088 0.995836 0.756909
O O6 0.066035 0.854120 0.812673
O O7 0.294245 0.187283 0.886993
O O8 0.500000 0.000000 0.000000
O O9 0.651933 0.527555 0.312305
O O10 0.293865 0.271500 0.237908
O O11 0.616632 0.208828 0.315302
O O12 0.376343 0.281313 0.097068
O O13 0.901202 0.647244 0.125986
O O14 0.500000 0.500000 0.000000
O O15 0.000000 0.500000 0.500000
O O16 0.999146 0.302415 0.652925
O O17 0.993138 0.202009 0.481958
O O18 0.146483 0.953327 0.266073
#
# Coordination Sequence:
#
# PCOD8012876 Si02
#       8
#     2   2   2   2   2   2   2   2
#     4  10  16  33  59  91 128 150 212 267 305 355
#     4  11  25  41  62  93 132 166 210 261 323 374
#     4  11  20  37  66  91 123 166 218 259 307 378
#     4  11  23  40  63  92 127 169 215 255 309 389
#     4  10  19  32  59  93 121 163 204 251 319 372
#     4  10  18  34  59  91 122 156 213 265 295 359
#     4  10  21  37  60  95 120 161 218 265 303 379
#     4  11  20  37  62  93 128 166 205 267 317 370
#
# _framework density 21.127925999999999
#
# number of rings (size 3 to 8) (size 9 to 14) (size 15 to 20)
#    0.000    1.500    7.500    0.750    0.000    3.500 
#    0.000    0.625    0.000    6.000    0.000    0.000 
#    0.000    0.000    0.000    0.000    0.000    0.000 
#
# Total GULP energy -198215.808364 kJ/mol
# GULP energy per Si atom -12388.488023 kJ/mol
# Density = 2.107984 g / cm^3
# Si number density = 21.127926 Si / 1000 Ang^3
#
#
#
# Elastic Constant Matrix: (Units=GPa)
#
#
# Indices 1 2 3 4 5 6 
#
# 1 79.7089 37.7633 46.0300 10.4226 7.4904 34.2240
# 2 37.7633 99.6258 44.6047 3.7037 -2.6274 41.7671
# 3 46.0300 44.6047 128.4314 12.2257 9.3491 20.4714
# 4 10.4226 3.7037 12.2257 33.5252 15.4454 2.9862
# 5 7.4904 -2.6274 9.3491 15.4454 46.8258 2.2408
# 6 34.2240 41.7671 20.4714 2.9862 2.2408 32.4230
#
#
#
# Elastic Compliance Matrix: (Units=1/GPa)
#
#
# Indices 1 2 3 4 5 6 
#
# 1 0.028303 0.006561 -0.006658 -0.004162 0.000158 -0.033751
# 2 0.006561 0.025361 -0.005526 -0.001271 0.003630 -0.036240
# 3 -0.006658 -0.005526 0.011158 -0.001416 -0.001356 0.007326
# 4 -0.004162 -0.001271 -0.001416 0.036654 -0.011421 0.004338
# 5 0.000158 0.003630 -0.001356 -0.011421 0.025798 -0.004718
# 6 -0.033751 -0.036240 0.007326 0.004338 -0.004718 0.108454
#
#
# Mechanical properties :
#
#
# Convention : Reuss Voigt Hill
#
# Bulk Modulus (GPa) = 18.66521 62.72913 40.69717
# Shear Modulus (GPa) = 18.87990 34.51267 26.69629
#
# Velocity S-wave (km/s) = 2.99256 4.04605 3.55851
# Velocity P-wave (km/s) = 4.56005 7.18206 6.01565
#
# Compressibility (1/GPa) = 0.05357560
#
# Stress axis : x y z
#
# Youngs Moduli (GPa) = 35.33214 39.43044 89.62508
#
# Poissons Ratio (x) = -0.25872 0.59673
# Poissons Ratio (y) = -0.23183 0.49530
# Poissons Ratio (z) = 0.23524 0.21791
#
# Static dielectric constant tensor:
#      x y z
#    x 4.424700 0.496650 0.582620 
#    y 0.496650 3.971420 0.570410 
#    z 0.582620 0.570410 4.649900 
# 
# 
# High freq. dielectric constant tensor:
#      x y z
#    x 1.791340 0.035640 0.023350 
#    y 0.035640 1.817750 0.001340 
#    z 0.023350 0.001340 1.855270 
# 
# From -- ./inp_files/392527.got.cif
#   From: 2010.06.25/outbox.cif.g09.slc.cpg/sg2_197_cif.got.tgz:392527.got - 2010.06.27 13:26:56.
