data_PCOD8012076
_publ_section_title
;
Structure prediction by ZEFSAII (Michael W. Deem and Ramdas Pophale) SiO2 
 PCOD8012076
Probable space group: P -1
;
_chemical_formula_sum "Si O2"
_cell_formula_units_Z 16
_cell_length_a 11.523613
_cell_length_b 19.038073
_cell_length_c 11.096259
_cell_angle_alpha 33.220151
_cell_angle_beta 52.483728
_cell_angle_gamma 40.002900
_cell_volume 853.822580
_symmetry_space_group_name_H-M "P -1"
_symmetry_group_IT_number 2
_symmetry_cell_setting 'triclinic'
loop_
_space_group_symop_operation_xyz
x,y,z
-x,-y,-z
loop_
_atom_site_type_symbol
_atom_site_label
_atom_site_fract_x
_atom_site_fract_y
_atom_site_fract_z
Si Si1 0.786082 0.779194 0.632889
Si Si2 0.077405 0.956821 0.145922
Si Si3 0.454281 0.318457 0.003561
Si Si4 0.676138 0.976534 0.653460
Si Si5 0.653358 0.004368 0.172521
Si Si6 0.170330 0.659766 0.628885
Si Si7 0.251632 0.806519 0.818981
Si Si8 0.952806 0.174795 0.281293
O O1 0.695550 0.685193 0.820902
O O2 0.679768 0.916374 0.602841
O O3 0.997564 0.660419 0.704132
O O4 0.766456 0.859726 0.402045
O O5 0.186613 0.768475 0.368550
O O6 0.212348 0.009461 0.995721
O O7 0.916071 0.041357 0.223164
O O8 0.000000 0.000000 0.000000
O O9 0.565672 0.172881 0.050941
O O10 0.593113 0.318264 0.007911
O O11 0.350308 0.481160 0.760423
O O12 0.497564 0.006046 0.784051
O O13 0.853656 0.850118 0.802770
O O14 0.661346 0.136199 0.411930
O O15 0.160826 0.723802 0.676901
O O16 0.168350 0.733881 0.893500
O O17 0.000000 0.000000 0.500000
#
# Coordination Sequence:
#
# PCOD8012076 Si02
#       8
#     2   2   2   2   2   2   2   2
#     4  10  16  33  52  76 106 139 172 211 258 314
#     4  12  20  34  52  78 108 144 173 204 263 324
#     4  11  20  30  53  84 108 133 171 223 269 297
#     4   9  15  31  55  75  93 134 183 216 238 293
#     4  11  19  32  54  77 110 139 173 208 257 322
#     4  11  21  33  51  83 110 133 172 223 262 305
#     4  11  18  35  57  75 101 141 179 215 255 304
#     4   9  18  34  57  73 101 137 183 222 246 301
#
# _framework density 18.739256000000001
#
# number of rings (size 3 to 8) (size 9 to 14) (size 15 to 20)
#    0.000    1.500    8.750    1.125    0.000    1.000 
#    0.000    0.625    0.000    0.000    0.000    1.750 
#    0.000    0.000    0.000    0.000    0.000    0.000 
#
# Total GULP energy -198278.598704 kJ/mol
# GULP energy per Si atom -12392.412419 kJ/mol
# Density = 1.869660 g / cm^3
# Si number density = 18.739256 Si / 1000 Ang^3
#
#
#
# Elastic Constant Matrix: (Units=GPa)
#
#
# Indices 1 2 3 4 5 6 
#
# 1 122.6849 23.1670 29.7722 2.2363 5.8647 -19.5946
# 2 23.1670 36.6223 25.1176 -2.1442 0.8878 -13.8667
# 3 29.7722 25.1176 90.7077 -2.7203 4.4705 -17.2023
# 4 2.2363 -2.1442 -2.7203 24.8244 -15.5108 -3.2849
# 5 5.8647 0.8878 4.4705 -15.5108 24.3857 4.0109
# 6 -19.5946 -13.8667 -17.2023 -3.2849 4.0109 28.7171
#
#
#
# Elastic Compliance Matrix: (Units=1/GPa)
#
#
# Indices 1 2 3 4 5 6 
#
# 1 0.010297 -0.004027 -0.001240 -0.004295 -0.005596 0.004629
# 2 -0.004027 0.039899 -0.007311 0.006491 0.002934 0.012472
# 3 -0.001240 -0.007311 0.014488 -0.000166 -0.002970 0.004698
# 4 -0.004295 0.006491 -0.000166 0.069340 0.044636 0.001801
# 5 -0.005596 0.002934 -0.002970 0.044636 0.072700 -0.009229
# 6 0.004629 0.012472 0.004698 0.001801 -0.009229 0.048313
#
#
# Mechanical properties :
#
#
# Convention : Reuss Voigt Hill
#
# Bulk Modulus (GPa) = 25.29808 45.12538 35.21173
# Shear Modulus (GPa) = 17.04333 27.04930 22.04631
#
# Velocity S-wave (km/s) = 3.01906 3.80341 3.43370
# Velocity P-wave (km/s) = 5.06777 6.58945 5.87806
#
# Compressibility (1/GPa) = 0.03952870
#
# Stress axis : x y z
#
# Youngs Moduli (GPa) = 97.11179 25.06351 69.02098
#
# Poissons Ratio (x) = 0.10092 0.08558
# Poissons Ratio (y) = 0.39103 0.50464
# Poissons Ratio (z) = 0.12041 0.18325
#
# Static dielectric constant tensor:
#      x y z
#    x 4.099640 -0.368780 -0.080270 
#    y -0.368780 3.252240 0.207490 
#    z -0.080270 0.207490 3.349360 
# 
# 
# High freq. dielectric constant tensor:
#      x y z
#    x 1.742460 -0.031820 0.001540 
#    y -0.031820 1.685490 0.003810 
#    z 0.001540 0.003810 1.699870 
# 
# From -- ./inp_files/257038.got.cif
#   From: 2010.06.25/outbox.cif.g09.slc.cpg/sg2_129_cif.got.tgz:257038.got - 2010.06.27 13:26:56.
