data_PCOD8012025
_publ_section_title
;
Structure prediction by ZEFSAII (Michael W. Deem and Ramdas Pophale) SiO2 
 PCOD8012025
Probable space group: P -1
;
_chemical_formula_sum "Si O2"
_cell_formula_units_Z 12
_cell_length_a 17.898305
_cell_length_b 5.255057
_cell_length_c 9.472278
_cell_angle_alpha 97.293820
_cell_angle_beta 136.284534
_cell_angle_gamma 61.994006
_cell_volume 509.590663
_symmetry_space_group_name_H-M "P -1"
_symmetry_group_IT_number 2
_symmetry_cell_setting 'triclinic'
loop_
_space_group_symop_operation_xyz
x,y,z
-x,-y,-z
loop_
_atom_site_type_symbol
_atom_site_label
_atom_site_fract_x
_atom_site_fract_y
_atom_site_fract_z
Si Si1 0.857460 0.828578 0.954445
Si Si2 0.400980 0.020893 0.754653
Si Si3 0.973668 0.182367 0.131872
Si Si4 0.440512 0.844147 0.493137
Si Si5 0.248962 0.719960 0.615342
Si Si6 0.131390 0.858260 0.752707
O O1 0.922298 0.987351 0.966586
O O2 0.714622 0.961522 0.713098
O O3 0.951861 0.463939 0.029660
O O4 0.858381 0.886431 0.128576
O O5 0.300703 0.380709 0.603032
O O6 0.477911 0.839627 0.706316
O O7 0.339091 0.845317 0.720934
O O8 0.500000 0.000000 0.000000
O O9 0.872592 0.347060 0.140407
O O10 0.115814 0.957107 0.372094
O O11 0.500000 0.500000 0.500000
O O12 0.500000 0.000000 0.500000
O O13 0.243125 0.690878 0.776237
O O14 0.000000 0.000000 0.500000
#
# Coordination Sequence:
#
# PCOD8012025 Si02
#       6
#     2   2   2   2   2   2
#     4  10  21  39  65  98 127 169 230 261 316 394
#     4  12  29  45  67  99 135 176 227 277 339 382
#     4   9  20  37  65 103 131 171 215 264 328 398
#     4  12  28  49  71  93 131 181 232 273 326 402
#     4  11  23  41  67  98 141 168 216 278 333 388
#     4   8  20  34  67  98 136 167 222 250 332 392
#
# _framework density 23.548311000000002
#
# number of rings (size 3 to 8) (size 9 to 14) (size 15 to 20)
#    1.000    0.667    0.000    3.500    7.000    1.333 
#    0.000    5.000    0.000    0.000    0.000    0.000 
#    0.000    0.000    0.000    0.000    0.000    0.000 
#
# Total GULP energy -148679.227196 kJ/mol
# GULP energy per Si atom -12389.935600 kJ/mol
# Density = 2.349471 g / cm^3
# Si number density = 23.548311 Si / 1000 Ang^3
#
#
#
# Elastic Constant Matrix: (Units=GPa)
#
#
# Indices 1 2 3 4 5 6 
#
# 1 136.6003 57.1800 27.1470 15.0688 4.3952 25.1750
# 2 57.1800 172.2021 33.1449 2.2585 -14.1336 13.9290
# 3 27.1470 33.1449 106.4801 14.5986 -3.0860 -2.1103
# 4 15.0688 2.2585 14.5986 44.4286 -2.7242 -3.5875
# 5 4.3952 -14.1336 -3.0860 -2.7242 28.7994 9.9342
# 6 25.1750 13.9290 -2.1103 -3.5875 9.9342 41.9030
#
#
#
# Elastic Compliance Matrix: (Units=1/GPa)
#
#
# Indices 1 2 3 4 5 6 
#
# 1 0.010125 -0.002761 -0.001412 -0.003343 -0.001593 -0.005145
# 2 -0.002761 0.007591 -0.001732 0.001252 0.004760 -0.001973
# 3 -0.001412 -0.001732 0.010703 -0.002827 -0.000380 0.001811
# 4 -0.003343 0.001252 -0.002827 0.024885 0.002114 0.003079
# 5 -0.001593 0.004760 -0.000380 0.002114 0.040972 -0.010177
# 6 -0.005145 -0.001973 0.001811 0.003079 -0.010177 0.030379
#
#
# Mechanical properties :
#
#
# Convention : Reuss Voigt Hill
#
# Bulk Modulus (GPa) = 60.20505 72.24737 66.22621
# Shear Modulus (GPa) = 35.21082 42.88023 39.04552
#
# Velocity S-wave (km/s) = 3.87105 4.27189 4.07640
# Velocity P-wave (km/s) = 6.75294 7.42153 7.09511
#
# Compressibility (1/GPa) = 0.01660990
#
# Stress axis : x y z
#
# Youngs Moduli (GPa) = 98.76340 131.73175 93.43260
#
# Poissons Ratio (x) = 0.36373 0.13190
# Poissons Ratio (y) = 0.27270 0.16181
# Poissons Ratio (z) = 0.13943 0.22814
#
# Static dielectric constant tensor:
#      x y z
#    x 4.861600 -0.063900 -0.314910 
#    y -0.063900 4.406630 0.354080 
#    z -0.314910 0.354080 4.203950 
# 
# 
# High freq. dielectric constant tensor:
#      x y z
#    x 1.957970 0.001180 -0.009580 
#    y 0.001180 1.936720 0.020410 
#    z -0.009580 0.020410 1.934760 
# 
# From -- ./inp_files/92790.got.cif
#   From: 2010.06.25/outbox.cif.g09.slc.cpg/sg2_47_cif.got.tgz:92790.got - 2010.06.27 13:26:56.
