data_PCOD8012998
_publ_section_title
;
Structure prediction by ZEFSAII (Michael W. Deem and Ramdas Pophale) SiO2 
 PCOD8012998
Probable space group: P -1
;
_chemical_formula_sum "Si O2"
_cell_formula_units_Z 16
_cell_length_a 11.238138
_cell_length_b 16.969135
_cell_length_c 7.932143
_cell_angle_alpha 33.908712
_cell_angle_beta 70.118215
_cell_angle_gamma 59.641677
_cell_volume 718.198940
_symmetry_space_group_name_H-M "P -1"
_symmetry_group_IT_number 2
_symmetry_cell_setting 'triclinic'
loop_
_space_group_symop_operation_xyz
x,y,z
-x,-y,-z
loop_
_atom_site_type_symbol
_atom_site_label
_atom_site_fract_x
_atom_site_fract_y
_atom_site_fract_z
Si Si1 0.280340 0.673644 0.923400
Si Si2 0.432009 0.812377 0.367183
Si Si3 0.982513 0.271706 0.281552
Si Si4 0.717789 0.825993 0.208709
Si Si5 0.438172 0.409574 0.573007
Si Si6 0.078293 0.936574 0.747833
Si Si7 0.822309 0.621328 0.196967
Si Si8 0.997264 0.292869 0.607629
O O1 0.389184 0.704531 0.699347
O O2 0.148682 0.677259 0.872863
O O3 0.232095 0.805210 0.860542
O O4 0.357815 0.507720 0.271853
O O5 0.584127 0.798045 0.375022
O O6 0.441044 0.748302 0.283978
O O7 0.320115 0.990767 0.115240
O O8 0.923512 0.331181 0.391749
O O9 0.076709 0.085449 0.581454
O O10 0.091357 0.341463 0.055396
O O11 0.794775 0.740190 0.152654
O O12 0.838963 0.745265 0.432177
O O13 0.500000 0.500000 0.500000
O O14 0.329965 0.365720 0.811553
O O15 0.000000 0.000000 0.500000
O O16 0.000036 0.861919 0.035232
O O17 0.916284 0.437143 0.519065
#
# Coordination Sequence:
#
# PCOD8012998 Si02
#       8
#     2   2   2   2   2   2   2   2
#     4  11  22  41  64  93 130 174 217 270 324 393
#     4  10  23  42  64  95 129 177 219 263 327 392
#     4  11  25  38  66 100 135 168 217 276 333 387
#     4  10  22  41  68  92 131 173 220 267 325 390
#     4  11  26  43  67  93 130 176 220 269 324 397
#     4  10  21  40  64  97 131 173 212 266 331 389
#     4  11  24  44  65  97 132 171 220 274 331 381
#     4  12  23  40  67 101 132 170 218 276 329 389
#
# _framework density 22.277951999999999
#
# number of rings (size 3 to 8) (size 9 to 14) (size 15 to 20)
#    0.000    1.250    1.250    5.250    5.250    2.000 
#    0.000    0.000    0.000    6.000    0.000    0.000 
#    0.000    0.000    0.000    0.000    0.000    0.000 
#
# Total GULP energy -198322.554917 kJ/mol
# GULP energy per Si atom -12395.159682 kJ/mol
# Density = 2.222725 g / cm^3
# Si number density = 22.277952 Si / 1000 Ang^3
#
#
#
# Elastic Constant Matrix: (Units=GPa)
#
#
# Indices 1 2 3 4 5 6 
#
# 1 100.4788 50.4928 34.6547 7.2070 -11.8207 1.9799
# 2 50.4928 105.8116 40.3477 -4.2773 0.2827 -1.1496
# 3 34.6547 40.3477 88.8313 1.3489 -16.7931 7.5262
# 4 7.2070 -4.2773 1.3489 41.5364 -7.0021 -7.2362
# 5 -11.8207 0.2827 -16.7931 -7.0021 35.4285 2.5496
# 6 1.9799 -1.1496 7.5262 -7.2362 2.5496 33.3978
#
#
#
# Elastic Compliance Matrix: (Units=1/GPa)
#
#
# Indices 1 2 3 4 5 6 
#
# 1 0.014415 -0.006275 -0.001943 -0.002755 0.003502 -0.001497
# 2 -0.006275 0.014621 -0.005323 0.002534 -0.004446 0.002963
# 3 -0.001943 -0.005323 0.016189 -0.000256 0.007329 -0.004331
# 4 -0.002755 0.002534 -0.000256 0.026458 0.003755 0.005754
# 5 0.003502 -0.004446 0.007329 0.003755 0.033919 -0.003788
# 6 -0.001497 0.002963 -0.004331 0.005754 -0.003788 0.032645
#
#
# Mechanical properties :
#
#
# Convention : Reuss Voigt Hill
#
# Bulk Modulus (GPa) = 55.11450 60.67913 57.89681
# Shear Modulus (GPa) = 29.17559 33.38096 31.27827
#
# Velocity S-wave (km/s) = 3.62279 3.87510 3.75107
# Velocity P-wave (km/s) = 6.50328 6.87883 6.69369
#
# Compressibility (1/GPa) = 0.01814405
#
# Stress axis : x y z
#
# Youngs Moduli (GPa) = 69.37385 68.39286 61.76875
#
# Poissons Ratio (x) = 0.42915 0.12000
# Poissons Ratio (y) = 0.43531 0.32881
# Poissons Ratio (z) = 0.13477 0.36407
#
# Static dielectric constant tensor:
#      x y z
#    x 3.917850 -0.167060 -0.189290 
#    y -0.167060 4.424780 -0.526180 
#    z -0.189290 -0.526180 4.142960 
# 
# 
# High freq. dielectric constant tensor:
#      x y z
#    x 1.864000 -0.014040 -0.022520 
#    y -0.014040 1.890790 -0.021020 
#    z -0.022520 -0.021020 1.875950 
# 
# From -- ./inp_files/277228.got.cif
#   From: 2010.06.25/outbox.cif.g09.slc.cpg/sg2_139_cif.got.tgz:277228.got - 2010.06.27 13:26:56.
