data_PCOD8012730
_publ_section_title
;
Structure prediction by ZEFSAII (Michael W. Deem and Ramdas Pophale) SiO2 
 PCOD8012730
Probable space group: P -1
;
_chemical_formula_sum "Si O2"
_cell_formula_units_Z 16
_cell_length_a 14.197473
_cell_length_b 23.772181
_cell_length_c 25.966854
_cell_angle_alpha 169.239707
_cell_angle_beta 31.677932
_cell_angle_gamma 148.114748
_cell_volume 851.602892
_symmetry_space_group_name_H-M "P -1"
_symmetry_group_IT_number 2
_symmetry_cell_setting 'triclinic'
loop_
_space_group_symop_operation_xyz
x,y,z
-x,-y,-z
loop_
_atom_site_type_symbol
_atom_site_label
_atom_site_fract_x
_atom_site_fract_y
_atom_site_fract_z
Si Si1 0.943392 0.535342 0.638916
Si Si2 0.631825 0.670127 0.050352
Si Si3 0.655293 0.911155 0.589161
Si Si4 0.712351 0.278526 0.795264
Si Si5 0.232350 0.871428 0.734005
Si Si6 0.876183 0.213036 0.478762
Si Si7 0.914553 0.924109 0.302620
Si Si8 0.845200 0.348604 0.974391
O O1 0.833106 0.271367 0.418596
O O2 0.001806 0.389497 0.534599
O O3 0.127613 0.679620 0.656283
O O4 0.808772 0.783408 0.935139
O O5 0.504185 0.791289 0.174986
O O6 0.752631 0.942914 0.266076
O O7 0.500000 0.500000 0.000000
O O8 0.751079 0.442484 0.765339
O O9 0.441529 0.853617 0.629807
O O10 0.758289 0.092935 0.657085
O O11 0.703464 0.103651 0.791131
O O12 0.733282 0.594739 0.272609
O O13 0.821417 0.172382 0.600744
O O14 0.765608 0.636584 0.101536
O O15 0.986120 0.082128 0.357155
O O16 0.078695 0.820645 0.164977
O O17 0.000000 0.500000 0.000000
#
# Coordination Sequence:
#
# PCOD8012730 Si02
#       8
#     2   2   2   2   2   2   2   2
#     4  10  21  40  63  87 119 144 184 233 291 351
#     4  12  22  34  51  81 117 150 183 221 269 348
#     4  12  22  37  59  80 111 146 192 241 283 325
#     4  12  21  33  52  77 109 146 182 222 272 334
#     4  10  22  40  62  91 112 145 189 238 287 341
#     4  12  22  37  55  79 116 155 181 224 288 338
#     4  12  23  35  51  76 110 150 187 220 270 328
#     4  12  23  38  55  78 112 155 195 235 277 324
#
# _framework density 18.788098999999999
#
# number of rings (size 3 to 8) (size 9 to 14) (size 15 to 20)
#    0.000    0.500    5.000    5.250    0.000    0.000 
#    0.000    0.000    0.000    1.500    0.000    0.000 
#    0.000    0.000    0.000    0.000    0.000    0.000 
#
# Total GULP energy -198431.266793 kJ/mol
# GULP energy per Si atom -12401.954175 kJ/mol
# Density = 1.874534 g / cm^3
# Si number density = 18.788099 Si / 1000 Ang^3
#
#
#
# Elastic Constant Matrix: (Units=GPa)
#
#
# Indices 1 2 3 4 5 6 
#
# 1 109.8464 31.7890 28.0799 14.1219 -18.8430 -22.9537
# 2 31.7890 69.6266 17.9260 7.0843 -10.3590 -13.8800
# 3 28.0799 17.9260 89.2749 -6.9424 8.6762 -11.6959
# 4 14.1219 7.0843 -6.9424 18.4386 -2.6554 -7.3034
# 5 -18.8430 -10.3590 8.6762 -2.6554 42.1943 4.5713
# 6 -22.9537 -13.8800 -11.6959 -7.3034 4.5713 29.6175
#
#
#
# Elastic Compliance Matrix: (Units=1/GPa)
#
#
# Indices 1 2 3 4 5 6 
#
# 1 0.014097 -0.002591 -0.004481 -0.008741 0.005496 0.004938
# 2 -0.002591 0.017931 -0.002919 -0.004060 0.003184 0.003750
# 3 -0.004481 -0.002919 0.015276 0.011423 -0.005669 0.004884
# 4 -0.008741 -0.004060 0.011423 0.071798 -0.004269 0.014197
# 5 0.005496 0.003184 -0.005669 -0.004269 0.028035 -0.001867
# 6 0.004938 0.003750 0.004884 0.014197 -0.001867 0.045066
#
#
# Mechanical properties :
#
#
# Convention : Reuss Voigt Hill
#
# Bulk Modulus (GPa) = 36.60084 47.14863 41.87474
# Shear Modulus (GPa) = 22.59445 30.78028 26.68736
#
# Velocity S-wave (km/s) = 3.47161 4.05197 3.77296
# Velocity P-wave (km/s) = 5.96595 6.85862 6.42780
#
# Compressibility (1/GPa) = 0.02732178
#
# Stress axis : x y z
#
# Youngs Moduli (GPa) = 70.93596 55.76844 65.46268
#
# Poissons Ratio (x) = 0.14451 0.29331
# Poissons Ratio (y) = 0.18382 0.19111
# Poissons Ratio (z) = 0.31784 0.16281
#
# Static dielectric constant tensor:
#      x y z
#    x 3.850950 -0.295860 0.004930 
#    y -0.295860 3.688250 -0.007430 
#    z 0.004930 -0.007430 3.697660 
# 
# 
# High freq. dielectric constant tensor:
#      x y z
#    x 1.739570 -0.018980 0.008680 
#    y -0.018980 1.696350 0.001890 
#    z 0.008680 0.001890 1.753670 
# 
# From -- ./inp_files/455742.got.cif
#   From: 2010.06.25/outbox.cif.g09.slc.cpg/sg2_228_cif.got.tgz:455742.got - 2010.06.27 13:26:56.
