data_PCOD8012270
_publ_section_title
;
Structure prediction by ZEFSAII (Michael W. Deem and Ramdas Pophale) SiO2 
 PCOD8012270
Probable space group: P -1
;
_chemical_formula_sum "Si O2"
_cell_formula_units_Z 16
_cell_length_a 18.159391
_cell_length_b 12.383278
_cell_length_c 9.511321
_cell_angle_alpha 48.186710
_cell_angle_beta 27.587583
_cell_angle_gamma 48.909862
_cell_volume 724.479033
_symmetry_space_group_name_H-M "P -1"
_symmetry_group_IT_number 2
_symmetry_cell_setting 'triclinic'
loop_
_space_group_symop_operation_xyz
x,y,z
-x,-y,-z
loop_
_atom_site_type_symbol
_atom_site_label
_atom_site_fract_x
_atom_site_fract_y
_atom_site_fract_z
Si Si1 0.595899 0.011711 0.467243
Si Si2 0.847860 0.761284 0.184035
Si Si3 0.834044 0.819123 0.709011
Si Si4 0.640631 0.130450 0.842237
Si Si5 0.508198 0.566253 0.276157
Si Si6 0.610317 0.696346 0.410622
Si Si7 0.925172 0.169157 0.486933
Si Si8 0.144994 0.377456 0.413662
O O1 0.783203 0.933102 0.194419
O O2 0.500000 0.000000 0.500000
O O3 0.561778 0.185629 0.411624
O O4 0.524210 0.918146 0.789952
O O5 0.703035 0.708620 0.389308
O O6 0.894897 0.659129 0.327659
O O7 0.005791 0.747945 0.832009
O O8 0.844298 0.767468 0.576014
O O9 0.013852 0.776825 0.513933
O O10 0.761971 0.995178 0.679861
O O11 0.718247 0.730983 0.067139
O O12 0.592696 0.266106 0.698311
O O13 0.731698 0.186771 0.776297
O O14 0.500000 0.500000 0.500000
O O15 0.426411 0.467159 0.393074
O O16 0.690776 0.559979 0.923626
O O17 0.000000 0.000000 0.500000
O O18 0.000000 0.500000 0.500000
#
# Coordination Sequence:
#
# PCOD8012270 Si02
#       8
#     2   2   2   2   2   2   2   2
#     4   9  17  37  63  94 122 153 202 266 308 357
#     4  10  21  40  64  92 129 164 204 256 313 370
#     4   9  20  43  66  92 124 169 205 248 319 377
#     4  10  21  39  68  94 118 164 218 252 297 375
#     4  12  25  42  63  91 127 164 215 259 298 377
#     4   9  20  39  68  93 119 164 213 251 314 366
#     4   9  19  39  67  95 121 156 212 258 298 370
#     4  12  27  44  58  90 135 167 200 259 324 365
#
# _framework density 22.084835999999999
#
# number of rings (size 3 to 8) (size 9 to 14) (size 15 to 20)
#    0.000    2.000    2.500    2.250    1.750    3.000 
#    9.000    5.000    0.000    0.000    0.000    0.000 
#    0.000    0.000    0.000    0.000    0.000    0.000 
#
# Total GULP energy -198303.088022 kJ/mol
# GULP energy per Si atom -12393.943001 kJ/mol
# Density = 2.203457 g / cm^3
# Si number density = 22.084836 Si / 1000 Ang^3
#
#
#
# Elastic Constant Matrix: (Units=GPa)
#
#
# Indices 1 2 3 4 5 6 
#
# 1 98.3978 39.6948 28.5891 -13.8885 10.7749 -2.6777
# 2 39.6948 110.4106 20.8099 -15.6510 2.6482 -6.8982
# 3 28.5891 20.8099 46.3899 -12.3560 1.2705 0.4047
# 4 -13.8885 -15.6510 -12.3560 28.3663 -7.3752 1.4217
# 5 10.7749 2.6482 1.2705 -7.3752 39.3431 -5.3229
# 6 -2.6777 -6.8982 0.4047 1.4217 -5.3229 39.6151
#
#
#
# Elastic Compliance Matrix: (Units=1/GPa)
#
#
# Indices 1 2 3 4 5 6 
#
# 1 0.014045 -0.003554 -0.006656 0.001194 -0.003178 -0.000071
# 2 -0.003554 0.011329 -0.001898 0.003919 0.001247 0.001779
# 3 -0.006656 -0.001898 0.028839 0.008974 0.002559 -0.001053
# 4 0.001194 0.003919 0.008974 0.043814 0.007344 0.000086
# 5 -0.003178 0.001247 0.002559 0.007344 0.027968 0.003471
# 6 -0.000071 0.001779 -0.001053 0.000086 0.003471 0.026022
#
#
# Mechanical properties :
#
#
# Convention : Reuss Voigt Hill
#
# Bulk Modulus (GPa) = 33.33512 48.15398 40.74455
# Shear Modulus (GPa) = 26.84838 32.53853 29.69346
#
# Velocity S-wave (km/s) = 3.49046 3.84258 3.67074
# Velocity P-wave (km/s) = 5.60101 6.44505 6.03780
#
# Compressibility (1/GPa) = 0.02999840
#
# Stress axis : x y z
#
# Youngs Moduli (GPa) = 71.20026 88.26668 34.67544
#
# Poissons Ratio (x) = 0.31370 0.23079
# Poissons Ratio (y) = 0.25304 0.06580
# Poissons Ratio (z) = 0.47388 0.16750
#
# Static dielectric constant tensor:
#      x y z
#    x 4.640370 -0.205710 -1.192580 
#    y -0.205710 4.237080 0.396410 
#    z -1.192580 0.396410 6.580470 
# 
# 
# High freq. dielectric constant tensor:
#      x y z
#    x 1.866230 -0.007930 0.000940 
#    y -0.007930 1.860220 -0.007390 
#    z 0.000940 -0.007390 1.853590 
# 
# From -- ./inp_files/312457.got.cif
#   From: 2010.06.25/outbox.cif.g09.slc.cpg/sg2_157_cif.got.tgz:312457.got - 2010.06.27 13:26:56.
