data_PCOD8012737
_publ_section_title
;
Structure prediction by ZEFSAII (Michael W. Deem and Ramdas Pophale) SiO2 
 PCOD8012737
Probable space group: P -1
;
_chemical_formula_sum "Si O2"
_cell_formula_units_Z 16
_cell_length_a 14.936329
_cell_length_b 13.737350
_cell_length_c 8.563650
_cell_angle_alpha 95.751003
_cell_angle_beta 80.990306
_cell_angle_gamma 28.316952
_cell_volume 709.005311
_symmetry_space_group_name_H-M "P -1"
_symmetry_group_IT_number 2
_symmetry_cell_setting 'triclinic'
loop_
_space_group_symop_operation_xyz
x,y,z
-x,-y,-z
loop_
_atom_site_type_symbol
_atom_site_label
_atom_site_fract_x
_atom_site_fract_y
_atom_site_fract_z
Si Si1 0.890269 0.981916 0.139323
Si Si2 0.474413 0.163455 0.837167
Si Si3 0.276042 0.438170 0.611361
Si Si4 0.711553 0.780968 0.512803
Si Si5 0.563504 0.333777 0.523389
Si Si6 0.114679 0.391993 0.115568
Si Si7 0.352906 0.607374 0.916464
Si Si8 0.195630 0.090787 0.086365
O O1 0.811829 0.065631 0.355496
O O2 0.770892 0.182758 0.102461
O O3 0.799091 0.970672 0.089694
O O4 0.155689 0.726871 0.035055
O O5 0.354864 0.320711 0.740572
O O6 0.663091 0.894524 0.697163
O O7 0.600024 0.130345 0.885167
O O8 0.303331 0.288468 0.031021
O O9 0.275336 0.348536 0.474082
O O10 0.416551 0.390347 0.501534
O O11 0.029389 0.721812 0.739434
O O12 0.939187 0.590786 0.333949
O O13 0.500000 0.000000 0.500000
O O14 0.500000 0.500000 0.500000
O O15 0.527134 0.375954 0.725175
O O16 0.220222 0.181904 0.070228
O O17 0.000000 0.500000 0.000000
O O18 0.500000 0.500000 0.000000
#
# Coordination Sequence:
#
# PCOD8012737 Si02
#       8
#     2   2   2   2   2   2   2   2
#     4  10  23  41  64  94 125 165 201 256 325 370
#     4  11  23  40  60  90 125 163 215 252 309 363
#     4  10  21  40  63  87 125 162 206 262 304 369
#     4   9  19  36  61  85 119 168 201 254 307 353
#     4  10  22  42  65  93 125 161 205 255 318 376
#     4  11  20  38  59  85 124 162 205 254 301 361
#     4  10  22  43  70  90 123 158 206 264 316 376
#     4  11  23  38  63  91 125 165 206 255 306 374
#
# _framework density 22.566828000000001
#
# number of rings (size 3 to 8) (size 9 to 14) (size 15 to 20)
#    0.000    1.750    5.000    0.375    3.500    2.500 
#    2.250    2.500    0.000    0.000    0.000    0.000 
#    0.000    0.000    0.000    0.000    0.000    0.000 
#
# Total GULP energy -198211.448707 kJ/mol
# GULP energy per Si atom -12388.215544 kJ/mol
# Density = 2.251547 g / cm^3
# Si number density = 22.566828 Si / 1000 Ang^3
#
#
#
# Elastic Constant Matrix: (Units=GPa)
#
#
# Indices 1 2 3 4 5 6 
#
# 1 122.1591 29.2561 69.3399 3.8232 -7.9837 -24.4932
# 2 29.2561 49.4852 31.3486 11.3340 -2.6589 -27.5199
# 3 69.3399 31.3486 169.2085 22.0406 2.1852 -22.7509
# 4 3.8232 11.3340 22.0406 21.3796 -2.2618 -0.9927
# 5 -7.9837 -2.6589 2.1852 -2.2618 41.1351 -5.9752
# 6 -24.4932 -27.5199 -22.7509 -0.9927 -5.9752 38.3898
#
#
#
# Elastic Compliance Matrix: (Units=1/GPa)
#
#
# Indices 1 2 3 4 5 6 
#
# 1 0.012382 -0.003540 -0.004674 0.004964 0.003162 0.003213
# 2 -0.003540 0.043573 -0.000099 -0.020453 0.005253 0.029207
# 3 -0.004674 -0.000099 0.009267 -0.008744 -0.001601 0.001964
# 4 0.004964 -0.020453 -0.008744 0.065222 0.001550 -0.014748
# 5 0.003162 0.005253 -0.001601 0.001550 0.026746 0.009037
# 6 0.003213 0.029207 0.001964 -0.014748 0.009037 0.051225
#
#
# Mechanical properties :
#
#
# Convention : Reuss Voigt Hill
#
# Bulk Modulus (GPa) = 20.57712 66.74912 43.66312
# Shear Modulus (GPa) = 20.72631 34.24142 27.48387
#
# Velocity S-wave (km/s) = 3.03387 3.89952 3.49361
# Velocity P-wave (km/s) = 4.62716 7.06524 5.97194
#
# Compressibility (1/GPa) = 0.04859767
#
# Stress axis : x y z
#
# Youngs Moduli (GPa) = 80.76030 22.95009 107.90879
#
# Poissons Ratio (x) = 0.08124 0.50434
# Poissons Ratio (y) = 0.28588 0.01065
# Poissons Ratio (z) = 0.37746 0.00226
#
# Static dielectric constant tensor:
#      x y z
#    x 4.417210 -0.118360 0.288960 
#    y -0.118360 4.689840 -1.216890 
#    z 0.288960 -1.216890 7.532470 
# 
# 
# High freq. dielectric constant tensor:
#      x y z
#    x 1.896300 -0.010130 0.002800 
#    y -0.010130 1.870040 0.018010 
#    z 0.002800 0.018010 1.892060 
# 
# From -- ./inp_files/315432.got.cif
#   From: 2010.06.25/outbox.cif.g09.slc.cpg/sg2_158_cif.got.tgz:315432.got - 2010.06.27 13:26:56.
