data_PCOD8012973
_publ_section_title
;
Structure prediction by ZEFSAII (Michael W. Deem and Ramdas Pophale) SiO2 
 PCOD8012973
Probable space group: P -1
;
_chemical_formula_sum "Si O2"
_cell_formula_units_Z 14
_cell_length_a 29.218205
_cell_length_b 18.430448
_cell_length_c 5.784382
_cell_angle_alpha 46.417529
_cell_angle_beta 49.416935
_cell_angle_gamma 14.519827
_cell_volume 563.277185
_symmetry_space_group_name_H-M "P -1"
_symmetry_group_IT_number 2
_symmetry_cell_setting 'triclinic'
loop_
_space_group_symop_operation_xyz
x,y,z
-x,-y,-z
loop_
_atom_site_type_symbol
_atom_site_label
_atom_site_fract_x
_atom_site_fract_y
_atom_site_fract_z
Si Si1 0.373146 0.243929 0.070860
Si Si2 0.876520 0.835530 0.245199
Si Si3 0.174187 0.859010 0.371221
Si Si4 0.848688 0.728419 0.188224
Si Si5 0.183036 0.670577 0.428422
Si Si6 0.542469 0.078808 0.258579
Si Si7 0.480574 0.587685 0.619047
O O1 0.495438 0.141646 0.006504
O O2 0.332876 0.215006 0.441173
O O3 0.195042 0.576726 0.819291
O O4 0.500000 0.000000 0.000000
O O5 0.809470 0.891331 0.100969
O O6 0.075537 0.477237 0.437014
O O7 0.728966 0.042685 0.483212
O O8 0.900317 0.915041 0.948393
O O9 0.205903 0.748428 0.271028
O O10 0.361305 0.574625 0.534361
O O11 0.021567 0.037175 0.634868
O O12 0.653693 0.004291 0.112988
O O13 0.000000 0.500000 0.000000
O O14 0.342092 0.394256 0.338342
O O15 0.500000 0.500000 0.500000
O O16 0.500000 0.500000 0.000000
#
# Coordination Sequence:
#
# PCOD8012973 Si02
#       7
#     2   2   2   2   2   2   2
#     4   9  20  39  63  90 124 168 208 272 336 396
#     4  10  24  45  64  97 135 176 227 286 351 409
#     4  10  22  43  67  96 134 173 228 280 346 419
#     4  11  25  40  67  98 131 176 230 287 344 417
#     4  10  21  42  65  97 130 174 223 278 344 411
#     4  10  21  40  64  95 130 167 222 274 346 403
#     4  10  23  45  70 101 136 188 231 286 350 417
#
# _framework density 24.854547
#
# number of rings (size 3 to 8) (size 9 to 14) (size 15 to 20)
#    0.000    2.000    0.000    1.714    4.000    9.143 
#   10.286    1.429    0.000    0.000    0.000    0.000 
#    0.000    0.000    0.000    0.000    0.000    0.000 
#
# Total GULP energy -173435.615103 kJ/mol
# GULP energy per Si atom -12388.258222 kJ/mol
# Density = 2.479798 g / cm^3
# Si number density = 24.854547 Si / 1000 Ang^3
#
#
#
# Elastic Constant Matrix: (Units=GPa)
#
#
# Indices 1 2 3 4 5 6 
#
# 1 214.0925 67.3667 25.5277 26.9032 -5.1314 1.1661
# 2 67.3667 113.2256 9.8338 23.3132 -0.2058 -3.1327
# 3 25.5277 9.8338 25.6196 14.6105 -2.1276 11.6810
# 4 26.9032 23.3132 14.6105 32.1926 7.5624 -6.7649
# 5 -5.1314 -0.2058 -2.1276 7.5624 36.3005 2.8755
# 6 1.1661 -3.1327 11.6810 -6.7649 2.8755 55.1675
#
#
#
# Elastic Compliance Matrix: (Units=1/GPa)
#
#
# Indices 1 2 3 4 5 6 
#
# 1 0.006370 -0.003169 -0.004802 -0.000908 0.000746 0.000552
# 2 -0.003169 0.012118 0.004242 -0.008749 0.001796 -0.001310
# 3 -0.004802 0.004242 0.077519 -0.042255 0.014435 -0.022005
# 4 -0.000908 -0.008749 -0.042255 0.065120 -0.017597 0.017372
# 5 0.000746 0.001796 0.014435 -0.017597 0.032717 -0.006833
# 6 0.000552 -0.001310 -0.022005 0.017372 -0.006833 0.025186
#
#
# Mechanical properties :
#
#
# Convention : Reuss Voigt Hill
#
# Bulk Modulus (GPa) = 11.29333 62.04381 36.66857
# Shear Modulus (GPa) = 19.53108 41.41275 30.47192
#
# Velocity S-wave (km/s) = 2.80628 4.08634 3.50524
# Velocity P-wave (km/s) = 3.87994 6.87614 5.58279
#
# Compressibility (1/GPa) = 0.08854782
#
# Stress axis : x y z
#
# Youngs Moduli (GPa) = 156.99396 82.52494 12.90013
#
# Poissons Ratio (x) = 0.26153 0.06195
# Poissons Ratio (y) = 0.49754 -0.05473
# Poissons Ratio (z) = 0.75393 -0.35011
#
# Static dielectric constant tensor:
#      x y z
#    x 4.696520 -0.139520 0.088400 
#    y -0.139520 5.086870 -0.850430 
#    z 0.088400 -0.850430 5.431670 
# 
# 
# High freq. dielectric constant tensor:
#      x y z
#    x 2.004960 0.002120 -0.000290 
#    y 0.002120 1.997400 -0.017830 
#    z -0.000290 -0.017830 1.970730 
# 
# From -- ./inp_files/124116.got.cif
#   From: 2010.06.25/outbox.cif.g09.slc.cpg/sg2_63_cif.got.tgz:124116.got - 2010.06.27 13:26:56.
