data_PCOD8012228
_publ_section_title
;
Structure prediction by ZEFSAII (Michael W. Deem and Ramdas Pophale) SiO2 
 PCOD8012228
Probable space group: P -1
;
_chemical_formula_sum "Si O2"
_cell_formula_units_Z 16
_cell_length_a 11.815549
_cell_length_b 17.886154
_cell_length_c 9.123715
_cell_angle_alpha 133.879779
_cell_angle_beta 48.136542
_cell_angle_gamma 149.026783
_cell_volume 701.242106
_symmetry_space_group_name_H-M "P -1"
_symmetry_group_IT_number 2
_symmetry_cell_setting 'triclinic'
loop_
_space_group_symop_operation_xyz
x,y,z
-x,-y,-z
loop_
_atom_site_type_symbol
_atom_site_label
_atom_site_fract_x
_atom_site_fract_y
_atom_site_fract_z
Si Si1 0.965371 0.490893 0.747110
Si Si2 0.357484 0.422247 0.166337
Si Si3 0.587073 0.260264 0.972987
Si Si4 0.441780 0.648185 0.595180
Si Si5 0.790228 0.936371 0.499791
Si Si6 0.232623 0.133970 0.905471
Si Si7 0.893252 0.288914 0.304580
Si Si8 0.565531 0.031597 0.819182
O O1 0.803151 0.421863 0.932090
O O2 0.844997 0.364818 0.550989
O O3 0.179751 0.537581 0.680821
O O4 0.037011 0.638662 0.821092
O O5 0.477338 0.550832 0.365801
O O6 0.099245 0.324552 0.233325
O O7 0.500000 0.500000 0.000000
O O8 0.349706 0.302300 0.069274
O O9 0.406268 0.141208 0.840628
O O10 0.655893 0.187996 0.897488
O O11 0.475164 0.286376 0.221688
O O12 0.559444 0.787575 0.573118
O O13 0.804661 0.891976 0.269549
O O14 0.769264 0.050295 0.649922
O O15 0.000000 0.000000 0.500000
O O16 0.000000 0.000000 0.000000
O O17 0.662540 0.109160 0.263179
O O18 0.500000 0.000000 0.000000
#
# Coordination Sequence:
#
# PCOD8012228 Si02
#       8
#     2   2   2   2   2   2   2   2
#     4  10  21  40  69  98 138 177 231 308 348 412
#     4  11  23  41  72 100 142 196 236 282 361 440
#     4  12  25  43  72 106 145 180 238 309 357 419
#     4  11  23  45  68 103 139 182 245 286 356 434
#     4  12  26  47  74 102 144 191 241 296 359 440
#     4  12  27  46  69 106 149 186 236 303 362 422
#     4  10  21  39  67  99 136 187 243 280 355 438
#     4  12  25  43  73 103 139 195 240 290 366 434
#
# _framework density 22.816655000000001
#
# number of rings (size 3 to 8) (size 9 to 14) (size 15 to 20)
#    0.000    0.750    3.750    3.375    3.500    4.500 
#    0.000    1.250    0.000    0.000    0.000    0.000 
#    0.000    0.000    0.000    0.000    0.000    0.000 
#
# Total GULP energy -198351.885160 kJ/mol
# GULP energy per Si atom -12396.992823 kJ/mol
# Density = 2.276472 g / cm^3
# Si number density = 22.816655 Si / 1000 Ang^3
#
#
#
# Elastic Constant Matrix: (Units=GPa)
#
#
# Indices 1 2 3 4 5 6 
#
# 1 108.5080 23.2461 39.5731 -1.1033 6.4838 0.7372
# 2 23.2461 98.5086 44.1665 -17.0821 7.6832 -13.9092
# 3 39.5731 44.1665 127.8225 -5.5391 11.4625 -9.1778
# 4 -1.1033 -17.0821 -5.5391 40.8266 -5.4414 0.8348
# 5 6.4838 7.6832 11.4625 -5.4414 38.8627 0.3275
# 6 0.7372 -13.9092 -9.1778 0.8348 0.3275 44.6451
#
#
#
# Elastic Compliance Matrix: (Units=1/GPa)
#
#
# Indices 1 2 3 4 5 6 
#
# 1 0.010609 -0.001486 -0.002825 -0.000793 -0.000744 -0.001198
# 2 -0.001486 0.013557 -0.003705 0.004971 -0.000672 0.003399
# 3 -0.002825 -0.003705 0.010197 -0.000515 -0.001885 0.001012
# 4 -0.000793 0.004971 -0.000515 0.026871 0.003056 0.000931
# 5 -0.000744 -0.000672 -0.001885 0.003056 0.026979 -0.000840
# 6 -0.001198 0.003399 0.001012 0.000931 -0.000840 0.023674
#
#
# Mechanical properties :
#
#
# Convention : Reuss Voigt Hill
#
# Bulk Modulus (GPa) = 54.54615 60.97895 57.76255
# Shear Modulus (GPa) = 37.30523 40.05713 38.68118
#
# Velocity S-wave (km/s) = 4.04790 4.19454 4.12187
# Velocity P-wave (km/s) = 6.76798 7.08820 6.92994
#
# Compressibility (1/GPa) = 0.01833310
#
# Stress axis : x y z
#
# Youngs Moduli (GPa) = 94.26003 73.76107 98.06452
#
# Poissons Ratio (x) = 0.10958 0.27701
# Poissons Ratio (y) = 0.14004 0.36331
# Poissons Ratio (z) = 0.26627 0.27327
#
# Static dielectric constant tensor:
#      x y z
#    x 4.264530 0.033760 0.125870 
#    y 0.033760 4.143770 0.139360 
#    z 0.125870 0.139360 4.467850 
# 
# 
# High freq. dielectric constant tensor:
#      x y z
#    x 1.898050 0.001550 0.011130 
#    y 0.001550 1.902590 -0.002740 
#    z 0.011130 -0.002740 1.903190 
# 
# From -- ./inp_files/272385.got.cif
#   From: 2010.06.25/outbox.cif.g09.slc.cpg/sg2_137_cif.got.tgz:272385.got - 2010.06.27 13:26:56.
