data_PCOD8012960
_publ_section_title
;
Structure prediction by ZEFSAII (Michael W. Deem and Ramdas Pophale) SiO2 
 PCOD8012960
Probable space group: P -1
;
_chemical_formula_sum "Si O2"
_cell_formula_units_Z 16
_cell_length_a 5.733343
_cell_length_b 12.451985
_cell_length_c 18.401250
_cell_angle_alpha 130.321865
_cell_angle_beta 118.344904
_cell_angle_gamma 91.982865
_cell_volume 758.553852
_symmetry_space_group_name_H-M "P -1"
_symmetry_group_IT_number 2
_symmetry_cell_setting 'triclinic'
loop_
_space_group_symop_operation_xyz
x,y,z
-x,-y,-z
loop_
_atom_site_type_symbol
_atom_site_label
_atom_site_fract_x
_atom_site_fract_y
_atom_site_fract_z
Si Si1 0.787139 0.881080 0.228703
Si Si2 0.138152 0.181445 0.629688
Si Si3 0.385642 0.052571 0.288623
Si Si4 0.279289 0.029169 0.102909
Si Si5 0.338576 0.556994 0.263474
Si Si6 0.221572 0.665784 0.430923
Si Si7 0.627053 0.343731 0.211084
Si Si8 0.335995 0.712798 0.968285
O O1 0.874066 0.814824 0.283375
O O2 0.607705 0.975223 0.272314
O O3 0.556908 0.731684 0.076585
O O4 0.111507 0.975469 0.274091
O O5 0.490227 0.312256 0.717878
O O6 0.941703 0.247983 0.593087
O O7 0.000000 0.000000 0.500000
O O8 0.230651 0.057496 0.192325
O O9 0.603511 0.238184 0.429179
O O10 0.574876 0.192920 0.187515
O O11 0.312001 0.873179 0.033260
O O12 0.000000 0.000000 0.000000
O O13 0.438347 0.664580 0.399122
O O14 0.421978 0.420270 0.236081
O O15 0.980347 0.459625 0.145479
O O16 0.984930 0.477122 0.332904
O O17 0.520189 0.288956 0.088339
#
# Coordination Sequence:
#
# PCOD8012960 Si02
#       8
#     2   2   2   2   2   2   2   2
#     4  11  25  41  67 100 131 171 220 275 324 384
#     4  11  22  40  68  94 127 176 220 262 330 391
#     4  11  25  43  65 101 133 168 221 277 320 385
#     4  11  21  40  71  94 126 174 218 264 331 391
#     4  10  22  40  63  95 131 173 214 270 322 386
#     4  10  23  41  64  94 134 170 217 273 322 386
#     4  10  21  40  64  94 130 172 217 265 328 386
#     4  10  22  41  66  94 133 168 216 275 321 387
#
# _framework density 21.092768
#
# number of rings (size 3 to 8) (size 9 to 14) (size 15 to 20)
#    0.000    1.500    2.500    1.875    5.250    3.000 
#    0.000    6.250    0.000    0.000    0.000    0.000 
#    0.000    0.000    0.000    0.000    0.000    0.000 
#
# Total GULP energy -198216.523256 kJ/mol
# GULP energy per Si atom -12388.532704 kJ/mol
# Density = 2.104476 g / cm^3
# Si number density = 21.092768 Si / 1000 Ang^3
#
#
#
# Elastic Constant Matrix: (Units=GPa)
#
#
# Indices 1 2 3 4 5 6 
#
# 1 104.9727 28.8056 33.8149 3.5924 -8.9927 23.2175
# 2 28.8056 98.2688 40.0133 6.6853 3.5356 25.3063
# 3 33.8149 40.0133 128.8197 3.5145 -10.9598 9.8906
# 4 3.5924 6.6853 3.5145 29.3030 -2.3149 -0.2460
# 5 -8.9927 3.5356 -10.9598 -2.3149 27.5783 -4.2743
# 6 23.2175 25.3063 9.8906 -0.2460 -4.2743 22.6517
#
#
#
# Elastic Compliance Matrix: (Units=1/GPa)
#
#
# Indices 1 2 3 4 5 6 
#
# 1 0.013162 0.000502 -0.002495 -0.001446 0.001136 -0.012764
# 2 0.000502 0.017432 -0.004557 -0.004227 -0.007246 -0.019413
# 3 -0.002495 -0.004557 0.009871 0.000543 0.004386 0.004172
# 4 -0.001446 -0.004227 0.000543 0.035610 0.004388 0.007183
# 5 0.001136 -0.007246 0.004386 0.004388 0.041675 0.012927
# 6 -0.012764 -0.019413 0.004172 0.007183 0.012927 0.079613
#
#
# Mechanical properties :
#
#
# Convention : Reuss Voigt Hill
#
# Bulk Modulus (GPa) = 36.54229 59.70320 48.12274
# Shear Modulus (GPa) = 22.77035 31.20177 26.98606
#
# Velocity S-wave (km/s) = 3.28919 3.85029 3.58075
# Velocity P-wave (km/s) = 5.63801 6.93778 6.32139
#
# Compressibility (1/GPa) = 0.02736556
#
# Stress axis : x y z
#
# Youngs Moduli (GPa) = 75.97619 57.36555 101.30486
#
# Poissons Ratio (x) = -0.02880 0.25274
# Poissons Ratio (y) = -0.03814 0.46165
# Poissons Ratio (z) = 0.18955 0.26142
#
# Static dielectric constant tensor:
#      x y z
#    x 4.210960 0.065990 -0.107600 
#    y 0.065990 2.835740 0.170800 
#    z -0.107600 0.170800 3.389200 
# 
# 
# High freq. dielectric constant tensor:
#      x y z
#    x 1.832540 0.012100 -0.008470 
#    y 0.012100 1.811010 0.005770 
#    z -0.008470 0.005770 1.846100 
# 
# From -- ./inp_files/72386.got.cif
#   From: 2010.06.25/outbox.cif.g09.slc.cpg/sg2_37_cif.got.tgz:72386.got - 2010.06.27 13:26:56.
