data_PCOD8012932
_publ_section_title
;
Structure prediction by ZEFSAII (Michael W. Deem and Ramdas Pophale) SiO2 
 PCOD8012932
Probable space group: P -1
;
_chemical_formula_sum "Si O2"
_cell_formula_units_Z 16
_cell_length_a 9.444127
_cell_length_b 8.629611
_cell_length_c 11.961072
_cell_angle_alpha 61.335001
_cell_angle_beta 87.875621
_cell_angle_gamma 61.622616
_cell_volume 729.186534
_symmetry_space_group_name_H-M "P -1"
_symmetry_group_IT_number 2
_symmetry_cell_setting 'triclinic'
loop_
_space_group_symop_operation_xyz
x,y,z
-x,-y,-z
loop_
_atom_site_type_symbol
_atom_site_label
_atom_site_fract_x
_atom_site_fract_y
_atom_site_fract_z
Si Si1 0.303059 0.172377 0.577256
Si Si2 0.549345 0.730083 0.653956
Si Si3 0.371287 0.248870 0.788325
Si Si4 0.243350 0.707155 0.615985
Si Si5 0.345754 0.485160 0.050426
Si Si6 0.706065 0.858431 0.947312
Si Si7 0.986887 0.907492 0.374490
Si Si8 0.989595 0.095216 0.088102
O O1 0.312272 0.306083 0.428834
O O2 0.291611 0.271895 0.662228
O O3 0.133930 0.175919 0.567157
O O4 0.471732 0.947326 0.647073
O O5 0.396312 0.741329 0.589543
O O6 0.638302 0.549216 0.804706
O O7 0.320256 0.479278 0.743763
O O8 0.569470 0.092496 0.834379
O O9 0.295635 0.163426 0.910856
O O10 0.163744 0.746214 0.481276
O O11 0.097448 0.862263 0.650618
O O12 0.330731 0.304883 0.053780
O O13 0.500000 0.500000 0.000000
O O14 0.188831 0.706514 0.953012
O O15 0.881950 0.828325 0.921362
O O16 0.018152 0.921454 0.237885
O O17 0.000000 0.000000 0.000000
#
# Coordination Sequence:
#
# PCOD8012932 Si02
#       8
#     2   2   2   2   2   2   2   2
#     4  10  21  40  64  92 133 171 220 282 331 405
#     4  10  22  39  65  97 125 178 225 266 336 405
#     4  11  23  41  68  99 133 177 229 280 345 395
#     4  10  23  41  68  94 130 175 224 279 333 412
#     4  12  25  46  75  99 140 184 225 278 349 414
#     4  11  26  43  68  99 139 179 229 282 341 416
#     4  10  23  45  65  95 136 178 220 278 350 395
#     4  12  28  43  69 105 139 178 227 290 337 407
#
# _framework density 21.942257999999999
#
# number of rings (size 3 to 8) (size 9 to 14) (size 15 to 20)
#    0.000    1.250    1.250    4.125    7.000    5.000 
#    0.000    0.000    0.000    0.000    0.000    0.000 
#    0.000    0.000    0.000    0.000    0.000    0.000 
#
# Total GULP energy -198440.189540 kJ/mol
# GULP energy per Si atom -12402.511846 kJ/mol
# Density = 2.189232 g / cm^3
# Si number density = 21.942258 Si / 1000 Ang^3
#
#
#
# Elastic Constant Matrix: (Units=GPa)
#
#
# Indices 1 2 3 4 5 6 
#
# 1 148.4338 34.3464 60.9091 4.7134 -10.9732 -3.7304
# 2 34.3464 76.3888 24.2157 -9.1136 2.5971 1.0108
# 3 60.9091 24.2157 158.9578 12.0978 -2.6700 -0.9730
# 4 4.7134 -9.1136 12.0978 39.3746 -1.8445 2.5912
# 5 -10.9732 2.5971 -2.6700 -1.8445 29.3899 -0.3311
# 6 -3.7304 1.0108 -0.9730 2.5912 -0.3311 25.6738
#
#
#
# Elastic Compliance Matrix: (Units=1/GPa)
#
#
# Indices 1 2 3 4 5 6 
#
# 1 0.008983 -0.003402 -0.002786 -0.000946 0.003359 0.001472
# 2 -0.003402 0.015737 -0.001489 0.004498 -0.002533 -0.001657
# 3 -0.002786 -0.001489 0.007765 -0.002426 -0.000353 0.000188
# 4 -0.000946 0.004498 -0.002426 0.027540 0.000721 -0.003177
# 5 0.003359 -0.002533 -0.000353 0.000721 0.035527 0.000960
# 6 0.001472 -0.001657 0.000188 -0.003177 0.000960 0.039570
#
#
# Mechanical properties :
#
#
# Convention : Reuss Voigt Hill
#
# Bulk Modulus (GPa) = 58.37427 69.19142 63.78285
# Shear Modulus (GPa) = 32.01299 36.50826 34.26062
#
# Velocity S-wave (km/s) = 3.82378 4.08344 3.95574
# Velocity P-wave (km/s) = 6.79385 7.33720 7.07075
#
# Compressibility (1/GPa) = 0.01713083
#
# Stress axis : x y z
#
# Youngs Moduli (GPa) = 111.32170 63.54365 128.77848
#
# Poissons Ratio (x) = 0.21619 0.35882
# Poissons Ratio (y) = 0.37875 0.19171
# Poissons Ratio (z) = 0.31018 0.09460
#
# Static dielectric constant tensor:
#      x y z
#    x 3.866830 0.055140 0.056140 
#    y 0.055140 3.945010 0.011790 
#    z 0.056140 0.011790 4.076430 
# 
# 
# High freq. dielectric constant tensor:
#      x y z
#    x 1.862820 0.003050 0.004180 
#    y 0.003050 1.855080 0.001160 
#    z 0.004180 0.001160 1.876750 
# 
# From -- ./inp_files/381350.got.cif
#   From: 2010.06.25/outbox.cif.g09.slc.cpg/sg2_191_cif.got.tgz:381350.got - 2010.06.27 13:26:56.
