data_PCOD8012717
_publ_section_title
;
Structure prediction by ZEFSAII (Michael W. Deem and Ramdas Pophale) SiO2 
 PCOD8012717
Probable space group: P -1
;
_chemical_formula_sum "Si O2"
_cell_formula_units_Z 16
_cell_length_a 15.460644
_cell_length_b 6.738973
_cell_length_c 14.518084
_cell_angle_alpha 64.673517
_cell_angle_beta 135.792441
_cell_angle_gamma 136.267294
_cell_volume 716.229052
_symmetry_space_group_name_H-M "P -1"
_symmetry_group_IT_number 2
_symmetry_cell_setting 'triclinic'
loop_
_space_group_symop_operation_xyz
x,y,z
-x,-y,-z
loop_
_atom_site_type_symbol
_atom_site_label
_atom_site_fract_x
_atom_site_fract_y
_atom_site_fract_z
Si Si1 0.662273 0.541053 0.110208
Si Si2 0.833333 0.550170 0.064930
Si Si3 0.211459 0.044464 0.285318
Si Si4 0.460915 0.089319 0.360912
Si Si5 0.317885 0.898521 0.702692
Si Si6 0.352042 0.627965 0.230022
Si Si7 0.198275 0.617198 0.488170
Si Si8 0.851056 0.104539 0.256676
O O1 0.731678 0.588883 0.049992
O O2 0.614548 0.245161 0.169750
O O3 0.802273 0.824866 0.222256
O O4 0.500000 0.500000 0.000000
O O5 0.816094 0.275857 0.134048
O O6 0.770368 0.498495 0.924127
O O7 0.023370 0.843292 0.149912
O O8 0.281669 0.365593 0.301448
O O9 0.339394 0.147745 0.278029
O O10 0.231533 0.890007 0.410712
O O11 0.352581 0.842853 0.249889
O O12 0.500000 0.000000 0.500000
O O13 0.642065 0.357099 0.404169
O O14 0.175074 0.655453 0.570057
O O15 0.248440 0.987690 0.706033
O O16 0.462545 0.195636 0.700786
O O17 0.043877 0.310105 0.388686
#
# Coordination Sequence:
#
# PCOD8012717 Si02
#       8
#     2   2   2   2   2   2   2   2
#     4  11  23  40  62  88 119 154 195 242 296 352
#     4  10  23  39  59  91 118 149 202 241 286 358
#     4  10  22  40  60  85 120 158 194 241 293 344
#     4   9  21  38  56  84 116 150 199 237 279 349
#     4  10  22  38  59  91 118 151 203 239 286 360
#     4  11  22  38  61  86 120 158 192 242 294 342
#     4   9  20  39  60  88 119 151 199 244 287 352
#     4  10  21  40  63  84 121 158 185 249 303 332
#
# _framework density 22.339223
#
# number of rings (size 3 to 8) (size 9 to 14) (size 15 to 20)
#    0.000    2.000    0.000    2.250    0.000   15.500 
#    0.000    6.250    0.000    0.000    0.000    0.000 
#    0.000    0.000    0.000    0.000    0.000    0.000 
#
# Total GULP energy -198271.801865 kJ/mol
# GULP energy per Si atom -12391.987617 kJ/mol
# Density = 2.228838 g / cm^3
# Si number density = 22.339223 Si / 1000 Ang^3
#
#
#
# Elastic Constant Matrix: (Units=GPa)
#
#
# Indices 1 2 3 4 5 6 
#
# 1 79.7534 3.1660 42.8029 4.8061 7.8767 -7.2257
# 2 3.1660 56.7813 15.5914 15.3037 6.5784 12.5994
# 3 42.8029 15.5914 97.6342 16.1204 3.1202 1.4036
# 4 4.8061 15.3037 16.1204 21.4791 3.4606 -1.1327
# 5 7.8767 6.5784 3.1202 3.4606 39.2373 3.8022
# 6 -7.2257 12.5994 1.4036 -1.1327 3.8022 24.5981
#
#
#
# Elastic Compliance Matrix: (Units=1/GPa)
#
#
# Indices 1 2 3 4 5 6 
#
# 1 0.017773 -0.000832 -0.008263 0.003787 -0.003772 0.006876
# 2 -0.000832 0.026109 -0.000489 -0.018617 -0.001147 -0.014270
# 3 -0.008263 -0.000489 0.015590 -0.009985 0.001750 -0.003796
# 4 0.003787 -0.018617 -0.009985 0.067951 -0.004293 0.015011
# 5 -0.003772 -0.001147 0.001750 -0.004293 0.027161 -0.005016
# 6 0.006876 -0.014270 -0.003796 0.015011 -0.005016 0.051666
#
#
# Mechanical properties :
#
#
# Convention : Reuss Voigt Hill
#
# Bulk Modulus (GPa) = 24.81048 39.69884 32.25466
# Shear Modulus (GPa) = 20.93346 28.57016 24.75181
#
# Velocity S-wave (km/s) = 3.06448 3.58008 3.33227
# Velocity P-wave (km/s) = 4.86331 5.90752 5.41067
#
# Compressibility (1/GPa) = 0.04030554
#
# Stress axis : x y z
#
# Youngs Moduli (GPa) = 56.26383 38.30105 64.14322
#
# Poissons Ratio (x) = 0.03185 0.52999
# Poissons Ratio (y) = 0.04679 0.03138
# Poissons Ratio (z) = 0.46489 0.01874
#
# Static dielectric constant tensor:
#      x y z
#    x 4.312450 0.114130 0.003400 
#    y 0.114130 3.902760 0.144910 
#    z 0.003400 0.144910 4.049760 
# 
# 
# High freq. dielectric constant tensor:
#      x y z
#    x 1.883820 0.009000 -0.002920 
#    y 0.009000 1.872140 0.011520 
#    z -0.002920 0.011520 1.883840 
# 
# From -- ./inp_files/99562.got.cif
#   From: 2010.06.25/outbox.cif.g09.slc.cpg/sg2_50_cif.got.tgz:99562.got - 2010.06.27 13:26:56.
