data_PCOD8012622
_publ_section_title
;
Structure prediction by ZEFSAII (Michael W. Deem and Ramdas Pophale) SiO2 
 PCOD8012622
Probable space group: P -1
;
_chemical_formula_sum "Si O2"
_cell_formula_units_Z 12
_cell_length_a 5.118605
_cell_length_b 25.790313
_cell_length_c 5.089065
_cell_angle_alpha 115.232245
_cell_angle_beta 118.273561
_cell_angle_gamma 57.333781
_cell_volume 484.707621
_symmetry_space_group_name_H-M "P -1"
_symmetry_group_IT_number 2
_symmetry_cell_setting 'triclinic'
loop_
_space_group_symop_operation_xyz
x,y,z
-x,-y,-z
loop_
_atom_site_type_symbol
_atom_site_label
_atom_site_fract_x
_atom_site_fract_y
_atom_site_fract_z
Si Si1 0.112906 0.619490 0.752634
Si Si2 0.255614 0.233975 0.080587
Si Si3 0.242653 0.947519 0.315176
Si Si4 0.897911 0.926165 0.677731
Si Si5 0.119032 0.427284 0.965946
Si Si6 0.695900 0.187600 0.694811
O O1 0.907575 0.691703 0.891559
O O2 0.994254 0.606885 0.387249
O O3 0.491712 0.605649 0.885703
O O4 0.052873 0.576386 0.851490
O O5 0.504660 0.220950 0.413050
O O6 0.445236 0.200284 0.836991
O O7 0.972876 0.210779 0.952315
O O8 0.605384 0.903537 0.504377
O O9 0.277786 0.996980 0.224039
O O10 0.000000 0.000000 0.500000
O O11 0.116270 0.902081 0.994066
O O12 0.128339 0.889939 0.452236
O O13 0.000000 0.500000 0.000000
#
# Coordination Sequence:
#
# PCOD8012622 Si02
#       6
#     2   2   2   2   2   2
#     4  12  24  44  71  98 145 179 227 278 338 397
#     4  12  26  47  68 102 134 188 225 280 334 401
#     4  10  21  40  62  87 123 158 213 259 356 392
#     4  10  23  38  61  92 119 167 208 280 324 407
#     4  12  25  44  72 106 138 180 227 280 336 399
#     4  12  27  45  71 100 137 175 239 278 336 399
#
# _framework density 24.757194999999999
#
# number of rings (size 3 to 8) (size 9 to 14) (size 15 to 20)
#    0.000    0.667    0.000    8.000    4.667    0.000 
#    0.000    0.000    0.000    0.000    0.000    0.000 
#    0.000    0.000    0.000    0.000    0.000    0.000 
#
# Total GULP energy -148788.937455 kJ/mol
# GULP energy per Si atom -12399.078121 kJ/mol
# Density = 2.470085 g / cm^3
# Si number density = 24.757195 Si / 1000 Ang^3
#
#
#
# Elastic Constant Matrix: (Units=GPa)
#
#
# Indices 1 2 3 4 5 6 
#
# 1 97.0252 -5.8189 52.0384 -13.5190 -0.5786 -20.4847
# 2 -5.8189 103.6145 13.9769 20.4193 13.1925 -8.8858
# 3 52.0384 13.9769 193.9070 -16.3954 23.0564 -30.4669
# 4 -13.5190 20.4193 -16.3954 27.8224 -7.1856 8.0412
# 5 -0.5786 13.1925 23.0564 -7.1856 42.3081 -5.4115
# 6 -20.4847 -8.8858 -30.4669 8.0412 -5.4115 39.1742
#
#
#
# Elastic Compliance Matrix: (Units=1/GPa)
#
#
# Indices 1 2 3 4 5 6 
#
# 1 0.013408 0.000369 -0.002944 0.003994 0.002912 0.004388
# 2 0.000369 0.013358 -0.000805 -0.012768 -0.005317 0.004483
# 3 -0.002944 -0.000805 0.006955 0.001653 -0.002922 0.002944
# 4 0.003994 -0.012768 0.001653 0.053699 0.011103 -0.009011
# 5 0.002912 -0.005317 -0.002922 0.011103 0.028779 -0.000259
# 6 0.004388 0.004483 0.002944 -0.009011 -0.000259 0.032942
#
#
# Mechanical properties :
#
#
# Convention : Reuss Voigt Hill
#
# Bulk Modulus (GPa) = 37.09138 57.21550 47.15344
# Shear Modulus (GPa) = 30.32363 44.15094 37.23728
#
# Velocity S-wave (km/s) = 3.50357 4.22756 3.88248
# Velocity P-wave (km/s) = 5.60190 6.85497 6.25986
#
# Compressibility (1/GPa) = 0.02696044
#
# Stress axis : x y z
#
# Youngs Moduli (GPa) = 74.58308 74.86185 143.78106
#
# Poissons Ratio (x) = -0.02759 0.42330
# Poissons Ratio (y) = -0.02749 0.11570
# Poissons Ratio (z) = 0.21957 0.06024
#
# Static dielectric constant tensor:
#      x y z
#    x 5.321920 1.458920 1.000020 
#    y 1.458920 7.963130 0.650780 
#    z 1.000020 0.650780 6.663410 
# 
# 
# High freq. dielectric constant tensor:
#      x y z
#    x 2.001830 -0.000370 0.004820 
#    y -0.000370 1.996050 -0.005440 
#    z 0.004820 -0.005440 2.012440 
# 
# From -- ./inp_files/8793.got.cif
#   From: 2010.06.25/outbox.cif.g09.slc.cpg/sg2_5_cif.got.tgz:8793.got - 2010.06.27 13:26:56.
