data_PCOD8012505
_publ_section_title
;
Structure prediction by ZEFSAII (Michael W. Deem and Ramdas Pophale) SiO2 
 PCOD8012505
Probable space group: P -1
;
_chemical_formula_sum "Si O2"
_cell_formula_units_Z 16
_cell_length_a 7.485353
_cell_length_b 15.693058
_cell_length_c 13.362288
_cell_angle_alpha 36.908010
_cell_angle_beta 93.614661
_cell_angle_gamma 70.784979
_cell_volume 728.093157
_symmetry_space_group_name_H-M "P -1"
_symmetry_group_IT_number 2
_symmetry_cell_setting 'triclinic'
loop_
_space_group_symop_operation_xyz
x,y,z
-x,-y,-z
loop_
_atom_site_type_symbol
_atom_site_label
_atom_site_fract_x
_atom_site_fract_y
_atom_site_fract_z
Si Si1 0.735548 0.451793 0.013952
Si Si2 0.953619 0.829206 0.411334
Si Si3 0.567008 0.942788 0.167297
Si Si4 0.417572 0.479502 0.674632
Si Si5 0.101898 0.285974 0.903558
Si Si6 0.174713 0.800206 0.917306
Si Si7 0.928479 0.593324 0.766253
Si Si8 0.713640 0.563095 0.494518
O O1 0.723152 0.603665 0.802590
O O2 0.500000 0.500000 0.000000
O O3 0.845283 0.274543 0.116596
O O4 0.903200 0.409708 0.148826
O O5 0.807064 0.904937 0.232256
O O6 0.825527 0.773726 0.527449
O O7 0.219157 0.660280 0.559022
O O8 0.930729 0.993959 0.306277
O O9 0.605388 0.756460 0.359641
O O10 0.500000 0.000000 0.000000
O O11 0.369430 0.112657 0.068171
O O12 0.571979 0.509961 0.590799
O O13 0.308808 0.426466 0.637707
O O14 0.565351 0.321991 0.912162
O O15 0.079662 0.414192 0.869472
O O16 0.983357 0.407336 0.682863
O O17 0.979094 0.199724 0.005294
#
# Coordination Sequence:
#
# PCOD8012505 Si02
#       8
#     2   2   2   2   2   2   2   2
#     4  10  22  44  73  94 127 168 215 271 338 394
#     4  12  24  38  64  97 130 165 218 264 326 387
#     4  12  25  35  60  94 134 173 215 261 316 376
#     4  10  22  39  65  88 128 171 221 270 315 384
#     4  10  22  43  62  87 135 172 214 267 318 385
#     4  10  23  42  66  94 124 170 213 268 332 381
#     4  10  23  43  67  98 128 170 217 271 330 395
#     4  10  21  40  60  90 123 178 224 262 322 377
#
# _framework density 21.975210000000001
#
# number of rings (size 3 to 8) (size 9 to 14) (size 15 to 20)
#    0.000    1.500    1.250    3.000    5.250    1.500 
#    2.250    5.625    0.000    0.000    0.000    0.000 
#    0.000    0.000    0.000    0.000    0.000    0.000 
#
# Total GULP energy -198289.299293 kJ/mol
# GULP energy per Si atom -12393.081206 kJ/mol
# Density = 2.192519 g / cm^3
# Si number density = 21.975210 Si / 1000 Ang^3
#
#
#
# Elastic Constant Matrix: (Units=GPa)
#
#
# Indices 1 2 3 4 5 6 
#
# 1 96.2510 28.6947 40.4197 -15.4508 -3.1062 15.9385
# 2 28.6947 102.0514 38.1709 -9.0775 -1.9150 25.4310
# 3 40.4197 38.1709 116.3674 -26.0982 -6.0100 5.6329
# 4 -15.4508 -9.0775 -26.0982 28.4841 4.8458 2.3261
# 5 -3.1062 -1.9150 -6.0100 4.8458 36.0019 -8.1541
# 6 15.9385 25.4310 5.6329 2.3261 -8.1541 23.8352
#
#
#
# Elastic Compliance Matrix: (Units=1/GPa)
#
#
# Indices 1 2 3 4 5 6 
#
# 1 0.014356 0.000375 -0.003345 0.006147 -0.002546 -0.010680
# 2 0.000375 0.015947 -0.003796 0.004056 -0.004440 -0.018283
# 3 -0.003345 -0.003796 0.012771 0.008242 0.001182 0.002869
# 4 0.006147 0.004056 0.008242 0.050275 -0.008790 -0.018299
# 5 -0.002546 -0.004440 0.001182 -0.008790 0.032835 0.018251
# 6 -0.010680 -0.018283 0.002869 -0.018299 0.018251 0.075956
#
#
# Mechanical properties :
#
#
# Convention : Reuss Voigt Hill
#
# Bulk Modulus (GPa) = 33.85037 58.80449 46.32743
# Shear Modulus (GPa) = 22.17111 31.48988 26.83049
#
# Velocity S-wave (km/s) = 3.17979 3.78957 3.49799
# Velocity P-wave (km/s) = 5.37761 6.77977 6.11899
#
# Compressibility (1/GPa) = 0.02954177
#
# Stress axis : x y z
#
# Youngs Moduli (GPa) = 69.65904 62.70816 78.30124
#
# Poissons Ratio (x) = -0.02354 0.26195
# Poissons Ratio (y) = -0.02615 0.29722
# Poissons Ratio (z) = 0.23304 0.23803
#
# Static dielectric constant tensor:
#      x y z
#    x 2.833500 0.465680 -0.995110 
#    y 0.465680 4.273370 0.092680 
#    z -0.995110 0.092680 4.083760 
# 
# 
# High freq. dielectric constant tensor:
#      x y z
#    x 1.878450 0.014240 -0.011650 
#    y 0.014240 1.866700 0.004220 
#    z -0.011650 0.004220 1.855120 
# 
# From -- ./inp_files/505272.got.cif
#   From: 2010.06.25/outbox.cif.g09.slc.cpg/sg2_253_cif.got.tgz:505272.got - 2010.06.27 13:26:56.
