data_PCOD8012111
_publ_section_title
;
Structure prediction by ZEFSAII (Michael W. Deem and Ramdas Pophale) SiO2 
 PCOD8012111
Probable space group: P -1
;
_chemical_formula_sum "Si O2"
_cell_formula_units_Z 16
_cell_length_a 8.729119
_cell_length_b 11.744179
_cell_length_c 8.996951
_cell_angle_alpha 80.705570
_cell_angle_beta 95.924979
_cell_angle_gamma 125.114511
_cell_volume 744.507266
_symmetry_space_group_name_H-M "P -1"
_symmetry_group_IT_number 2
_symmetry_cell_setting 'triclinic'
loop_
_space_group_symop_operation_xyz
x,y,z
-x,-y,-z
loop_
_atom_site_type_symbol
_atom_site_label
_atom_site_fract_x
_atom_site_fract_y
_atom_site_fract_z
Si Si1 0.055112 0.670531 0.657068
Si Si2 0.417395 0.277153 0.486297
Si Si3 0.970230 0.749995 0.922639
Si Si4 0.378444 0.242374 0.158661
Si Si5 0.201500 0.499974 0.844501
Si Si6 0.378936 0.862489 0.420560
Si Si7 0.668447 0.028664 0.910317
Si Si8 0.749750 0.589947 0.423724
O O1 0.110174 0.579974 0.768425
O O2 0.202116 0.760037 0.525233
O O3 0.038206 0.766504 0.755180
O O4 0.859884 0.573837 0.571752
O O5 0.336641 0.198808 0.337473
O O6 0.508604 0.207171 0.593072
O O7 0.555545 0.439932 0.424950
O O8 0.265092 0.277512 0.575313
O O9 0.785697 0.748351 0.923070
O O10 0.911203 0.596933 0.005161
O O11 0.136792 0.878662 0.003613
O O12 0.579343 0.388237 0.119646
O O13 0.375698 0.121863 0.097131
O O14 0.160783 0.388219 0.734272
O O15 0.315527 0.889755 0.254343
O O16 0.500000 0.000000 0.500000
O O17 0.500000 0.000000 0.000000
#
# Coordination Sequence:
#
# PCOD8012111 Si02
#       8
#     2   2   2   2   2   2   2   2
#     4  12  23  41  66  98 137 172 224 277 329 400
#     4  10  21  41  68  95 128 171 221 277 325 392
#     4  12  26  42  68 100 138 182 220 272 343 405
#     4  11  22  48  66  96 140 177 224 279 335 404
#     4  11  23  42  67 102 135 175 226 283 334 394
#     4  12  23  44  71  92 130 179 224 275 331 397
#     4  12  27  46  70 100 135 176 226 277 341 404
#     4  10  21  39  66  96 129 169 219 274 335 384
#
# _framework density 21.490725000000001
#
# number of rings (size 3 to 8) (size 9 to 14) (size 15 to 20)
#    0.000    0.750    5.000    3.750    1.750    1.000 
#    0.000    5.000    0.000    0.000    0.000    0.000 
#    0.000    0.000    0.000    0.000    0.000    0.000 
#
# Total GULP energy -198389.734669 kJ/mol
# GULP energy per Si atom -12399.358417 kJ/mol
# Density = 2.144181 g / cm^3
# Si number density = 21.490725 Si / 1000 Ang^3
#
#
#
# Elastic Constant Matrix: (Units=GPa)
#
#
# Indices 1 2 3 4 5 6 
#
# 1 132.9419 46.4756 49.0204 15.1040 1.9352 -9.3695
# 2 46.4756 89.7927 42.9397 19.1247 -3.6344 -8.8149
# 3 49.0204 42.9397 99.2698 14.5698 9.8757 -4.9056
# 4 15.1040 19.1247 14.5698 39.0360 -2.2609 5.1837
# 5 1.9352 -3.6344 9.8757 -2.2609 29.3816 15.9708
# 6 -9.3695 -8.8149 -4.9056 5.1837 15.9708 27.6390
#
#
#
# Elastic Compliance Matrix: (Units=1/GPa)
#
#
# Indices 1 2 3 4 5 6 
#
# 1 0.010241 -0.003208 -0.003022 -0.001843 -0.002077 0.003458
# 2 -0.003208 0.016675 -0.004800 -0.005514 0.001552 0.003516
# 3 -0.003022 -0.004800 0.015383 -0.003570 -0.009184 0.006151
# 4 -0.001843 -0.005514 -0.003570 0.033205 0.011983 -0.016169
# 5 -0.002077 0.001552 -0.009184 0.011983 0.059183 -0.038285
# 6 0.003458 0.003516 0.006151 -0.016169 -0.038285 0.064721
#
#
# Mechanical properties :
#
#
# Convention : Reuss Voigt Hill
#
# Bulk Modulus (GPa) = 49.40615 66.54176 57.97395
# Shear Modulus (GPa) = 21.90924 31.44924 26.67924
#
# Velocity S-wave (km/s) = 3.19638 3.82957 3.52722
# Velocity P-wave (km/s) = 6.05491 7.11227 6.60478
#
# Compressibility (1/GPa) = 0.02024039
#
# Stress axis : x y z
#
# Youngs Moduli (GPa) = 97.64687 59.97039 65.00476
#
# Poissons Ratio (x) = 0.19237 0.19641
# Poissons Ratio (y) = 0.31323 0.31203
# Poissons Ratio (z) = 0.29504 0.28787
#
# Static dielectric constant tensor:
#      x y z
#    x 4.161720 -0.110810 -0.250060 
#    y -0.110810 3.927570 -0.034290 
#    z -0.250060 -0.034290 4.506860 
# 
# 
# High freq. dielectric constant tensor:
#      x y z
#    x 1.858590 -0.006580 -0.000360 
#    y -0.006580 1.832900 0.018240 
#    z -0.000360 0.018240 1.850150 
# 
# From -- ./inp_files/179124.got.cif
#   From: 2010.06.25/outbox.cif.g09.slc.cpg/sg2_90_cif.got.tgz:179124.got - 2010.06.27 13:26:56.
