data_PCOD8012491
_publ_section_title
;
Structure prediction by ZEFSAII (Michael W. Deem and Ramdas Pophale) SiO2 
 PCOD8012491
Probable space group: P -1
;
_chemical_formula_sum "Si O2"
_cell_formula_units_Z 14
_cell_length_a 12.079216
_cell_length_b 11.387854
_cell_length_c 6.917697
_cell_angle_alpha 77.426084
_cell_angle_beta 69.348898
_cell_angle_gamma 44.766304
_cell_volume 626.283520
_symmetry_space_group_name_H-M "P -1"
_symmetry_group_IT_number 2
_symmetry_cell_setting 'triclinic'
loop_
_space_group_symop_operation_xyz
x,y,z
-x,-y,-z
loop_
_atom_site_type_symbol
_atom_site_label
_atom_site_fract_x
_atom_site_fract_y
_atom_site_fract_z
Si Si1 0.117320 0.843079 0.124806
Si Si2 0.310613 0.582514 0.788818
Si Si3 0.322427 0.126874 0.895056
Si Si4 0.344092 0.011113 0.313038
Si Si5 0.072521 0.257326 0.664960
Si Si6 0.141297 0.464252 0.041378
Si Si7 0.326832 0.754661 0.379727
O O1 0.191638 0.862508 0.254381
O O2 0.008258 0.814233 0.291209
O O3 0.273302 0.684818 0.966760
O O4 0.000000 0.000000 0.000000
O O5 0.270470 0.692568 0.588005
O O6 0.497209 0.408220 0.752514
O O7 0.189664 0.553091 0.869221
O O8 0.182818 0.182904 0.816684
O O9 0.488187 0.040281 0.704872
O O10 0.341894 0.006824 0.082110
O O11 0.290707 0.265501 0.006399
O O12 0.189668 0.196114 0.429806
O O13 0.340279 0.874868 0.435458
O O14 0.926356 0.458383 0.725274
O O15 0.000000 0.500000 0.000000
#
# Coordination Sequence:
#
# PCOD8012491 Si02
#       7
#     2   2   2   2   2   2   2
#     4  11  23  39  61  93 129 164 207 262 316 375
#     4  10  22  42  63  93 125 169 212 257 313 375
#     4  10  21  40  60  87 124 161 205 260 307 373
#     4  11  22  37  63  90 119 162 209 254 315 368
#     4  10  22  37  59  88 121 159 204 256 309 369
#     4   9  19  39  64  86 125 161 202 259 311 365
#     4  11  23  40  66  92 127 168 212 256 315 383
#
# _framework density 22.354092000000001
#
# number of rings (size 3 to 8) (size 9 to 14) (size 15 to 20)
#    0.000    1.714    1.429    2.571    0.000    6.286 
#    0.000    4.286    0.000    0.000    0.000    0.000 
#    0.000    0.000    0.000    0.000    0.000    0.000 
#
# Total GULP energy -173480.070363 kJ/mol
# GULP energy per Si atom -12391.433597 kJ/mol
# Density = 2.230321 g / cm^3
# Si number density = 22.354092 Si / 1000 Ang^3
#
#
#
# Elastic Constant Matrix: (Units=GPa)
#
#
# Indices 1 2 3 4 5 6 
#
# 1 91.0364 15.9851 36.9494 -0.1662 -13.5569 -1.2671
# 2 15.9851 63.1102 28.2386 13.0667 -11.6514 -0.7685
# 3 36.9494 28.2386 89.7456 22.6186 -17.4847 -6.6741
# 4 -0.1662 13.0667 22.6186 39.2759 -14.6668 -0.0548
# 5 -13.5569 -11.6514 -17.4847 -14.6668 30.9440 -3.8131
# 6 -1.2671 -0.7685 -6.6741 -0.0548 -3.8131 30.9223
#
#
#
# Elastic Compliance Matrix: (Units=1/GPa)
#
#
# Indices 1 2 3 4 5 6 
#
# 1 0.014437 -0.001211 -0.006033 0.005897 0.005244 -0.000084
# 2 -0.001211 0.019186 -0.004263 -0.002842 0.002920 -0.000138
# 3 -0.006033 -0.004263 0.017719 -0.007874 0.002495 0.003765
# 4 0.005897 -0.002842 -0.007874 0.036311 0.014312 0.000301
# 5 0.005244 0.002920 0.002495 0.014312 0.044691 0.006362
# 6 -0.000084 -0.000138 0.003765 0.000301 0.006362 0.033930
#
#
# Mechanical properties :
#
#
# Convention : Reuss Voigt Hill
#
# Bulk Modulus (GPa) = 35.30299 45.13760 40.22029
# Shear Modulus (GPa) = 25.15982 31.07637 28.11809
#
# Velocity S-wave (km/s) = 3.35851 3.73257 3.55047
# Velocity P-wave (km/s) = 5.55575 6.22993 5.90247
#
# Compressibility (1/GPa) = 0.02832621
#
# Stress axis : x y z
#
# Youngs Moduli (GPa) = 69.26829 52.12260 56.43755
#
# Poissons Ratio (x) = 0.06310 0.34051
# Poissons Ratio (y) = 0.08386 0.24061
# Poissons Ratio (z) = 0.41793 0.22221
#
# Static dielectric constant tensor:
#      x y z
#    x 3.886210 0.148320 -0.272460 
#    y 0.148320 4.753100 0.497230 
#    z -0.272460 0.497230 3.962840 
# 
# 
# High freq. dielectric constant tensor:
#      x y z
#    x 1.881560 0.000790 -0.022880 
#    y 0.000790 1.884200 0.022480 
#    z -0.022880 0.022480 1.872710 
# 
# From -- ./inp_files/69677.got.cif
#   From: 2010.06.25/outbox.cif.g09.slc.cpg/sg2_35_cif.got.tgz:69677.got - 2010.06.27 13:26:56.
