data_PCOD8012492
_publ_section_title
;
Structure prediction by ZEFSAII (Michael W. Deem and Ramdas Pophale) SiO2 
 PCOD8012492
Probable space group: P -1
;
_chemical_formula_sum "Si O2"
_cell_formula_units_Z 16
_cell_length_a 9.828414
_cell_length_b 15.829737
_cell_length_c 15.922539
_cell_angle_alpha 156.069333
_cell_angle_beta 61.699589
_cell_angle_gamma 128.036743
_cell_volume 760.029389
_symmetry_space_group_name_H-M "P -1"
_symmetry_group_IT_number 2
_symmetry_cell_setting 'triclinic'
loop_
_space_group_symop_operation_xyz
x,y,z
-x,-y,-z
loop_
_atom_site_type_symbol
_atom_site_label
_atom_site_fract_x
_atom_site_fract_y
_atom_site_fract_z
Si Si1 0.893067 0.703713 0.649874
Si Si2 0.285388 0.635517 0.189358
Si Si3 0.744069 0.231319 0.365126
Si Si4 0.702552 0.390944 0.264331
Si Si5 0.800368 0.771503 0.273966
Si Si6 0.511680 0.146560 0.512756
Si Si7 0.305286 0.031315 0.028851
Si Si8 0.050684 0.315005 0.688387
O O1 0.827300 0.510339 0.568633
O O2 0.788271 0.594431 0.495095
O O3 0.858817 0.918912 0.882269
O O4 0.105361 0.808487 0.669786
O O5 0.327961 0.658164 0.296863
O O6 0.089600 0.594521 0.193861
O O7 0.443894 0.875261 0.316967
O O8 0.285520 0.403262 0.939905
O O9 0.581790 0.165899 0.415901
O O10 0.664942 0.059186 0.151321
O O11 0.488070 0.278509 0.223619
O O12 0.782317 0.516160 0.266164
O O13 0.743713 0.175994 0.075456
O O14 0.650799 0.802121 0.394249
O O15 0.878281 0.654652 0.209550
O O16 0.957387 0.032815 0.432274
#
# Coordination Sequence:
#
# PCOD8012492 Si02
#       8
#     2   2   2   2   2   2   2   2
#     4  10  21  40  60  87 125 156 200 254 296 369
#     4  10  21  40  60  87 125 156 200 254 296 369
#     4  10  22  38  61  89 122 157 202 251 302 363
#     4  10  22  39  60  90 124 156 203 252 300 363
#     4  10  22  40  60  91 119 161 204 246 308 365
#     4  10  22  38  61  89 122 157 202 251 302 363
#     4  10  22  40  60  91 119 161 204 246 308 365
#     4  10  22  39  60  90 124 156 203 252 300 363
#
# _framework density 21.051818999999998
#
# number of rings (size 3 to 8) (size 9 to 14) (size 15 to 20)
#    0.000    2.000    0.000    2.250    3.500    1.000 
#    0.000    2.500    0.000    0.000    0.000    0.000 
#    0.000    0.000    0.000    0.000    0.000    0.000 
#
# Total GULP energy -198472.661535 kJ/mol
# GULP energy per Si atom -12404.541346 kJ/mol
# Density = 2.100390 g / cm^3
# Si number density = 21.051819 Si / 1000 Ang^3
#
#
#
# Elastic Constant Matrix: (Units=GPa)
#
#
# Indices 1 2 3 4 5 6 
#
# 1 88.6870 11.2875 17.0431 2.6732 -2.1912 1.1334
# 2 11.2875 91.1076 22.4422 3.4663 -4.6124 -0.0054
# 3 17.0431 22.4422 87.0844 -2.3482 2.5683 -2.3016
# 4 2.6732 3.4663 -2.3482 18.6108 -0.7187 1.5378
# 5 -2.1912 -4.6124 2.5683 -0.7187 35.6029 -3.6455
# 6 1.1334 -0.0054 -2.3016 1.5378 -3.6455 21.3692
#
#
#
# Elastic Compliance Matrix: (Units=1/GPa)
#
#
# Indices 1 2 3 4 5 6 
#
# 1 0.011881 -0.000830 -0.002195 -0.001751 0.000683 -0.000624
# 2 -0.000830 0.012007 -0.003043 -0.002451 0.001693 0.000185
# 3 -0.002195 -0.003043 0.012828 0.002359 -0.001294 0.001107
# 4 -0.001751 -0.002451 0.002359 0.055040 0.000148 -0.003589
# 5 0.000683 0.001693 -0.001294 0.000148 0.028932 0.004750
# 6 -0.000624 0.000185 0.001107 -0.003589 0.004750 0.048017
#
#
# Mechanical properties :
#
#
# Convention : Reuss Voigt Hill
#
# Bulk Modulus (GPa) = 40.68413 40.93608 40.81010
# Shear Modulus (GPa) = 26.45010 29.52365 27.98687
#
# Velocity S-wave (km/s) = 3.54846 3.74896 3.65009
# Velocity P-wave (km/s) = 6.01302 6.18282 6.09851
#
# Compressibility (1/GPa) = 0.02457961
#
# Stress axis : x y z
#
# Youngs Moduli (GPa) = 84.17006 83.28149 77.95473
#
# Poissons Ratio (x) = 0.06913 0.17112
# Poissons Ratio (y) = 0.06987 0.23722
# Poissons Ratio (z) = 0.18476 0.25343
#
# Static dielectric constant tensor:
#      x y z
#    x 3.852170 -0.048720 0.066960 
#    y -0.048720 3.531110 0.091810 
#    z 0.066960 0.091810 3.717970 
# 
# 
# High freq. dielectric constant tensor:
#      x y z
#    x 1.836210 -0.001690 0.005510 
#    y -0.001690 1.807340 0.001420 
#    z 0.005510 0.001420 1.824510 
# 
# From -- ./inp_files/505762.got.cif
#   From: 2010.06.25/outbox.cif.g09.slc.cpg/sg2_253_cif.got.tgz:505762.got - 2010.06.27 13:26:56.
