data_PCOD8012780
_publ_section_title
;
Structure prediction by ZEFSAII (Michael W. Deem and Ramdas Pophale) SiO2 
 PCOD8012780
Probable space group: P -1
;
_chemical_formula_sum "Si O2"
_cell_formula_units_Z 16
_cell_length_a 21.655804
_cell_length_b 20.937626
_cell_length_c 6.546710
_cell_angle_alpha 122.332227
_cell_angle_beta 67.076347
_cell_angle_gamma 161.392498
_cell_volume 720.514720
_symmetry_space_group_name_H-M "P -1"
_symmetry_group_IT_number 2
_symmetry_cell_setting 'triclinic'
loop_
_space_group_symop_operation_xyz
x,y,z
-x,-y,-z
loop_
_atom_site_type_symbol
_atom_site_label
_atom_site_fract_x
_atom_site_fract_y
_atom_site_fract_z
Si Si1 0.636655 0.616312 0.709895
Si Si2 0.097602 0.869340 0.279553
Si Si3 0.280916 0.639616 0.139732
Si Si4 0.529892 0.800686 0.850617
Si Si5 0.396700 0.772375 0.649891
Si Si6 0.762778 0.275460 0.921412
Si Si7 0.238699 0.369759 0.703555
Si Si8 0.421698 0.308029 0.839547
O O1 0.500000 0.500000 0.500000
O O2 0.817888 0.762048 0.600557
O O3 0.499166 0.417509 0.703365
O O4 0.717128 0.774891 0.008345
O O5 0.978756 0.819638 0.274781
O O6 0.228139 0.971545 0.097320
O O7 0.261249 0.065464 0.590260
O O8 0.919148 0.617627 0.154146
O O9 0.250271 0.593825 0.340694
O O10 0.283279 0.731573 0.246170
O O11 0.505895 0.842550 0.120003
O O12 0.454582 0.756155 0.656432
O O13 0.381203 0.572877 0.717185
O O14 0.611015 0.041726 0.749525
O O15 0.264045 0.688469 0.813291
O O16 0.000000 0.500000 0.000000
O O17 0.372348 0.493362 0.947748
#
# Coordination Sequence:
#
# PCOD8012780 Si02
#       8
#     2   2   2   2   2   2   2   2
#     4   9  19  41  66  89 126 161 205 262 312 364
#     4  11  23  39  62  93 123 165 214 248 313 374
#     4  10  23  40  59  94 124 166 210 252 309 371
#     4  10  22  40  57  90 128 158 208 260 299 366
#     4  10  22  40  64  86 129 164 199 264 304 356
#     4  10  21  40  63  92 123 161 211 251 307 372
#     4  10  22  41  61  92 126 159 214 258 307 375
#     4  10  21  41  65  89 126 165 201 265 311 361
#
# _framework density 22.206347000000001
#
# number of rings (size 3 to 8) (size 9 to 14) (size 15 to 20)
#    0.000    2.000    1.250    1.125    3.500    2.000 
#    9.000    5.625    0.000    0.000    0.000    0.000 
#    0.000    0.000    0.000    0.000    0.000    0.000 
#
# Total GULP energy -198213.672356 kJ/mol
# GULP energy per Si atom -12388.354522 kJ/mol
# Density = 2.215580 g / cm^3
# Si number density = 22.206347 Si / 1000 Ang^3
#
#
#
# Elastic Constant Matrix: (Units=GPa)
#
#
# Indices 1 2 3 4 5 6 
#
# 1 102.7146 40.4644 34.3938 -14.1207 12.2815 11.5600
# 2 40.4644 91.1131 29.3670 -0.6097 2.2379 23.3081
# 3 34.3938 29.3670 94.8985 -10.8287 14.0794 -3.8245
# 4 -14.1207 -0.6097 -10.8287 20.1119 -8.3205 2.7602
# 5 12.2815 2.2379 14.0794 -8.3205 28.4004 -6.3194
# 6 11.5600 23.3081 -3.8245 2.7602 -6.3194 47.1954
#
#
#
# Elastic Compliance Matrix: (Units=1/GPa)
#
#
# Indices 1 2 3 4 5 6 
#
# 1 0.014039 -0.004810 -0.002413 0.007561 -0.002740 -0.002068
# 2 -0.004810 0.016127 -0.003999 -0.004070 0.000072 -0.006863
# 3 -0.002413 -0.003999 0.013737 0.003631 -0.003727 0.002968
# 4 0.007561 -0.004070 0.003631 0.062543 0.013255 -0.001431
# 5 -0.002740 0.000072 -0.003727 0.013255 0.043313 0.005358
# 6 -0.002068 -0.006863 0.002968 -0.001431 0.005358 0.026126
#
#
# Mechanical properties :
#
#
# Convention : Reuss Voigt Hill
#
# Bulk Modulus (GPa) = 46.60386 55.24183 50.92284
# Shear Modulus (GPa) = 24.33306 31.44161 27.88734
#
# Velocity S-wave (km/s) = 3.31383 3.76691 3.54761
# Velocity P-wave (km/s) = 5.97280 6.62194 6.30572
#
# Compressibility (1/GPa) = 0.02145745
#
# Stress axis : x y z
#
# Youngs Moduli (GPa) = 71.23209 62.00750 72.79756
#
# Poissons Ratio (x) = 0.29825 0.17570
# Poissons Ratio (y) = 0.34262 0.29112
# Poissons Ratio (z) = 0.17192 0.24797
#
# Static dielectric constant tensor:
#      x y z
#    x 4.710460 0.324220 -0.301250 
#    y 0.324220 3.990330 -0.360570 
#    z -0.301250 -0.360570 4.011840 
# 
# 
# High freq. dielectric constant tensor:
#      x y z
#    x 1.893640 0.009560 -0.010780 
#    y 0.009560 1.859080 -0.023010 
#    z -0.010780 -0.023010 1.859560 
# 
# From -- ./inp_files/120450.got.cif
#   From: 2010.06.25/outbox.cif.g09.slc.cpg/sg2_61_cif.got.tgz:120450.got - 2010.06.27 13:26:56.
