data_PCOD8012744
_publ_section_title
;
Structure prediction by ZEFSAII (Michael W. Deem and Ramdas Pophale) SiO2 
 PCOD8012744
Probable space group: P -1
;
_chemical_formula_sum "Si O2"
_cell_formula_units_Z 12
_cell_length_a 7.215353
_cell_length_b 8.504349
_cell_length_c 10.111573
_cell_angle_alpha 111.031770
_cell_angle_beta 99.737149
_cell_angle_gamma 56.469193
_cell_volume 482.418853
_symmetry_space_group_name_H-M "P -1"
_symmetry_group_IT_number 2
_symmetry_cell_setting 'triclinic'
loop_
_space_group_symop_operation_xyz
x,y,z
-x,-y,-z
loop_
_atom_site_type_symbol
_atom_site_label
_atom_site_fract_x
_atom_site_fract_y
_atom_site_fract_z
Si Si1 0.013992 0.747551 0.612557
Si Si2 0.365251 0.337117 0.444867
Si Si3 0.656509 0.208457 0.943525
Si Si4 0.954705 0.774208 0.913107
Si Si5 0.265061 0.817372 0.342946
Si Si6 0.704019 0.569728 0.821847
O O1 0.807951 0.722948 0.548986
O O2 0.063163 0.733996 0.769506
O O3 0.244971 0.576216 0.523916
O O4 0.954312 0.959355 0.608993
O O5 0.583268 0.216606 0.522804
O O6 0.424169 0.294078 0.282675
O O7 0.455643 0.380831 0.056563
O O8 0.858696 0.247169 0.970984
O O9 0.594402 0.203360 0.780907
O O10 0.735829 0.997628 0.959680
O O11 0.895141 0.611781 0.896916
O O12 0.187876 0.659757 0.277088
#
# Coordination Sequence:
#
# PCOD8012744 Si02
#       6
#     2   2   2   2   2   2
#     4   9  20  39  62  89 123 164 205 250 307 366
#     4  10  21  40  63  88 124 163 204 254 305 365
#     4  10  21  40  63  88 124 163 204 254 305 365
#     4   9  20  39  62  89 123 164 205 250 307 366
#     4  11  22  37  62  92 122 161 205 253 309 364
#     4  11  22  37  62  92 122 161 205 253 309 364
#
# _framework density 24.874651
#
# number of rings (size 3 to 8) (size 9 to 14) (size 15 to 20)
#    0.000    2.000    0.000    3.000    0.000    1.333 
#    0.000    6.667    0.000    4.000    0.000    0.000 
#    0.000    0.000    0.000    0.000    0.000    0.000 
#
# Total GULP energy -148813.234761 kJ/mol
# GULP energy per Si atom -12401.102897 kJ/mol
# Density = 2.481803 g / cm^3
# Si number density = 24.874651 Si / 1000 Ang^3
#
#
#
# Elastic Constant Matrix: (Units=GPa)
#
#
# Indices 1 2 3 4 5 6 
#
# 1 36.9666 17.9724 9.6685 -13.4157 6.8236 11.7163
# 2 17.9724 103.2048 16.2043 5.3713 7.7484 2.3394
# 3 9.6685 16.2043 84.2915 -13.1161 6.0009 -8.6727
# 4 -13.4157 5.3713 -13.1161 39.9288 4.2576 1.5053
# 5 6.8236 7.7484 6.0009 4.2576 26.5270 7.3293
# 6 11.7163 2.3394 -8.6727 1.5053 7.3293 30.4171
#
#
#
# Elastic Compliance Matrix: (Units=1/GPa)
#
#
# Indices 1 2 3 4 5 6 
#
# 1 0.043226 -0.007147 -0.002246 0.016062 -0.006703 -0.015920
# 2 -0.007147 0.011484 -0.001849 -0.004528 -0.000861 0.001774
# 3 -0.002246 -0.001849 0.014071 0.004363 -0.004385 0.005860
# 4 0.016062 -0.004528 0.004363 0.033497 -0.007976 -0.004330
# 5 -0.006703 -0.000861 -0.004385 -0.007976 0.044406 -0.008908
# 6 -0.015920 0.001774 0.005860 -0.004330 -0.008908 0.042904
#
#
# Mechanical properties :
#
#
# Convention : Reuss Voigt Hill
#
# Bulk Modulus (GPa) = 21.59922 34.68370 28.14146
# Shear Modulus (GPa) = 21.97774 31.41577 26.69675
#
# Velocity S-wave (km/s) = 2.97566 3.55767 3.27961
# Velocity P-wave (km/s) = 4.52860 5.55425 5.06744
#
# Compressibility (1/GPa) = 0.04629796
#
# Stress axis : x y z
#
# Youngs Moduli (GPa) = 23.13445 87.07437 71.07053
#
# Poissons Ratio (x) = 0.62229 0.15961
# Poissons Ratio (y) = 0.16533 0.13140
# Poissons Ratio (z) = 0.05196 0.16099
#
# Static dielectric constant tensor:
#      x y z
#    x 3.945170 0.285570 0.141600 
#    y 0.285570 4.563080 0.133690 
#    z 0.141600 0.133690 4.712950 
# 
# 
# High freq. dielectric constant tensor:
#      x y z
#    x 1.956540 0.020550 0.004650 
#    y 0.020550 1.996670 -0.001040 
#    z 0.004650 -0.001040 2.007030 
# 
# From -- ./inp_files/155906.got.cif
#   From: 2010.06.25/outbox.cif.g09.slc.cpg/sg2_78_cif.got.tgz:155906.got - 2010.06.27 13:26:56.
