data_PCOD8012621
_publ_section_title
;
Structure prediction by ZEFSAII (Michael W. Deem and Ramdas Pophale) SiO2 
 PCOD8012621
Probable space group: P -1
;
_chemical_formula_sum "Si O2"
_cell_formula_units_Z 14
_cell_length_a 26.411031
_cell_length_b 5.134039
_cell_length_c 5.165812
_cell_angle_alpha 118.942870
_cell_angle_beta 93.072119
_cell_angle_gamma 75.055849
_cell_volume 590.138041
_symmetry_space_group_name_H-M "P -1"
_symmetry_group_IT_number 2
_symmetry_cell_setting 'triclinic'
loop_
_space_group_symop_operation_xyz
x,y,z
-x,-y,-z
loop_
_atom_site_type_symbol
_atom_site_label
_atom_site_fract_x
_atom_site_fract_y
_atom_site_fract_z
Si Si1 0.979338 0.864547 0.178443
Si Si2 0.456892 0.693502 0.394087
Si Si3 0.304698 0.077462 0.329180
Si Si4 0.143923 0.879558 0.735687
Si Si5 0.656667 0.313602 0.355730
Si Si6 0.438419 0.333024 0.794680
Si Si7 0.182846 0.157932 0.384740
O O1 0.916974 0.949091 0.205080
O O2 0.000000 0.000000 0.500000
O O3 0.000000 0.500000 0.000000
O O4 0.000000 0.000000 0.000000
O O5 0.500000 0.500000 0.500000
O O6 0.497683 0.773359 0.231126
O O7 0.419682 0.018260 0.645433
O O8 0.419868 0.515759 0.145567
O O9 0.336982 0.871844 0.467380
O O10 0.317055 0.406438 0.481618
O O11 0.243602 0.143292 0.401207
O O12 0.317864 0.905344 0.977776
O O13 0.149940 0.513551 0.572807
O O14 0.171259 0.959366 0.524542
O O15 0.169569 0.999879 0.045941
O O16 0.592509 0.452288 0.352189
#
# Coordination Sequence:
#
# PCOD8012621 Si02
#       7
#     2   2   2   2   2   2   2
#     4  12  24  43  67 101 144 178 225 278 336 397
#     4  10  21  40  62  87 123 158 211 255 320 375
#     4  12  26  47  68 100 132 178 219 290 331 398
#     4  12  25  43  71 101 133 186 225 278 334 399
#     4  12  27  45  71 100 136 174 223 270 353 394
#     4  10  23  38  61  92 119 166 207 263 313 405
#     4  12  24  44  69  96 135 173 237 275 335 395
#
# _framework density 23.723265000000001
#
# number of rings (size 3 to 8) (size 9 to 14) (size 15 to 20)
#    0.000    0.571    0.000    8.571    4.000    0.000 
#    0.000    0.000    0.000    0.000    0.000    0.000 
#    0.000    0.000    0.000    0.000    0.000    0.000 
#
# Total GULP energy -173595.507234 kJ/mol
# GULP energy per Si atom -12399.679088 kJ/mol
# Density = 2.366927 g / cm^3
# Si number density = 23.723265 Si / 1000 Ang^3
#
#
#
# Elastic Constant Matrix: (Units=GPa)
#
#
# Indices 1 2 3 4 5 6 
#
# 1 123.5192 0.4741 10.9375 -7.7937 -9.5569 -3.7349
# 2 0.4741 122.3012 62.1327 8.8864 7.3241 7.3979
# 3 10.9375 62.1327 226.5212 8.8315 34.1895 16.6267
# 4 -7.7937 8.8864 8.8315 52.1653 -0.9905 1.0698
# 5 -9.5569 7.3241 34.1895 -0.9905 39.5317 3.1483
# 6 -3.7349 7.3979 16.6267 1.0698 3.1483 38.5492
#
#
#
# Elastic Compliance Matrix: (Units=1/GPa)
#
#
# Indices 1 2 3 4 5 6 
#
# 1 0.008528 0.000145 -0.001012 0.001455 0.002870 0.000960
# 2 0.000145 0.009604 -0.002629 -0.001144 0.000557 -0.000709
# 3 -0.001012 -0.002629 0.006087 -0.000790 -0.004898 -0.001797
# 4 0.001455 -0.001144 -0.000790 0.019749 0.001741 0.000011
# 5 0.002870 0.000557 -0.004898 0.001741 0.030185 -0.000230
# 6 0.000960 -0.000709 -0.001797 0.000011 -0.000230 0.026963
#
#
# Mechanical properties :
#
#
# Convention : Reuss Voigt Hill
#
# Bulk Modulus (GPa) = 58.04617 68.82559 63.43588
# Shear Modulus (GPa) = 43.91779 52.63573 48.27676
#
# Velocity S-wave (km/s) = 4.30729 4.71546 4.51599
# Velocity P-wave (km/s) = 7.01841 7.66304 7.34780
#
# Compressibility (1/GPa) = 0.01722766
#
# Stress axis : x y z
#
# Youngs Moduli (GPa) = 117.26237 104.12190 164.29769
#
# Poissons Ratio (x) = -0.01514 0.16627
# Poissons Ratio (y) = -0.01705 0.43190
# Poissons Ratio (z) = 0.11867 0.27371
#
# Static dielectric constant tensor:
#      x y z
#    x 6.500320 0.088170 -0.306300 
#    y 0.088170 4.529150 0.324810 
#    z -0.306300 0.324810 5.365580 
# 
# 
# High freq. dielectric constant tensor:
#      x y z
#    x 1.955970 0.004740 0.002330 
#    y 0.004740 1.957990 0.004240 
#    z 0.002330 0.004240 1.970260 
# 
# From -- ./inp_files/125676.got.cif
#   From: 2010.06.25/outbox.cif.g09.slc.cpg/sg2_63_cif.got.tgz:125676.got - 2010.06.27 13:26:56.
