data_PCOD8012860
_publ_section_title
;
Structure prediction by ZEFSAII (Michael W. Deem and Ramdas Pophale) SiO2 
 PCOD8012860
Probable space group: P -1
;
_chemical_formula_sum "Si O2"
_cell_formula_units_Z 16
_cell_length_a 6.780398
_cell_length_b 21.510704
_cell_length_c 9.454738
_cell_angle_alpha 50.298922
_cell_angle_beta 48.387711
_cell_angle_gamma 77.573130
_cell_volume 739.026146
_symmetry_space_group_name_H-M "P -1"
_symmetry_group_IT_number 2
_symmetry_cell_setting 'triclinic'
loop_
_space_group_symop_operation_xyz
x,y,z
-x,-y,-z
loop_
_atom_site_type_symbol
_atom_site_label
_atom_site_fract_x
_atom_site_fract_y
_atom_site_fract_z
Si Si1 0.719984 0.956249 0.286131
Si Si2 0.015871 0.625805 0.918611
Si Si3 0.149350 0.331146 0.362087
Si Si4 0.595492 0.414553 0.733705
Si Si5 0.715264 0.950842 0.625720
Si Si6 0.586012 0.236646 0.279127
Si Si7 0.348649 0.761262 0.068317
Si Si8 0.196442 0.509567 0.180504
O O1 0.794956 0.958262 0.412368
O O2 0.578855 0.857871 0.440429
O O3 0.509846 0.006592 0.286561
O O4 0.000000 0.000000 0.000000
O O5 0.156626 0.713747 0.812326
O O6 0.029395 0.654559 0.706820
O O7 0.193698 0.563907 0.959464
O O8 0.690668 0.572786 0.198000
O O9 0.375978 0.288695 0.277216
O O10 0.300066 0.428482 0.219934
O O11 0.939207 0.264889 0.667735
O O12 0.531048 0.315221 0.868670
O O13 0.616748 0.429152 0.873159
O O14 0.872888 0.476673 0.435195
O O15 0.583665 0.850215 0.883394
O O16 0.000000 0.000000 0.500000
O O17 0.723912 0.226218 0.078617
#
# Coordination Sequence:
#
# PCOD8012860 Si02
#       8
#     2   2   2   2   2   2   2   2
#     4  10  23  43  65  95 130 165 209 257 321 384
#     4  12  22  38  61  94 120 161 215 256 304 366
#     4  11  24  40  62  90 125 164 209 259 301 369
#     4  10  21  40  64  86 125 166 204 255 309 368
#     4  10  23  40  68  97 125 164 210 262 313 382
#     4  11  24  42  64  90 127 166 201 258 314 367
#     4  10  21  45  61  87 129 165 198 252 322 361
#     4  10  22  40  61  89 122 168 208 254 312 356
#
# _framework density 21.650113999999999
#
# number of rings (size 3 to 8) (size 9 to 14) (size 15 to 20)
#    0.000    1.500    2.500    1.500    1.750    4.500 
#    4.500    0.000    0.000    0.000    0.000    0.000 
#    0.000    0.000    0.000    0.000    0.000    0.000 
#
# Total GULP energy -198376.293260 kJ/mol
# GULP energy per Si atom -12398.518329 kJ/mol
# Density = 2.160084 g / cm^3
# Si number density = 21.650114 Si / 1000 Ang^3
#
#
#
# Elastic Constant Matrix: (Units=GPa)
#
#
# Indices 1 2 3 4 5 6 
#
# 1 123.4844 56.6441 41.9619 -15.3845 -9.6533 10.0930
# 2 56.6441 109.7798 55.1489 -11.9361 -12.9046 4.7824
# 3 41.9619 55.1489 117.5482 -7.6116 -10.7592 7.7164
# 4 -15.3845 -11.9361 -7.6116 44.6075 4.5985 -8.2250
# 5 -9.6533 -12.9046 -10.7592 4.5985 29.8209 -5.5743
# 6 10.0930 4.7824 7.7164 -8.2250 -5.5743 30.1602
#
#
#
# Elastic Compliance Matrix: (Units=1/GPa)
#
#
# Indices 1 2 3 4 5 6 
#
# 1 0.011191 -0.004672 -0.001510 0.001940 0.000379 -0.002019
# 2 -0.004672 0.014377 -0.004806 0.001370 0.003034 0.001448
# 3 -0.001510 -0.004806 0.011505 -0.000258 0.001342 -0.001499
# 4 0.001940 0.001370 -0.000258 0.024611 -0.001618 0.005612
# 5 0.000379 0.003034 0.001342 -0.001618 0.036711 0.005392
# 6 -0.002019 0.001448 -0.001499 0.005612 0.005392 0.036513
#
#
# Mechanical properties :
#
#
# Convention : Reuss Voigt Hill
#
# Bulk Modulus (GPa) = 66.23776 73.14689 69.69232
# Shear Modulus (GPa) = 30.88020 34.05487 32.46754
#
# Velocity S-wave (km/s) = 3.78078 3.97037 3.87673
# Velocity P-wave (km/s) = 7.05125 7.40795 7.23180
#
# Compressibility (1/GPa) = 0.01509713
#
# Stress axis : x y z
#
# Youngs Moduli (GPa) = 89.35815 69.55739 86.91621
#
# Poissons Ratio (x) = 0.32499 0.13124
# Poissons Ratio (y) = 0.41750 0.41769
# Poissons Ratio (z) = 0.13493 0.33427
#
# Static dielectric constant tensor:
#      x y z
#    x 3.642750 0.122970 -0.126060 
#    y 0.122970 4.030390 -0.044980 
#    z -0.126060 -0.044980 4.131700 
# 
# 
# High freq. dielectric constant tensor:
#      x y z
#    x 1.839240 0.000370 -0.011240 
#    y 0.000370 1.859050 -0.004980 
#    z -0.011240 -0.004980 1.868660 
# 
# From -- ./inp_files/141110.got.cif
#   From: 2010.06.25/outbox.cif.g09.slc.cpg/sg2_71_cif.got.tgz:141110.got - 2010.06.27 13:26:56.
