data_PCOD8012429
_publ_section_title
;
Structure prediction by ZEFSAII (Michael W. Deem and Ramdas Pophale) SiO2 
 PCOD8012429
Probable space group: P -1
;
_chemical_formula_sum "Si O2"
_cell_formula_units_Z 14
_cell_length_a 14.404490
_cell_length_b 11.772303
_cell_length_c 11.414623
_cell_angle_alpha 87.370493
_cell_angle_beta 83.961139
_cell_angle_gamma 19.566234
_cell_volume 636.342311
_symmetry_space_group_name_H-M "P -1"
_symmetry_group_IT_number 2
_symmetry_cell_setting 'triclinic'
loop_
_space_group_symop_operation_xyz
x,y,z
-x,-y,-z
loop_
_atom_site_type_symbol
_atom_site_label
_atom_site_fract_x
_atom_site_fract_y
_atom_site_fract_z
Si Si1 0.584824 0.633923 0.129619
Si Si2 0.866659 0.290986 0.865465
Si Si3 0.758390 0.776645 0.928068
Si Si4 0.234313 0.376259 0.275639
Si Si5 0.361180 0.278308 0.664611
Si Si6 0.490507 0.526363 0.861712
Si Si7 0.912506 0.728111 0.520176
O O1 0.718848 0.563495 0.212958
O O2 0.480072 0.632334 0.194247
O O3 0.317687 0.004875 0.092322
O O4 0.809150 0.353697 0.009724
O O5 0.702236 0.585507 0.812771
O O6 0.751458 0.311269 0.810968
O O7 0.204172 0.911656 0.830147
O O8 0.885059 0.581981 0.799202
O O9 0.000000 0.500000 0.000000
O O10 0.500000 0.000000 0.000000
O O11 0.002712 0.683759 0.387915
O O12 0.508711 0.998674 0.316238
O O13 0.077196 0.594540 0.613206
O O14 0.579824 0.109599 0.573447
O O15 0.500000 0.500000 0.000000
O O16 0.000000 0.500000 0.500000
#
# Coordination Sequence:
#
# PCOD8012429 Si02
#       7
#     2   2   2   2   2   2   2
#     4  10  22  41  60  86 124 153 199 242 290 358
#     4  11  23  37  61  89 118 155 196 244 299 345
#     4  11  24  35  55  90 122 150 179 235 304 349
#     4  10  22  38  61  86 124 149 192 247 292 354
#     4  10  23  37  63  87 115 160 192 243 295 347
#     4  10  23  38  58  84 118 163 199 233 289 355
#     4  10  21  40  57  87 117 158 201 229 291 360
#
# _framework density 22.000737999999998
#
# number of rings (size 3 to 8) (size 9 to 14) (size 15 to 20)
#    0.000    1.714    1.429    3.429    4.000   16.000 
#    0.000    0.000    0.000    5.143    0.000    0.000 
#    0.000    0.000    0.000    0.000    0.000    0.000 
#
# Total GULP energy -173470.408006 kJ/mol
# GULP energy per Si atom -12390.743429 kJ/mol
# Density = 2.195066 g / cm^3
# Si number density = 22.000738 Si / 1000 Ang^3
#
#
#
# Elastic Constant Matrix: (Units=GPa)
#
#
# Indices 1 2 3 4 5 6 
#
# 1 94.1287 45.6622 17.2045 0.6485 6.5398 0.2479
# 2 45.6622 68.9368 19.3536 -12.5437 11.1485 -6.9141
# 3 17.2045 19.3536 76.6110 1.1998 8.3206 -4.7495
# 4 0.6485 -12.5437 1.1998 20.7774 -4.6034 4.0993
# 5 6.5398 11.1485 8.3206 -4.6034 26.2300 -3.1645
# 6 0.2479 -6.9141 -4.7495 4.0993 -3.1645 42.0232
#
#
#
# Elastic Compliance Matrix: (Units=1/GPa)
#
#
# Indices 1 2 3 4 5 6 
#
# 1 0.016902 -0.012575 -0.000561 -0.007849 -0.000248 -0.001485
# 2 -0.012575 0.027746 -0.003816 0.015937 -0.004370 0.002324
# 3 -0.000561 -0.003816 0.014658 -0.004134 -0.003472 0.001174
# 4 -0.007849 0.015937 -0.004134 0.060347 0.006702 -0.003181
# 5 -0.000248 -0.004370 -0.003472 0.006702 0.042494 0.001436
# 6 -0.001485 0.002324 0.001174 -0.003181 0.001436 0.024739
#
#
# Mechanical properties :
#
#
# Convention : Reuss Voigt Hill
#
# Bulk Modulus (GPa) = 39.36824 44.90192 42.13508
# Shear Modulus (GPa) = 21.80960 28.30318 25.05639
#
# Velocity S-wave (km/s) = 3.15193 3.59062 3.37840
# Velocity P-wave (km/s) = 5.58382 6.13544 5.86612
#
# Compressibility (1/GPa) = 0.02540119
#
# Stress axis : x y z
#
# Youngs Moduli (GPa) = 59.16610 36.04071 68.22392
#
# Poissons Ratio (x) = 0.45320 0.03828
# Poissons Ratio (y) = 0.74399 0.26037
# Poissons Ratio (z) = 0.03320 0.13754
#
# Static dielectric constant tensor:
#      x y z
#    x 4.379250 -0.025190 -0.308510 
#    y -0.025190 3.824710 0.398970 
#    z -0.308510 0.398970 5.386830 
# 
# 
# High freq. dielectric constant tensor:
#      x y z
#    x 1.866850 -0.007270 0.009040 
#    y -0.007270 1.840120 -0.004830 
#    z 0.009040 -0.004830 1.850540 
# 
# From -- ./inp_files/452371.got.cif
#   From: 2010.06.25/outbox.cif.g09.slc.cpg/sg2_227_cif.got.tgz:452371.got - 2010.06.27 13:26:56.
