data_PCOD8012527
_publ_section_title
;
Structure prediction by ZEFSAII (Michael W. Deem and Ramdas Pophale) SiO2 
 PCOD8012527
Probable space group: P -1
;
_chemical_formula_sum "Si O2"
_cell_formula_units_Z 16
_cell_length_a 18.848642
_cell_length_b 6.695199
_cell_length_c 15.579959
_cell_angle_alpha 44.428036
_cell_angle_beta 144.304863
_cell_angle_gamma 135.939538
_cell_volume 755.361705
_symmetry_space_group_name_H-M "P -1"
_symmetry_group_IT_number 2
_symmetry_cell_setting 'triclinic'
loop_
_space_group_symop_operation_xyz
x,y,z
-x,-y,-z
loop_
_atom_site_type_symbol
_atom_site_label
_atom_site_fract_x
_atom_site_fract_y
_atom_site_fract_z
Si Si1 0.772845 0.595166 0.587668
Si Si2 0.734265 0.632385 0.190349
Si Si3 0.271287 0.914616 0.156567
Si Si4 0.371539 0.871170 0.091923
Si Si5 0.967513 0.156141 0.337214
Si Si6 0.456609 0.825059 0.597733
Si Si7 0.643798 0.030855 0.382344
Si Si8 0.792374 0.529497 0.092256
O O1 0.767805 0.337248 0.731144
O O2 0.907270 0.683789 0.645002
O O3 0.654520 0.492262 0.434845
O O4 0.756041 0.887452 0.525981
O O5 0.701527 0.387770 0.308845
O O6 0.743816 0.461157 0.163760
O O7 0.867467 0.902935 0.258270
O O8 0.622968 0.785565 0.029195
O O9 0.278461 0.759555 0.119057
O O10 0.412171 0.181040 0.226549
O O11 0.172520 0.105699 0.000226
O O12 0.515672 0.868008 0.250047
O O13 0.318291 0.651591 0.027247
O O14 0.915820 0.425367 0.232503
O O15 0.000000 0.000000 0.500000
O O16 0.393981 0.011188 0.541834
O O17 0.500000 0.000000 0.500000
#
# Coordination Sequence:
#
# PCOD8012527 Si02
#       8
#     2   2   2   2   2   2   2   2
#     4  11  23  36  58  89 116 154 196 229 281 345
#     4  10  22  39  59  86 114 151 196 235 283 338
#     4   9  20  38  59  87 116 145 190 236 286 346
#     4   9  20  38  60  86 115 148 188 236 290 344
#     4  11  24  41  59  83 115 151 197 239 279 339
#     4   9  20  37  58  88 120 148 186 232 285 344
#     4  11  21  35  60  88 120 152 184 237 289 335
#     4  10  21  40  61  79 116 156 186 241 289 324
#
# _framework density 21.181906999999999
#
# number of rings (size 3 to 8) (size 9 to 14) (size 15 to 20)
#    0.000    2.000    0.000    2.625    0.000   11.500 
#    0.000    5.625    0.000    0.000    0.000    0.000 
#    0.000    0.000    0.000    0.000    0.000    0.000 
#
# Total GULP energy -198310.562667 kJ/mol
# GULP energy per Si atom -12394.410167 kJ/mol
# Density = 2.113370 g / cm^3
# Si number density = 21.181907 Si / 1000 Ang^3
#
#
#
# Elastic Constant Matrix: (Units=GPa)
#
#
# Indices 1 2 3 4 5 6 
#
# 1 113.8256 39.8005 43.8221 -10.2190 1.3640 -15.1325
# 2 39.8005 61.8354 26.8569 -2.6457 -4.2806 -5.7319
# 3 43.8221 26.8569 86.9859 -20.8804 -0.5799 -6.4373
# 4 -10.2190 -2.6457 -20.8804 38.4743 -9.7006 -1.1376
# 5 1.3640 -4.2806 -0.5799 -9.7006 36.8992 -1.4799
# 6 -15.1325 -5.7319 -6.4373 -1.1376 -1.4799 35.3231
#
#
#
# Elastic Compliance Matrix: (Units=1/GPa)
#
#
# Indices 1 2 3 4 5 6 
#
# 1 0.013228 -0.006340 -0.004279 0.000623 -0.000974 0.003837
# 2 -0.006340 0.022100 -0.004026 -0.001770 0.002277 0.000175
# 3 -0.004279 -0.004026 0.016997 0.008396 0.002204 0.000974
# 4 0.000623 -0.001770 0.008396 0.032862 0.008660 0.002931
# 5 -0.000974 0.002277 0.002204 0.008660 0.029788 0.001881
# 6 0.003837 0.000175 0.000974 0.002931 0.001881 0.030333
#
#
# Mechanical properties :
#
#
# Convention : Reuss Voigt Hill
#
# Bulk Modulus (GPa) = 43.41581 53.73396 48.57489
# Shear Modulus (GPa) = 27.43103 32.28381 29.85742
#
# Velocity S-wave (km/s) = 3.60255 3.90824 3.75850
# Velocity P-wave (km/s) = 6.15188 6.76673 6.46662
#
# Compressibility (1/GPa) = 0.02303309
#
# Stress axis : x y z
#
# Youngs Moduli (GPa) = 75.59952 45.24969 58.83394
#
# Poissons Ratio (x) = 0.28690 0.25177
# Poissons Ratio (y) = 0.47934 0.23686
# Poissons Ratio (z) = 0.32351 0.18217
#
# Static dielectric constant tensor:
#      x y z
#    x 3.900250 -0.200800 -0.109700 
#    y -0.200800 3.805410 0.277410 
#    z -0.109700 0.277410 4.194930 
# 
# 
# High freq. dielectric constant tensor:
#      x y z
#    x 1.835160 -0.019480 -0.005420 
#    y -0.019480 1.815050 0.000480 
#    z -0.005420 0.000480 1.837130 
# 
# From -- ./inp_files/69388.got.cif
#   From: 2010.06.25/outbox.cif.g09.slc.cpg/sg2_35_cif.got.tgz:69388.got - 2010.06.27 13:26:56.
