data_PCOD8012543
_publ_section_title
;
Structure prediction by ZEFSAII (Michael W. Deem and Ramdas Pophale) SiO2 
 PCOD8012543
Probable space group: P -1
;
_chemical_formula_sum "Si O2"
_cell_formula_units_Z 16
_cell_length_a 23.342517
_cell_length_b 8.735602
_cell_length_c 5.002625
_cell_angle_alpha 101.397126
_cell_angle_beta 65.150196
_cell_angle_gamma 130.310116
_cell_volume 701.776267
_symmetry_space_group_name_H-M "P -1"
_symmetry_group_IT_number 2
_symmetry_cell_setting 'triclinic'
loop_
_space_group_symop_operation_xyz
x,y,z
-x,-y,-z
loop_
_atom_site_type_symbol
_atom_site_label
_atom_site_fract_x
_atom_site_fract_y
_atom_site_fract_z
Si Si1 0.919936 0.742975 0.293378
Si Si2 0.102090 0.087332 0.095003
Si Si3 0.691877 0.237958 0.127222
Si Si4 0.751284 0.904819 0.301308
Si Si5 0.605624 0.813900 0.275211
Si Si6 0.211498 0.700593 0.535244
Si Si7 0.526140 0.399876 0.137125
Si Si8 0.375350 0.534720 0.509867
O O1 0.899893 0.842284 0.585024
O O2 0.879887 0.513391 0.368570
O O3 0.881926 0.749978 0.094659
O O4 0.016668 0.867419 0.118916
O O5 0.171795 0.066575 0.956206
O O6 0.757238 0.275245 0.219401
O O7 0.663246 0.361197 0.314103
O O8 0.614413 0.998151 0.189092
O O9 0.732231 0.309208 0.781391
O O10 0.694886 0.876806 0.156796
O O11 0.696222 0.699608 0.517378
O O12 0.784545 0.107434 0.473919
O O13 0.546463 0.619348 0.120094
O O14 0.566315 0.772091 0.638364
O O15 0.581040 0.461198 0.313567
O O16 0.558883 0.341288 0.816166
#
# Coordination Sequence:
#
# PCOD8012543 Si02
#       8
#     2   2   2   2   2   2   2   2
#     4  10  21  40  61  87 119 151 186 231 284 333
#     4  10  22  39  63  88 116 151 189 232 279 338
#     4  11  23  38  59  86 116 151 192 239 284 334
#     4  10  22  38  60  86 115 151 193 234 281 342
#     4   9  22  40  58  83 117 151 190 237 291 338
#     4  11  22  37  59  85 119 153 186 234 285 335
#     4  10  22  39  59  81 113 153 191 238 289 340
#     4  11  22  37  59  84 111 150 197 238 283 338
#
# _framework density 22.799291
#
# number of rings (size 3 to 8) (size 9 to 14) (size 15 to 20)
#    0.000    1.750    0.000    3.750    0.000   13.000 
#    0.000    0.000    0.000    8.250    0.000    0.000 
#    0.000    0.000    0.000    0.000    0.000    0.000 
#
# Total GULP energy -198373.857901 kJ/mol
# GULP energy per Si atom -12398.366119 kJ/mol
# Density = 2.274740 g / cm^3
# Si number density = 22.799291 Si / 1000 Ang^3
#
#
#
# Elastic Constant Matrix: (Units=GPa)
#
#
# Indices 1 2 3 4 5 6 
#
# 1 29.8454 32.3458 34.2983 -0.3134 -36.2406 4.8113
# 2 32.3458 142.3352 28.5604 -14.7565 -14.5505 -14.0784
# 3 34.2983 28.5604 112.2990 -6.0616 -13.5680 -2.2485
# 4 -0.3134 -14.7565 -6.0616 30.2413 0.7568 -1.4848
# 5 -36.2406 -14.5505 -13.5680 0.7568 36.7051 3.8780
# 6 4.8113 -14.0784 -2.2485 -1.4848 3.8780 23.9501
#
#
#
# Elastic Compliance Matrix: (Units=1/GPa)
#
#
# Indices 1 2 3 4 5 6 
#
# 1 -0.060469 0.009754 0.010373 0.008985 -0.055183 0.028348
# 2 0.009754 0.006870 -0.003247 0.002532 0.011087 0.000136
# 3 0.010373 -0.003247 0.007937 -0.000458 0.012457 -0.005293
# 4 0.008985 0.002532 -0.000458 0.034094 0.008971 0.000301
# 5 -0.055183 0.011087 0.012457 0.008971 -0.020824 0.022701
# 6 0.028348 0.000136 -0.005293 0.000301 0.022701 0.031985
#
#
# Mechanical properties :
#
#
# Convention : Reuss Voigt Hill
#
# Bulk Modulus (GPa) = -84.01715 52.76539 -15.62588
# Shear Modulus (GPa) = -131.11359 30.79763 -50.15798
#
# Velocity S-wave (km/s) = -7.59161 3.67933 -4.69548
# Velocity P-wave (km/s) = 10.66650 6.42212 6.02207
#
# Compressibility (1/GPa) = -0.01190233
#
# Stress axis : x y z
#
# Youngs Moduli (GPa) = -16.53733 145.56298 125.99302
#
# Poissons Ratio (x) = -1.41989 -1.30693
# Poissons Ratio (y) = 0.16131 0.40915
# Poissons Ratio (z) = 0.17154 0.47271
#
# Static dielectric constant tensor:
#      x y z
#    x 4.047740 -0.072950 0.006180 
#    y -0.072950 4.600650 -0.175250 
#    z 0.006180 -0.175250 4.119180 
# 
# 
# High freq. dielectric constant tensor:
#      x y z
#    x 1.886170 0.003880 0.004420 
#    y 0.003880 1.909080 -0.006320 
#    z 0.004420 -0.006320 1.903610 
# 
# From -- ./inp_files/51263.got.cif
#   From: 2010.06.25/outbox.cif.g09.slc.cpg/sg2_26_cif.got.tgz:51263.got - 2010.06.27 13:26:56.
