data_PCOD8012385
_publ_section_title
;
Structure prediction by ZEFSAII (Michael W. Deem and Ramdas Pophale) SiO2 
 PCOD8012385
Probable space group: P -1
;
_chemical_formula_sum "Si O2"
_cell_formula_units_Z 16
_cell_length_a 8.253500
_cell_length_b 18.239465
_cell_length_c 5.734677
_cell_angle_alpha 106.375364
_cell_angle_beta 119.720881
_cell_angle_gamma 57.528901
_cell_volume 632.372037
_symmetry_space_group_name_H-M "P -1"
_symmetry_group_IT_number 2
_symmetry_cell_setting 'triclinic'
loop_
_space_group_symop_operation_xyz
x,y,z
-x,-y,-z
loop_
_atom_site_type_symbol
_atom_site_label
_atom_site_fract_x
_atom_site_fract_y
_atom_site_fract_z
Si Si1 0.288425 0.088893 0.435380
Si Si2 0.747035 0.433851 0.593629
Si Si3 0.774802 0.273186 0.655700
Si Si4 0.093339 0.911734 0.629803
Si Si5 0.847272 0.752361 0.815647
Si Si6 0.369634 0.323148 0.679760
Si Si7 0.270093 0.507759 0.865787
Si Si8 0.543348 0.819225 0.049804
O O1 0.263269 0.146045 0.242571
O O2 0.083934 0.073966 0.292092
O O3 0.500000 0.000000 0.500000
O O4 0.309485 0.141073 0.717102
O O5 0.500000 0.500000 0.500000
O O6 0.791401 0.333381 0.514789
O O7 0.839638 0.453822 0.436139
O O8 0.845724 0.440848 0.928314
O O9 0.864297 0.173258 0.562887
O O10 0.527846 0.317946 0.583360
O O11 0.908940 0.280039 0.976342
O O12 0.314896 0.897066 0.881774
O O13 0.000000 0.000000 0.500000
O O14 0.834405 0.687211 0.557367
O O15 0.690955 0.751487 0.902109
O O16 0.281362 0.414511 0.828423
O O17 0.509766 0.239849 0.866956
O O18 0.500000 0.500000 0.000000
#
# Coordination Sequence:
#
# PCOD8012385 Si02
#       8
#     2   2   2   2   2   2   2   2
#     4  11  26  46  69  99 145 185 237 310 361 433
#     4  10  22  41  70 108 140 197 243 298 380 438
#     4  12  24  45  74  99 146 187 239 309 360 443
#     4  12  27  43  74 108 137 192 243 293 371 441
#     4  11  25  45  66 105 134 192 241 291 371 428
#     4  11  24  43  73 101 136 191 239 297 360 443
#     4  10  21  39  71 105 144 184 248 302 367 439
#     4  11  25  44  71  98 143 185 238 296 362 437
#
# _framework density 25.301559999999998
#
# number of rings (size 3 to 8) (size 9 to 14) (size 15 to 20)
#    0.000    1.000    5.000    1.500    8.750    2.500 
#    0.000    1.250    0.000    0.000    0.000    0.000 
#    0.000    0.000    0.000    0.000    0.000    0.000 
#
# Total GULP energy -198245.219750 kJ/mol
# GULP energy per Si atom -12390.326234 kJ/mol
# Density = 2.524397 g / cm^3
# Si number density = 25.301560 Si / 1000 Ang^3
#
#
#
# Elastic Constant Matrix: (Units=GPa)
#
#
# Indices 1 2 3 4 5 6 
#
# 1 73.1116 4.2419 16.5057 2.5014 6.1324 0.6665
# 2 4.2419 144.4253 21.9301 -1.2386 -6.7446 20.5033
# 3 16.5057 21.9301 97.2772 -14.6654 -10.9309 10.3477
# 4 2.5014 -1.2386 -14.6654 21.4455 -1.5904 -3.1042
# 5 6.1324 -6.7446 -10.9309 -1.5904 42.9024 -4.1084
# 6 0.6665 20.5033 10.3477 -3.1042 -4.1084 32.8190
#
#
#
# Elastic Compliance Matrix: (Units=1/GPa)
#
#
# Indices 1 2 3 4 5 6 
#
# 1 0.014899 -0.000096 -0.003534 -0.004390 -0.003203 0.000056
# 2 -0.000096 0.007782 -0.001381 -0.001101 0.000416 -0.004476
# 3 -0.003534 -0.001381 0.013237 0.009398 0.003830 -0.001871
# 4 -0.004390 -0.001101 0.009398 0.054415 0.005212 0.003613
# 5 -0.003203 0.000416 0.003830 0.005212 0.025216 0.002247
# 6 0.000056 -0.004476 -0.001871 0.003613 0.002247 0.034478
#
#
# Mechanical properties :
#
#
# Convention : Reuss Voigt Hill
#
# Bulk Modulus (GPa) = 38.61597 44.46328 41.53962
# Shear Modulus (GPa) = 29.64157 37.57580 33.60868
#
# Velocity S-wave (km/s) = 3.42648 3.85790 3.64857
# Velocity P-wave (km/s) = 5.56325 6.12013 5.84832
#
# Compressibility (1/GPa) = 0.02589602
#
# Stress axis : x y z
#
# Youngs Moduli (GPa) = 67.11663 128.50168 75.54561
#
# Poissons Ratio (x) = 0.01235 0.26698
# Poissons Ratio (y) = 0.00645 0.10434
# Poissons Ratio (z) = 0.23719 0.17748
#
# Static dielectric constant tensor:
#      x y z
#    x 5.109260 -0.279670 -0.937520 
#    y -0.279670 4.756710 0.443290 
#    z -0.937520 0.443290 6.041370 
# 
# 
# High freq. dielectric constant tensor:
#      x y z
#    x 2.000220 0.009610 0.004390 
#    y 0.009610 2.024540 -0.005760 
#    z 0.004390 -0.005760 2.005920 
# 
# From -- ./inp_files/48429.got.cif
#   From: 2010.06.25/outbox.cif.g09.slc.cpg/sg2_25_cif.got.tgz:48429.got - 2010.06.27 13:26:56.
