data_PCOD8012940
_publ_section_title
;
Structure prediction by ZEFSAII (Michael W. Deem and Ramdas Pophale) SiO2 
 PCOD8012940
Probable space group: P -1
;
_chemical_formula_sum "Si O2"
_cell_formula_units_Z 16
_cell_length_a 12.844861
_cell_length_b 22.282154
_cell_length_c 19.141674
_cell_angle_alpha 17.219455
_cell_angle_beta 152.741000
_cell_angle_gamma 150.985088
_cell_volume 729.677810
_symmetry_space_group_name_H-M "P -1"
_symmetry_group_IT_number 2
_symmetry_cell_setting 'triclinic'
loop_
_space_group_symop_operation_xyz
x,y,z
-x,-y,-z
loop_
_atom_site_type_symbol
_atom_site_label
_atom_site_fract_x
_atom_site_fract_y
_atom_site_fract_z
Si Si1 0.553632 0.143857 0.438968
Si Si2 0.135101 0.252383 0.155576
Si Si3 0.277031 0.921854 0.241930
Si Si4 0.980394 0.587733 0.611209
Si Si5 0.415299 0.324911 0.370519
Si Si6 0.599290 0.742300 0.285026
Si Si7 0.827666 0.652958 0.302277
Si Si8 0.708220 0.940867 0.276826
O O1 0.328129 0.219066 0.251130
O O2 0.676009 0.036339 0.693651
O O3 0.743530 0.336422 0.312410
O O4 0.500000 0.000000 0.500000
O O5 0.235385 0.377455 0.146731
O O6 0.980412 0.035750 0.327446
O O7 0.952105 0.377145 0.872706
O O8 0.500397 0.870196 0.396300
O O9 0.066067 0.725102 0.320506
O O10 0.230888 0.129565 0.948460
O O11 0.850192 0.757603 0.380487
O O12 0.871955 0.526269 0.538448
O O13 0.618505 0.524092 0.276950
O O14 0.305944 0.240008 0.472771
O O15 0.500000 0.500000 0.500000
O O16 0.619004 0.824811 0.282785
O O17 0.443843 0.881109 0.995048
#
# Coordination Sequence:
#
# PCOD8012940 Si02
#       8
#     2   2   2   2   2   2   2   2
#     4  10  22  40  65  93 128 167 209 261 324 382
#     4  11  24  43  62  94 133 166 213 261 318 384
#     4   9  21  41  62  93 126 163 214 264 309 379
#     4  11  22  41  65  96 124 166 214 265 317 378
#     4  11  23  40  64  89 128 170 211 258 316 377
#     4  11  22  41  67  93 128 163 217 267 309 375
#     4  10  21  40  64  93 124 165 214 260 319 371
#     4  11  24  41  65  95 127 174 213 262 316 369
#
# _framework density 21.927486999999999
#
# number of rings (size 3 to 8) (size 9 to 14) (size 15 to 20)
#    0.000    1.500    1.250    3.375    3.500    0.000 
#    6.750    0.625    0.000    0.000    0.000    0.000 
#    0.000    0.000    0.000    0.000    0.000    0.000 
#
# Total GULP energy -198326.761139 kJ/mol
# GULP energy per Si atom -12395.422571 kJ/mol
# Density = 2.187758 g / cm^3
# Si number density = 21.927487 Si / 1000 Ang^3
#
#
#
# Elastic Constant Matrix: (Units=GPa)
#
#
# Indices 1 2 3 4 5 6 
#
# 1 88.1556 33.0348 20.1412 1.1072 2.1417 5.5000
# 2 33.0348 133.4324 26.9396 -3.6006 -11.9843 -6.8850
# 3 20.1412 26.9396 74.8898 6.5638 -7.0923 3.2367
# 4 1.1072 -3.6006 6.5638 25.2209 1.8322 -1.2582
# 5 2.1417 -11.9843 -7.0923 1.8322 34.5152 11.1272
# 6 5.5000 -6.8850 3.2367 -1.2582 11.1272 32.9196
#
#
#
# Elastic Compliance Matrix: (Units=1/GPa)
#
#
# Indices 1 2 3 4 5 6 
#
# 1 0.013228 -0.003036 -0.002511 -0.000337 -0.001719 -0.002030
# 2 -0.003036 0.009103 -0.002530 0.002043 0.002063 0.002041
# 3 -0.002511 -0.002530 0.015856 -0.004810 0.003802 -0.003138
# 4 -0.000337 0.002043 -0.004810 0.041666 -0.003694 0.003798
# 5 -0.001719 0.002063 0.003802 -0.003694 0.034463 -0.011445
# 6 -0.002030 0.002041 -0.003138 0.003798 -0.011445 0.035465
#
#
# Mechanical properties :
#
#
# Convention : Reuss Voigt Hill
#
# Bulk Modulus (GPa) = 45.38784 50.74543 48.06663
# Shear Modulus (GPa) = 28.85555 32.95530 30.90543
#
# Velocity S-wave (km/s) = 3.63154 3.88096 3.75832
# Velocity P-wave (km/s) = 6.19097 6.57838 6.38761
#
# Compressibility (1/GPa) = 0.02203233
#
# Stress axis : x y z
#
# Youngs Moduli (GPa) = 75.59951 109.85933 63.06949
#
# Poissons Ratio (x) = 0.33355 0.15835
# Poissons Ratio (y) = 0.22953 0.15955
# Poissons Ratio (z) = 0.18981 0.27792
#
# Static dielectric constant tensor:
#      x y z
#    x 4.045090 0.100900 -0.025780 
#    y 0.100900 3.951900 0.206500 
#    z -0.025780 0.206500 3.976730 
# 
# 
# High freq. dielectric constant tensor:
#      x y z
#    x 1.864250 0.009150 -0.007790 
#    y 0.009150 1.864770 0.009250 
#    z -0.007790 0.009250 1.854330 
# 
# From -- ./inp_files/346449.got.cif
#   From: 2010.06.25/outbox.cif.g09.slc.cpg/sg2_174_cif.got.tgz:346449.got - 2010.06.27 13:26:56.
