data_PCOD8012519
_publ_section_title
;
Structure prediction by ZEFSAII (Michael W. Deem and Ramdas Pophale) SiO2 
 PCOD8012519
Probable space group: P -1
;
_chemical_formula_sum "Si O2"
_cell_formula_units_Z 16
_cell_length_a 9.384573
_cell_length_b 17.072457
_cell_length_c 15.281660
_cell_angle_alpha 143.243684
_cell_angle_beta 36.023964
_cell_angle_gamma 141.653814
_cell_volume 794.445469
_symmetry_space_group_name_H-M "P -1"
_symmetry_group_IT_number 2
_symmetry_cell_setting 'triclinic'
loop_
_space_group_symop_operation_xyz
x,y,z
-x,-y,-z
loop_
_atom_site_type_symbol
_atom_site_label
_atom_site_fract_x
_atom_site_fract_y
_atom_site_fract_z
Si Si1 0.955013 0.877397 0.842778
Si Si2 0.112809 0.466819 0.036999
Si Si3 0.895192 0.320830 0.632855
Si Si4 0.607575 0.731897 0.265181
Si Si5 0.401769 0.644853 0.901668
Si Si6 0.802689 0.029597 0.383334
Si Si7 0.217430 0.655728 0.550845
Si Si8 0.630032 0.496072 0.526142
O O1 0.639330 0.797099 0.917818
O O2 0.070662 0.946323 0.754259
O O3 0.090135 0.773000 0.718296
O O4 0.000000 0.000000 0.000000
O O5 0.999604 0.552271 0.235900
O O6 0.871401 0.355827 0.001951
O O7 0.247050 0.369814 0.927014
O O8 0.341055 0.588504 0.979601
O O9 0.595479 0.287785 0.730097
O O10 0.929990 0.173739 0.508596
O O11 0.077426 0.379153 0.508757
O O12 0.461757 0.697782 0.399981
O O13 0.825264 0.894718 0.300190
O O14 0.465584 0.528603 0.712461
O O15 0.500000 0.000000 0.500000
O O16 0.334671 0.646623 0.583068
O O17 0.000000 0.500000 0.500000
O O18 0.500000 0.500000 0.500000
#
# Coordination Sequence:
#
# PCOD8012519 Si02
#       8
#     2   2   2   2   2   2   2   2
#     4  12  25  42  68  97 131 168 220 272 323 386
#     4  11  24  38  64  95 132 170 214 269 325 381
#     4  11  21  37  66  94 124 169 215 265 320 380
#     4  11  21  38  63  95 131 167 219 264 317 382
#     4  11  23  42  62  92 135 170 209 273 332 375
#     4  10  21  40  60  93 129 168 207 268 322 377
#     4  12  20  41  69  94 124 169 217 272 322 375
#     4  12  22  40  67  95 126 168 214 272 330 381
#
# _framework density 20.139834
#
# number of rings (size 3 to 8) (size 9 to 14) (size 15 to 20)
#    0.000    0.750    8.750    0.375    3.500    1.000 
#    0.000    1.875    0.000    3.000    0.000    0.000 
#    0.000    0.000    0.000    0.000    0.000    0.000 
#
# Total GULP energy -198210.731552 kJ/mol
# GULP energy per Si atom -12388.170722 kJ/mol
# Density = 2.009399 g / cm^3
# Si number density = 20.139834 Si / 1000 Ang^3
#
#
#
# Elastic Constant Matrix: (Units=GPa)
#
#
# Indices 1 2 3 4 5 6 
#
# 1 78.2819 44.7498 27.1821 11.6520 0.9293 -10.4425
# 2 44.7498 147.3217 53.6470 2.8004 -2.2002 -9.6492
# 3 27.1821 53.6470 101.8704 13.5002 3.7090 -2.0059
# 4 11.6520 2.8004 13.5002 39.4912 1.9892 -2.4828
# 5 0.9293 -2.2002 3.7090 1.9892 16.8395 0.1594
# 6 -10.4425 -9.6492 -2.0059 -2.4828 0.1594 29.5340
#
#
#
# Elastic Compliance Matrix: (Units=1/GPa)
#
#
# Indices 1 2 3 4 5 6 
#
# 1 0.016881 -0.004176 -0.001693 -0.003809 -0.000694 0.004173
# 2 -0.004176 0.009728 -0.004324 0.002008 0.002202 0.001565
# 3 -0.001693 -0.004324 0.013103 -0.003615 -0.002917 -0.001410
# 4 -0.003809 0.002008 -0.003615 0.027729 -0.002020 0.001406
# 5 -0.000694 0.002202 -0.002917 -0.002020 0.060593 -0.000221
# 6 0.004173 0.001565 -0.001410 0.001406 -0.000221 0.035870
#
#
# Mechanical properties :
#
#
# Convention : Reuss Voigt Hill
#
# Bulk Modulus (GPa) = 51.74446 64.29243 58.01845
# Shear Modulus (GPa) = 26.21462 30.63261 28.42362
#
# Velocity S-wave (km/s) = 3.61173 3.90423 3.76082
# Velocity P-wave (km/s) = 6.56819 7.23300 6.90860
#
# Compressibility (1/GPa) = 0.01932574
#
# Stress axis : x y z
#
# Youngs Moduli (GPa) = 59.23752 102.79375 76.31881
#
# Poissons Ratio (x) = 0.42925 0.12922
# Poissons Ratio (y) = 0.24737 0.33003
# Poissons Ratio (z) = 0.10030 0.44451
#
# Static dielectric constant tensor:
#      x y z
#    x 3.698330 0.076310 -0.094990 
#    y 0.076310 3.780000 0.025270 
#    z -0.094990 0.025270 3.745320 
# 
# 
# High freq. dielectric constant tensor:
#      x y z
#    x 1.763360 -0.004890 -0.007330 
#    y -0.004890 1.799260 -0.014710 
#    z -0.007330 -0.014710 1.786870 
# 
# From -- ./inp_files/570365.got.cif
#   From: 2010.06.25/outbox.cif.g09.slc.cpg/sg2_286_cif.got.tgz:570365.got - 2010.06.27 13:26:56.
