data_PCOD8012251
_publ_section_title
;
Structure prediction by ZEFSAII (Michael W. Deem and Ramdas Pophale) SiO2 
 PCOD8012251
Probable space group: P -1
;
_chemical_formula_sum "Si O2"
_cell_formula_units_Z 14
_cell_length_a 8.840307
_cell_length_b 11.853667
_cell_length_c 12.352174
_cell_angle_alpha 142.478854
_cell_angle_beta 111.891920
_cell_angle_gamma 86.129112
_cell_volume 669.204491
_symmetry_space_group_name_H-M "P -1"
_symmetry_group_IT_number 2
_symmetry_cell_setting 'triclinic'
loop_
_space_group_symop_operation_xyz
x,y,z
-x,-y,-z
loop_
_atom_site_type_symbol
_atom_site_label
_atom_site_fract_x
_atom_site_fract_y
_atom_site_fract_z
Si Si1 0.856695 0.318872 0.888578
Si Si2 0.798561 0.967029 0.444025
Si Si3 0.318880 0.481090 0.859880
Si Si4 0.064194 0.150338 0.964976
Si Si5 0.385479 0.203151 0.936557
Si Si6 0.920476 0.736206 0.709068
Si Si7 0.247460 0.637906 0.756698
O O1 0.774329 0.128564 0.640647
O O2 0.710586 0.398534 0.952276
O O3 0.000000 0.500000 0.000000
O O4 0.941296 0.257216 0.968475
O O5 0.711038 0.747785 0.306943
O O6 0.702126 0.977987 0.312523
O O7 0.000000 0.000000 0.500000
O O8 0.189178 0.500757 0.745500
O O9 0.525413 0.593144 0.959526
O O10 0.145665 0.229359 0.164956
O O11 0.229906 0.207561 0.972754
O O12 0.939006 0.910840 0.760022
O O13 0.546939 0.193813 0.046620
O O14 0.121816 0.752777 0.787869
O O15 0.776461 0.519196 0.467250
#
# Coordination Sequence:
#
# PCOD8012251 Si02
#       7
#     2   2   2   2   2   2   2
#     4  12  23  39  68  96 123 165 215 254 307 385
#     4  12  22  38  69  92 124 173 204 255 317 370
#     4  10  22  43  59  92 134 157 208 261 310 370
#     4  11  21  39  64  94 120 165 213 255 308 376
#     4  10  23  38  61  92 132 160 203 264 315 367
#     4  10  21  39  68  85 120 167 214 255 306 375
#     4   9  21  40  61  89 119 167 202 265 312 357
#
# _framework density 20.920361
#
# number of rings (size 3 to 8) (size 9 to 14) (size 15 to 20)
#    0.857    0.571    4.286    1.286    0.000    1.714 
#    0.000    0.000    9.429    0.000    0.000    0.000 
#    0.000    0.000    0.000    0.000    0.000    0.000 
#
# Total GULP energy -173434.540730 kJ/mol
# GULP energy per Si atom -12388.181481 kJ/mol
# Density = 2.087274 g / cm^3
# Si number density = 20.920361 Si / 1000 Ang^3
#
#
#
# Elastic Constant Matrix: (Units=GPa)
#
#
# Indices 1 2 3 4 5 6 
#
# 1 64.3533 33.6548 39.8560 -4.6224 -12.7616 21.6695
# 2 33.6548 94.0215 41.1957 10.1416 -2.5630 2.4271
# 3 39.8560 41.1957 128.2447 -13.4845 -16.5725 3.8229
# 4 -4.6224 10.1416 -13.4845 27.0254 -9.3700 3.5632
# 5 -12.7616 -2.5630 -16.5725 -9.3700 38.5129 -6.8356
# 6 21.6695 2.4271 3.8229 3.5632 -6.8356 39.4337
#
#
#
# Elastic Compliance Matrix: (Units=1/GPa)
#
#
# Indices 1 2 3 4 5 6 
#
# 1 0.030816 -0.010205 -0.003474 0.012291 0.008250 -0.015650
# 2 -0.010205 0.017662 -0.005000 -0.013909 -0.006841 0.005077
# 3 -0.003474 -0.005000 0.012249 0.009412 0.006303 0.001271
# 4 0.012291 -0.013909 0.009412 0.056919 0.019524 -0.008569
# 5 0.008250 -0.006841 0.006303 0.019524 0.035651 -0.000308
# 6 -0.015650 0.005077 0.001271 -0.008569 -0.000308 0.034244
#
#
# Mechanical properties :
#
#
# Convention : Reuss Voigt Hill
#
# Bulk Modulus (GPa) = 42.79019 57.33694 50.06356
# Shear Modulus (GPa) = 21.48774 32.45527 26.97150
#
# Velocity S-wave (km/s) = 3.20835 3.94302 3.59450
# Velocity P-wave (km/s) = 5.85004 6.94238 6.41948
#
# Compressibility (1/GPa) = 0.02336984
#
# Stress axis : x y z
#
# Youngs Moduli (GPa) = 32.45033 56.61766 81.63629
#
# Poissons Ratio (x) = 0.57781 0.28360
# Poissons Ratio (y) = 0.33117 0.40817
# Poissons Ratio (z) = 0.11273 0.28308
#
# Static dielectric constant tensor:
#      x y z
#    x 3.617350 -0.015440 -0.006830 
#    y -0.015440 3.894280 -0.281380 
#    z -0.006830 -0.281380 4.108790 
# 
# 
# High freq. dielectric constant tensor:
#      x y z
#    x 1.805350 0.002580 -0.005450 
#    y 0.002580 1.822400 -0.016630 
#    z -0.005450 -0.016630 1.823840 
# 
# From -- ./inp_files/391708.got.cif
#   From: 2010.06.25/outbox.cif.g09.slc.cpg/sg2_196_cif.got.tgz:391708.got - 2010.06.27 13:26:56.
