data_PCOD8012378
_publ_section_title
;
Structure prediction by ZEFSAII (Michael W. Deem and Ramdas Pophale) SiO2 
 PCOD8012378
Probable space group: P -1
;
_chemical_formula_sum "Si O2"
_cell_formula_units_Z 16
_cell_length_a 19.496068
_cell_length_b 9.578712
_cell_length_c 9.081464
_cell_angle_alpha 77.636595
_cell_angle_beta 142.417199
_cell_angle_gamma 125.813578
_cell_volume 724.140540
_symmetry_space_group_name_H-M "P -1"
_symmetry_group_IT_number 2
_symmetry_cell_setting 'triclinic'
loop_
_space_group_symop_operation_xyz
x,y,z
-x,-y,-z
loop_
_atom_site_type_symbol
_atom_site_label
_atom_site_fract_x
_atom_site_fract_y
_atom_site_fract_z
Si Si1 0.527686 0.061463 0.202502
Si Si2 0.751012 0.104004 0.777953
Si Si3 0.681831 0.774105 0.301749
Si Si4 0.062980 0.894998 0.135512
Si Si5 0.335409 0.537605 0.747511
Si Si6 0.898849 0.552556 0.406193
Si Si7 0.254106 0.974809 0.900020
Si Si8 0.087603 0.494648 0.878393
O O1 0.610613 0.007308 0.445722
O O2 0.642155 0.301541 0.349677
O O3 0.500000 0.000000 0.000000
O O4 0.357651 0.940816 0.009932
O O5 0.888834 0.130105 0.933759
O O6 0.691007 0.962572 0.850022
O O7 0.814285 0.313718 0.893181
O O8 0.730989 0.650246 0.425539
O O9 0.782286 0.965218 0.532916
O O10 0.710058 0.846051 0.163502
O O11 0.502039 0.634852 0.075529
O O12 0.937591 0.677396 0.043830
O O13 0.000000 0.000000 0.000000
O O14 0.219796 0.452833 0.707248
O O15 0.825630 0.457820 0.141309
O O16 0.069459 0.776685 0.626076
O O17 0.922895 0.427151 0.569329
#
# Coordination Sequence:
#
# PCOD8012378 Si02
#       8
#     2   2   2   2   2   2   2   2
#     4  11  24  42  72  94 135 170 221 269 334 393
#     4  11  24  41  67  99 134 170 222 278 327 386
#     4  10  23  45  64  92 141 174 227 255 340 403
#     4  12  26  42  64  96 137 178 221 272 330 393
#     4  10  23  39  70  96 126 182 215 270 325 403
#     4  10  21  39  70  98 130 165 228 273 329 384
#     4  10  22  42  65 101 127 174 217 277 321 394
#     4  10  23  40  64 100 134 165 223 275 330 387
#
# _framework density 22.09516
#
# number of rings (size 3 to 8) (size 9 to 14) (size 15 to 20)
#    0.000    1.500    1.250    3.000   10.500    1.500 
#    2.250    0.000    0.000    3.750    0.000    0.000 
#    0.000    0.000    0.000    0.000    0.000    0.000 
#
# Total GULP energy -198316.486610 kJ/mol
# GULP energy per Si atom -12394.780413 kJ/mol
# Density = 2.204487 g / cm^3
# Si number density = 22.095160 Si / 1000 Ang^3
#
#
#
# Elastic Constant Matrix: (Units=GPa)
#
#
# Indices 1 2 3 4 5 6 
#
# 1 149.8717 33.3487 48.6425 -1.5998 10.1465 11.8011
# 2 33.3487 104.7660 24.4357 -5.5371 3.2292 6.8730
# 3 48.6425 24.4357 68.4375 -4.5645 -7.0500 7.8824
# 4 -1.5998 -5.5371 -4.5645 32.8157 2.3165 -1.7579
# 5 10.1465 3.2292 -7.0500 2.3165 44.0074 0.3926
# 6 11.8011 6.8730 7.8824 -1.7579 0.3926 29.4708
#
#
#
# Elastic Compliance Matrix: (Units=1/GPa)
#
#
# Indices 1 2 3 4 5 6 
#
# 1 0.009356 -0.001323 -0.006324 -0.000526 -0.003030 -0.001737
# 2 -0.001323 0.010797 -0.002793 0.001378 -0.000997 -0.001145
# 3 -0.006324 -0.002793 0.021003 0.001663 0.004962 -0.002401
# 4 -0.000526 0.001378 0.001663 0.031078 -0.001361 0.001316
# 5 -0.003030 -0.000997 0.004962 -0.001361 0.024364 -0.000287
# 6 -0.001737 -0.001145 -0.002401 0.001316 -0.000287 0.035619
#
#
# Mechanical properties :
#
#
# Convention : Reuss Voigt Hill
#
# Bulk Modulus (GPa) = 49.32603 59.54766 54.43684
# Shear Modulus (GPa) = 31.27819 35.70200 33.49010
#
# Velocity S-wave (km/s) = 3.76654 4.02410 3.89745
# Velocity P-wave (km/s) = 6.42562 6.97138 6.70406
#
# Compressibility (1/GPa) = 0.02027327
#
# Stress axis : x y z
#
# Youngs Moduli (GPa) = 106.88572 92.62245 47.61292
#
# Poissons Ratio (x) = 0.12258 0.30112
# Poissons Ratio (y) = 0.14146 0.13299
# Poissons Ratio (z) = 0.67597 0.25871
#
# Static dielectric constant tensor:
#      x y z
#    x 4.106760 -0.016400 -0.116330 
#    y -0.016400 4.089160 0.000340 
#    z -0.116330 0.000340 3.866250 
# 
# 
# High freq. dielectric constant tensor:
#      x y z
#    x 1.876560 -0.000160 -0.001870 
#    y -0.000160 1.864240 0.002020 
#    z -0.001870 0.002020 1.858730 
# 
# From -- ./inp_files/328966.got.cif
#   From: 2010.06.25/outbox.cif.g09.slc.cpg/sg2_165_cif.got.tgz:328966.got - 2010.06.27 13:26:56.
