data_PCOD8012851
_publ_section_title
;
Structure prediction by ZEFSAII (Michael W. Deem and Ramdas Pophale) SiO2 
 PCOD8012851
Probable space group: P -1
;
_chemical_formula_sum "Si O2"
_cell_formula_units_Z 12
_cell_length_a 5.282779
_cell_length_b 19.358502
_cell_length_c 9.998922
_cell_angle_alpha 143.161068
_cell_angle_beta 107.350317
_cell_angle_gamma 55.901896
_cell_volume 483.815207
_symmetry_space_group_name_H-M "P -1"
_symmetry_group_IT_number 2
_symmetry_cell_setting 'triclinic'
loop_
_space_group_symop_operation_xyz
x,y,z
-x,-y,-z
loop_
_atom_site_type_symbol
_atom_site_label
_atom_site_fract_x
_atom_site_fract_y
_atom_site_fract_z
Si Si1 0.230709 0.276549 0.696662
Si Si2 0.655091 0.149002 0.045088
Si Si3 0.725388 0.853483 0.240495
Si Si4 0.645187 0.545873 0.481275
Si Si5 0.704526 0.980468 0.184166
Si Si6 0.585383 0.524320 0.908302
O O1 0.076250 0.249951 0.764014
O O2 0.472298 0.141363 0.437936
O O3 0.950327 0.389978 0.730119
O O4 0.432154 0.333620 0.877318
O O5 0.577286 0.287989 0.321661
O O6 0.519711 0.070919 0.985706
O O7 0.486709 0.192636 0.939599
O O8 0.040049 0.041302 0.920217
O O9 0.500000 0.000000 0.500000
O O10 0.904319 0.881690 0.193305
O O11 0.500000 0.500000 0.500000
O O12 0.658248 0.467469 0.226776
O O13 0.000000 0.500000 0.500000
O O14 0.500000 0.500000 0.000000
#
# Coordination Sequence:
#
# PCOD8012851 Si02
#       6
#     2   2   2   2   2   2
#     4  10  22  43  64 104 144 187 239 299 358 422
#     4  10  21  40  64 104 132 179 242 285 358 412
#     4   8  18  34  64  97 138 175 234 282 351 410
#     4  12  28  49  76 102 147 194 245 298 354 440
#     4   9  21  39  68 103 139 180 236 299 349 424
#     4  11  28  44  74 103 149 195 245 294 369 431
#
# _framework density 24.802859999999999
#
# number of rings (size 3 to 8) (size 9 to 14) (size 15 to 20)
#    1.000    1.000    0.000    2.000    9.333    4.000 
#    0.000    1.667    0.000    0.000    0.000    0.000 
#    0.000    0.000    0.000    0.000    0.000    0.000 
#
# Total GULP energy -148656.919848 kJ/mol
# GULP energy per Si atom -12388.076654 kJ/mol
# Density = 2.474641 g / cm^3
# Si number density = 24.802860 Si / 1000 Ang^3
#
#
#
# Elastic Constant Matrix: (Units=GPa)
#
#
# Indices 1 2 3 4 5 6 
#
# 1 147.8440 13.4175 41.7153 4.6930 5.2365 0.8113
# 2 13.4175 36.3910 4.4458 5.7996 16.6960 -12.3503
# 3 41.7153 4.4458 125.1460 15.9410 26.3036 -4.9702
# 4 4.6930 5.7996 15.9410 45.9059 -0.2322 7.3010
# 5 5.2365 16.6960 26.3036 -0.2322 39.9931 -0.2953
# 6 0.8113 -12.3503 -4.9702 7.3010 -0.2953 31.0553
#
#
#
# Elastic Compliance Matrix: (Units=1/GPa)
#
#
# Indices 1 2 3 4 5 6 
#
# 1 0.008141 -0.005682 -0.003640 0.001713 0.003685 -0.003423
# 2 -0.005682 0.050540 0.008030 -0.012578 -0.025530 0.024247
# 3 -0.003640 0.008030 0.012235 -0.005988 -0.010909 0.006550
# 4 0.001713 -0.012578 -0.005988 0.027284 0.009032 -0.012334
# 5 0.003685 -0.025530 -0.010909 0.009032 0.042306 -0.013716
# 6 -0.003423 0.024247 0.006550 -0.012334 -0.013716 0.045750
#
#
# Mechanical properties :
#
#
# Convention : Reuss Voigt Hill
#
# Bulk Modulus (GPa) = 14.63487 47.61536 31.12512
# Shear Modulus (GPa) = 23.62761 40.04436 31.83598
#
# Velocity S-wave (km/s) = 3.08980 4.02245 3.58657
# Velocity P-wave (km/s) = 4.31769 6.38848 5.45230
#
# Compressibility (1/GPa) = 0.06832995
#
# Stress axis : x y z
#
# Youngs Moduli (GPa) = 122.84153 19.78636 81.73598
#
# Poissons Ratio (x) = 0.11242 0.29754
# Poissons Ratio (y) = 0.69797 -0.65631
# Poissons Ratio (z) = 0.44718 -0.15888
#
# Static dielectric constant tensor:
#      x y z
#    x 4.140990 0.033120 0.089060 
#    y 0.033120 5.351520 0.234310 
#    z 0.089060 0.234310 4.492870 
# 
# 
# High freq. dielectric constant tensor:
#      x y z
#    x 1.981230 0.007290 0.005730 
#    y 0.007290 1.975750 0.011280 
#    z 0.005730 0.011280 1.996440 
# 
# From -- ./inp_files/137030.got.cif
#   From: 2010.06.25/outbox.cif.g09.slc.cpg/sg2_69_cif.got.tgz:137030.got - 2010.06.27 13:26:56.
