data_PCOD8012222
_publ_section_title
;
Structure prediction by ZEFSAII (Michael W. Deem and Ramdas Pophale) SiO2 
 PCOD8012222
Probable space group: P -1
;
_chemical_formula_sum "Si O2"
_cell_formula_units_Z 16
_cell_length_a 23.897339
_cell_length_b 8.766242
_cell_length_c 9.354541
_cell_angle_alpha 48.367198
_cell_angle_beta 29.190976
_cell_angle_gamma 49.329466
_cell_volume 700.401439
_symmetry_space_group_name_H-M "P -1"
_symmetry_group_IT_number 2
_symmetry_cell_setting 'triclinic'
loop_
_space_group_symop_operation_xyz
x,y,z
-x,-y,-z
loop_
_atom_site_type_symbol
_atom_site_label
_atom_site_fract_x
_atom_site_fract_y
_atom_site_fract_z
Si Si1 0.222469 0.756715 0.069457
Si Si2 0.830992 0.048597 0.639126
Si Si3 0.994952 0.638565 0.564144
Si Si4 0.804369 0.458385 0.254649
Si Si5 0.428665 0.320145 0.230128
Si Si6 0.377588 0.036261 0.015279
Si Si7 0.572260 0.609425 0.132265
Si Si8 0.315945 0.752170 0.576679
O O1 0.190547 0.923023 0.161655
O O2 0.122484 0.618753 0.362073
O O3 0.346066 0.614282 0.920464
O O4 0.241941 0.864249 0.806880
O O5 0.838789 0.265294 0.408706
O O6 0.950549 0.879063 0.464720
O O7 0.729872 0.940502 0.868228
O O8 0.000000 0.500000 0.500000
O O9 0.914273 0.565866 0.912852
O O10 0.697706 0.632102 0.444329
O O11 0.765563 0.381754 0.237350
O O12 0.500000 0.500000 0.000000
O O13 0.411190 0.288735 0.120721
O O14 0.508168 0.097629 0.237309
O O15 0.349700 0.921909 0.292314
O O16 0.394119 0.260823 0.888805
O O17 0.434905 0.596543 0.463935
#
# Coordination Sequence:
#
# PCOD8012222 Si02
#       8
#     2   2   2   2   2   2   2   2
#     4  12  24  45  65  97 137 173 221 282 325 391
#     4  11  25  47  68  97 135 175 227 274 334 389
#     4  12  27  47  68  99 133 172 234 279 320 402
#     4  11  23  45  73  98 132 183 215 273 343 388
#     4  11  17  38  68  96 135 173 218 271 331 401
#     4  10  22  39  66 100 135 175 220 269 333 407
#     4  11  21  39  67 101 134 173 220 268 335 404
#     4  10  21  39  67  98 135 174 210 272 344 384
#
# _framework density 22.844042999999999
#
# number of rings (size 3 to 8) (size 9 to 14) (size 15 to 20)
#    0.000    1.000    6.250    3.000    0.000    3.000 
#    2.250    1.250    0.000    0.000    0.000    0.000 
#    0.000    0.000    0.000    0.000    0.000    0.000 
#
# Total GULP energy -198365.643710 kJ/mol
# GULP energy per Si atom -12397.852732 kJ/mol
# Density = 2.279205 g / cm^3
# Si number density = 22.844043 Si / 1000 Ang^3
#
#
#
# Elastic Constant Matrix: (Units=GPa)
#
#
# Indices 1 2 3 4 5 6 
#
# 1 111.8385 17.4064 30.8565 10.5570 7.6468 18.6758
# 2 17.4064 81.1182 8.9414 17.6989 12.5101 6.0442
# 3 30.8565 8.9414 115.0841 15.5743 12.2723 -1.5404
# 4 10.5570 17.6989 15.5743 29.8746 9.3326 1.9428
# 5 7.6468 12.5101 12.2723 9.3326 17.9326 11.6653
# 6 18.6758 6.0442 -1.5404 1.9428 11.6653 33.7574
#
#
#
# Elastic Compliance Matrix: (Units=1/GPa)
#
#
# Indices 1 2 3 4 5 6 
#
# 1 0.011238 -0.001726 -0.003171 -0.002261 0.004658 -0.007532
# 2 -0.001726 0.015137 0.001049 -0.006457 -0.008142 0.001478
# 3 -0.003171 0.001049 0.010837 -0.002748 -0.008783 0.005254
# 4 -0.002261 -0.006457 -0.002748 0.045595 -0.020842 0.006860
# 5 0.004658 -0.008142 -0.008783 -0.020842 0.098715 -0.034433
# 6 -0.007532 0.001478 0.005254 0.006860 -0.034433 0.045269
#
#
# Mechanical properties :
#
#
# Convention : Reuss Voigt Hill
#
# Bulk Modulus (GPa) = 33.88016 46.93883 40.40949
# Shear Modulus (GPa) = 20.46460 33.03535 26.74998
#
# Velocity S-wave (km/s) = 2.99631 3.80692 3.42567
# Velocity P-wave (km/s) = 5.18013 6.31788 5.77708
#
# Compressibility (1/GPa) = 0.02951580
#
# Stress axis : x y z
#
# Youngs Moduli (GPa) = 88.98730 66.06398 92.27827
#
# Poissons Ratio (x) = 0.11401 0.29257
# Poissons Ratio (y) = 0.15356 -0.09675
# Poissons Ratio (z) = 0.28214 -0.06927
#
# Static dielectric constant tensor:
#      x y z
#    x 4.386550 0.017440 0.015860 
#    y 0.017440 3.939920 0.308370 
#    z 0.015860 0.308370 4.164310 
# 
# 
# High freq. dielectric constant tensor:
#      x y z
#    x 1.913850 0.005510 0.003760 
#    y 0.005510 1.891850 0.017760 
#    z 0.003760 0.017760 1.898420 
# 
# From -- ./inp_files/352008.got.cif
#   From: 2010.06.25/outbox.cif.g09.slc.cpg/sg2_177_cif.got.tgz:352008.got - 2010.06.27 13:26:56.
