data_PCOD8012330
_publ_section_title
;
Structure prediction by ZEFSAII (Michael W. Deem and Ramdas Pophale) SiO2 
 PCOD8012330
Probable space group: P -1
;
_chemical_formula_sum "Si O2"
_cell_formula_units_Z 16
_cell_length_a 8.525193
_cell_length_b 13.350211
_cell_length_c 13.455028
_cell_angle_alpha 44.407237
_cell_angle_beta 105.593496
_cell_angle_gamma 73.277274
_cell_volume 724.916158
_symmetry_space_group_name_H-M "P -1"
_symmetry_group_IT_number 2
_symmetry_cell_setting 'triclinic'
loop_
_space_group_symop_operation_xyz
x,y,z
-x,-y,-z
loop_
_atom_site_type_symbol
_atom_site_label
_atom_site_fract_x
_atom_site_fract_y
_atom_site_fract_z
Si Si1 0.400719 0.871331 0.407190
Si Si2 0.025404 0.672707 0.528619
Si Si3 0.053033 0.974529 0.769441
Si Si4 0.467212 0.670076 0.754540
Si Si5 0.519682 0.780152 0.075094
Si Si6 0.305107 0.059529 0.533777
Si Si7 0.861254 0.272870 0.206201
Si Si8 0.599431 0.828498 0.269105
O O1 0.449009 0.708099 0.606352
O O2 0.488332 0.952734 0.429547
O O3 0.530028 0.780230 0.388670
O O4 0.124739 0.039960 0.214100
O O5 0.251755 0.446266 0.764466
O O6 0.826311 0.833442 0.461250
O O7 0.879773 0.669024 0.426655
O O8 0.085439 0.788866 0.408739
O O9 0.096050 0.910971 0.705120
O O10 0.295724 0.825859 0.975241
O O11 0.278929 0.665294 0.758148
O O12 0.427215 0.830588 0.705699
O O13 0.723317 0.453885 0.974803
O O14 0.519580 0.789328 0.187801
O O15 0.519436 0.938536 0.914449
O O16 0.105901 0.199105 0.316852
#
# Coordination Sequence:
#
# PCOD8012330 Si02
#       8
#     2   2   2   2   2   2   2   2
#     4  11  24  42  60  88 135 162 195 261 311 354
#     4  10  21  39  69  91 119 161 209 250 306 365
#     4  11  23  39  60  94 126 161 207 254 300 363
#     4  11  23  40  62  89 127 165 209 248 300 362
#     4  10  22  42  71  91 116 161 210 255 304 368
#     4  11  22  40  59  90 128 166 201 253 303 361
#     4  11  24  38  64  89 123 171 213 242 294 368
#     4   9  22  45  65  94 123 153 205 260 311 364
#
# _framework density 22.071518000000001
#
# number of rings (size 3 to 8) (size 9 to 14) (size 15 to 20)
#    0.000    1.500    2.500    1.875    5.250    1.000 
#    4.500    0.625    0.000    0.000    0.000    0.000 
#    0.000    0.000    0.000    0.000    0.000    0.000 
#
# Total GULP energy -198258.549634 kJ/mol
# GULP energy per Si atom -12391.159352 kJ/mol
# Density = 2.202128 g / cm^3
# Si number density = 22.071518 Si / 1000 Ang^3
#
#
#
# Elastic Constant Matrix: (Units=GPa)
#
#
# Indices 1 2 3 4 5 6 
#
# 1 130.6622 40.4829 52.9023 17.3394 23.8911 8.6541
# 2 40.4829 78.7134 28.8756 17.9576 4.0201 2.6530
# 3 52.9023 28.8756 110.3040 4.2299 13.4813 0.3845
# 4 17.3394 17.9576 4.2299 41.6446 0.5738 6.9595
# 5 23.8911 4.0201 13.4813 0.5738 36.4785 19.0611
# 6 8.6541 2.6530 0.3845 6.9595 19.0611 24.6027
#
#
#
# Elastic Compliance Matrix: (Units=1/GPa)
#
#
# Indices 1 2 3 4 5 6 
#
# 1 0.011946 -0.003724 -0.003702 -0.003410 -0.007628 0.003132
# 2 -0.003724 0.016717 -0.002607 -0.005360 0.001828 -0.000353
# 3 -0.003702 -0.002607 0.011957 0.000803 -0.003916 0.004203
# 4 -0.003410 -0.005360 0.000803 0.029858 0.009323 -0.013904
# 5 -0.007628 0.001828 -0.003916 0.009323 0.056380 -0.043771
# 6 0.003132 -0.000353 0.004203 -0.013904 -0.043771 0.077362
#
#
# Mechanical properties :
#
#
# Convention : Reuss Voigt Hill
#
# Bulk Modulus (GPa) = 48.65225 62.68901 55.67063
# Shear Modulus (GPa) = 21.63223 33.70643 27.66933
#
# Velocity S-wave (km/s) = 3.13405 3.91211 3.54449
# Velocity P-wave (km/s) = 5.93188 6.99074 6.48296
#
# Compressibility (1/GPa) = 0.02055403
#
# Stress axis : x y z
#
# Youngs Moduli (GPa) = 83.71058 59.81925 83.63182
#
# Poissons Ratio (x) = 0.22274 0.30964
# Poissons Ratio (y) = 0.31170 0.21804
# Poissons Ratio (z) = 0.30993 0.15595
#
# Static dielectric constant tensor:
#      x y z
#    x 4.077930 0.235220 0.282340 
#    y 0.235220 3.943340 0.170640 
#    z 0.282340 0.170640 3.988060 
# 
# 
# High freq. dielectric constant tensor:
#      x y z
#    x 1.863710 0.016220 0.024360 
#    y 0.016220 1.860990 0.011690 
#    z 0.024360 0.011690 1.863920 
# 
# From -- ./inp_files/503879.got.cif
#   From: 2010.06.25/outbox.cif.g09.slc.cpg/sg2_252_cif.got.tgz:503879.got - 2010.06.27 13:26:56.
