data_PCOD8012120
_publ_section_title
;
Structure prediction by ZEFSAII (Michael W. Deem and Ramdas Pophale) SiO2 
 PCOD8012120
Probable space group: P -1
;
_chemical_formula_sum "Si O2"
_cell_formula_units_Z 16
_cell_length_a 13.882272
_cell_length_b 15.427624
_cell_length_c 10.769364
_cell_angle_alpha 141.250153
_cell_angle_beta 31.335264
_cell_angle_gamma 143.133273
_cell_volume 684.310395
_symmetry_space_group_name_H-M "P -1"
_symmetry_group_IT_number 2
_symmetry_cell_setting 'triclinic'
loop_
_space_group_symop_operation_xyz
x,y,z
-x,-y,-z
loop_
_atom_site_type_symbol
_atom_site_label
_atom_site_fract_x
_atom_site_fract_y
_atom_site_fract_z
Si Si1 0.260312 0.737136 0.485595
Si Si2 0.239466 0.571600 0.964771
Si Si3 0.793648 0.412083 0.246834
Si Si4 0.788053 0.083156 0.924673
Si Si5 0.629816 0.115545 0.720056
Si Si6 0.530066 0.701331 0.343420
Si Si7 0.188984 0.047792 0.507321
Si Si8 0.840470 0.585102 0.882339
O O1 0.317154 0.869563 0.468621
O O2 0.462518 0.780048 0.393458
O O3 0.183194 0.575326 0.322105
O O4 0.067903 0.718702 0.764640
O O5 0.380808 0.731063 0.048029
O O6 0.222180 0.434394 0.923478
O O7 0.008638 0.555720 0.181993
O O8 0.317776 0.565847 0.731896
O O9 0.670917 0.428955 0.520769
O O10 0.823210 0.253472 0.037926
O O11 0.981877 0.072650 0.768001
O O12 0.745454 0.977588 0.731191
O O13 0.593433 0.018023 0.157960
O O14 0.814186 0.090926 0.558000
O O15 0.631067 0.809071 0.469187
O O16 0.681162 0.635240 0.043735
#
# Coordination Sequence:
#
# PCOD8012120 Si02
#       8
#     2   2   2   2   2   2   2   2
#     4  10  24  43  66  90 131 173 215 268 316 371
#     4  10  21  39  66  97 126 167 208 270 320 376
#     4  11  21  39  68  95 132 164 209 266 324 378
#     4  11  23  45  66  94 134 171 210 262 327 386
#     4  11  22  44  66  93 130 172 215 260 323 379
#     4  12  23  40  68  96 127 173 215 262 322 381
#     4  11  24  39  69  96 128 171 212 261 324 390
#     4  10  22  44  64  91 133 169 215 265 321 379
#
# _framework density 23.381204
#
# number of rings (size 3 to 8) (size 9 to 14) (size 15 to 20)
#    0.000    1.250    3.750    2.250    0.000    2.000 
#    4.500    1.250    0.000    0.000    0.000    0.000 
#    0.000    0.000    0.000    0.000    0.000    0.000 
#
# Total GULP energy -198280.466909 kJ/mol
# GULP energy per Si atom -12392.529182 kJ/mol
# Density = 2.332799 g / cm^3
# Si number density = 23.381204 Si / 1000 Ang^3
#
#
#
# Elastic Constant Matrix: (Units=GPa)
#
#
# Indices 1 2 3 4 5 6 
#
# 1 136.8167 30.2007 27.6379 -19.7347 -24.2034 -32.6598
# 2 30.2007 85.5944 22.5050 -18.8498 -5.5313 -18.9812
# 3 27.6379 22.5050 73.2222 -12.4096 -26.3533 -27.9547
# 4 -19.7347 -18.8498 -12.4096 19.6460 -0.5313 6.2769
# 5 -24.2034 -5.5313 -26.3533 -0.5313 30.3478 -4.2019
# 6 -32.6598 -18.9812 -27.9547 6.2769 -4.2019 41.0107
#
#
#
# Elastic Compliance Matrix: (Units=1/GPa)
#
#
# Indices 1 2 3 4 5 6 
#
# 1 0.026691 0.004412 0.034363 0.039414 0.059092 0.046743
# 2 0.004412 0.017274 0.009086 0.022071 0.017171 0.016083
# 3 0.034363 0.009086 0.090008 0.073294 0.121543 0.094159
# 4 0.039414 0.022071 0.073294 0.134654 0.112886 0.082520
# 5 0.059092 0.017171 0.121543 0.112886 0.210411 0.142136
# 6 0.046743 0.016083 0.094159 0.082520 0.142136 0.135169
#
#
# Mechanical properties :
#
#
# Convention : Reuss Voigt Hill
#
# Bulk Modulus (GPa) = 4.35362 50.70227 27.52795
# Shear Modulus (GPa) = 8.40266 32.55354 20.47810
#
# Velocity S-wave (km/s) = 1.89778 3.73540 2.96266
# Velocity P-wave (km/s) = 2.58228 6.35109 4.84791
#
# Compressibility (1/GPa) = 0.22969376
#
# Stress axis : x y z
#
# Youngs Moduli (GPa) = 37.46646 57.89020 11.11010
#
# Poissons Ratio (x) = -0.25540 -0.38177
# Poissons Ratio (y) = -0.16530 -0.10095
# Poissons Ratio (z) = -1.28744 -0.52600
#
# Static dielectric constant tensor:
#      x y z
#    x 4.557440 -0.203040 -0.019270 
#    y -0.203040 4.141230 -0.099350 
#    z -0.019270 -0.099350 4.116090 
# 
# 
# High freq. dielectric constant tensor:
#      x y z
#    x 1.943060 -0.000190 0.004080 
#    y -0.000190 1.918000 -0.005870 
#    z 0.004080 -0.005870 1.902550 
# 
# From -- ./inp_files/454035.got.cif
#   From: 2010.06.25/outbox.cif.g09.slc.cpg/sg2_228_cif.got.tgz:454035.got - 2010.06.27 13:26:56.
