data_PCOD8012287
_publ_section_title
;
Structure prediction by ZEFSAII (Michael W. Deem and Ramdas Pophale) SiO2 
 PCOD8012287
Probable space group: P -1
;
_chemical_formula_sum "Si O2"
_cell_formula_units_Z 16
_cell_length_a 14.703193
_cell_length_b 8.862745
_cell_length_c 10.569603
_cell_angle_alpha 86.820912
_cell_angle_beta 66.607173
_cell_angle_gamma 40.968101
_cell_volume 757.410291
_symmetry_space_group_name_H-M "P -1"
_symmetry_group_IT_number 2
_symmetry_cell_setting 'triclinic'
loop_
_space_group_symop_operation_xyz
x,y,z
-x,-y,-z
loop_
_atom_site_type_symbol
_atom_site_label
_atom_site_fract_x
_atom_site_fract_y
_atom_site_fract_z
Si Si1 0.010145 0.810616 0.968717
Si Si2 0.420044 0.392583 0.992371
Si Si3 0.876860 0.711991 0.455931
Si Si4 0.646604 0.893566 0.769436
Si Si5 0.510196 0.835280 0.663000
Si Si6 0.120424 0.577704 0.184467
Si Si7 0.361255 0.765332 0.895533
Si Si8 0.750267 0.633172 0.332097
O O1 0.137039 0.623655 0.793525
O O2 0.069420 0.639135 0.063335
O O3 0.000000 0.000000 0.000000
O O4 0.833195 0.965602 0.014118
O O5 0.396868 0.542873 0.885948
O O6 0.479406 0.164835 0.906276
O O7 0.238970 0.578994 0.145202
O O8 0.563774 0.265591 0.013432
O O9 0.707694 0.933905 0.620762
O O10 0.859402 0.611951 0.357927
O O11 0.000000 0.500000 0.500000
O O12 0.950072 0.780135 0.353368
O O13 0.607914 0.777777 0.734204
O O14 0.781204 0.695602 0.815008
O O15 0.448278 0.740959 0.730093
O O16 0.627235 0.682939 0.483534
O O17 0.356024 0.134820 0.714687
#
# Coordination Sequence:
#
# PCOD8012287 Si02
#       8
#     2   2   2   2   2   2   2   2
#     4  12  26  42  62  94 135 170 213 269 319 382
#     4  11  23  40  62  95 130 168 213 264 316 394
#     4   9  21  38  63  96 124 155 212 271 319 375
#     4  10  21  39  68  96 123 164 218 265 319 380
#     4  10  21  42  69  96 128 169 215 270 318 387
#     4  11  21  40  65  92 125 166 213 264 317 379
#     4  11  25  41  60  95 134 168 213 262 328 381
#     4  10  23  41  66  96 130 169 220 266 319 382
#
# _framework density 21.124614000000001
#
# number of rings (size 3 to 8) (size 9 to 14) (size 15 to 20)
#    0.000    1.500    2.500    1.875    5.250    1.000 
#    2.250    0.625    0.000    5.250    0.000    0.000 
#    0.000    0.000    0.000    0.000    0.000    0.000 
#
# Total GULP energy -198253.321872 kJ/mol
# GULP energy per Si atom -12390.832617 kJ/mol
# Density = 2.107653 g / cm^3
# Si number density = 21.124614 Si / 1000 Ang^3
#
#
#
# Elastic Constant Matrix: (Units=GPa)
#
#
# Indices 1 2 3 4 5 6 
#
# 1 91.0223 47.0277 52.1497 -4.6953 -25.2915 -10.5128
# 2 47.0277 109.0167 64.0856 -13.7279 -7.2361 -4.3700
# 3 52.1497 64.0856 109.6754 -11.1580 -21.3276 8.3652
# 4 -4.6953 -13.7279 -11.1580 28.9204 4.4365 -5.3673
# 5 -25.2915 -7.2361 -21.3276 4.4365 41.6445 -10.2631
# 6 -10.5128 -4.3700 8.3652 -5.3673 -10.2631 41.3407
#
#
#
# Elastic Compliance Matrix: (Units=1/GPa)
#
#
# Indices 1 2 3 4 5 6 
#
# 1 0.020640 -0.004594 -0.005756 -0.001160 0.011010 0.008510
# 2 -0.004594 0.016037 -0.007598 0.004864 -0.003993 0.001705
# 3 -0.005756 -0.007598 0.017284 0.000784 0.002724 -0.004986
# 4 -0.001160 0.004864 0.000784 0.038194 -0.002439 0.004414
# 5 0.011010 -0.003993 0.002724 -0.002439 0.034120 0.009980
# 6 0.008510 0.001705 -0.004986 0.004414 0.009980 0.030593
#
#
# Mechanical properties :
#
#
# Convention : Reuss Voigt Hill
#
# Bulk Modulus (GPa) = 55.35498 70.69337 63.02417
# Shear Modulus (GPa) = 25.15277 32.14455 28.64866
#
# Velocity S-wave (km/s) = 3.45437 3.90508 3.68662
# Velocity P-wave (km/s) = 6.49393 7.33965 6.92971
#
# Compressibility (1/GPa) = 0.01806522
#
# Stress axis : x y z
#
# Youngs Moduli (GPa) = 48.44970 62.35593 57.85749
#
# Poissons Ratio (x) = 0.28648 0.33301
# Poissons Ratio (y) = 0.22259 0.43959
# Poissons Ratio (z) = 0.27886 0.47377
#
# Static dielectric constant tensor:
#      x y z
#    x 5.491190 -0.893050 -1.226610 
#    y -0.893050 4.126730 0.009030 
#    z -1.226610 0.009030 4.570410 
# 
# 
# High freq. dielectric constant tensor:
#      x y z
#    x 1.826270 -0.031200 -0.030300 
#    y -0.031200 1.820710 -0.025990 
#    z -0.030300 -0.025990 1.824730 
# 
# From -- ./inp_files/447495.got.cif
#   From: 2010.06.25/outbox.cif.g09.slc.cpg/sg2_224_cif.got.tgz:447495.got - 2010.06.27 13:26:56.
