data_PCOD8012570
_publ_section_title
;
Structure prediction by ZEFSAII (Michael W. Deem and Ramdas Pophale) SiO2 
 PCOD8012570
Probable space group: P -1
;
_chemical_formula_sum "Si O2"
_cell_formula_units_Z 16
_cell_length_a 12.357609
_cell_length_b 13.795589
_cell_length_c 11.722566
_cell_angle_alpha 148.938317
_cell_angle_beta 130.734875
_cell_angle_gamma 59.090932
_cell_volume 776.060795
_symmetry_space_group_name_H-M "P -1"
_symmetry_group_IT_number 2
_symmetry_cell_setting 'triclinic'
loop_
_space_group_symop_operation_xyz
x,y,z
-x,-y,-z
loop_
_atom_site_type_symbol
_atom_site_label
_atom_site_fract_x
_atom_site_fract_y
_atom_site_fract_z
Si Si1 0.345741 0.492404 0.831687
Si Si2 0.850451 0.371414 0.770037
Si Si3 0.888740 0.270660 0.456527
Si Si4 0.380389 0.775953 0.940615
Si Si5 0.450311 0.497009 0.333770
Si Si6 0.970127 0.940712 0.049591
Si Si7 0.654654 0.806791 0.651974
Si Si8 0.108415 0.629254 0.952865
O O1 0.333463 0.663896 0.909686
O O2 0.313552 0.289357 0.543478
O O3 0.231442 0.511143 0.871033
O O4 0.500000 0.500000 0.000000
O O5 0.849045 0.221711 0.513286
O O6 0.718875 0.494712 0.784697
O O7 0.839901 0.279682 0.796987
O O8 0.000000 0.500000 0.000000
O O9 0.745507 0.261921 0.275857
O O10 0.964426 0.484544 0.718147
O O11 0.992498 0.124365 0.331579
O O12 0.520364 0.698729 0.904291
O O13 0.412901 0.997043 0.216571
O O14 0.500000 0.500000 0.500000
O O15 0.541164 0.673451 0.512684
O O16 0.807016 0.845147 0.859799
O O17 0.081415 0.797765 0.019004
O O18 0.000000 0.000000 0.000000
#
# Coordination Sequence:
#
# PCOD8012570 Si02
#       8
#     2   2   2   2   2   2   2   2
#     4  11  23  39  60  87 123 164 209 260 320 375
#     4  10  23  41  62  92 127 167 209 258 318 371
#     4  10  21  40  61  91 124 159 209 257 308 379
#     4  10  21  40  63  92 125 158 208 268 306 372
#     4  11  21  40  67  90 124 168 212 256 311 379
#     4  11  23  39  64  97 125 162 213 255 316 380
#     4  10  23  39  62  96 121 160 216 258 315 375
#     4  11  21  38  63  85 127 166 201 260 319 365
#
# _framework density 20.61694
#
# number of rings (size 3 to 8) (size 9 to 14) (size 15 to 20)
#    0.000    1.500    1.250    5.250    1.750    3.000 
#    0.000    7.500    0.000    0.000    0.000    0.000 
#    0.000    0.000    0.000    0.000    0.000    0.000 
#
# Total GULP energy -198378.854326 kJ/mol
# GULP energy per Si atom -12398.678395 kJ/mol
# Density = 2.057002 g / cm^3
# Si number density = 20.616940 Si / 1000 Ang^3
#
#
#
# Elastic Constant Matrix: (Units=GPa)
#
#
# Indices 1 2 3 4 5 6 
#
# 1 128.9896 54.3413 46.3720 -1.1462 -25.3483 -4.8736
# 2 54.3413 119.8709 71.0142 -0.3322 -15.6071 -3.4122
# 3 46.3720 71.0142 85.9798 4.4374 -25.1088 5.3165
# 4 -1.1462 -0.3322 4.4374 38.9870 -7.1009 -5.9333
# 5 -25.3483 -15.6071 -25.1088 -7.1009 43.6133 -10.1142
# 6 -4.8736 -3.4122 5.3165 -5.9333 -10.1142 37.9359
#
#
#
# Elastic Compliance Matrix: (Units=1/GPa)
#
#
# Indices 1 2 3 4 5 6 
#
# 1 0.010908 -0.002749 -0.002450 0.001963 0.004993 0.003136
# 2 -0.002749 0.017731 -0.014144 0.001660 -0.002470 0.002825
# 3 -0.002450 -0.014144 0.027322 -0.002401 0.008005 -0.003657
# 4 0.001963 0.001660 -0.002401 0.028238 0.006551 0.006901
# 5 0.004993 -0.002470 0.008005 0.006551 0.032719 0.009045
# 6 0.003136 0.002825 -0.003657 0.006901 0.009045 0.031021
#
#
# Mechanical properties :
#
#
# Convention : Reuss Voigt Hill
#
# Bulk Modulus (GPa) = 57.88514 75.36615 66.62565
# Shear Modulus (GPa) = 25.98972 34.98142 30.48557
#
# Velocity S-wave (km/s) = 3.55435 4.12361 3.84951
# Velocity P-wave (km/s) = 6.70686 7.70110 7.22111
#
# Compressibility (1/GPa) = 0.01727559
#
# Stress axis : x y z
#
# Youngs Moduli (GPa) = 91.67192 56.39808 36.60075
#
# Poissons Ratio (x) = 0.15504 0.08967
# Poissons Ratio (y) = 0.25201 0.51768
# Poissons Ratio (z) = 0.22460 0.79769
#
# Static dielectric constant tensor:
#      x y z
#    x 4.124520 -0.032540 -0.429570 
#    y -0.032540 3.708010 -0.142220 
#    z -0.429570 -0.142220 3.943880 
# 
# 
# High freq. dielectric constant tensor:
#      x y z
#    x 1.821600 -0.006200 -0.017850 
#    y -0.006200 1.803790 -0.011050 
#    z -0.017850 -0.011050 1.798860 
# 
# From -- ./inp_files/279897.got.cif
#   From: 2010.06.25/outbox.cif.g09.slc.cpg/sg2_140_cif.got.tgz:279897.got - 2010.06.27 13:26:56.
