data_PCOD8012982
_publ_section_title
;
Structure prediction by ZEFSAII (Michael W. Deem and Ramdas Pophale) SiO2 
 PCOD8012982
Probable space group: P -1
;
_chemical_formula_sum "Si O2"
_cell_formula_units_Z 16
_cell_length_a 9.142219
_cell_length_b 15.103227
_cell_length_c 12.283564
_cell_angle_alpha 107.141799
_cell_angle_beta 49.025780
_cell_angle_gamma 66.776469
_cell_volume 710.042606
_symmetry_space_group_name_H-M "P -1"
_symmetry_group_IT_number 2
_symmetry_cell_setting 'triclinic'
loop_
_space_group_symop_operation_xyz
x,y,z
-x,-y,-z
loop_
_atom_site_type_symbol
_atom_site_label
_atom_site_fract_x
_atom_site_fract_y
_atom_site_fract_z
Si Si1 0.699584 0.965400 0.564430
Si Si2 0.799142 0.312696 0.295692
Si Si3 0.537837 0.050852 0.899262
Si Si4 0.556902 0.134430 0.368437
Si Si5 0.415020 0.353914 0.658132
Si Si6 0.701566 0.689612 0.086695
Si Si7 0.351410 0.790373 0.078467
Si Si8 0.702547 0.193528 0.125048
O O1 0.545968 0.931009 0.579551
O O2 0.028970 0.858578 0.296993
O O3 0.460662 0.148171 0.746683
O O4 0.761758 0.919048 0.645722
O O5 0.500000 0.500000 0.500000
O O6 0.743587 0.274220 0.419237
O O7 0.784646 0.252628 0.175780
O O8 0.162395 0.218986 0.094368
O O9 0.726787 0.070296 0.848924
O O10 0.500000 0.000000 0.000000
O O11 0.358694 0.275039 0.601750
O O12 0.489720 0.201202 0.302490
O O13 0.951382 0.989694 0.145535
O O14 0.445946 0.328520 0.762978
O O15 0.098958 0.542707 0.852676
O O16 0.624360 0.677737 0.000273
O O17 0.478108 0.707891 0.866264
#
# Coordination Sequence:
#
# PCOD8012982 Si02
#       8
#     2   2   2   2   2   2   2   2
#     4  11  22  39  64  95 132 165 220 255 328 377
#     4  11  23  43  69  95 124 174 224 261 327 392
#     4  11  23  38  65  96 133 167 219 271 319 381
#     4  10  21  40  64  96 123 170 216 262 312 384
#     4  10  23  40  67  89 131 169 215 263 322 388
#     4  10  22  42  60  93 132 169 208 264 324 387
#     4  11  24  39  63  96 132 165 212 271 326 377
#     4  10  22  41  66  92 132 162 215 269 318 384
#
# _framework density 22.533859
#
# number of rings (size 3 to 8) (size 9 to 14) (size 15 to 20)
#    0.000    1.500    1.250    4.500    7.000    2.000 
#    2.250    7.500    0.000    0.000    0.000    0.000 
#    0.000    0.000    0.000    0.000    0.000    0.000 
#
# Total GULP energy -198259.736254 kJ/mol
# GULP energy per Si atom -12391.233516 kJ/mol
# Density = 2.248257 g / cm^3
# Si number density = 22.533859 Si / 1000 Ang^3
#
#
#
# Elastic Constant Matrix: (Units=GPa)
#
#
# Indices 1 2 3 4 5 6 
#
# 1 81.2412 35.5681 17.1600 -15.1245 0.1298 0.2752
# 2 35.5681 93.9972 25.1632 -19.7063 2.6221 -15.5450
# 3 17.1600 25.1632 60.4170 -20.0257 1.3012 -2.1893
# 4 -15.1245 -19.7063 -20.0257 47.2479 2.1657 10.4161
# 5 0.1298 2.6221 1.3012 2.1657 28.9198 -15.6106
# 6 0.2752 -15.5450 -2.1893 10.4161 -15.6106 39.9811
#
#
#
# Elastic Compliance Matrix: (Units=1/GPa)
#
#
# Indices 1 2 3 4 5 6 
#
# 1 0.015565 -0.005500 -0.001200 0.003108 -0.001818 -0.003830
# 2 -0.005500 0.015048 -0.004082 0.001344 0.002043 0.006113
# 3 -0.001200 -0.004082 0.021120 0.007823 -0.003153 -0.003692
# 4 0.003108 0.001344 0.007823 0.028492 -0.007762 -0.009524
# 5 -0.001818 0.002043 -0.003153 -0.007762 0.046321 0.020742
# 6 -0.003830 0.006113 -0.003692 -0.009524 0.020742 0.037793
#
#
# Mechanical properties :
#
#
# Convention : Reuss Voigt Hill
#
# Bulk Modulus (GPa) = 33.14618 43.49310 38.31964
# Shear Modulus (GPa) = 25.51563 33.74738 29.63151
#
# Velocity S-wave (km/s) = 3.36865 3.87412 3.63020
# Velocity P-wave (km/s) = 5.46552 6.27335 5.88331
#
# Compressibility (1/GPa) = 0.03016939
#
# Stress axis : x y z
#
# Youngs Moduli (GPa) = 64.24800 66.45299 47.34879
#
# Poissons Ratio (x) = 0.36547 0.05681
# Poissons Ratio (y) = 0.35334 0.19329
# Poissons Ratio (z) = 0.07708 0.27128
#
# Static dielectric constant tensor:
#      x y z
#    x 3.925830 -0.140460 0.126200 
#    y -0.140460 4.412810 -0.415180 
#    z 0.126200 -0.415180 4.095000 
# 
# 
# High freq. dielectric constant tensor:
#      x y z
#    x 1.870690 -0.001500 0.010590 
#    y -0.001500 1.900290 -0.036090 
#    z 0.010590 -0.036090 1.881400 
# 
# From -- ./inp_files/331710.got.cif
#   From: 2010.06.25/outbox.cif.g09.slc.cpg/sg2_166_cif.got.tgz:331710.got - 2010.06.27 13:26:56.
