data_PCOD8012652
_publ_section_title
;
Structure prediction by ZEFSAII (Michael W. Deem and Ramdas Pophale) SiO2 
 PCOD8012652
Probable space group: P -1
;
_chemical_formula_sum "Si O2"
_cell_formula_units_Z 14
_cell_length_a 7.623832
_cell_length_b 14.406120
_cell_length_c 17.704495
_cell_angle_alpha 22.476198
_cell_angle_beta 83.292895
_cell_angle_gamma 94.134287
_cell_volume 650.031418
_symmetry_space_group_name_H-M "P -1"
_symmetry_group_IT_number 2
_symmetry_cell_setting 'triclinic'
loop_
_space_group_symop_operation_xyz
x,y,z
-x,-y,-z
loop_
_atom_site_type_symbol
_atom_site_label
_atom_site_fract_x
_atom_site_fract_y
_atom_site_fract_z
Si Si1 0.631043 0.312586 0.282719
Si Si2 0.900798 0.244560 0.443944
Si Si3 0.677168 0.447591 0.872637
Si Si4 0.247375 0.028583 0.997014
Si Si5 0.733684 0.607887 0.910606
Si Si6 0.851420 0.523871 0.374675
Si Si7 0.490908 0.931595 0.178460
O O1 0.776175 0.342009 0.322282
O O2 0.480225 0.434614 0.218847
O O3 0.500000 0.000000 0.500000
O O4 0.777438 0.475376 0.082267
O O5 0.851949 0.285157 0.501838
O O6 0.140039 0.415756 0.297260
O O7 0.849525 0.934178 0.664099
O O8 0.782511 0.504601 0.907222
O O9 0.567274 0.120512 0.107472
O O10 0.182780 0.263778 0.836581
O O11 0.328620 0.078883 0.868315
O O12 0.413854 0.084074 0.009050
O O13 0.068568 0.717935 0.255171
O O14 0.500000 0.500000 0.000000
O O15 0.679461 0.372842 0.560016
#
# Coordination Sequence:
#
# PCOD8012652 Si02
#       7
#     2   2   2   2   2   2   2
#     4  11  23  40  63  87 126 171 208 259 315 364
#     4  12  23  42  64  94 130 167 209 265 313 379
#     4  11  23  42  63  96 127 167 214 259 314 387
#     4  10  23  42  64  96 121 163 214 259 321 374
#     4  10  21  40  62  90 126 167 210 254 318 373
#     4  11  22  40  68  91 127 165 207 263 318 375
#     4  11  22  42  66  91 129 163 208 263 319 373
#
# _framework density 21.537420999999998
#
# number of rings (size 3 to 8) (size 9 to 14) (size 15 to 20)
#    0.000    1.143    4.286    3.857    0.000    0.571 
#    0.000    0.000    0.000    0.000    0.000    0.000 
#    0.000    0.000    0.000    0.000    0.000    0.000 
#
# Total GULP energy -173557.377671 kJ/mol
# GULP energy per Si atom -12396.955548 kJ/mol
# Density = 2.148840 g / cm^3
# Si number density = 21.537421 Si / 1000 Ang^3
#
#
#
# Elastic Constant Matrix: (Units=GPa)
#
#
# Indices 1 2 3 4 5 6 
#
# 1 61.5293 5.7948 25.9936 -1.3203 -11.1309 -2.3774
# 2 5.7948 77.0652 35.8627 -18.9684 -6.6182 -3.9803
# 3 25.9936 35.8627 108.6795 3.0042 -23.9773 -1.4456
# 4 -1.3203 -18.9684 3.0042 29.0918 1.3686 -2.8217
# 5 -11.1309 -6.6182 -23.9773 1.3686 39.6340 9.0127
# 6 -2.3774 -3.9803 -1.4456 -2.8217 9.0127 24.0249
#
#
#
# Elastic Compliance Matrix: (Units=1/GPa)
#
#
# Indices 1 2 3 4 5 6 
#
# 1 0.018518 0.001502 -0.004438 0.002278 0.002421 0.001174
# 2 0.001502 0.020308 -0.008030 0.014842 -0.002890 0.005857
# 3 -0.004438 -0.008030 0.014758 -0.007776 0.007672 -0.004673
# 4 0.002278 0.014842 -0.007776 0.046147 -0.005374 0.009653
# 5 0.002421 -0.002890 0.007672 -0.005374 0.033178 -0.012855
# 6 0.001174 0.005857 -0.004673 0.009653 -0.012855 0.048385
#
#
# Mechanical properties :
#
#
# Convention : Reuss Voigt Hill
#
# Bulk Modulus (GPa) = 31.59439 42.50846 37.05142
# Shear Modulus (GPa) = 23.38885 30.52502 26.95694
#
# Velocity S-wave (km/s) = 3.29897 3.76879 3.54168
# Velocity P-wave (km/s) = 5.40484 6.22240 5.82797
#
# Compressibility (1/GPa) = 0.03165119
#
# Stress axis : x y z
#
# Youngs Moduli (GPa) = 54.00143 49.24248 67.75918
#
# Poissons Ratio (x) = -0.07396 0.30071
# Poissons Ratio (y) = -0.08111 0.54413
# Poissons Ratio (z) = 0.23965 0.39544
#
# Static dielectric constant tensor:
#      x y z
#    x 3.862520 -0.090560 -0.045790 
#    y -0.090560 4.160890 0.330230 
#    z -0.045790 0.330230 3.965650 
# 
# 
# High freq. dielectric constant tensor:
#      x y z
#    x 1.838860 -0.004780 -0.014180 
#    y -0.004780 1.849900 -0.004360 
#    z -0.014180 -0.004360 1.846790 
# 
# From -- ./inp_files/99256.got.cif
#   From: 2010.06.25/outbox.cif.g09.slc.cpg/sg2_50_cif.got.tgz:99256.got - 2010.06.27 13:26:56.
