data_PCOD8012579
_publ_section_title
;
Structure prediction by ZEFSAII (Michael W. Deem and Ramdas Pophale) SiO2 
 PCOD8012579
Probable space group: P -1
;
_chemical_formula_sum "Si O2"
_cell_formula_units_Z 16
_cell_length_a 9.163178
_cell_length_b 19.578676
_cell_length_c 12.197077
_cell_angle_alpha 138.692892
_cell_angle_beta 117.755414
_cell_angle_gamma 94.651687
_cell_volume 862.972722
_symmetry_space_group_name_H-M "P -1"
_symmetry_group_IT_number 2
_symmetry_cell_setting 'triclinic'
loop_
_space_group_symop_operation_xyz
x,y,z
-x,-y,-z
loop_
_atom_site_type_symbol
_atom_site_label
_atom_site_fract_x
_atom_site_fract_y
_atom_site_fract_z
Si Si1 0.651135 0.434357 0.398828
Si Si2 0.891856 0.860569 0.414269
Si Si3 0.358252 0.684880 0.973876
Si Si4 0.106310 0.781474 0.977879
Si Si5 0.894624 0.381015 0.539619
Si Si6 0.831905 0.161181 0.381837
Si Si7 0.322261 0.904758 0.983380
Si Si8 0.104740 0.173487 0.871531
O O1 0.667124 0.363367 0.217414
O O2 0.742274 0.417993 0.522835
O O3 0.832325 0.613563 0.654655
O O4 0.371517 0.340420 0.201837
O O5 0.942940 0.831163 0.279374
O O6 0.927455 0.785293 0.424512
O O7 0.625735 0.788292 0.240363
O O8 0.086278 0.041456 0.727353
O O9 0.293911 0.776560 0.068122
O O10 0.178598 0.535186 0.806717
O O11 0.210575 0.895732 0.047541
O O12 0.095885 0.855985 0.165704
O O13 0.872056 0.304366 0.552665
O O14 0.780745 0.259946 0.255090
O O15 0.616857 0.043985 0.253974
O O16 0.766582 0.078967 0.140749
#
# Coordination Sequence:
#
# PCOD8012579 Si02
#       8
#     2   2   2   2   2   2   2   2
#     4  10  16  33  57  80 103 132 171 218 265 304
#     4  10  22  37  48  75 107 149 175 195 258 326
#     4  10  18  31  56  78 107 135 171 213 255 313
#     4  11  19  34  54  86 104 126 175 228 262 290
#     4   9  15  30  55  81  95 132 173 212 250 302
#     4   9  18  33  55  75 103 140 176 205 252 319
#     4   9  17  30  56  79 100 129 175 214 258 297
#     4  10  23  33  53  76 111 138 169 218 260 305
#
# _framework density 18.540562999999999
#
# number of rings (size 3 to 8) (size 9 to 14) (size 15 to 20)
#    0.750    1.500    2.500    1.875    3.500    1.000 
#    0.000    0.625    0.000    3.000    0.000    0.000 
#    0.000    0.000    0.000    0.000    0.000    0.000 
#
# Total GULP energy -198214.742780 kJ/mol
# GULP energy per Si atom -12388.421424 kJ/mol
# Density = 1.849836 g / cm^3
# Si number density = 18.540563 Si / 1000 Ang^3
#
#
#
# Elastic Constant Matrix: (Units=GPa)
#
#
# Indices 1 2 3 4 5 6 
#
# 1 103.7812 51.8076 28.8084 -10.6344 4.5956 15.2389
# 2 51.8076 106.6667 36.7350 -0.3932 15.9626 -2.4906
# 3 28.8084 36.7350 56.2061 1.0836 16.6397 6.9937
# 4 -10.6344 -0.3932 1.0836 20.5258 1.5146 8.7003
# 5 4.5956 15.9626 16.6397 1.5146 19.8435 0.8504
# 6 15.2389 -2.4906 6.9937 8.7003 0.8504 22.7662
#
#
#
# Elastic Compliance Matrix: (Units=1/GPa)
#
#
# Indices 1 2 3 4 5 6 
#
# 1 0.020390 -0.010038 -0.003249 0.019153 0.005526 -0.021274
# 2 -0.010038 0.017628 -0.006041 -0.010276 -0.006636 0.014678
# 3 -0.003249 -0.006041 0.030036 0.001201 -0.019348 -0.007449
# 4 0.019153 -0.010276 0.001201 0.076989 -0.001180 -0.043691
# 5 0.005526 -0.006636 -0.019348 -0.001180 0.070795 -0.000675
# 6 -0.021274 0.014678 -0.007449 -0.043691 -0.000675 0.078781
#
#
# Mechanical properties :
#
#
# Convention : Reuss Voigt Hill
#
# Bulk Modulus (GPa) = 34.01245 55.70623 44.85934
# Shear Modulus (GPa) = 14.57413 22.58063 18.57738
#
# Velocity S-wave (km/s) = 2.80673 3.49363 3.16885
# Velocity P-wave (km/s) = 5.37479 6.81064 6.13487
#
# Compressibility (1/GPa) = 0.02940100
#
# Stress axis : x y z
#
# Youngs Moduli (GPa) = 49.04369 56.72667 33.29299
#
# Poissons Ratio (x) = 0.56940 0.10816
# Poissons Ratio (y) = 0.49228 0.20111
# Poissons Ratio (z) = 0.15933 0.34266
#
# Static dielectric constant tensor:
#      x y z
#    x 3.197180 0.090440 0.197090 
#    y 0.090440 3.266950 0.131380 
#    z 0.197090 0.131380 3.273750 
# 
# 
# High freq. dielectric constant tensor:
#      x y z
#    x 1.695330 0.002130 0.021940 
#    y 0.002130 1.708670 0.011290 
#    z 0.021940 0.011290 1.706520 
# 
# From -- ./inp_files/404291.got.cif
#   From: 2010.06.25/outbox.cif.g09.slc.cpg/sg2_203_cif.got.tgz:404291.got - 2010.06.27 13:26:56.
