data_PCOD8012097
_publ_section_title
;
Structure prediction by ZEFSAII (Michael W. Deem and Ramdas Pophale) SiO2 
 PCOD8012097
Probable space group: P -1
;
_chemical_formula_sum "Si O2"
_cell_formula_units_Z 16
_cell_length_a 9.276805
_cell_length_b 25.167712
_cell_length_c 11.444199
_cell_angle_alpha 151.720133
_cell_angle_beta 57.718222
_cell_angle_gamma 133.872998
_cell_volume 889.529323
_symmetry_space_group_name_H-M "P -1"
_symmetry_group_IT_number 2
_symmetry_cell_setting 'triclinic'
loop_
_space_group_symop_operation_xyz
x,y,z
-x,-y,-z
loop_
_atom_site_type_symbol
_atom_site_label
_atom_site_fract_x
_atom_site_fract_y
_atom_site_fract_z
Si Si1 0.460070 0.947623 0.749278
Si Si2 0.862456 0.854010 0.051007
Si Si3 0.269681 0.119289 0.380616
Si Si4 0.698394 0.482323 0.258819
Si Si5 0.498321 0.644624 0.666002
Si Si6 0.098677 0.732806 0.633442
Si Si7 0.577977 0.783538 0.257015
Si Si8 0.564537 0.232761 0.281227
O O1 0.618561 0.963215 0.813325
O O2 0.228110 0.845942 0.698113
O O3 0.501965 0.885489 0.495943
O O4 0.506023 0.092001 0.976090
O O5 0.754926 0.832669 0.180460
O O6 0.694832 0.793372 0.903200
O O7 0.025787 0.013302 0.267072
O O8 0.971992 0.772629 0.847015
O O9 0.322790 0.213925 0.654997
O O10 0.369984 0.208841 0.394272
O O11 0.565182 0.543970 0.410150
O O12 0.658519 0.417408 0.279038
O O13 0.940298 0.595270 0.364619
O O14 0.622772 0.364970 0.968435
O O15 0.387282 0.661186 0.635999
O O16 0.237256 0.704334 0.600038
#
# Coordination Sequence:
#
# PCOD8012097 Si02
#       8
#     2   2   2   2   2   2   2   2
#     4   9  18  32  52  84 102 132 160 221 264 303
#     4  10  16  33  52  81  98 139 175 204 255 308
#     4   9  17  30  53  78 104 131 168 210 258 309
#     4   9  19  38  48  75 102 144 183 194 253 315
#     4   9  21  33  55  73 108 138 169 224 246 299
#     4  10  17  32  60  73 103 137 177 212 243 314
#     4   9  19  31  55  76 106 140 168 210 254 312
#     4  11  18  34  52  84 105 128 173 221 265 293
#
# _framework density 17.987041999999999
#
# number of rings (size 3 to 8) (size 9 to 14) (size 15 to 20)
#    0.750    1.750    2.500    1.875    0.000    1.500 
#    0.000    3.125    0.000    1.500    0.000    0.000 
#    0.000    0.000    0.000    0.000    0.000    0.000 
#
# Total GULP energy -198298.320671 kJ/mol
# GULP energy per Si atom -12393.645042 kJ/mol
# Density = 1.794610 g / cm^3
# Si number density = 17.987042 Si / 1000 Ang^3
#
#
#
# Elastic Constant Matrix: (Units=GPa)
#
#
# Indices 1 2 3 4 5 6 
#
# 1 39.0457 13.7697 10.7986 7.8677 2.0640 2.8679
# 2 13.7697 61.4768 21.9428 -3.8225 -7.6092 10.9303
# 3 10.7986 21.9428 73.4735 -3.4556 14.6240 7.9015
# 4 7.8677 -3.8225 -3.4556 30.3031 5.4647 0.3270
# 5 2.0640 -7.6092 14.6240 5.4647 23.0518 10.3270
# 6 2.8679 10.9303 7.9015 0.3270 10.3270 32.7762
#
#
#
# Elastic Compliance Matrix: (Units=1/GPa)
#
#
# Indices 1 2 3 4 5 6 
#
# 1 0.030534 -0.006776 -0.002655 -0.008813 -0.001558 0.000807
# 2 -0.006776 0.025934 -0.009516 0.000361 0.020610 -0.012259
# 3 -0.002655 -0.009516 0.020406 0.005208 -0.019075 0.004444
# 4 -0.008813 0.000361 0.005208 0.038206 -0.012821 0.003054
# 5 -0.001558 0.020610 -0.019075 -0.012821 0.077271 -0.026357
# 6 0.000807 -0.012259 0.004444 0.003054 -0.026357 0.041730
#
#
# Mechanical properties :
#
#
# Convention : Reuss Voigt Hill
#
# Bulk Modulus (GPa) = 25.65450 29.66869 27.66159
# Shear Modulus (GPa) = 17.54583 25.72521 21.63552
#
# Velocity S-wave (km/s) = 3.12664 3.78591 3.47196
# Velocity P-wave (km/s) = 5.22764 5.97002 5.61112
#
# Compressibility (1/GPa) = 0.03897952
#
# Stress axis : x y z
#
# Youngs Moduli (GPa) = 32.75074 38.56010 49.00500
#
# Poissons Ratio (x) = 0.26127 0.13012
# Poissons Ratio (y) = 0.22191 0.46634
# Poissons Ratio (z) = 0.08696 0.36694
#
# Static dielectric constant tensor:
#      x y z
#    x 3.027860 0.243620 0.231560 
#    y 0.243620 3.233840 0.004370 
#    z 0.231560 0.004370 3.291970 
# 
# 
# High freq. dielectric constant tensor:
#      x y z
#    x 1.664130 0.021370 0.022700 
#    y 0.021370 1.690230 -0.003980 
#    z 0.022700 -0.003980 1.689920 
# 
# From -- ./inp_files/319811.got.cif
#   From: 2010.06.25/outbox.cif.g09.slc.cpg/sg2_160_cif.got.tgz:319811.got - 2010.06.27 13:26:56.
