data_PCOD8012112
_publ_section_title
;
Structure prediction by ZEFSAII (Michael W. Deem and Ramdas Pophale) SiO2 
 PCOD8012112
Probable space group: P -1
;
_chemical_formula_sum "Si O2"
_cell_formula_units_Z 16
_cell_length_a 21.171324
_cell_length_b 9.541082
_cell_length_c 5.628332
_cell_angle_alpha 132.946916
_cell_angle_beta 121.795303
_cell_angle_gamma 63.503771
_cell_volume 700.340801
_symmetry_space_group_name_H-M "P -1"
_symmetry_group_IT_number 2
_symmetry_cell_setting 'triclinic'
loop_
_space_group_symop_operation_xyz
x,y,z
-x,-y,-z
loop_
_atom_site_type_symbol
_atom_site_label
_atom_site_fract_x
_atom_site_fract_y
_atom_site_fract_z
Si Si1 0.732467 0.458051 0.403713
Si Si2 0.845289 0.692745 0.694608
Si Si3 0.999106 0.774457 0.245558
Si Si4 0.577787 0.475703 0.876324
Si Si5 0.919185 0.321081 0.199655
Si Si6 0.671539 0.246554 0.418111
Si Si7 0.466364 0.805731 0.173430
Si Si8 0.796299 0.092121 0.803706
O O1 0.782116 0.630287 0.674094
O O2 0.726485 0.389341 0.583341
O O3 0.648186 0.525784 0.227119
O O4 0.773966 0.266712 0.140356
O O5 0.867450 0.529319 0.347874
O O6 0.811296 0.888505 0.725226
O O7 0.914519 0.728753 0.038955
O O8 0.037373 0.691616 0.471680
O O9 0.032581 0.683152 0.953125
O O10 0.000000 0.000000 0.500000
O O11 0.608500 0.388164 0.591295
O O12 0.532697 0.316740 0.724549
O O13 0.520695 0.672039 0.942700
O O14 0.871383 0.141124 0.876312
O O15 0.724911 0.083453 0.480247
O O16 0.621383 0.140431 0.014190
O O17 0.500000 0.000000 0.500000
#
# Coordination Sequence:
#
# PCOD8012112 Si02
#       8
#     2   2   2   2   2   2   2   2
#     4   9  22  43  63  98 133 177 223 283 330 416
#     4  11  24  45  71  98 137 182 230 283 351 418
#     4  12  25  48  73 103 141 184 235 300 355 417
#     4   9  20  41  63  93 132 170 219 273 334 396
#     4  11  26  48  71 103 141 182 239 295 356 421
#     4  10  21  42  69  93 136 175 221 276 338 404
#     4  10  21  39  66  96 131 170 218 275 335 401
#     4  10  23  43  66  97 134 179 227 280 349 410
#
# _framework density 22.846018999999998
#
# number of rings (size 3 to 8) (size 9 to 14) (size 15 to 20)
#    0.000    1.750    1.250    1.500    3.500    3.500 
#    6.750   12.500    0.000    0.000    0.000    0.000 
#    0.000    0.000    0.000    0.000    0.000    0.000 
#
# Total GULP energy -198284.457597 kJ/mol
# GULP energy per Si atom -12392.778600 kJ/mol
# Density = 2.279402 g / cm^3
# Si number density = 22.846019 Si / 1000 Ang^3
#
#
#
# Elastic Constant Matrix: (Units=GPa)
#
#
# Indices 1 2 3 4 5 6 
#
# 1 117.8307 56.8412 42.7885 -4.9988 31.9982 13.9297
# 2 56.8412 138.8578 62.5740 10.1696 15.4719 -6.2518
# 3 42.7885 62.5740 91.3592 -0.2179 29.4336 9.5844
# 4 -4.9988 10.1696 -0.2179 33.1045 18.7369 6.7509
# 5 31.9982 15.4719 29.4336 18.7369 35.1944 -0.4149
# 6 13.9297 -6.2518 9.5844 6.7509 -0.4149 30.9723
#
#
#
# Elastic Compliance Matrix: (Units=1/GPa)
#
#
# Indices 1 2 3 4 5 6 
#
# 1 -0.447107 0.390475 -0.529796 -1.028852 1.233735 0.684628
# 2 0.390475 -0.326571 0.446442 0.882666 -1.061643 -0.586296
# 3 -0.529796 0.446442 -0.588808 -1.183885 1.417414 0.787627
# 4 -1.028852 0.882666 -1.183885 -2.289086 2.774348 1.543347
# 5 1.233735 -1.061643 1.417414 2.774348 -3.310874 -1.856841
# 6 0.684628 -0.586296 0.787627 1.543347 -1.856841 -0.998966
#
#
# Mechanical properties :
#
#
# Convention : Reuss Voigt Hill
#
# Bulk Modulus (GPa) = -1.33646 74.71723 36.69038
# Shear Modulus (GPa) = -0.56657 32.24384 15.83864
#
# Velocity S-wave (km/s) = -0.49853 3.76088 2.63587
# Velocity P-wave (km/s) = 0.95793 7.18572 5.03572
#
# Compressibility (1/GPa) = -0.74824311
#
# Stress axis : x y z
#
# Youngs Moduli (GPa) = -2.23660 -3.06212 -1.69835
#
# Poissons Ratio (x) = 1.19568 -0.89978
# Poissons Ratio (y) = 0.87334 0.75821
# Poissons Ratio (z) = -1.18494 1.36706
#
# Static dielectric constant tensor:
#      x y z
#    x 4.562540 -0.073810 0.251510 
#    y -0.073810 4.138900 -0.120790 
#    z 0.251510 -0.120790 4.106290 
# 
# 
# High freq. dielectric constant tensor:
#      x y z
#    x 1.917990 -0.003770 0.014810 
#    y -0.003770 1.902040 -0.004200 
#    z 0.014810 -0.004200 1.889770 
# 
# From -- ./inp_files/117559.got.cif
#   From: 2010.06.25/outbox.cif.g09.slc.cpg/sg2_59_cif.got.tgz:117559.got - 2010.06.27 13:26:56.
