data_PCOD8012347
_publ_section_title
;
Structure prediction by ZEFSAII (Michael W. Deem and Ramdas Pophale) SiO2 
 PCOD8012347
Probable space group: P -1
;
_chemical_formula_sum "Si O2"
_cell_formula_units_Z 16
_cell_length_a 8.970541
_cell_length_b 14.390452
_cell_length_c 9.725395
_cell_angle_alpha 107.713495
_cell_angle_beta 62.113544
_cell_angle_gamma 138.878468
_cell_volume 727.279202
_symmetry_space_group_name_H-M "P -1"
_symmetry_group_IT_number 2
_symmetry_cell_setting 'triclinic'
loop_
_space_group_symop_operation_xyz
x,y,z
-x,-y,-z
loop_
_atom_site_type_symbol
_atom_site_label
_atom_site_fract_x
_atom_site_fract_y
_atom_site_fract_z
Si Si1 0.070394 0.432129 0.860009
Si Si2 0.404864 0.559582 0.010660
Si Si3 0.514400 0.168726 0.572731
Si Si4 0.326245 0.921788 0.706655
Si Si5 0.897056 0.870152 0.894438
Si Si6 0.907922 0.441975 0.669216
Si Si7 0.029141 0.044409 0.662185
Si Si8 0.284704 0.895869 0.152914
O O1 0.107244 0.472498 0.698215
O O2 0.852409 0.262492 0.890999
O O3 0.312678 0.498445 0.865991
O O4 0.000000 0.500000 0.000000
O O5 0.190567 0.505091 0.182326
O O6 0.500000 0.500000 0.000000
O O7 0.618787 0.729873 0.990135
O O8 0.683386 0.197484 0.386486
O O9 0.680182 0.273236 0.673986
O O10 0.324510 0.175091 0.618170
O O11 0.347065 0.005007 0.607098
O O12 0.063723 0.843918 0.848240
O O13 0.574118 0.045441 0.738486
O O14 0.902084 0.909467 0.752723
O O15 0.000000 0.000000 0.000000
O O16 0.000000 0.500000 0.500000
O O17 0.914361 0.101610 0.766372
O O18 0.000000 0.000000 0.500000
O O19 0.500000 0.000000 0.000000
#
# Coordination Sequence:
#
# PCOD8012347 Si02
#       8
#     2   2   2   2   2   2   2   2
#     4  10  26  47  69 100 146 187 234 291 354 428
#     4  11  27  48  70 102 145 186 235 290 358 429
#     4  10  21  41  66  95 136 171 226 293 349 403
#     4  10  21  39  69  98 129 175 228 284 346 415
#     4  11  25  43  73  99 140 185 232 290 356 420
#     4  11  25  45  72  95 137 190 236 284 351 423
#     4  11  24  42  67 109 141 176 231 305 357 411
#     4  12  25  40  73 105 138 183 241 288 354 425
#
# _framework density 21.999804000000001
#
# number of rings (size 3 to 8) (size 9 to 14) (size 15 to 20)
#    0.000    1.250    2.500    2.250   12.250    2.000 
#    0.000    0.625    0.000    0.000    0.000    0.000 
#    0.000    0.000    0.000    0.000    0.000    0.000 
#
# Total GULP energy -198212.087302 kJ/mol
# GULP energy per Si atom -12388.255456 kJ/mol
# Density = 2.194973 g / cm^3
# Si number density = 21.999804 Si / 1000 Ang^3
#
#
#
# Elastic Constant Matrix: (Units=GPa)
#
#
# Indices 1 2 3 4 5 6 
#
# 1 161.0621 42.1715 68.4667 11.7574 2.3210 11.1302
# 2 42.1715 87.8898 43.9185 11.9627 13.4740 7.1389
# 3 68.4667 43.9185 131.2262 4.9278 9.6304 2.8617
# 4 11.7574 11.9627 4.9278 36.4880 0.8114 4.5042
# 5 2.3210 13.4740 9.6304 0.8114 46.9605 8.1773
# 6 11.1302 7.1389 2.8617 4.5042 8.1773 35.0014
#
#
#
# Elastic Compliance Matrix: (Units=1/GPa)
#
#
# Indices 1 2 3 4 5 6 
#
# 1 0.008589 -0.002079 -0.003787 -0.001341 0.001344 -0.002139
# 2 -0.002079 0.015266 -0.003624 -0.003660 -0.003312 -0.000912
# 3 -0.003787 -0.003624 0.010842 0.000819 -0.001226 0.001238
# 4 -0.001341 -0.003660 0.000819 0.029262 0.000944 -0.002881
# 5 0.001344 -0.003312 -0.001226 0.000944 0.023323 -0.005222
# 6 -0.002139 -0.000912 0.001238 -0.002881 -0.005222 0.030926
#
#
# Mechanical properties :
#
#
# Convention : Reuss Voigt Hill
#
# Bulk Modulus (GPa) = 63.62755 76.58794 70.10775
# Shear Modulus (GPa) = 35.10542 38.73140 36.91841
#
# Velocity S-wave (km/s) = 3.99897 4.20042 4.10094
# Velocity P-wave (km/s) = 7.09275 7.64286 7.37294
#
# Compressibility (1/GPa) = 0.01571646
#
# Stress axis : x y z
#
# Youngs Moduli (GPa) = 116.42257 65.50363 92.23608
#
# Poissons Ratio (x) = 0.13616 0.34934
# Poissons Ratio (y) = 0.24200 0.33430
# Poissons Ratio (z) = 0.44095 0.23741
#
# Static dielectric constant tensor:
#      x y z
#    x 4.375280 -0.330710 0.094490 
#    y -0.330710 3.505140 -0.320680 
#    z 0.094490 -0.320680 4.226530 
# 
# 
# High freq. dielectric constant tensor:
#      x y z
#    x 1.881040 0.006100 0.004800 
#    y 0.006100 1.853210 0.016740 
#    z 0.004800 0.016740 1.864410 
# 
# From -- ./inp_files/207712.got.cif
#   From: 2010.06.25/outbox.cif.g09.slc.cpg/sg2_104_cif.got.tgz:207712.got - 2010.06.27 13:26:56.
