data_PCOD8012601
_publ_section_title
;
Structure prediction by ZEFSAII (Michael W. Deem and Ramdas Pophale) SiO2 
 PCOD8012601
Probable space group: P -1
;
_chemical_formula_sum "Si O2"
_cell_formula_units_Z 14
_cell_length_a 10.671435
_cell_length_b 18.057403
_cell_length_c 19.227062
_cell_angle_alpha 20.820874
_cell_angle_beta 153.200089
_cell_angle_gamma 146.578698
_cell_volume 593.776189
_symmetry_space_group_name_H-M "P -1"
_symmetry_group_IT_number 2
_symmetry_cell_setting 'triclinic'
loop_
_space_group_symop_operation_xyz
x,y,z
-x,-y,-z
loop_
_atom_site_type_symbol
_atom_site_label
_atom_site_fract_x
_atom_site_fract_y
_atom_site_fract_z
Si Si1 0.051867 0.023672 0.824603
Si Si2 0.405547 0.117149 0.187592
Si Si3 0.821994 0.537133 0.544034
Si Si4 0.243653 0.884451 0.179831
Si Si5 0.762267 0.438559 0.018319
Si Si6 0.198052 0.633619 0.164882
Si Si7 0.254902 0.223656 0.394428
O O1 0.250253 0.026194 0.989232
O O2 0.187385 0.882330 0.955811
O O3 0.753399 0.912258 0.792758
O O4 0.999032 0.259660 0.566626
O O5 0.504546 0.351532 0.012892
O O6 0.181788 0.023800 0.099107
O O7 0.685547 0.977208 0.448603
O O8 0.928507 0.332184 0.733558
O O9 0.500075 0.584794 0.326950
O O10 0.866394 0.496643 0.683124
O O11 0.555791 0.799166 0.422615
O O12 0.969958 0.578826 0.042728
O O13 0.933355 0.243043 0.240984
O O14 0.645615 0.574105 0.777906
#
# Coordination Sequence:
#
# PCOD8012601 Si02
#       7
#     2   2   2   2   2   2   2
#     4  11  23  38  61  88 121 157 189 240 300 342
#     4  10  23  38  57  93 121 152 192 237 297 356
#     4  10  21  40  62  84 118 152 198 251 282 336
#     4   9  21  38  60  93 112 147 203 240 290 345
#     4  11  21  41  63  84 123 153 193 247 284 347
#     4  10  22  40  59  89 112 157 204 235 286 346
#     4   9  22  37  61  91 111 155 196 235 297 335
#
# _framework density 23.577908000000001
#
# number of rings (size 3 to 8) (size 9 to 14) (size 15 to 20)
#    0.857    1.143    1.429    1.286    2.000    4.571 
#    0.000    1.429    0.000    0.000    0.000    0.000 
#    0.000    0.000    0.000    0.000    0.000    0.000 
#
# Total GULP energy -173493.864378 kJ/mol
# GULP energy per Si atom -12392.418884 kJ/mol
# Density = 2.352424 g / cm^3
# Si number density = 23.577908 Si / 1000 Ang^3
#
#
#
# Elastic Constant Matrix: (Units=GPa)
#
#
# Indices 1 2 3 4 5 6 
#
# 1 79.9467 20.6057 24.4202 -16.7343 7.4953 1.4091
# 2 20.6057 64.2595 15.1911 -8.1283 -5.6177 7.4118
# 3 24.4202 15.1911 94.2724 -18.1022 -5.8371 1.6691
# 4 -16.7343 -8.1283 -18.1022 34.7384 -1.6517 -8.8941
# 5 7.4953 -5.6177 -5.8371 -1.6517 30.9808 -18.1732
# 6 1.4091 7.4118 1.6691 -8.8941 -18.1732 34.4967
#
#
#
# Elastic Compliance Matrix: (Units=1/GPa)
#
#
# Indices 1 2 3 4 5 6 
#
# 1 0.016011 -0.004202 -0.002934 0.004536 -0.005834 -0.001513
# 2 -0.004202 0.017836 -0.001341 0.001169 0.003080 -0.001672
# 3 -0.002934 -0.001341 0.013140 0.006595 0.006017 0.004643
# 4 0.004536 0.001169 0.006595 0.039166 0.011470 0.015385
# 5 -0.005834 0.003080 0.006017 0.011470 0.053995 0.030688
# 6 -0.001513 -0.001672 0.004643 0.015385 0.030688 0.049318
#
#
# Mechanical properties :
#
#
# Convention : Reuss Voigt Hill
#
# Bulk Modulus (GPa) = 33.29592 39.87919 36.58756
# Shear Modulus (GPa) = 23.10207 31.92729 27.51468
#
# Velocity S-wave (km/s) = 3.13360 3.68383 3.41980
# Velocity P-wave (km/s) = 5.21967 5.91985 5.58075
#
# Compressibility (1/GPa) = 0.03003371
#
# Stress axis : x y z
#
# Youngs Moduli (GPa) = 62.45859 56.06538 76.10142
#
# Poissons Ratio (x) = 0.23560 0.22326
# Poissons Ratio (y) = 0.26247 0.10204
# Poissons Ratio (z) = 0.18323 0.07518
#
# Static dielectric constant tensor:
#      x y z
#    x 4.103760 -0.010500 0.283420 
#    y -0.010500 3.758700 0.074990 
#    z 0.283420 0.074990 4.485270 
# 
# 
# High freq. dielectric constant tensor:
#      x y z
#    x 1.927990 0.003980 0.020410 
#    y 0.003980 1.906940 0.005660 
#    z 0.020410 0.005660 1.954170 
# 
# From -- ./inp_files/428664.got.cif
#   From: 2010.06.25/outbox.cif.g09.slc.cpg/sg2_215_cif.got.tgz:428664.got - 2010.06.27 13:26:56.
