data_PCOD8012255
_publ_section_title
;
Structure prediction by ZEFSAII (Michael W. Deem and Ramdas Pophale) SiO2 
 PCOD8012255
Probable space group: P -1
;
_chemical_formula_sum "Si O2"
_cell_formula_units_Z 12
_cell_length_a 8.721471
_cell_length_b 5.403911
_cell_length_c 11.050152
_cell_angle_alpha 96.190421
_cell_angle_beta 106.802649
_cell_angle_gamma 74.085912
_cell_volume 479.220770
_symmetry_space_group_name_H-M "P -1"
_symmetry_group_IT_number 2
_symmetry_cell_setting 'triclinic'
loop_
_space_group_symop_operation_xyz
x,y,z
-x,-y,-z
loop_
_atom_site_type_symbol
_atom_site_label
_atom_site_fract_x
_atom_site_fract_y
_atom_site_fract_z
Si Si1 0.746427 0.022726 0.907057
Si Si2 0.646668 0.555240 0.457345
Si Si3 0.005269 0.708763 0.110560
Si Si4 0.385454 0.239800 0.788734
Si Si5 0.787290 0.208007 0.265957
Si Si6 0.114839 0.312369 0.290409
O O1 0.769491 0.785561 0.805242
O O2 0.819515 0.226861 0.862914
O O3 0.554237 0.140615 0.898022
O O4 0.845829 0.949694 0.054135
O O5 0.500000 0.500000 0.500000
O O6 0.573553 0.766229 0.346882
O O7 0.750015 0.291876 0.402542
O O8 0.772708 0.671118 0.569162
O O9 0.002010 0.596573 0.240160
O O10 0.000000 0.500000 0.000000
O O11 0.301169 0.538978 0.823361
O O12 0.272199 0.048459 0.786632
O O13 0.986816 0.136914 0.282922
#
# Coordination Sequence:
#
# PCOD8012255 Si02
#       6
#     2   2   2   2   2   2
#     4  10  21  39  68  89 122 166 216 264 304 378
#     4  10  22  39  66  94 129 165 215 252 313 372
#     4   9  21  38  64  93 120 160 220 257 317 365
#     4  10  24  42  63  92 130 164 211 254 314 374
#     4  10  25  42  60  98 132 167 205 256 321 371
#     4  11  22  39  65  92 128 167 208 263 312 373
#
# _framework density 25.040655000000001
#
# number of rings (size 3 to 8) (size 9 to 14) (size 15 to 20)
#    1.000    1.000    0.000    2.500    7.000    4.667 
#    0.000    1.667    0.000    0.000    0.000    0.000 
#    0.000    0.000    0.000    0.000    0.000    0.000 
#
# Total GULP energy -148695.374344 kJ/mol
# GULP energy per Si atom -12391.281195 kJ/mol
# Density = 2.498366 g / cm^3
# Si number density = 25.040655 Si / 1000 Ang^3
#
#
#
# Elastic Constant Matrix: (Units=GPa)
#
#
# Indices 1 2 3 4 5 6 
#
# 1 136.4890 33.4320 24.2118 -11.3052 17.3517 18.2040
# 2 33.4320 115.0832 -0.5039 -7.4007 15.5035 24.1619
# 3 24.2118 -0.5039 60.8204 -19.8924 17.1426 12.6310
# 4 -11.3052 -7.4007 -19.8924 27.8532 -0.9391 -4.7651
# 5 17.3517 15.5035 17.1426 -0.9391 47.9770 4.1188
# 6 18.2040 24.1619 12.6310 -4.7651 4.1188 42.5645
#
#
#
# Elastic Compliance Matrix: (Units=1/GPa)
#
#
# Indices 1 2 3 4 5 6 
#
# 1 0.008719 -0.001926 -0.002392 0.000982 -0.001514 -0.001669
# 2 -0.001926 0.011396 0.004738 0.004439 -0.004063 -0.006161
# 3 -0.002392 0.004738 0.027613 0.018512 -0.009581 -0.006861
# 4 0.000982 0.004439 0.018512 0.050094 -0.007241 -0.002124
# 5 -0.001514 -0.004063 -0.009581 -0.007241 0.025771 0.002492
# 6 -0.001669 -0.006161 -0.006861 -0.002124 0.002492 0.029262
#
#
# Mechanical properties :
#
#
# Convention : Reuss Voigt Hill
#
# Bulk Modulus (GPa) = 20.59008 47.40803 33.99905
# Shear Modulus (GPa) = 29.72539 40.69579 35.21059
#
# Velocity S-wave (km/s) = 3.44915 4.03574 3.75392
# Velocity P-wave (km/s) = 4.90945 6.37885 5.69177
#
# Compressibility (1/GPa) = 0.04856707
#
# Stress axis : x y z
#
# Youngs Moduli (GPa) = 114.69016 87.75107 36.21418
#
# Poissons Ratio (x) = 0.16899 0.08664
# Poissons Ratio (y) = 0.22087 -0.17156
# Poissons Ratio (z) = 0.27438 -0.41572
#
# Static dielectric constant tensor:
#      x y z
#    x 3.443130 1.454180 0.210160 
#    y 1.454180 2.291030 -0.587340 
#    z 0.210160 -0.587340 4.419240 
# 
# 
# High freq. dielectric constant tensor:
#      x y z
#    x 2.000550 0.008580 -0.004800 
#    y 0.008580 1.999940 0.003060 
#    z -0.004800 0.003060 1.990650 
# 
# From -- ./inp_files/31730.got.cif
#   From: 2010.06.25/outbox.cif.g09.slc.cpg/sg2_16_cif.got.tgz:31730.got - 2010.06.27 13:26:56.
