data_PCOD8012047
_publ_section_title
;
Structure prediction by ZEFSAII (Michael W. Deem and Ramdas Pophale) SiO2 
 PCOD8012047
Probable space group: P -1
;
_chemical_formula_sum "Si O2"
_cell_formula_units_Z 14
_cell_length_a 9.531185
_cell_length_b 11.967884
_cell_length_c 24.213939
_cell_angle_alpha 151.661959
_cell_angle_beta 29.794661
_cell_angle_gamma 143.150046
_cell_volume 643.656874
_symmetry_space_group_name_H-M "P -1"
_symmetry_group_IT_number 2
_symmetry_cell_setting 'triclinic'
loop_
_space_group_symop_operation_xyz
x,y,z
-x,-y,-z
loop_
_atom_site_type_symbol
_atom_site_label
_atom_site_fract_x
_atom_site_fract_y
_atom_site_fract_z
Si Si1 0.288256 0.448783 0.710338
Si Si2 0.142832 0.946324 0.200923
Si Si3 0.896307 0.039731 0.492724
Si Si4 0.718185 0.481880 0.967162
Si Si5 0.693229 0.633642 0.742233
Si Si6 0.607389 0.678883 0.205520
Si Si7 0.814620 0.646306 0.554435
O O1 0.127158 0.192122 0.637575
O O2 0.509947 0.438886 0.680037
O O3 0.473545 0.574353 0.650298
O O4 0.031000 0.580513 0.877569
O O5 0.315310 0.786425 0.111841
O O6 0.894563 0.759622 0.177082
O O7 0.324079 0.094639 0.153402
O O8 0.044647 0.157572 0.363221
O O9 0.588659 0.119956 0.632576
O O10 0.000000 0.000000 0.500000
O O11 0.143764 0.236190 0.468763
O O12 0.500000 0.500000 0.000000
O O13 0.665751 0.656274 0.110930
O O14 0.555786 0.574909 0.824499
O O15 0.019970 0.582836 0.602698
#
# Coordination Sequence:
#
# PCOD8012047 Si02
#       7
#     2   2   2   2   2   2   2
#     4  11  21  41  65  89 129 164 211 261 317 376
#     4  11  21  41  69  90 127 167 216 263 314 377
#     4  11  22  39  66  93 131 172 208 260 322 379
#     4  12  26  44  63  92 135 175 212 258 321 385
#     4  10  21  39  69 102 123 156 217 276 314 370
#     4  11  23  41  66  95 129 166 215 268 312 374
#     4  10  21  39  66 101 125 158 214 269 318 378
#
# _framework density 21.750720999999999
#
# number of rings (size 3 to 8) (size 9 to 14) (size 15 to 20)
#    0.000    1.143    2.857    4.714    0.000    3.429 
#    2.571    4.286    0.000    0.000    0.000    0.000 
#    0.000    0.000    0.000    0.000    0.000    0.000 
#
# Total GULP energy -173473.687397 kJ/mol
# GULP energy per Si atom -12390.977671 kJ/mol
# Density = 2.170121 g / cm^3
# Si number density = 21.750721 Si / 1000 Ang^3
#
#
#
# Elastic Constant Matrix: (Units=GPa)
#
#
# Indices 1 2 3 4 5 6 
#
# 1 90.8225 55.6893 28.7036 -7.8393 -20.1789 -30.7536
# 2 55.6893 125.6349 45.6316 -19.9207 -4.1005 -19.2411
# 3 28.7036 45.6316 68.9797 -22.1826 7.5337 -11.7075
# 4 -7.8393 -19.9207 -22.1826 37.9057 -2.6567 3.3871
# 5 -20.1789 -4.1005 7.5337 -2.6567 18.9529 -0.3369
# 6 -30.7536 -19.2411 -11.7075 3.3871 -0.3369 26.2425
#
#
#
# Elastic Compliance Matrix: (Units=1/GPa)
#
#
# Indices 1 2 3 4 5 6 
#
# 1 0.046604 -0.007639 -0.013540 -0.002461 0.053786 0.043982
# 2 -0.007639 0.013033 -0.004594 0.002521 -0.003166 -0.001811
# 3 -0.013540 -0.004594 0.027688 0.009984 -0.025168 -0.008496
# 4 -0.002461 0.002521 0.009984 0.033017 -0.001430 -0.000861
# 5 0.053786 -0.003166 -0.025168 -0.001430 0.120056 0.051208
# 6 0.043982 -0.001811 -0.008496 -0.000861 0.051208 0.085299
#
#
# Mechanical properties :
#
#
# Convention : Reuss Voigt Hill
#
# Bulk Modulus (GPa) = 27.94941 60.60958 44.27950
# Shear Modulus (GPa) = 12.84787 26.98105 19.91446
#
# Velocity S-wave (km/s) = 2.43304 3.52585 3.02913
# Velocity P-wave (km/s) = 4.55749 6.67095 5.71280
#
# Compressibility (1/GPa) = 0.03577893
#
# Stress axis : x y z
#
# Youngs Moduli (GPa) = 21.45731 76.72761 36.11705
#
# Poissons Ratio (x) = 0.58610 0.48904
# Poissons Ratio (y) = 0.16391 0.16592
# Poissons Ratio (z) = 0.29054 0.35249
#
# Static dielectric constant tensor:
#      x y z
#    x 3.799530 -0.308570 0.051550 
#    y -0.308570 4.143010 -0.187050 
#    z 0.051550 -0.187050 3.960350 
# 
# 
# High freq. dielectric constant tensor:
#      x y z
#    x 1.840470 -0.022230 0.011840 
#    y -0.022230 1.856600 -0.013110 
#    z 0.011840 -0.013110 1.850330 
# 
# From -- ./inp_files/243468.got.cif
#   From: 2010.06.25/outbox.cif.g09.slc.cpg/sg2_122_cif.got.tgz:243468.got - 2010.06.27 13:26:56.
