data_PCOD8012130
_publ_section_title
;
Structure prediction by ZEFSAII (Michael W. Deem and Ramdas Pophale) SiO2 
 PCOD8012130
Probable space group: P -1
;
_chemical_formula_sum "Si O2"
_cell_formula_units_Z 16
_cell_length_a 11.289287
_cell_length_b 18.702342
_cell_length_c 13.146877
_cell_angle_alpha 39.011181
_cell_angle_beta 61.312498
_cell_angle_gamma 32.181827
_cell_volume 789.292762
_symmetry_space_group_name_H-M "P -1"
_symmetry_group_IT_number 2
_symmetry_cell_setting 'triclinic'
loop_
_space_group_symop_operation_xyz
x,y,z
-x,-y,-z
loop_
_atom_site_type_symbol
_atom_site_label
_atom_site_fract_x
_atom_site_fract_y
_atom_site_fract_z
Si Si1 0.166466 0.420293 0.923051
Si Si2 0.964982 0.646041 0.560303
Si Si3 0.425533 0.258022 0.463505
Si Si4 0.488103 0.239876 0.678944
Si Si5 0.754712 0.033720 0.130859
Si Si6 0.967377 0.948575 0.921448
Si Si7 0.692575 0.443272 0.926992
Si Si8 0.212749 0.146524 0.127601
O O1 0.983954 0.631983 0.692085
O O2 0.440801 0.280245 0.997894
O O3 0.247025 0.255357 0.002350
O O4 0.000000 0.500000 0.000000
O O5 0.818696 0.641356 0.582666
O O6 0.264405 0.415659 0.658702
O O7 0.830745 0.857360 0.342329
O O8 0.372612 0.356292 0.486904
O O9 0.473158 0.326173 0.291082
O O10 0.681569 0.992681 0.659252
O O11 0.733136 0.140639 0.724798
O O12 0.610714 0.023227 0.854195
O O13 0.847235 0.975146 0.041197
O O14 0.899740 0.026328 0.142412
O O15 0.183615 0.706971 0.055683
O O16 0.500000 0.500000 0.000000
O O17 0.912646 0.326428 0.043605
#
# Coordination Sequence:
#
# PCOD8012130 Si02
#       8
#     2   2   2   2   2   2   2   2
#     4  12  26  44  64  96 135 173 220 267 325 386
#     4  12  22  41  70  98 124 173 216 269 332 381
#     4  10  21  39  66  98 125 159 217 275 325 376
#     4   9  20  39  66  99 124 162 211 275 324 377
#     4  11  24  45  66  93 134 176 219 264 319 391
#     4  10  23  44  64  94 137 172 216 267 320 392
#     4  11  23  41  66  92 130 174 214 271 330 382
#     4   9  22  42  61  96 126 160 216 272 319 377
#
# _framework density 20.271312000000002
#
# number of rings (size 3 to 8) (size 9 to 14) (size 15 to 20)
#    0.750    0.750    3.750    1.125    1.750    3.000 
#    4.500    0.000    0.000    0.000    0.000    0.000 
#    0.000    0.000    0.000    0.000    0.000    0.000 
#
# Total GULP energy -198268.447618 kJ/mol
# GULP energy per Si atom -12391.777976 kJ/mol
# Density = 2.022517 g / cm^3
# Si number density = 20.271312 Si / 1000 Ang^3
#
#
#
# Elastic Constant Matrix: (Units=GPa)
#
#
# Indices 1 2 3 4 5 6 
#
# 1 117.9745 26.4962 38.9437 9.0149 12.5466 -12.8008
# 2 26.4962 68.1873 26.4785 15.3193 10.2024 -7.6949
# 3 38.9437 26.4785 116.0665 16.5360 10.1162 -11.2253
# 4 9.0149 15.3193 16.5360 22.0064 -0.4156 -7.5899
# 5 12.5466 10.2024 10.1162 -0.4156 33.6238 2.0690
# 6 -12.8008 -7.6949 -11.2253 -7.5899 2.0690 19.5934
#
#
#
# Elastic Compliance Matrix: (Units=1/GPa)
#
#
# Indices 1 2 3 4 5 6 
#
# 1 0.010602 -0.002369 -0.002383 0.000858 -0.002833 0.005262
# 2 -0.002369 0.019555 -0.001525 -0.011078 -0.004818 0.001475
# 3 -0.002383 -0.001525 0.010943 -0.005458 -0.002145 0.002226
# 4 0.000858 -0.011078 -0.005458 0.062834 0.004416 0.016957
# 5 -0.002833 -0.004818 -0.002145 0.004416 0.033377 -0.006786
# 6 0.005262 0.001475 0.002226 0.016957 -0.006786 0.063615
#
#
# Mechanical properties :
#
#
# Convention : Reuss Voigt Hill
#
# Bulk Modulus (GPa) = 35.03314 54.00726 44.52020
# Shear Modulus (GPa) = 22.42183 29.06538 25.74360
#
# Velocity S-wave (km/s) = 3.32940 3.79069 3.56751
# Velocity P-wave (km/s) = 5.66564 6.77194 6.24334
#
# Compressibility (1/GPa) = 0.02854440
#
# Stress axis : x y z
#
# Youngs Moduli (GPa) = 94.32228 51.13861 91.38218
#
# Poissons Ratio (x) = 0.12117 0.21778
# Poissons Ratio (y) = 0.22348 0.13937
# Poissons Ratio (z) = 0.22478 0.07799
#
# Static dielectric constant tensor:
#      x y z
#    x 3.875990 -0.030960 0.203750 
#    y -0.030960 3.400200 -0.043430 
#    z 0.203750 -0.043430 3.744970 
# 
# 
# High freq. dielectric constant tensor:
#      x y z
#    x 1.804440 -0.006440 0.015660 
#    y -0.006440 1.770400 -0.004860 
#    z 0.015660 -0.004860 1.791670 
# 
# From -- ./inp_files/523886.got.cif
#   From: 2010.06.25/outbox.cif.g09.slc.cpg/sg2_262_cif.got.tgz:523886.got - 2010.06.27 13:26:56.
