data_PCOD8012838
_publ_section_title
;
Structure prediction by ZEFSAII (Michael W. Deem and Ramdas Pophale) SiO2 
 PCOD8012838
Probable space group: P -1
;
_chemical_formula_sum "Si O2"
_cell_formula_units_Z 16
_cell_length_a 10.764807
_cell_length_b 8.355349
_cell_length_c 11.795024
_cell_angle_alpha 124.702526
_cell_angle_beta 113.226759
_cell_angle_gamma 58.295706
_cell_volume 735.121138
_symmetry_space_group_name_H-M "P -1"
_symmetry_group_IT_number 2
_symmetry_cell_setting 'triclinic'
loop_
_space_group_symop_operation_xyz
x,y,z
-x,-y,-z
loop_
_atom_site_type_symbol
_atom_site_label
_atom_site_fract_x
_atom_site_fract_y
_atom_site_fract_z
Si Si1 0.346517 0.538730 0.584940
Si Si2 0.255186 0.632393 0.844613
Si Si3 0.714889 0.986998 0.887454
Si Si4 0.086160 0.252287 0.936983
Si Si5 0.051119 0.068328 0.231246
Si Si6 0.217630 0.242118 0.747220
Si Si7 0.022631 0.788119 0.490405
Si Si8 0.480669 0.835002 0.651028
O O1 0.321272 0.542380 0.710462
O O2 0.446090 0.670016 0.650873
O O3 0.431857 0.293231 0.479405
O O4 0.194863 0.637586 0.498859
O O5 0.274791 0.431464 0.849452
O O6 0.083196 0.784421 0.836455
O O7 0.335988 0.772462 0.985842
O O8 0.796448 0.968302 0.789204
O O9 0.572363 0.937427 0.798283
O O10 0.819105 0.813713 0.942195
O O11 0.196105 0.169675 0.836396
O O12 0.963591 0.154689 0.847562
O O13 0.000000 0.500000 0.000000
O O14 0.048233 0.170007 0.393567
O O15 0.063740 0.329861 0.657224
O O16 0.331794 0.032319 0.640200
O O17 0.000000 0.000000 0.500000
#
# Coordination Sequence:
#
# PCOD8012838 Si02
#       8
#     2   2   2   2   2   2   2   2
#     4  10  24  45  65  95 131 175 216 264 328 387
#     4  10  23  42  66  93 131 168 220 272 314 384
#     4  11  24  42  65  94 135 174 210 264 332 388
#     4  11  22  39  67  97 128 166 223 271 315 377
#     4  10  21  40  63  97 129 166 216 270 323 378
#     4  12  24  41  68  99 130 168 219 271 321 381
#     4  11  21  41  71  95 126 167 222 274 314 376
#     4  11  25  43  65  95 132 175 216 259 333 392
#
# _framework density 21.76512
#
# number of rings (size 3 to 8) (size 9 to 14) (size 15 to 20)
#    0.000    1.250    2.500    4.500    5.250    4.000 
#    0.000    0.000    0.000    0.000    0.000    0.000 
#    0.000    0.000    0.000    0.000    0.000    0.000 
#
# Total GULP energy -198459.943724 kJ/mol
# GULP energy per Si atom -12403.746483 kJ/mol
# Density = 2.171558 g / cm^3
# Si number density = 21.765120 Si / 1000 Ang^3
#
#
#
# Elastic Constant Matrix: (Units=GPa)
#
#
# Indices 1 2 3 4 5 6 
#
# 1 109.0539 44.4556 54.0571 -1.0412 1.9797 -1.6743
# 2 44.4556 83.5697 33.4077 24.8837 -6.1178 7.6851
# 3 54.0571 33.4077 100.7636 11.8643 6.6438 -1.5023
# 4 -1.0412 24.8837 11.8643 35.0197 3.2864 -4.6477
# 5 1.9797 -6.1178 6.6438 3.2864 41.0161 8.0552
# 6 -1.6743 7.6851 -1.5023 -4.6477 8.0552 30.7973
#
#
#
# Elastic Compliance Matrix: (Units=1/GPa)
#
#
# Indices 1 2 3 4 5 6 
#
# 1 0.017043 -0.010569 -0.006668 0.011367 -0.003376 0.005837
# 2 -0.010569 0.026151 -0.001300 -0.020955 0.008779 -0.012622
# 3 -0.006668 -0.001300 0.014538 -0.003928 -0.002032 0.000610
# 4 0.011367 -0.020955 -0.003928 0.048106 -0.009939 0.015515
# 5 -0.003376 0.008779 -0.002032 -0.009939 0.029262 -0.011627
# 6 0.005837 -0.012622 0.000610 0.015515 -0.011627 0.041350
#
#
# Mechanical properties :
#
#
# Convention : Reuss Voigt Hill
#
# Bulk Modulus (GPa) = 48.40710 61.91421 55.16066
# Shear Modulus (GPa) = 22.68510 32.13107 27.40809
#
# Velocity S-wave (km/s) = 3.23192 3.84639 3.55246
# Velocity P-wave (km/s) = 6.01798 6.94511 6.49810
#
# Compressibility (1/GPa) = 0.02065812
#
# Stress axis : x y z
#
# Youngs Moduli (GPa) = 58.67544 38.23929 68.78629
#
# Poissons Ratio (x) = 0.40417 0.45864
# Poissons Ratio (y) = 0.62016 0.08941
# Poissons Ratio (z) = 0.39123 0.04970
#
# Static dielectric constant tensor:
#      x y z
#    x 4.107480 0.063520 -0.015430 
#    y 0.063520 3.794530 0.123630 
#    z -0.015430 0.123630 4.046940 
# 
# 
# High freq. dielectric constant tensor:
#      x y z
#    x 1.861190 0.012160 -0.003640 
#    y 0.012160 1.844910 0.016080 
#    z -0.003640 0.016080 1.858090 
# 
# From -- ./inp_files/420098.got.cif
#   From: 2010.06.25/outbox.cif.g09.slc.cpg/sg2_211_cif.got.tgz:420098.got - 2010.06.27 13:26:56.
