data_PCOD8012568
_publ_section_title
;
Structure prediction by ZEFSAII (Michael W. Deem and Ramdas Pophale) SiO2 
 PCOD8012568
Probable space group: P -1
;
_chemical_formula_sum "Si O2"
_cell_formula_units_Z 16
_cell_length_a 9.171595
_cell_length_b 15.716045
_cell_length_c 12.897682
_cell_angle_alpha 128.359198
_cell_angle_beta 116.225221
_cell_angle_gamma 106.796210
_cell_volume 783.460783
_symmetry_space_group_name_H-M "P -1"
_symmetry_group_IT_number 2
_symmetry_cell_setting 'triclinic'
loop_
_space_group_symop_operation_xyz
x,y,z
-x,-y,-z
loop_
_atom_site_type_symbol
_atom_site_label
_atom_site_fract_x
_atom_site_fract_y
_atom_site_fract_z
Si Si1 0.400000 0.996578 0.761313
Si Si2 0.288481 0.875457 0.247401
Si Si3 0.812987 0.322949 0.447239
Si Si4 0.615330 0.321298 0.186854
Si Si5 0.962295 0.477127 0.832314
Si Si6 0.882960 0.829878 0.379608
Si Si7 0.378996 0.594814 0.178980
Si Si8 0.228286 0.296724 0.973876
O O1 0.336059 0.872543 0.735011
O O2 0.109984 0.878681 0.539924
O O3 0.567342 0.029722 0.746321
O O4 0.570909 0.188040 0.005852
O O5 0.069966 0.854161 0.183770
O O6 0.500000 0.000000 0.500000
O O7 0.150407 0.683837 0.057901
O O8 0.629897 0.298611 0.295368
O O9 0.112632 0.470573 0.604348
O O10 0.841491 0.399070 0.622115
O O11 0.368629 0.271946 0.056634
O O12 0.702626 0.346022 0.729331
O O13 0.149221 0.473647 0.922521
O O14 0.673555 0.758115 0.346140
O O15 0.750435 0.699031 0.141609
O O16 0.000000 0.000000 0.500000
O O17 0.374723 0.490727 0.178569
#
# Coordination Sequence:
#
# PCOD8012568 Si02
#       8
#     2   2   2   2   2   2   2   2
#     4  12  23  41  67  93 125 166 211 253 316 379
#     4  11  23  39  62  97 131 165 196 253 325 381
#     4  11  24  42  69  87 119 177 212 259 305 363
#     4  11  24  45  64  90 126 160 223 263 301 359
#     4  10  21  40  61  90 130 164 205 254 311 379
#     4  12  21  33  59  92 125 154 196 258 318 365
#     4  10  22  35  60  92 122 159 202 252 317 386
#     4  11  22  39  60  91 126 161 201 260 313 369
#
# _framework density 20.422208000000001
#
# number of rings (size 3 to 8) (size 9 to 14) (size 15 to 20)
#    0.000    1.000    3.750    3.750    3.500    0.000 
#    0.000    3.125    2.750    0.000    0.000    0.000 
#    0.000    0.000    0.000    0.000    0.000    0.000 
#
# Total GULP energy -198330.615407 kJ/mol
# GULP energy per Si atom -12395.663463 kJ/mol
# Density = 2.037573 g / cm^3
# Si number density = 20.422208 Si / 1000 Ang^3
#
#
#
# Elastic Constant Matrix: (Units=GPa)
#
#
# Indices 1 2 3 4 5 6 
#
# 1 108.3288 61.9660 43.2345 -2.7167 26.0172 10.6436
# 2 61.9660 134.7279 43.2238 -6.9968 19.2637 2.6632
# 3 43.2345 43.2238 75.5089 -15.2153 8.3452 0.7819
# 4 -2.7167 -6.9968 -15.2153 41.0177 5.4019 -1.9479
# 5 26.0172 19.2637 8.3452 5.4019 35.8560 8.4119
# 6 10.6436 2.6632 0.7819 -1.9479 8.4119 34.1302
#
#
#
# Elastic Compliance Matrix: (Units=1/GPa)
#
#
# Indices 1 2 3 4 5 6 
#
# 1 0.016187 -0.004471 -0.006135 -0.001173 -0.007062 -0.002885
# 2 -0.004471 0.010861 -0.003287 0.000686 -0.002212 0.001207
# 3 -0.006135 -0.003287 0.019913 0.006501 0.000122 0.002055
# 4 -0.001173 0.000686 0.006501 0.027770 -0.005969 0.003220
# 5 -0.007062 -0.002212 0.000122 -0.005969 0.036720 -0.007019
# 6 -0.002885 0.001207 0.002055 0.003220 -0.007019 0.031972
#
#
# Mechanical properties :
#
#
# Convention : Reuss Voigt Hill
#
# Bulk Modulus (GPa) = 52.15029 68.37936 60.26482
# Shear Modulus (GPa) = 28.15284 33.54352 30.84818
#
# Velocity S-wave (km/s) = 3.71690 4.05718 3.89076
# Velocity P-wave (km/s) = 6.63415 7.45004 7.05390
#
# Compressibility (1/GPa) = 0.01917535
#
# Stress axis : x y z
#
# Youngs Moduli (GPa) = 61.77671 92.06866 50.21745
#
# Poissons Ratio (x) = 0.41164 0.30809
# Poissons Ratio (y) = 0.27620 0.16508
# Poissons Ratio (z) = 0.37901 0.30265
#
# Static dielectric constant tensor:
#      x y z
#    x 3.412420 0.030070 0.080430 
#    y 0.030070 3.836240 0.074950 
#    z 0.080430 0.074950 3.620510 
# 
# 
# High freq. dielectric constant tensor:
#      x y z
#    x 1.802400 0.000100 0.001010 
#    y 0.000100 1.805950 0.012060 
#    z 0.001010 0.012060 1.782980 
# 
# From -- ./inp_files/223845.got.cif
#   From: 2010.06.25/outbox.cif.g09.slc.cpg/sg2_112_cif.got.tgz:223845.got - 2010.06.27 13:26:56.
