data_PCOD8012874
_publ_section_title
;
Structure prediction by ZEFSAII (Michael W. Deem and Ramdas Pophale) SiO2 
 PCOD8012874
Probable space group: P -1
;
_chemical_formula_sum "Si O2"
_cell_formula_units_Z 12
_cell_length_a 12.921463
_cell_length_b 11.389902
_cell_length_c 8.935580
_cell_angle_alpha 66.195440
_cell_angle_beta 104.274415
_cell_angle_gamma 48.967222
_cell_volume 609.286102
_symmetry_space_group_name_H-M "P -1"
_symmetry_group_IT_number 2
_symmetry_cell_setting 'triclinic'
loop_
_space_group_symop_operation_xyz
x,y,z
-x,-y,-z
loop_
_atom_site_type_symbol
_atom_site_label
_atom_site_fract_x
_atom_site_fract_y
_atom_site_fract_z
Si Si1 0.217206 0.427196 0.031005
Si Si2 0.325663 0.618762 0.276906
Si Si3 0.589954 0.166922 0.416751
Si Si4 0.969956 0.856040 0.196754
Si Si5 0.030616 0.119538 0.471406
Si Si6 0.122871 0.248731 0.020867
O O1 0.459062 0.191537 0.272411
O O2 0.097087 0.535281 0.089212
O O3 0.180098 0.338057 0.964013
O O4 0.141209 0.630543 0.812259
O O5 0.500000 0.500000 0.500000
O O6 0.425832 0.440236 0.268265
O O7 0.190942 0.663260 0.308265
O O8 0.186492 0.868733 0.024778
O O9 0.744911 0.072817 0.405305
O O10 0.705742 0.990853 0.690700
O O11 0.993891 0.808546 0.404948
O O12 0.884612 0.815519 0.107508
O O13 0.000000 0.000000 0.500000
#
# Coordination Sequence:
#
# PCOD8012874 Si02
#       6
#     2   2   2   2   2   2
#     4  10  22  41  62  87 122 162 196 245 301 355
#     4  11  21  36  62  89 117 155 202 244 291 350
#     4  11  21  40  64  89 116 160 203 242 296 359
#     4  11  23  38  60  91 122 154 199 249 296 351
#     4  11  25  40  59  90 127 156 193 248 308 352
#     4  10  21  40  64  89 118 157 206 247 291 351
#
# _framework density 19.695181999999999
#
# number of rings (size 3 to 8) (size 9 to 14) (size 15 to 20)
#    0.000    1.333    3.333    2.500    4.667    4.667 
#    0.000    0.833    0.000    0.000    0.000    0.000 
#    0.000    0.000    0.000    0.000    0.000    0.000 
#
# Total GULP energy -148847.349389 kJ/mol
# GULP energy per Si atom -12403.945782 kJ/mol
# Density = 1.965035 g / cm^3
# Si number density = 19.695182 Si / 1000 Ang^3
#
#
#
# Elastic Constant Matrix: (Units=GPa)
#
#
# Indices 1 2 3 4 5 6 
#
# 1 118.4536 39.1173 40.0283 7.0348 18.4353 20.2840
# 2 39.1173 98.3861 13.8842 10.2726 9.7191 10.5166
# 3 40.0283 13.8842 46.4007 7.1561 30.6297 4.0737
# 4 7.0348 10.2726 7.1561 34.3016 -0.4406 4.6489
# 5 18.4353 9.7191 30.6297 -0.4406 31.9031 -5.8093
# 6 20.2840 10.5166 4.0737 4.6489 -5.8093 33.2656
#
#
#
# Elastic Compliance Matrix: (Units=1/GPa)
#
#
# Indices 1 2 3 4 5 6 
#
# 1 0.014914 -0.004094 -0.016943 0.002437 0.008082 -0.004654
# 2 -0.004094 0.012428 0.005286 -0.003697 -0.007055 -0.002795
# 3 -0.016943 0.005286 0.096471 -0.017184 -0.087599 -0.016050
# 4 0.002437 -0.003697 -0.017184 0.033558 0.016682 0.000011
# 5 0.008082 -0.007055 -0.087599 0.016682 0.117945 0.026295
# 6 -0.004654 -0.002795 -0.016050 0.000011 0.026295 0.040339
#
#
# Mechanical properties :
#
#
# Convention : Reuss Voigt Hill
#
# Bulk Modulus (GPa) = 10.83308 49.92222 30.37765
# Shear Modulus (GPa) = 13.23009 31.24145 22.23577
#
# Velocity S-wave (km/s) = 2.59461 3.98709 3.36370
# Velocity P-wave (km/s) = 3.80635 6.82630 5.52660
#
# Compressibility (1/GPa) = 0.09230984
#
# Stress axis : x y z
#
# Youngs Moduli (GPa) = 67.05138 80.46647 10.36585
#
# Poissons Ratio (x) = 0.32943 0.17563
# Poissons Ratio (y) = 0.27451 -0.05479
# Poissons Ratio (z) = 1.13605 -0.42533
#
# Static dielectric constant tensor:
#      x y z
#    x 3.868900 0.202910 0.239540 
#    y 0.202910 3.683870 -0.073540 
#    z 0.239540 -0.073540 3.355670 
# 
# 
# High freq. dielectric constant tensor:
#      x y z
#    x 1.772240 0.012290 0.016240 
#    y 0.012290 1.765170 -0.005950 
#    z 0.016240 -0.005950 1.771590 
# 
# From -- ./inp_files/19244.got.cif
#   From: 2010.06.25/outbox.cif.g09.slc.cpg/sg2_10_cif.got.tgz:19244.got - 2010.06.27 13:26:56.
