data_PCOD8012051
_publ_section_title
;
Structure prediction by ZEFSAII (Michael W. Deem and Ramdas Pophale) SiO2 
 PCOD8012051
Probable space group: P -1
;
_chemical_formula_sum "Si O2"
_cell_formula_units_Z 16
_cell_length_a 14.119862
_cell_length_b 13.304293
_cell_length_c 8.573127
_cell_angle_alpha 90.780981
_cell_angle_beta 117.034168
_cell_angle_gamma 140.919017
_cell_volume 685.236489
_symmetry_space_group_name_H-M "P -1"
_symmetry_group_IT_number 2
_symmetry_cell_setting 'triclinic'
loop_
_space_group_symop_operation_xyz
x,y,z
-x,-y,-z
loop_
_atom_site_type_symbol
_atom_site_label
_atom_site_fract_x
_atom_site_fract_y
_atom_site_fract_z
Si Si1 0.027210 0.238936 0.172726
Si Si2 0.306993 0.301441 0.457656
Si Si3 0.758522 0.249720 0.503377
Si Si4 0.964390 0.617245 0.542020
Si Si5 0.328114 0.963044 0.306031
Si Si6 0.767480 0.763347 0.264620
Si Si7 0.359807 0.546404 0.930707
Si Si8 0.449952 0.684553 0.341632
O O1 0.071619 0.155013 0.222086
O O2 0.953978 0.224053 0.284115
O O3 0.256982 0.484321 0.305800
O O4 0.837088 0.096643 0.900635
O O5 0.500000 0.500000 0.500000
O O6 0.356352 0.378200 0.673344
O O7 0.322263 0.192814 0.465771
O O8 0.902283 0.470803 0.601610
O O9 0.811013 0.237279 0.707649
O O10 0.826710 0.234328 0.410409
O O11 0.492362 0.050790 0.300990
O O12 0.746608 0.467190 0.275698
O O13 0.483443 0.148443 0.553771
O O14 0.786803 0.679581 0.169448
O O15 0.611222 0.721069 0.072020
O O16 0.000000 0.000000 0.500000
O O17 0.361027 0.606730 0.096350
#
# Coordination Sequence:
#
# PCOD8012051 Si02
#       8
#     2   2   2   2   2   2   2   2
#     4  11  22  41  71  94 134 170 216 272 334 395
#     4   9  20  39  64  98 132 168 208 258 319 403
#     4  10  25  46  65  95 129 168 233 279 328 391
#     4  11  22  45  69  97 129 171 220 279 337 378
#     4  11  24  46  66  96 130 174 223 275 331 391
#     4  10  21  39  66 102 134 171 217 261 324 395
#     4  10  22  41  68  94 138 175 210 269 328 394
#     4  10  22  43  66  96 136 178 213 261 329 402
#
# _framework density 23.349603999999999
#
# number of rings (size 3 to 8) (size 9 to 14) (size 15 to 20)
#    0.000    1.750    2.500    0.750    0.000    6.500 
#   11.250    0.000    0.000    0.000    0.000    0.000 
#    0.000    0.000    0.000    0.000    0.000    0.000 
#
# Total GULP energy -198249.922398 kJ/mol
# GULP energy per Si atom -12390.620150 kJ/mol
# Density = 2.329646 g / cm^3
# Si number density = 23.349604 Si / 1000 Ang^3
#
#
#
# Elastic Constant Matrix: (Units=GPa)
#
#
# Indices 1 2 3 4 5 6 
#
# 1 113.0679 27.9416 46.8083 0.9475 -0.9030 9.4721
# 2 27.9416 66.2866 21.7920 -2.1854 -4.2112 15.0668
# 3 46.8083 21.7920 122.4442 -1.2352 0.0823 -6.3830
# 4 0.9475 -2.1854 -1.2352 32.8175 -2.7717 0.7072
# 5 -0.9030 -4.2112 0.0823 -2.7717 31.2841 -5.2139
# 6 9.4721 15.0668 -6.3830 0.7072 -5.2139 30.3142
#
#
#
# Elastic Compliance Matrix: (Units=1/GPa)
#
#
# Indices 1 2 3 4 5 6 
#
# 1 0.011491 -0.002866 -0.004051 -0.000660 -0.000620 -0.003110
# 2 -0.002866 0.019440 -0.002829 0.001566 0.001147 -0.009202
# 3 -0.004051 -0.002829 0.010478 0.000244 0.000317 0.004927
# 4 -0.000660 0.001566 0.000244 0.030857 0.002798 -0.000759
# 5 -0.000620 0.001147 0.000317 0.002798 0.033239 0.005342
# 6 -0.003110 -0.009202 0.004927 -0.000759 0.005342 0.040507
#
#
# Mechanical properties :
#
#
# Convention : Reuss Voigt Hill
#
# Bulk Modulus (GPa) = 45.62642 54.98693 50.30668
# Shear Modulus (GPa) = 28.93361 32.56694 30.75027
#
# Velocity S-wave (km/s) = 3.52397 3.73869 3.63292
# Velocity P-wave (km/s) = 6.01172 6.49905 6.26013
#
# Compressibility (1/GPa) = 0.02191713
#
# Stress axis : x y z
#
# Youngs Moduli (GPa) = 87.02696 51.43997 95.43667
#
# Poissons Ratio (x) = 0.14743 0.38661
# Poissons Ratio (y) = 0.24943 0.26998
# Poissons Ratio (z) = 0.35254 0.14552
#
# Static dielectric constant tensor:
#      x y z
#    x 4.720140 0.205020 0.409860 
#    y 0.205020 4.046990 -0.453880 
#    z 0.409860 -0.453880 3.675450 
# 
# 
# High freq. dielectric constant tensor:
#      x y z
#    x 1.944060 0.008670 0.016930 
#    y 0.008670 1.904950 -0.020660 
#    z 0.016930 -0.020660 1.902730 
# 
# From -- ./inp_files/313424.got.cif
#   From: 2010.06.25/outbox.cif.g09.slc.cpg/sg2_157_cif.got.tgz:313424.got - 2010.06.27 13:26:56.
