data_PCOD8012756
_publ_section_title
;
Structure prediction by ZEFSAII (Michael W. Deem and Ramdas Pophale) SiO2 
 PCOD8012756
Probable space group: P -1
;
_chemical_formula_sum "Si O2"
_cell_formula_units_Z 16
_cell_length_a 14.076876
_cell_length_b 7.683042
_cell_length_c 16.764118
_cell_angle_alpha 80.151001
_cell_angle_beta 150.392498
_cell_angle_gamma 116.545269
_cell_volume 697.590715
_symmetry_space_group_name_H-M "P -1"
_symmetry_group_IT_number 2
_symmetry_cell_setting 'triclinic'
loop_
_space_group_symop_operation_xyz
x,y,z
-x,-y,-z
loop_
_atom_site_type_symbol
_atom_site_label
_atom_site_fract_x
_atom_site_fract_y
_atom_site_fract_z
Si Si1 0.276074 0.011232 0.208359
Si Si2 0.329725 0.366853 0.812757
Si Si3 0.764807 0.086332 0.210829
Si Si4 0.202774 0.325206 0.196230
Si Si5 0.416218 0.150310 0.592580
Si Si6 0.438018 0.258925 0.152235
Si Si7 0.179098 0.807010 0.577029
Si Si8 0.002116 0.141171 0.227246
O O1 0.469718 0.960500 0.359228
O O2 0.287251 0.162627 0.276265
O O3 0.305421 0.172366 0.146033
O O4 0.014539 0.773964 0.019139
O O5 0.233788 0.118955 0.756279
O O6 0.488278 0.501875 0.838643
O O7 0.088344 0.351925 0.644493
O O8 0.500000 0.500000 0.000000
O O9 0.848634 0.208912 0.346478
O O10 0.960262 0.235311 0.270094
O O11 0.500000 0.000000 0.000000
O O12 0.408177 0.580027 0.300933
O O13 0.113105 0.320347 0.221581
O O14 0.173610 0.068735 0.374868
O O15 0.343943 0.057921 0.638153
O O16 0.691614 0.300247 0.342782
O O17 0.266698 0.078763 0.973055
#
# Coordination Sequence:
#
# PCOD8012756 Si02
#       8
#     2   2   2   2   2   2   2   2
#     4   9  22  41  64  94 127 166 226 278 326 400
#     4  12  22  39  63  93 128 171 216 271 331 394
#     4  12  24  42  62  93 134 174 216 271 330 398
#     4  10  22  42  65  93 130 173 219 275 335 395
#     4  11  22  40  67  95 129 173 218 274 338 390
#     4  10  21  40  63  89 128 167 213 276 332 386
#     4  11  23  40  65  94 130 171 219 272 329 405
#     4  11  22  42  62  91 136 168 218 278 323 397
#
# _framework density 22.936084999999999
#
# number of rings (size 3 to 8) (size 9 to 14) (size 15 to 20)
#    0.000    1.250    3.750    1.500    1.750    0.500 
#    0.000    2.500    0.000    0.000    0.000    0.000 
#    0.000    0.000    0.000    0.000    0.000    0.000 
#
# Total GULP energy -198209.489497 kJ/mol
# GULP energy per Si atom -12388.093094 kJ/mol
# Density = 2.288388 g / cm^3
# Si number density = 22.936085 Si / 1000 Ang^3
#
#
#
# Elastic Constant Matrix: (Units=GPa)
#
#
# Indices 1 2 3 4 5 6 
#
# 1 91.7842 22.2151 25.4763 2.2939 4.3826 17.9760
# 2 22.2151 81.1953 19.6067 8.7211 3.2809 21.3549
# 3 25.4763 19.6067 122.9586 -20.5114 16.7363 0.0300
# 4 2.2939 8.7211 -20.5114 34.5457 -2.2770 11.1016
# 5 4.3826 3.2809 16.7363 -2.2770 27.2109 -4.5576
# 6 17.9760 21.3549 0.0300 11.1016 -4.5576 33.4749
#
#
#
# Elastic Compliance Matrix: (Units=1/GPa)
#
#
# Indices 1 2 3 4 5 6 
#
# 1 0.013194 -0.001285 -0.002291 0.000072 -0.001645 -0.006511
# 2 -0.001285 0.015958 -0.002464 -0.002686 -0.001910 -0.008857
# 3 -0.002291 -0.002464 0.010915 0.006979 -0.005509 -0.000272
# 4 0.000072 -0.002686 0.006979 0.037124 -0.002718 -0.011013
# 5 -0.001645 -0.001910 -0.005509 -0.002718 0.041864 0.008708
# 6 -0.006511 -0.008857 -0.000272 -0.011013 0.008708 0.043858
#
#
# Mechanical properties :
#
#
# Convention : Reuss Voigt Hill
#
# Bulk Modulus (GPa) = 35.73386 47.83714 41.78550
# Shear Modulus (GPa) = 27.12626 34.28897 30.70761
#
# Velocity S-wave (km/s) = 3.44276 3.87069 3.66298
# Velocity P-wave (km/s) = 5.60509 6.39362 6.01229
#
# Compressibility (1/GPa) = 0.02798466
#
# Stress axis : x y z
#
# Youngs Moduli (GPa) = 75.79101 62.66534 91.62095
#
# Poissons Ratio (x) = 0.08055 0.20992
# Poissons Ratio (y) = 0.09743 0.22577
# Poissons Ratio (z) = 0.17365 0.15442
#
# Static dielectric constant tensor:
#      x y z
#    x 4.420670 0.235240 0.333870 
#    y 0.235240 4.365210 -0.216070 
#    z 0.333870 -0.216070 4.252610 
# 
# 
# High freq. dielectric constant tensor:
#      x y z
#    x 1.900020 0.023100 0.019390 
#    y 0.023100 1.897840 -0.009100 
#    z 0.019390 -0.009100 1.911340 
# 
# From -- ./inp_files/206082.got.cif
#   From: 2010.06.25/outbox.cif.g09.slc.cpg/sg2_104_cif.got.tgz:206082.got - 2010.06.27 13:26:56.
