data_PCOD8012980
_publ_section_title
;
Structure prediction by ZEFSAII (Michael W. Deem and Ramdas Pophale) SiO2 
 PCOD8012980
Probable space group: P -1
;
_chemical_formula_sum "Si O2"
_cell_formula_units_Z 16
_cell_length_a 17.081719
_cell_length_b 11.366704
_cell_length_c 19.481583
_cell_angle_alpha 35.257284
_cell_angle_beta 21.576192
_cell_angle_gamma 33.037762
_cell_volume 745.340275
_symmetry_space_group_name_H-M "P -1"
_symmetry_group_IT_number 2
_symmetry_cell_setting 'triclinic'
loop_
_space_group_symop_operation_xyz
x,y,z
-x,-y,-z
loop_
_atom_site_type_symbol
_atom_site_label
_atom_site_fract_x
_atom_site_fract_y
_atom_site_fract_z
Si Si1 0.190524 0.997879 0.565237
Si Si2 0.424674 0.601142 0.705434
Si Si3 0.298961 0.190658 0.759393
Si Si4 0.897246 0.622671 0.307341
Si Si5 0.891345 0.860073 0.582620
Si Si6 0.368295 0.882974 0.207624
Si Si7 0.992976 0.963254 0.160642
Si Si8 0.790409 0.453863 0.227132
O O1 0.446555 0.930839 0.420258
O O2 0.123534 0.791422 0.694121
O O3 0.167750 0.152587 0.443824
O O4 0.030369 0.113058 0.706000
O O5 0.637033 0.669563 0.518594
O O6 0.466923 0.370240 0.817600
O O7 0.404247 0.545925 0.668403
O O8 0.199052 0.801909 0.816643
O O9 0.109925 0.317641 0.795728
O O10 0.325581 0.365029 0.708142
O O11 0.228879 0.004340 0.942152
O O12 0.997211 0.775626 0.194655
O O13 0.056143 0.371722 0.312026
O O14 0.110752 0.931113 0.368841
O O15 0.671870 0.034337 0.719138
O O16 0.500000 0.000000 0.000000
O O17 0.000000 0.500000 0.000000
#
# Coordination Sequence:
#
# PCOD8012980 Si02
#       8
#     2   2   2   2   2   2   2   2
#     4  11  24  41  63  92 130 168 207 270 310 383
#     4  10  21  40  64  96 121 167 206 262 320 369
#     4  12  23  39  67  96 122 166 216 266 320 366
#     4  11  24  44  64  93 129 172 213 261 312 379
#     4  10  25  41  61  93 131 170 209 254 323 378
#     4  10  23  39  62  92 131 168 206 255 322 387
#     4  11  24  43  66  92 128 166 221 263 309 368
#     4  11  21  36  62  93 126 158 205 261 323 363
#
# _framework density 21.466705999999999
#
# number of rings (size 3 to 8) (size 9 to 14) (size 15 to 20)
#    0.000    1.250    5.000    1.875    8.750    1.500 
#    0.000    0.625    0.000    0.000    0.000    0.000 
#    0.000    0.000    0.000    0.000    0.000    0.000 
#
# Total GULP energy -198294.731449 kJ/mol
# GULP energy per Si atom -12393.420716 kJ/mol
# Density = 2.141785 g / cm^3
# Si number density = 21.466706 Si / 1000 Ang^3
#
#
#
# Elastic Constant Matrix: (Units=GPa)
#
#
# Indices 1 2 3 4 5 6 
#
# 1 70.3245 9.1500 14.2683 -9.8132 -0.7625 -3.4732
# 2 9.1500 50.2294 21.3221 -8.2058 -2.8796 1.7902
# 3 14.2683 21.3221 93.3844 -4.9388 10.2761 6.4713
# 4 -9.8132 -8.2058 -4.9388 18.9110 5.4910 -2.2740
# 5 -0.7625 -2.8796 10.2761 5.4910 32.1804 -13.2577
# 6 -3.4732 1.7902 6.4713 -2.2740 -13.2577 34.0706
#
#
#
# Elastic Compliance Matrix: (Units=1/GPa)
#
#
# Indices 1 2 3 4 5 6 
#
# 1 0.015960 -0.000824 -0.002164 0.007440 0.000938 0.002943
# 2 -0.000824 0.023703 -0.005306 0.007755 0.003041 0.001379
# 3 -0.002164 -0.005306 0.013495 0.001578 -0.007256 -0.005223
# 4 0.007440 0.007755 0.001578 0.063560 -0.010373 0.000257
# 5 0.000938 0.003041 -0.007256 -0.010373 0.042531 0.017171
# 6 0.002943 0.001379 -0.005223 0.000257 0.017171 0.037269
#
#
# Mechanical properties :
#
#
# Convention : Reuss Voigt Hill
#
# Bulk Modulus (GPa) = 27.34589 33.71325 30.52957
# Shear Modulus (GPa) = 22.19301 28.31226 25.25263
#
# Velocity S-wave (km/s) = 3.21882 3.63559 3.43354
# Velocity P-wave (km/s) = 5.15566 5.77602 5.47463
#
# Compressibility (1/GPa) = 0.03656856
#
# Stress axis : x y z
#
# Youngs Moduli (GPa) = 62.65703 42.18825 74.10418
#
# Poissons Ratio (x) = 0.03478 0.16036
# Poissons Ratio (y) = 0.05165 0.39321
# Poissons Ratio (z) = 0.13559 0.22386
#
# Static dielectric constant tensor:
#      x y z
#    x 3.767400 -0.046110 0.002400 
#    y -0.046110 3.761480 -0.186660 
#    z 0.002400 -0.186660 3.907930 
# 
# 
# High freq. dielectric constant tensor:
#      x y z
#    x 1.830990 -0.001150 0.005700 
#    y -0.001150 1.819000 -0.009870 
#    z 0.005700 -0.009870 1.856060 
# 
# From -- ./inp_files/428107.got.cif
#   From: 2010.06.25/outbox.cif.g09.slc.cpg/sg2_215_cif.got.tgz:428107.got - 2010.06.27 13:26:56.
