data_PCOD8012123
_publ_section_title
;
Structure prediction by ZEFSAII (Michael W. Deem and Ramdas Pophale) SiO2 
 PCOD8012123
Probable space group: P -1
;
_chemical_formula_sum "Si O2"
_cell_formula_units_Z 16
_cell_length_a 16.295852
_cell_length_b 8.827920
_cell_length_c 9.253198
_cell_angle_alpha 76.421504
_cell_angle_beta 73.632306
_cell_angle_gamma 132.191820
_cell_volume 759.494914
_symmetry_space_group_name_H-M "P -1"
_symmetry_group_IT_number 2
_symmetry_cell_setting 'triclinic'
loop_
_space_group_symop_operation_xyz
x,y,z
-x,-y,-z
loop_
_atom_site_type_symbol
_atom_site_label
_atom_site_fract_x
_atom_site_fract_y
_atom_site_fract_z
Si Si1 0.480365 0.867247 0.318935
Si Si2 0.502444 0.228072 0.361452
Si Si3 0.760716 0.601346 0.653512
Si Si4 0.634631 0.739929 0.784715
Si Si5 0.241406 0.672990 0.053642
Si Si6 0.118403 0.749465 0.289311
Si Si7 0.184301 0.385034 0.897879
Si Si8 0.968186 0.839929 0.259393
O O1 0.525612 0.825279 0.441706
O O2 0.347157 0.604446 0.368240
O O3 0.446581 0.992907 0.361596
O O4 0.600243 0.037531 0.099735
O O5 0.420295 0.258985 0.334999
O O6 0.667437 0.488903 0.190604
O O7 0.727377 0.724034 0.702638
O O8 0.764101 0.489445 0.810273
O O9 0.909368 0.811657 0.449805
O O10 0.736159 0.009617 0.753256
O O11 0.500000 0.500000 0.000000
O O12 0.145092 0.669326 0.163714
O O13 0.191559 0.558920 0.941632
O O14 0.000000 0.500000 0.500000
O O15 0.064339 0.829224 0.229952
O O16 0.154330 0.376024 0.746392
O O17 0.061667 0.111708 0.091452
#
# Coordination Sequence:
#
# PCOD8012123 Si02
#       8
#     2   2   2   2   2   2   2   2
#     4  10  21  39  66  97 127 171 211 270 330 384
#     4  10  21  42  68  94 135 166 216 272 327 381
#     4  12  23  41  68  96 132 173 217 266 326 394
#     4  12  26  43  67 101 133 174 223 275 323 386
#     4  11  23  41  68  94 128 173 222 267 326 386
#     4  12  26  43  66  97 135 171 220 276 323 391
#     4  10  23  44  67  95 129 177 213 266 329 395
#     4  11  24  44  66  93 137 172 215 264 334 392
#
# _framework density 21.066631999999998
#
# number of rings (size 3 to 8) (size 9 to 14) (size 15 to 20)
#    0.000    1.000    2.500    4.875    1.750    2.000 
#    4.500    0.000    0.000    0.000    0.000    0.000 
#    0.000    0.000    0.000    0.000    0.000    0.000 
#
# Total GULP energy -198449.842357 kJ/mol
# GULP energy per Si atom -12403.115147 kJ/mol
# Density = 2.101868 g / cm^3
# Si number density = 21.066632 Si / 1000 Ang^3
#
#
#
# Elastic Constant Matrix: (Units=GPa)
#
#
# Indices 1 2 3 4 5 6 
#
# 1 93.7389 13.8119 15.6380 15.7161 -10.1194 0.4000
# 2 13.8119 80.5073 16.1872 0.9188 -8.6565 6.3216
# 3 15.6380 16.1872 109.6760 4.5027 -10.4473 -4.0638
# 4 15.7161 0.9188 4.5027 32.0123 -2.7778 -5.8147
# 5 -10.1194 -8.6565 -10.4473 -2.7778 32.5466 11.7528
# 6 0.4000 6.3216 -4.0638 -5.8147 11.7528 22.1947
#
#
#
# Elastic Compliance Matrix: (Units=1/GPa)
#
#
# Indices 1 2 3 4 5 6 
#
# 1 0.012542 -0.001097 -0.001119 -0.006330 0.004142 -0.003970
# 2 -0.001097 0.014115 -0.001656 -0.000490 0.005490 -0.007339
# 3 -0.001119 -0.001656 0.009761 -0.000399 0.001887 0.001176
# 4 -0.006330 -0.000490 -0.000399 0.036202 -0.003248 0.011385
# 5 0.004142 0.005490 0.001887 -0.003248 0.042750 -0.024781
# 6 -0.003970 -0.007339 0.001176 0.011385 -0.024781 0.063538
#
#
# Mechanical properties :
#
#
# Convention : Reuss Voigt Hill
#
# Bulk Modulus (GPa) = 34.87534 41.68850 38.28192
# Shear Modulus (GPa) = 25.48302 33.23639 29.35971
#
# Velocity S-wave (km/s) = 3.48176 3.97631 3.73722
# Velocity P-wave (km/s) = 5.72313 6.39635 6.06908
#
# Compressibility (1/GPa) = 0.02867356
#
# Stress axis : x y z
#
# Youngs Moduli (GPa) = 79.73465 70.84900 102.44539
#
# Poissons Ratio (x) = 0.07775 0.11463
# Poissons Ratio (y) = 0.08750 0.16961
# Poissons Ratio (z) = 0.08922 0.11730
#
# Static dielectric constant tensor:
#      x y z
#    x 4.420040 -0.105950 0.344460 
#    y -0.105950 4.129090 -0.085110 
#    z 0.344460 -0.085110 4.238620 
# 
# 
# High freq. dielectric constant tensor:
#      x y z
#    x 1.811970 0.007430 -0.000520 
#    y 0.007430 1.836560 -0.003030 
#    z -0.000520 -0.003030 1.844860 
# 
# From -- ./inp_files/205724.got.cif
#   From: 2010.06.25/outbox.cif.g09.slc.cpg/sg2_103_cif.got.tgz:205724.got - 2010.06.27 13:26:56.
