data_PCOD8012331
_publ_section_title
;
Structure prediction by ZEFSAII (Michael W. Deem and Ramdas Pophale) SiO2 
 PCOD8012331
Probable space group: P -1
;
_chemical_formula_sum "Si O2"
_cell_formula_units_Z 14
_cell_length_a 15.185337
_cell_length_b 11.504722
_cell_length_c 14.430350
_cell_angle_alpha 42.066185
_cell_angle_beta 150.840731
_cell_angle_gamma 116.104918
_cell_volume 633.717268
_symmetry_space_group_name_H-M "P -1"
_symmetry_group_IT_number 2
_symmetry_cell_setting 'triclinic'
loop_
_space_group_symop_operation_xyz
x,y,z
-x,-y,-z
loop_
_atom_site_type_symbol
_atom_site_label
_atom_site_fract_x
_atom_site_fract_y
_atom_site_fract_z
Si Si1 0.471489 0.127403 0.081223
Si Si2 0.905388 0.868852 0.337657
Si Si3 0.696447 0.348154 0.930490
Si Si4 0.194307 0.645693 0.258431
Si Si5 0.788630 0.106506 0.522663
Si Si6 0.118025 0.291559 0.399976
Si Si7 0.634422 0.443067 0.340427
O O1 0.613905 0.068416 0.342800
O O2 0.646699 0.958383 0.260921
O O3 0.266754 0.108078 0.912909
O O4 0.339670 0.387175 0.784073
O O5 0.944431 0.701788 0.553048
O O6 0.144758 0.786174 0.555621
O O7 0.787392 0.100979 0.143395
O O8 0.465012 0.526553 0.549445
O O9 0.622907 0.407104 0.936885
O O10 0.904673 0.357225 0.098871
O O11 0.145744 0.475201 0.293792
O O12 0.165624 0.697033 0.312448
O O13 0.029439 0.867470 0.914953
O O14 0.659529 0.272151 0.392328
#
# Coordination Sequence:
#
# PCOD8012331 Si02
#       7
#     2   2   2   2   2   2   2
#     4  12  22  41  69  97 129 163 220 267 314 371
#     4  12  22  41  68  98 125 164 224 266 306 378
#     4  10  21  39  69  91 122 171 218 250 316 382
#     4  10  24  44  66  91 134 172 208 258 325 387
#     4  12  27  41  64  99 137 162 209 271 324 365
#     4  12  20  42  71  96 123 172 216 264 315 382
#     4  10  22  47  64  90 134 175 208 258 317 393
#
# _framework density 22.091871000000001
#
# number of rings (size 3 to 8) (size 9 to 14) (size 15 to 20)
#    0.857    0.000    5.714    2.571    0.000    2.857 
#    2.571    0.714    0.000    0.000    0.000    0.000 
#    0.000    0.000    0.000    0.000    0.000    0.000 
#
# Total GULP energy -173513.840739 kJ/mol
# GULP energy per Si atom -12393.845767 kJ/mol
# Density = 2.204159 g / cm^3
# Si number density = 22.091871 Si / 1000 Ang^3
#
#
#
# Elastic Constant Matrix: (Units=GPa)
#
#
# Indices 1 2 3 4 5 6 
#
# 1 37.9310 22.0879 3.7957 0.9031 -6.8923 -8.8210
# 2 22.0879 127.9948 24.4282 25.4181 11.1386 -7.4032
# 3 3.7957 24.4282 42.3192 11.2437 -2.3246 6.4336
# 4 0.9031 25.4181 11.2437 34.4254 3.5192 2.5006
# 5 -6.8923 11.1386 -2.3246 3.5192 27.4369 0.4799
# 6 -8.8210 -7.4032 6.4336 2.5006 0.4799 19.3555
#
#
#
# Elastic Compliance Matrix: (Units=1/GPa)
#
#
# Indices 1 2 3 4 5 6 
#
# 1 0.035318 -0.006393 -0.001537 0.002201 0.010817 0.013609
# 2 -0.006393 0.012135 -0.005721 -0.006622 -0.006249 0.004640
# 3 -0.001537 -0.005721 0.030713 -0.005414 0.005452 -0.012533
# 4 0.002201 -0.006622 -0.005414 0.036146 -0.001777 -0.004356
# 5 0.010817 -0.006249 0.005452 -0.001777 0.042393 -0.000094
# 6 0.013609 0.004640 -0.012533 -0.004356 -0.000094 0.064373
#
#
# Mechanical properties :
#
#
# Convention : Reuss Voigt Hill
#
# Bulk Modulus (GPa) = 19.65990 34.31874 26.98932
# Shear Modulus (GPa) = 18.84414 26.77245 22.80830
#
# Velocity S-wave (km/s) = 2.92377 3.48497 3.21663
# Velocity P-wave (km/s) = 4.50737 5.63574 5.10284
#
# Compressibility (1/GPa) = 0.05086496
#
# Stress axis : x y z
#
# Youngs Moduli (GPa) = 28.31420 82.40610 32.55918
#
# Poissons Ratio (x) = 0.52680 0.05005
# Poissons Ratio (y) = 0.18100 0.18626
# Poissons Ratio (z) = 0.04353 0.47142
#
# Static dielectric constant tensor:
#      x y z
#    x 3.656300 -0.133510 0.035820 
#    y -0.133510 4.094800 0.288900 
#    z 0.035820 0.288900 3.855550 
# 
# 
# High freq. dielectric constant tensor:
#      x y z
#    x 1.841690 -0.011070 -0.001910 
#    y -0.011070 1.877610 0.018200 
#    z -0.001910 0.018200 1.863450 
# 
# From -- ./inp_files/532353.got.cif
#   From: 2010.06.25/outbox.cif.g09.slc.cpg/sg2_267_cif.got.tgz:532353.got - 2010.06.27 13:26:56.
