data_PCOD8012521
_publ_section_title
;
Structure prediction by ZEFSAII (Michael W. Deem and Ramdas Pophale) SiO2 
 PCOD8012521
Probable space group: P -1
;
_chemical_formula_sum "Si O2"
_cell_formula_units_Z 16
_cell_length_a 18.864427
_cell_length_b 9.122553
_cell_length_c 21.536580
_cell_angle_alpha 135.436774
_cell_angle_beta 18.703027
_cell_angle_gamma 135.564825
_cell_volume 821.193112
_symmetry_space_group_name_H-M "P -1"
_symmetry_group_IT_number 2
_symmetry_cell_setting 'triclinic'
loop_
_space_group_symop_operation_xyz
x,y,z
-x,-y,-z
loop_
_atom_site_type_symbol
_atom_site_label
_atom_site_fract_x
_atom_site_fract_y
_atom_site_fract_z
Si Si1 0.313157 0.962824 0.091357
Si Si2 0.578921 0.834039 0.297931
Si Si3 0.877808 0.994631 0.534697
Si Si4 0.754515 0.883899 0.302995
Si Si5 0.729518 0.984575 0.087270
Si Si6 0.506645 0.253197 0.906771
Si Si7 0.533654 0.365341 0.210411
Si Si8 0.258859 0.568207 0.815659
O O1 0.062892 0.980510 0.324700
O O2 0.365394 0.122903 0.039070
O O3 0.500000 0.000000 0.000000
O O4 0.333377 0.725647 0.982747
O O5 0.372466 0.957571 0.507265
O O6 0.718862 0.882579 0.133308
O O7 0.467706 0.587420 0.312799
O O8 0.733245 0.896672 0.249403
O O9 0.761964 0.202987 0.682731
O O10 0.689297 0.786183 0.626394
O O11 0.000000 0.000000 0.500000
O O12 0.642093 0.645242 0.348255
O O13 0.012668 0.954559 0.129216
O O14 0.596762 0.823237 0.097943
O O15 0.635468 0.209910 0.238682
O O16 0.500000 0.500000 0.000000
O O17 0.716317 0.393048 0.120575
O O18 0.000000 0.500000 0.000000
#
# Coordination Sequence:
#
# PCOD8012521 Si02
#       8
#     2   2   2   2   2   2   2   2
#     4  11  22  42  67  86 123 173 214 258 315 376
#     4  10  22  37  63  92 127 159 207 255 311 381
#     4  11  22  41  67  89 122 169 219 254 308 384
#     4   9  21  40  60  89 124 165 207 251 311 378
#     4  11  21  39  61  90 128 161 203 259 317 364
#     4  11  26  42  62  99 134 159 211 269 318 373
#     4  10  21  40  60  94 121 160 214 253 304 381
#     4   9  18  39  62  82 124 162 201 257 303 372
#
# _framework density 19.483847000000001
#
# number of rings (size 3 to 8) (size 9 to 14) (size 15 to 20)
#    0.000    1.750    5.000    0.375    1.750    4.000 
#    0.000    6.250    0.000    0.000    0.000    0.000 
#    0.000    0.000    0.000    0.000    0.000    0.000 
#
# Total GULP energy -198235.708325 kJ/mol
# GULP energy per Si atom -12389.731770 kJ/mol
# Density = 1.943950 g / cm^3
# Si number density = 19.483847 Si / 1000 Ang^3
#
#
#
# Elastic Constant Matrix: (Units=GPa)
#
#
# Indices 1 2 3 4 5 6 
#
# 1 75.7091 37.3200 27.9598 0.3780 -7.9178 11.6326
# 2 37.3200 137.2867 55.0568 28.9625 -3.5869 3.1222
# 3 27.9598 55.0568 131.8574 13.3092 -0.3694 8.2173
# 4 0.3780 28.9625 13.3092 31.8216 -4.0056 -0.6648
# 5 -7.9178 -3.5869 -0.3694 -4.0056 30.0793 -3.0444
# 6 11.6326 3.1222 8.2173 -0.6648 -3.0444 30.6866
#
#
#
# Elastic Compliance Matrix: (Units=1/GPa)
#
#
# Indices 1 2 3 4 5 6 
#
# 1 0.017541 -0.004951 -0.001878 0.005508 0.004221 -0.005105
# 2 -0.004951 0.011782 -0.002983 -0.009529 -0.001086 0.001163
# 3 -0.001878 -0.002983 0.009469 -0.001394 -0.001087 -0.001658
# 4 0.005508 -0.009529 -0.001394 0.041371 0.005880 0.000735
# 5 0.004221 -0.001086 -0.001087 0.005880 0.035242 0.002425
# 6 -0.005105 0.001163 -0.001658 0.000735 0.002425 0.035105
#
#
# Mechanical properties :
#
#
# Convention : Reuss Voigt Hill
#
# Bulk Modulus (GPa) = 52.17335 65.05846 58.61590
# Shear Modulus (GPa) = 28.32498 33.48528 30.90513
#
# Velocity S-wave (km/s) = 3.81697 4.15012 3.98702
# Velocity P-wave (km/s) = 6.80158 7.51186 7.16553
#
# Compressibility (1/GPa) = 0.01916688
#
# Stress axis : x y z
#
# Youngs Moduli (GPa) = 57.01045 84.87781 105.60839
#
# Poissons Ratio (x) = 0.42019 0.19837
# Poissons Ratio (y) = 0.28223 0.31507
# Poissons Ratio (z) = 0.10708 0.25322
#
# Static dielectric constant tensor:
#      x y z
#    x 3.737460 -0.112420 0.011530 
#    y -0.112420 4.045990 0.181090 
#    z 0.011530 0.181090 3.825370 
# 
# 
# High freq. dielectric constant tensor:
#      x y z
#    x 1.768380 0.003610 -0.011550 
#    y 0.003610 1.765790 0.016750 
#    z -0.011550 0.016750 1.746280 
# 
# From -- ./inp_files/577579.got.cif
#   From: 2010.06.25/outbox.cif.g09.slc.cpg/sg2_289_cif.got.tgz:577579.got - 2010.06.27 13:26:56.
