data_PCOD8012108
_publ_section_title
;
Structure prediction by ZEFSAII (Michael W. Deem and Ramdas Pophale) SiO2 
 PCOD8012108
Probable space group: P -1
;
_chemical_formula_sum "Si O2"
_cell_formula_units_Z 16
_cell_length_a 7.500233
_cell_length_b 10.169325
_cell_length_c 16.741513
_cell_angle_alpha 124.054664
_cell_angle_beta 73.658902
_cell_angle_gamma 67.163574
_cell_volume 738.339709
_symmetry_space_group_name_H-M "P -1"
_symmetry_group_IT_number 2
_symmetry_cell_setting 'triclinic'
loop_
_space_group_symop_operation_xyz
x,y,z
-x,-y,-z
loop_
_atom_site_type_symbol
_atom_site_label
_atom_site_fract_x
_atom_site_fract_y
_atom_site_fract_z
Si Si1 0.361577 0.403751 0.810854
Si Si2 0.527549 0.739326 0.552698
Si Si3 0.312596 0.079606 0.123598
Si Si4 0.123072 0.420207 0.688306
Si Si5 0.772468 0.177892 0.031811
Si Si6 0.161085 0.686890 0.535984
Si Si7 0.569203 0.008418 0.744265
Si Si8 0.715852 0.425440 0.699828
O O1 0.202734 0.405533 0.763723
O O2 0.203208 0.653262 0.944500
O O3 0.405187 0.262323 0.831813
O O4 0.636429 0.301566 0.705473
O O5 0.627374 0.734849 0.451682
O O6 0.274553 0.781497 0.591051
O O7 0.756610 0.510933 0.488823
O O8 0.453247 0.934372 0.681313
O O9 0.457039 0.018807 0.168596
O O10 0.061076 0.333835 0.237606
O O11 0.500000 0.000000 0.000000
O O12 0.227007 0.944381 0.083882
O O13 0.980139 0.333933 0.673006
O O14 0.508327 0.315713 0.163067
O O15 0.000000 0.000000 0.000000
O O16 0.270503 0.597088 0.403924
O O17 0.858451 0.873082 0.636347
#
# Coordination Sequence:
#
# PCOD8012108 Si02
#       8
#     2   2   2   2   2   2   2   2
#     4  10  25  42  62 102 134 171 224 264 337 396
#     4  11  23  39  67 100 133 172 220 270 323 397
#     4  12  23  42  71  93 121 175 229 272 327 390
#     4  12  20  42  68  95 129 173 222 263 327 398
#     4  10  21  41  68  92 127 174 224 278 313 383
#     4  11  22  41  67  99 135 170 223 272 319 400
#     4  12  26  43  65  98 139 174 211 281 337 381
#     4  10  21  39  66  95 129 175 220 263 329 389
#
# _framework density 21.670242999999999
#
# number of rings (size 3 to 8) (size 9 to 14) (size 15 to 20)
#    0.750    0.250    6.250    1.125    0.000    2.500 
#    0.000    0.625    0.000    0.000    0.000    0.000 
#    0.000    0.000    0.000    0.000    0.000    0.000 
#
# Total GULP energy -198387.470242 kJ/mol
# GULP energy per Si atom -12399.216890 kJ/mol
# Density = 2.162092 g / cm^3
# Si number density = 21.670243 Si / 1000 Ang^3
#
#
#
# Elastic Constant Matrix: (Units=GPa)
#
#
# Indices 1 2 3 4 5 6 
#
# 1 96.2629 16.9726 10.0274 5.6058 26.2677 1.7778
# 2 16.9726 91.9264 17.3690 1.7541 8.8082 -1.8009
# 3 10.0274 17.3690 58.9038 -8.0912 17.6676 3.1988
# 4 5.6058 1.7541 -8.0912 32.0233 2.0255 4.7234
# 5 26.2677 8.8082 17.6676 2.0255 32.1584 -9.1979
# 6 1.7778 -1.8009 3.1988 4.7234 -9.1979 18.5494
#
#
#
# Elastic Compliance Matrix: (Units=1/GPa)
#
#
# Indices 1 2 3 4 5 6 
#
# 1 0.015224 -0.002154 0.004037 0.001238 -0.017372 -0.011293
# 2 -0.002154 0.011995 -0.004220 -0.001995 0.001938 0.003568
# 3 0.004037 -0.004220 0.027099 0.010770 -0.023372 -0.019801
# 4 0.001238 -0.001995 0.010770 0.037491 -0.014093 -0.018704
# 5 -0.017372 0.001938 -0.023372 -0.014093 0.071304 0.044829
# 6 -0.011293 0.003568 -0.019801 -0.018704 0.044829 0.085745
#
#
# Mechanical properties :
#
#
# Convention : Reuss Voigt Hill
#
# Bulk Modulus (GPa) = 20.14280 37.31457 28.72869
# Shear Modulus (GPa) = 18.51297 30.06113 24.28705
#
# Velocity S-wave (km/s) = 2.92602 3.72856 3.35140
# Velocity P-wave (km/s) = 4.55311 5.98272 5.31619
#
# Compressibility (1/GPa) = 0.04964552
#
# Stress axis : x y z
#
# Youngs Moduli (GPa) = 65.68482 83.36466 36.90226
#
# Poissons Ratio (x) = 0.17957 -0.14898
# Poissons Ratio (y) = 0.14149 0.15571
# Poissons Ratio (z) = -0.26518 0.35176
#
# Static dielectric constant tensor:
#      x y z
#    x 4.147500 0.041610 0.259450 
#    y 0.041610 3.624760 0.019330 
#    z 0.259450 0.019330 3.851160 
# 
# 
# High freq. dielectric constant tensor:
#      x y z
#    x 1.867520 -0.001460 0.016310 
#    y -0.001460 1.830660 -0.000610 
#    z 0.016310 -0.000610 1.839180 
# 
# From -- ./inp_files/559926.got.cif
#   From: 2010.06.25/outbox.cif.g09.slc.cpg/sg2_280_cif.got.tgz:559926.got - 2010.06.27 13:26:56.
