data_PCOD8012902
_publ_section_title
;
Structure prediction by ZEFSAII (Michael W. Deem and Ramdas Pophale) SiO2 
 PCOD8012902
Probable space group: P -1
;
_chemical_formula_sum "Si O2"
_cell_formula_units_Z 16
_cell_length_a 11.341445
_cell_length_b 18.248258
_cell_length_c 14.713018
_cell_angle_alpha 19.801722
_cell_angle_beta 131.134709
_cell_angle_gamma 130.121163
_cell_volume 773.048544
_symmetry_space_group_name_H-M "P -1"
_symmetry_group_IT_number 2
_symmetry_cell_setting 'triclinic'
loop_
_space_group_symop_operation_xyz
x,y,z
-x,-y,-z
loop_
_atom_site_type_symbol
_atom_site_label
_atom_site_fract_x
_atom_site_fract_y
_atom_site_fract_z
Si Si1 0.484700 0.774427 0.370874
Si Si2 0.491384 0.894688 0.424910
Si Si3 0.170041 0.187679 0.269200
Si Si4 0.384129 0.654587 0.993723
Si Si5 0.878632 0.371235 0.967775
Si Si6 0.988815 0.145826 0.554183
Si Si7 0.269874 0.638171 0.749637
Si Si8 0.258924 0.871604 0.991661
O O1 0.413132 0.873941 0.309809
O O2 0.537040 0.539615 0.692736
O O3 0.347331 0.745984 0.259743
O O4 0.630054 0.933541 0.223405
O O5 0.670436 0.839203 0.564351
O O6 0.405846 0.720330 0.653698
O O7 0.487084 0.135098 0.182592
O O8 0.121821 0.966309 0.449635
O O9 0.198372 0.393304 0.973076
O O10 0.034939 0.243711 0.206675
O O11 0.233613 0.706310 0.915970
O O12 0.337428 0.613085 0.914664
O O13 0.798641 0.305596 0.906730
O O14 0.920463 0.628922 0.697121
O O15 0.869788 0.200956 0.510572
O O16 0.113409 0.978392 0.840931
#
# Coordination Sequence:
#
# PCOD8012902 Si02
#       8
#     2   2   2   2   2   2   2   2
#     4  11  24  39  64  90 123 165 203 254 305 359
#     4  12  24  41  59  94 128 164 203 248 306 366
#     4  10  22  38  62  89 127 162 195 253 307 366
#     4  12  23  37  61  95 125 161 196 249 309 369
#     4  10  22  38  61  94 123 157 203 250 310 362
#     4  10  21  40  64  90 124 164 198 253 310 360
#     4  11  24  39  62  92 127 163 205 247 302 368
#     4  10  22  43  62  89 124 160 207 255 304 359
#
# _framework density 20.697277
#
# number of rings (size 3 to 8) (size 9 to 14) (size 15 to 20)
#    0.000    1.250    5.000    0.750    0.000    5.000 
#    0.000    0.625    0.000    7.500    0.000    0.000 
#    0.000    0.000    0.000    0.000    0.000    0.000 
#
# Total GULP energy -198367.673112 kJ/mol
# GULP energy per Si atom -12397.979569 kJ/mol
# Density = 2.065017 g / cm^3
# Si number density = 20.697277 Si / 1000 Ang^3
#
#
#
# Elastic Constant Matrix: (Units=GPa)
#
#
# Indices 1 2 3 4 5 6 
#
# 1 63.5624 47.1097 30.3800 20.4787 0.8902 -1.6588
# 2 47.1097 106.3211 52.9862 -5.8901 -9.1317 -6.5580
# 3 30.3800 52.9862 101.0732 -4.6317 -0.7303 2.9004
# 4 20.4787 -5.8901 -4.6317 40.7895 -0.1920 -0.6275
# 5 0.8902 -9.1317 -0.7303 -0.1920 24.9663 -2.3506
# 6 -1.6588 -6.5580 2.9004 -0.6275 -2.3506 16.7293
#
#
#
# Elastic Compliance Matrix: (Units=1/GPa)
#
#
# Indices 1 2 3 4 5 6 
#
# 1 0.036431 -0.016744 -0.003076 -0.021162 -0.008086 -0.004348
# 2 -0.016744 0.021921 -0.006163 0.011067 0.009437 0.009742
# 3 -0.003076 -0.006163 0.014289 0.002183 -0.002221 -0.005428
# 4 -0.021162 0.011067 0.002183 0.037075 0.005531 0.004029
# 5 -0.008086 0.009437 -0.002221 0.005531 0.044691 0.009770
# 6 -0.004348 0.009742 -0.005428 0.004029 0.009770 0.065628
#
#
# Mechanical properties :
#
#
# Convention : Reuss Voigt Hill
#
# Bulk Modulus (GPa) = 48.36881 59.10095 53.73488
# Shear Modulus (GPa) = 17.92813 25.86240 21.89526
#
# Velocity S-wave (km/s) = 2.94633 3.53874 3.25604
# Velocity P-wave (km/s) = 5.91565 6.73156 6.33675
#
# Compressibility (1/GPa) = 0.02067448
#
# Stress axis : x y z
#
# Youngs Moduli (GPa) = 27.44942 45.61939 69.98497
#
# Poissons Ratio (x) = 0.76387 0.21524
# Poissons Ratio (y) = 0.45962 0.43131
# Poissons Ratio (z) = 0.08442 0.28115
#
# Static dielectric constant tensor:
#      x y z
#    x 3.711920 0.146570 0.152300 
#    y 0.146570 3.800900 -0.293140 
#    z 0.152300 -0.293140 3.852190 
# 
# 
# High freq. dielectric constant tensor:
#      x y z
#    x 1.799090 0.007630 0.011500 
#    y 0.007630 1.799270 -0.028210 
#    z 0.011500 -0.028210 1.817800 
# 
# From -- ./inp_files/436517.got.cif
#   From: 2010.06.25/outbox.cif.g09.slc.cpg/sg2_219_cif.got.tgz:436517.got - 2010.06.27 13:26:56.
