data_PCOD8012225
_publ_section_title
;
Structure prediction by ZEFSAII (Michael W. Deem and Ramdas Pophale) SiO2 
 PCOD8012225
Probable space group: P -1
;
_chemical_formula_sum "Si O2"
_cell_formula_units_Z 16
_cell_length_a 11.772426
_cell_length_b 19.815860
_cell_length_c 8.760323
_cell_angle_alpha 96.614393
_cell_angle_beta 85.348503
_cell_angle_gamma 158.958268
_cell_volume 726.870264
_symmetry_space_group_name_H-M "P -1"
_symmetry_group_IT_number 2
_symmetry_cell_setting 'triclinic'
loop_
_space_group_symop_operation_xyz
x,y,z
-x,-y,-z
loop_
_atom_site_type_symbol
_atom_site_label
_atom_site_fract_x
_atom_site_fract_y
_atom_site_fract_z
Si Si1 0.337590 0.537598 0.331796
Si Si2 0.232986 0.336680 0.606844
Si Si3 0.596892 0.732399 0.062049
Si Si4 0.317084 0.101641 0.116932
Si Si5 0.248784 0.594140 0.596477
Si Si6 0.233433 0.878892 0.610827
Si Si7 0.533037 0.088947 0.939542
Si Si8 0.841325 0.564605 0.193608
O O1 0.642731 0.657356 0.307500
O O2 0.328092 0.570791 0.178877
O O3 0.434293 0.648160 0.473715
O O4 0.010717 0.316714 0.355141
O O5 0.500000 0.500000 0.500000
O O6 0.141735 0.349899 0.724163
O O7 0.932284 0.155199 0.484088
O O8 0.567416 0.792952 0.018197
O O9 0.506384 0.636684 0.897997
O O10 0.945608 0.909553 0.132891
O O11 0.506523 0.223798 0.284960
O O12 0.373508 0.054570 0.060191
O O13 0.076017 0.445533 0.690318
O O14 0.000000 0.500000 0.500000
O O15 0.500000 0.000000 0.500000
O O16 0.366782 0.993784 0.768614
O O17 0.904414 0.308360 0.933302
O O18 0.500000 0.000000 0.000000
#
# Coordination Sequence:
#
# PCOD8012225 Si02
#       8
#     2   2   2   2   2   2   2   2
#     4  11  24  43  72 102 127 187 226 284 339 409
#     4  10  21  39  67  99 133 173 222 271 348 393
#     4  10  25  46  68  95 139 175 241 273 340 405
#     4  10  27  47  67  98 136 187 221 290 336 398
#     4  11  25  44  73  97 138 174 235 278 345 411
#     4  11  22  43  67 102 141 173 219 286 344 402
#     4  12  27  42  67 101 139 177 228 276 346 409
#     4  11  23  45  67 100 138 181 217 286 342 405
#
# _framework density 22.012181999999999
#
# number of rings (size 3 to 8) (size 9 to 14) (size 15 to 20)
#    0.000    1.250    3.750    0.750   10.500    3.000 
#    2.250    0.000    0.000    0.000    0.000    0.000 
#    0.000    0.000    0.000    0.000    0.000    0.000 
#
# Total GULP energy -198221.527730 kJ/mol
# GULP energy per Si atom -12388.845483 kJ/mol
# Density = 2.196208 g / cm^3
# Si number density = 22.012182 Si / 1000 Ang^3
#
#
#
# Elastic Constant Matrix: (Units=GPa)
#
#
# Indices 1 2 3 4 5 6 
#
# 1 120.5318 46.2866 48.1323 9.9793 -1.9218 -2.7344
# 2 46.2866 92.4833 56.0290 13.4584 13.7187 8.5521
# 3 48.1323 56.0290 118.3630 16.7141 0.0428 -7.3430
# 4 9.9793 13.4584 16.7141 49.1123 -8.4077 7.6951
# 5 -1.9218 13.7187 0.0428 -8.4077 40.7068 0.5185
# 6 -2.7344 8.5521 -7.3430 7.6951 0.5185 30.9717
#
#
#
# Elastic Compliance Matrix: (Units=1/GPa)
#
#
# Indices 1 2 3 4 5 6 
#
# 1 0.011030 -0.004660 -0.002149 -0.000159 0.002038 0.001757
# 2 -0.004660 0.019772 -0.007616 -0.002006 -0.007200 -0.007058
# 3 -0.002149 -0.007616 0.013672 -0.002728 0.001814 0.005802
# 4 -0.000159 -0.002006 -0.002728 0.023800 0.005665 -0.006115
# 5 0.002038 -0.007200 0.001814 0.005665 0.028248 0.000718
# 6 0.001757 -0.007058 0.005802 -0.006115 0.000718 0.037274
#
#
# Mechanical properties :
#
#
# Convention : Reuss Voigt Hill
#
# Bulk Modulus (GPa) = 64.00538 70.25266 67.12902
# Shear Modulus (GPa) = 29.78796 36.22018 33.00407
#
# Velocity S-wave (km/s) = 3.68264 4.06083 3.87635
# Velocity P-wave (km/s) = 6.87189 7.34655 7.11318
#
# Compressibility (1/GPa) = 0.01562369
#
# Stress axis : x y z
#
# Youngs Moduli (GPa) = 90.66453 50.57716 73.14195
#
# Poissons Ratio (x) = 0.23570 0.15715
# Poissons Ratio (y) = 0.42251 0.55706
# Poissons Ratio (z) = 0.19479 0.38521
#
# Static dielectric constant tensor:
#      x y z
#    x 2.313620 -1.042410 -0.002410 
#    y -1.042410 3.303470 0.023490 
#    z -0.002410 0.023490 4.277220 
# 
# 
# High freq. dielectric constant tensor:
#      x y z
#    x 1.860870 0.003680 0.011600 
#    y 0.003680 1.863740 0.005890 
#    z 0.011600 0.005890 1.882710 
# 
# From -- ./inp_files/283099.got.cif
#   From: 2010.06.25/outbox.cif.g09.slc.cpg/sg2_142_cif.got.tgz:283099.got - 2010.06.27 13:26:56.
