data_PCOD8012440
_publ_section_title
;
Structure prediction by ZEFSAII (Michael W. Deem and Ramdas Pophale) SiO2 
 PCOD8012440
Probable space group: P -1
;
_chemical_formula_sum "Si O2"
_cell_formula_units_Z 14
_cell_length_a 22.374350
_cell_length_b 15.722950
_cell_length_c 11.391639
_cell_angle_alpha 27.793413
_cell_angle_beta 29.671668
_cell_angle_gamma 18.945058
_cell_volume 592.820611
_symmetry_space_group_name_H-M "P -1"
_symmetry_group_IT_number 2
_symmetry_cell_setting 'triclinic'
loop_
_space_group_symop_operation_xyz
x,y,z
-x,-y,-z
loop_
_atom_site_type_symbol
_atom_site_label
_atom_site_fract_x
_atom_site_fract_y
_atom_site_fract_z
Si Si1 0.656472 0.403169 0.772483
Si Si2 0.587711 0.883785 0.364064
Si Si3 0.034797 0.480921 0.758247
Si Si4 0.949224 0.231723 0.079995
Si Si5 0.461662 0.514081 0.743512
Si Si6 0.741587 0.098225 0.590020
Si Si7 0.781207 0.529392 0.763272
O O1 0.682144 0.583333 0.538650
O O2 0.598544 0.454381 0.673266
O O3 0.500000 0.500000 0.000000
O O4 0.840006 0.078821 0.886769
O O5 0.775521 0.795387 0.154432
O O6 0.500000 0.000000 0.500000
O O7 0.407070 0.138529 0.279741
O O8 0.921271 0.429942 0.978326
O O9 0.099634 0.521770 0.483079
O O10 0.901637 0.758707 0.729044
O O11 0.920055 0.347405 0.858552
O O12 0.812668 0.220652 0.350979
O O13 0.586413 0.235070 0.787103
O O14 0.356328 0.787451 0.510633
O O15 0.304365 0.569404 0.008749
#
# Coordination Sequence:
#
# PCOD8012440 Si02
#       7
#     2   2   2   2   2   2   2
#     4  12  23  39  67  97 134 170 216 274 332 379
#     4  10  21  40  58  97 133 165 213 269 325 386
#     4  11  21  41  68  93 134 169 225 268 329 380
#     4  11  24  40  67 100 129 171 224 268 324 394
#     4  10  24  44  66  92 140 171 218 270 331 385
#     4  10  24  46  64  98 133 178 217 269 322 397
#     4  10  22  41  65  97 131 167 223 273 321 386
#
# _framework density 23.615912000000002
#
# number of rings (size 3 to 8) (size 9 to 14) (size 15 to 20)
#    0.000    1.429    1.429    4.714    4.000    1.714 
#    2.571    3.571    0.000    0.000    0.000    0.000 
#    0.000    0.000    0.000    0.000    0.000    0.000 
#
# Total GULP energy -173494.042833 kJ/mol
# GULP energy per Si atom -12392.431631 kJ/mol
# Density = 2.356216 g / cm^3
# Si number density = 23.615912 Si / 1000 Ang^3
#
#
#
# Elastic Constant Matrix: (Units=GPa)
#
#
# Indices 1 2 3 4 5 6 
#
# 1 106.5331 44.3652 28.5777 -10.6150 -20.2273 -21.7233
# 2 44.3652 105.9407 4.7224 -8.4744 -7.5272 -10.8438
# 3 28.5777 4.7224 56.1034 -3.1754 -18.7514 6.1060
# 4 -10.6150 -8.4744 -3.1754 29.6679 4.3511 -2.5648
# 5 -20.2273 -7.5272 -18.7514 4.3511 29.4749 -4.1958
# 6 -21.7233 -10.8438 6.1060 -2.5648 -4.1958 43.1110
#
#
#
# Elastic Compliance Matrix: (Units=1/GPa)
#
#
# Indices 1 2 3 4 5 6 
#
# 1 0.016720 -0.005021 -0.006618 0.003629 0.006723 0.008970
# 2 -0.005021 0.011660 0.001796 0.001683 0.000468 0.000294
# 3 -0.006618 0.001796 0.025405 -0.001292 0.011496 -0.005439
# 4 0.003629 0.001683 -0.001292 0.036105 -0.002615 0.004329
# 5 0.006723 0.000468 0.011496 -0.002615 0.047260 0.006321
# 6 0.008970 0.000294 -0.005439 0.004329 0.006321 0.029433
#
#
# Mechanical properties :
#
#
# Convention : Reuss Voigt Hill
#
# Bulk Modulus (GPa) = 29.32659 47.10088 38.21373
# Shear Modulus (GPa) = 25.29913 33.17823 29.23868
#
# Velocity S-wave (km/s) = 3.27658 3.75228 3.52247
# Velocity P-wave (km/s) = 5.17299 6.22580 5.72365
#
# Compressibility (1/GPa) = 0.03409875
#
# Stress axis : x y z
#
# Youngs Moduli (GPa) = 59.80842 85.76491 39.36197
#
# Poissons Ratio (x) = 0.43061 0.26050
# Poissons Ratio (y) = 0.30029 -0.07068
# Poissons Ratio (z) = 0.39581 -0.15400
#
# Static dielectric constant tensor:
#      x y z
#    x -4.824420 5.024330 1.968290 
#    y 5.024330 1.491570 -1.345840 
#    z 1.968290 -1.345840 3.734800 
# 
# 
# High freq. dielectric constant tensor:
#      x y z
#    x 1.932590 -0.023200 -0.002410 
#    y -0.023200 1.945410 -0.003570 
#    z -0.002410 -0.003570 1.925360 
# 
# From -- ./inp_files/279645.got.cif
#   From: 2010.06.25/outbox.cif.g09.slc.cpg/sg2_140_cif.got.tgz:279645.got - 2010.06.27 13:26:56.
