data_PCOD8012822
_publ_section_title
;
Structure prediction by ZEFSAII (Michael W. Deem and Ramdas Pophale) SiO2 
 PCOD8012822
Probable space group: P -1
;
_chemical_formula_sum "Si O2"
_cell_formula_units_Z 16
_cell_length_a 24.086897
_cell_length_b 12.023160
_cell_length_c 5.171682
_cell_angle_alpha 103.115914
_cell_angle_beta 67.061451
_cell_angle_gamma 148.109977
_cell_volume 711.822964
_symmetry_space_group_name_H-M "P -1"
_symmetry_group_IT_number 2
_symmetry_cell_setting 'triclinic'
loop_
_space_group_symop_operation_xyz
x,y,z
-x,-y,-z
loop_
_atom_site_type_symbol
_atom_site_label
_atom_site_fract_x
_atom_site_fract_y
_atom_site_fract_z
Si Si1 0.901423 0.557799 0.328616
Si Si2 0.381761 0.126250 0.787972
Si Si3 0.238804 0.861644 0.403992
Si Si4 0.979616 0.086630 0.335949
Si Si5 0.635721 0.512966 0.502877
Si Si6 0.315983 0.266313 0.971376
Si Si7 0.890696 0.134372 0.175861
Si Si8 0.828627 0.652510 0.259563
O O1 0.841520 0.377505 0.541425
O O2 0.995625 0.791369 0.407861
O O3 0.809936 0.495290 0.326519
O O4 0.981887 0.619090 0.010700
O O5 0.505940 0.270579 0.674210
O O6 0.398222 0.289217 0.871043
O O7 0.331544 0.011748 0.541470
O O8 0.298907 0.943915 0.063090
O O9 0.162644 0.853626 0.537861
O O10 0.900922 0.029719 0.245636
O O11 0.099869 0.240511 0.077854
O O12 0.903638 0.853366 0.426986
O O13 0.636312 0.580590 0.266981
O O14 0.705382 0.507111 0.348731
O O15 0.689929 0.675452 0.719063
O O16 0.191234 0.016708 0.001457
#
# Coordination Sequence:
#
# PCOD8012822 Si02
#       8
#     2   2   2   2   2   2   2   2
#     4  11  24  40  65  90 133 177 214 258 319 383
#     4  11  25  44  64  96 130 170 219 269 314 374
#     4  11  26  44  65  94 133 173 218 263 311 381
#     4  10  21  40  63  95 130 161 211 267 327 382
#     4  12  23  41  69  95 130 171 213 264 330 380
#     4  11  22  39  67 100 132 162 206 269 333 388
#     4  10  22  38  64 100 128 165 206 267 327 392
#     4  10  23  38  63  98 126 167 212 267 320 385
#
# _framework density 22.477499999999999
#
# number of rings (size 3 to 8) (size 9 to 14) (size 15 to 20)
#    0.000    1.250    1.250    4.500    8.750    0.500 
#    0.000    1.250    0.000    0.000    0.000    0.000 
#    0.000    0.000    0.000    0.000    0.000    0.000 
#
# Total GULP energy -198420.227502 kJ/mol
# GULP energy per Si atom -12401.264219 kJ/mol
# Density = 2.242634 g / cm^3
# Si number density = 22.477500 Si / 1000 Ang^3
#
#
#
# Elastic Constant Matrix: (Units=GPa)
#
#
# Indices 1 2 3 4 5 6 
#
# 1 95.2506 32.4932 40.9636 -23.5769 -24.8143 6.8303
# 2 32.4932 42.5071 10.7733 -18.7603 -13.2791 -6.7318
# 3 40.9636 10.7733 74.2785 -21.1961 -9.5760 6.6404
# 4 -23.5769 -18.7603 -21.1961 38.6413 9.7779 1.1820
# 5 -24.8143 -13.2791 -9.5760 9.7779 36.8832 -6.9051
# 6 6.8303 -6.7318 6.6404 1.1820 -6.9051 28.2432
#
#
#
# Elastic Compliance Matrix: (Units=1/GPa)
#
#
# Indices 1 2 3 4 5 6 
#
# 1 0.020009 -0.011701 -0.007948 0.000732 0.006191 -0.004276
# 2 -0.011701 0.041457 0.003880 0.012932 0.007064 0.012985
# 3 -0.007948 0.003880 0.019676 0.008284 -0.001505 -0.002494
# 4 0.000732 0.012932 0.008284 0.037954 -0.003019 -0.001369
# 5 0.006191 0.007064 -0.001505 -0.003019 0.036003 0.009469
# 6 -0.004276 0.012985 -0.002494 -0.001369 0.009469 0.042495
#
#
# Mechanical properties :
#
#
# Convention : Reuss Voigt Hill
#
# Bulk Modulus (GPa) = 20.15968 42.27739 31.21853
# Shear Modulus (GPa) = 20.35271 29.27395 24.81333
#
# Velocity S-wave (km/s) = 3.01237 3.61275 3.32613
# Velocity P-wave (km/s) = 4.59211 6.02098 5.35442
#
# Compressibility (1/GPa) = 0.04960396
#
# Stress axis : x y z
#
# Youngs Moduli (GPa) = 49.97710 24.12139 50.82212
#
# Poissons Ratio (x) = 0.28225 0.40395
# Poissons Ratio (y) = 0.58478 -0.19719
# Poissons Ratio (z) = 0.39724 -0.09359
#
# Static dielectric constant tensor:
#      x y z
#    x 4.266470 0.024990 -0.136640 
#    y 0.024990 3.694850 -0.018390 
#    z -0.136640 -0.018390 4.026100 
# 
# 
# High freq. dielectric constant tensor:
#      x y z
#    x 1.894220 0.009000 -0.002110 
#    y 0.009000 1.854750 -0.004220 
#    z -0.002110 -0.004220 1.891640 
# 
# From -- ./inp_files/118733.got.cif
#   From: 2010.06.25/outbox.cif.g09.slc.cpg/sg2_60_cif.got.tgz:118733.got - 2010.06.27 13:26:56.
