data_PCOD8012165
_publ_section_title
;
Structure prediction by ZEFSAII (Michael W. Deem and Ramdas Pophale) SiO2 
 PCOD8012165
Probable space group: P -1
;
_chemical_formula_sum "Si O2"
_cell_formula_units_Z 16
_cell_length_a 9.493958
_cell_length_b 17.008931
_cell_length_c 12.045877
_cell_angle_alpha 148.483816
_cell_angle_beta 130.281173
_cell_angle_gamma 59.468306
_cell_volume 771.164012
_symmetry_space_group_name_H-M "P -1"
_symmetry_group_IT_number 2
_symmetry_cell_setting 'triclinic'
loop_
_space_group_symop_operation_xyz
x,y,z
-x,-y,-z
loop_
_atom_site_type_symbol
_atom_site_label
_atom_site_fract_x
_atom_site_fract_y
_atom_site_fract_z
Si Si1 0.480652 0.598822 0.954962
Si Si2 0.803121 0.619149 0.570871
Si Si3 0.546269 0.930110 0.323631
Si Si4 0.952403 0.387234 0.508619
Si Si5 0.927219 0.111738 0.685705
Si Si6 0.373815 0.871854 0.937215
Si Si7 0.276962 0.121763 0.023406
Si Si8 0.228730 0.579808 0.015570
O O1 0.328260 0.528692 0.707815
O O2 0.638131 0.483511 0.901166
O O3 0.573155 0.754545 0.138414
O O4 0.372282 0.632272 0.052774
O O5 0.924825 0.555727 0.653804
O O6 0.931851 0.692003 0.623034
O O7 0.680891 0.743815 0.705202
O O8 0.500000 0.000000 0.500000
O O9 0.736970 0.023249 0.512128
O O10 0.401861 0.944588 0.163339
O O11 0.764427 0.283003 0.317700
O O12 0.083848 0.431913 0.734905
O O13 0.879738 0.280477 0.826855
O O14 0.068475 0.124926 0.876556
O O15 0.000000 0.000000 0.500000
O O16 0.287477 0.971809 0.920067
O O17 0.579509 0.848798 0.969834
#
# Coordination Sequence:
#
# PCOD8012165 Si02
#       8
#     2   2   2   2   2   2   2   2
#     4  10  22  41  66  99 130 169 223 271 329 392
#     4  10  21  39  67  92 128 167 214 273 328 383
#     4  12  25  42  70  98 134 175 225 275 331 398
#     4  10  21  40  65  95 125 164 225 270 323 387
#     4  12  25  45  66  95 138 179 219 269 338 397
#     4  11  26  45  65  97 133 177 224 269 331 400
#     4  11  26  45  66  93 136 180 217 272 333 396
#     4  10  22  41  67  96 132 173 214 277 332 390
#
# _framework density 20.747857
#
# number of rings (size 3 to 8) (size 9 to 14) (size 15 to 20)
#    0.000    1.250    5.000    0.000    5.250    2.000 
#    2.250    0.625    0.000    0.000    0.000    0.000 
#    0.000    0.000    0.000    0.000    0.000    0.000 
#
# Total GULP energy -198226.756573 kJ/mol
# GULP energy per Si atom -12389.172286 kJ/mol
# Density = 2.070063 g / cm^3
# Si number density = 20.747857 Si / 1000 Ang^3
#
#
#
# Elastic Constant Matrix: (Units=GPa)
#
#
# Indices 1 2 3 4 5 6 
#
# 1 55.5580 26.4823 50.1516 1.4560 -6.0546 1.1569
# 2 26.4823 90.7102 31.5817 0.6724 -0.5911 -9.5743
# 3 50.1516 31.5817 86.9390 9.6798 13.9965 2.1737
# 4 1.4560 0.6724 9.6798 27.7306 -8.3930 0.5547
# 5 -6.0546 -0.5911 13.9965 -8.3930 43.0213 5.1926
# 6 1.1569 -9.5743 2.1737 0.5547 5.1926 30.4624
#
#
#
# Elastic Compliance Matrix: (Units=1/GPa)
#
#
# Indices 1 2 3 4 5 6 
#
# 1 0.053200 -0.004004 -0.034531 0.016245 0.022431 -0.004934
# 2 -0.004004 0.013685 -0.002900 0.000852 0.000177 0.004614
# 3 -0.034531 -0.002900 0.037748 -0.017623 -0.020808 0.001574
# 4 0.016245 0.000852 -0.017623 0.046692 0.017493 -0.002924
# 5 0.022431 0.000177 -0.020808 0.017493 0.037309 -0.005990
# 6 -0.004934 0.004614 0.001574 -0.002924 -0.005990 0.035427
#
#
# Mechanical properties :
#
#
# Convention : Reuss Voigt Hill
#
# Bulk Modulus (GPa) = 45.95093 49.95981 47.95537
# Shear Modulus (GPa) = 15.91416 28.57564 22.24490
#
# Velocity S-wave (km/s) = 2.77253 3.71520 3.27793
# Velocity P-wave (km/s) = 5.69602 6.52192 6.12291
#
# Compressibility (1/GPa) = 0.02176234
#
# Stress axis : x y z
#
# Youngs Moduli (GPa) = 18.79695 73.07449 26.49142
#
# Poissons Ratio (x) = 0.29260 0.91478
# Poissons Ratio (y) = 0.07527 0.07683
# Poissons Ratio (z) = 0.64908 0.21192
#
# Static dielectric constant tensor:
#      x y z
#    x 3.630810 -0.036530 0.012950 
#    y -0.036530 3.683150 -0.123060 
#    z 0.012950 -0.123060 3.854130 
# 
# 
# High freq. dielectric constant tensor:
#      x y z
#    x 1.799820 -0.007900 0.006910 
#    y -0.007900 1.810140 -0.007600 
#    z 0.006910 -0.007600 1.825290 
# 
# From -- ./inp_files/186649.got.cif
#   From: 2010.06.25/outbox.cif.g09.slc.cpg/sg2_94_cif.got.tgz:186649.got - 2010.06.27 13:26:56.
