data_PCOD8012044
_publ_section_title
;
Structure prediction by ZEFSAII (Michael W. Deem and Ramdas Pophale) SiO2 
 PCOD8012044
Probable space group: P -1
;
_chemical_formula_sum "Si O2"
_cell_formula_units_Z 14
_cell_length_a 5.377664
_cell_length_b 11.444795
_cell_length_c 14.202281
_cell_angle_alpha 42.936827
_cell_angle_beta 103.136454
_cell_angle_gamma 109.167929
_cell_volume 562.300684
_symmetry_space_group_name_H-M "P -1"
_symmetry_group_IT_number 2
_symmetry_cell_setting 'triclinic'
loop_
_space_group_symop_operation_xyz
x,y,z
-x,-y,-z
loop_
_atom_site_type_symbol
_atom_site_label
_atom_site_fract_x
_atom_site_fract_y
_atom_site_fract_z
Si Si1 0.870696 0.154400 0.427958
Si Si2 0.521883 0.826062 0.045355
Si Si3 0.667223 0.660861 0.978026
Si Si4 0.962627 0.454839 0.781701
Si Si5 0.580032 0.964107 0.680429
Si Si6 0.480116 0.842111 0.264063
Si Si7 0.878831 0.711718 0.268080
O O1 0.075027 0.347197 0.324666
O O2 0.630478 0.158064 0.335273
O O3 0.770760 0.119937 0.546519
O O4 0.000000 0.000000 0.500000
O O5 0.812258 0.847315 0.103783
O O6 0.307403 0.695998 0.173255
O O7 0.486760 0.713277 0.012923
O O8 0.479586 0.022073 0.903372
O O9 0.751530 0.836621 0.816140
O O10 0.500000 0.500000 0.000000
O O11 0.917872 0.608140 0.075831
O O12 0.141888 0.463280 0.696271
O O13 0.424234 0.050434 0.695282
O O14 0.663137 0.703689 0.339440
O O15 0.170579 0.764672 0.304661
#
# Coordination Sequence:
#
# PCOD8012044 Si02
#       7
#     2   2   2   2   2   2   2
#     4  11  26  46  72  95 145 190 238 290 361 430
#     4  10  23  36  65 104 147 181 227 288 359 421
#     4  10  21  39  66 100 142 175 235 296 349 413
#     4  11  24  42  69 110 140 188 234 293 359 417
#     4  10  25  46  66 104 134 196 233 295 353 426
#     4  11  24  41  71 103 144 183 239 288 354 420
#     4  11  23  42  69 104 145 187 230 294 351 425
#
# _framework density 24.89771
#
# number of rings (size 3 to 8) (size 9 to 14) (size 15 to 20)
#    0.000    1.429    2.857    0.857   10.000    2.857 
#    0.000    1.429    0.000    0.000    0.000    0.000 
#    0.000    0.000    0.000    0.000    0.000    0.000 
#
# Total GULP energy -173442.415779 kJ/mol
# GULP energy per Si atom -12388.743984 kJ/mol
# Density = 2.484104 g / cm^3
# Si number density = 24.897710 Si / 1000 Ang^3
#
#
#
# Elastic Constant Matrix: (Units=GPa)
#
#
# Indices 1 2 3 4 5 6 
#
# 1 115.0863 35.0452 33.1167 -11.0217 1.3776 -8.5347
# 2 35.0452 97.4130 37.1800 -8.1733 4.4183 -12.3161
# 3 33.1167 37.1800 105.2468 -10.8513 1.8242 -5.7940
# 4 -11.0217 -8.1733 -10.8513 43.1097 -9.3882 -5.9194
# 5 1.3776 4.4183 1.8242 -9.3882 21.7013 -9.1877
# 6 -8.5347 -12.3161 -5.7940 -5.9194 -9.1877 35.4710
#
#
#
# Elastic Compliance Matrix: (Units=1/GPa)
#
#
# Indices 1 2 3 4 5 6 
#
# 1 0.010432 -0.002588 -0.002034 0.002404 0.002007 0.002200
# 2 -0.002588 0.013095 -0.003467 0.001421 -0.000083 0.003573
# 3 -0.002034 -0.003467 0.011611 0.002108 0.001130 0.000848
# 4 0.002404 0.001421 0.002108 0.029740 0.016789 0.010728
# 5 0.002007 -0.000083 0.001130 0.016789 0.061319 0.019323
# 6 0.002200 0.003573 0.000848 0.010728 0.019323 0.036896
#
#
# Mechanical properties :
#
#
# Convention : Reuss Voigt Hill
#
# Bulk Modulus (GPa) = 52.74426 58.71444 55.72935
# Shear Modulus (GPa) = 26.94123 34.21668 30.57895
#
# Velocity S-wave (km/s) = 3.29306 3.71116 3.50835
# Velocity P-wave (km/s) = 5.97406 6.48052 6.23243
#
# Compressibility (1/GPa) = 0.01895941
#
# Stress axis : x y z
#
# Youngs Moduli (GPa) = 95.86088 76.36774 86.12770
#
# Poissons Ratio (x) = 0.19762 0.17519
# Poissons Ratio (y) = 0.24806 0.29860
# Poissons Ratio (z) = 0.19499 0.26476
#
# Static dielectric constant tensor:
#      x y z
#    x 4.387050 -0.172150 0.106240 
#    y -0.172150 4.787200 0.277520 
#    z 0.106240 0.277520 4.276430 
# 
# 
# High freq. dielectric constant tensor:
#      x y z
#    x 1.972860 -0.020590 0.010840 
#    y -0.020590 2.027080 0.018740 
#    z 0.010840 0.018740 1.964260 
# 
# From -- ./inp_files/99553.got.cif
#   From: 2010.06.25/outbox.cif.g09.slc.cpg/sg2_50_cif.got.tgz:99553.got - 2010.06.27 13:26:56.
