data_PCOD8012816
_publ_section_title
;
Structure prediction by ZEFSAII (Michael W. Deem and Ramdas Pophale) SiO2 
 PCOD8012816
Probable space group: P -1
;
_chemical_formula_sum "Si O2"
_cell_formula_units_Z 14
_cell_length_a 13.244791
_cell_length_b 8.175712
_cell_length_c 11.101003
_cell_angle_alpha 51.010043
_cell_angle_beta 74.747895
_cell_angle_gamma 113.450156
_cell_volume 594.783007
_symmetry_space_group_name_H-M "P -1"
_symmetry_group_IT_number 2
_symmetry_cell_setting 'triclinic'
loop_
_space_group_symop_operation_xyz
x,y,z
-x,-y,-z
loop_
_atom_site_type_symbol
_atom_site_label
_atom_site_fract_x
_atom_site_fract_y
_atom_site_fract_z
Si Si1 0.678452 0.851649 0.675252
Si Si2 0.255673 0.718019 0.156610
Si Si3 0.177952 0.003280 0.908681
Si Si4 0.494092 0.169809 0.078686
Si Si5 0.954472 0.197217 0.609264
Si Si6 0.814609 0.215384 0.220208
Si Si7 0.858386 0.705441 0.056549
O O1 0.555186 0.480346 0.856947
O O2 0.790652 0.949952 0.703602
O O3 0.779293 0.053045 0.432685
O O4 0.576152 0.898115 0.733590
O O5 0.357492 0.767561 0.993665
O O6 0.099012 0.342762 0.408918
O O7 0.196683 0.859290 0.073381
O O8 0.356774 0.873339 0.174741
O O9 0.247223 0.326874 0.794684
O O10 0.264867 0.046936 0.739915
O O11 0.991770 0.768638 0.054420
O O12 0.000000 0.500000 0.500000
O O13 0.941131 0.002763 0.807613
O O14 0.755944 0.372797 0.170863
O O15 0.000000 0.500000 0.000000
#
# Coordination Sequence:
#
# PCOD8012816 Si02
#       7
#     2   2   2   2   2   2   2
#     4  11  24  47  69 101 138 182 232 288 347 415
#     4  11  23  44  69 103 134 181 239 283 344 418
#     4  10  21  40  63  94 139 176 222 275 345 411
#     4  10  25  44  72  95 145 183 226 287 354 410
#     4  12  22  39  77 106 126 179 244 292 337 400
#     4  10  23  40  65 102 138 175 227 286 345 406
#     4  10  22  38  66 103 142 170 220 300 353 387
#
# _framework density 23.537994999999999
#
# number of rings (size 3 to 8) (size 9 to 14) (size 15 to 20)
#    0.000    1.429    2.857    1.714    8.000    0.571 
#    2.571    1.429    0.000    0.000    0.000    0.000 
#    0.000    0.000    0.000    0.000    0.000    0.000 
#
# Total GULP energy -173443.475643 kJ/mol
# GULP energy per Si atom -12388.819689 kJ/mol
# Density = 2.348442 g / cm^3
# Si number density = 23.537995 Si / 1000 Ang^3
#
#
#
# Elastic Constant Matrix: (Units=GPa)
#
#
# Indices 1 2 3 4 5 6 
#
# 1 91.9606 33.3186 21.1407 8.7409 0.0264 -27.2453
# 2 33.3186 137.5156 29.6185 17.5317 -0.7175 -48.1861
# 3 21.1407 29.6185 82.5282 16.7995 -7.8916 -7.1970
# 4 8.7409 17.5317 16.7995 31.2205 -1.6154 -4.6207
# 5 0.0264 -0.7175 -7.8916 -1.6154 32.4376 2.0137
# 6 -27.2453 -48.1861 -7.1970 -4.6207 2.0137 39.0044
#
#
#
# Elastic Compliance Matrix: (Units=1/GPa)
#
#
# Indices 1 2 3 4 5 6 
#
# 1 0.014527 0.001130 -0.003003 -0.001552 -0.001470 0.010881
# 2 0.001130 0.014355 -0.003241 -0.004131 -0.001766 0.017528
# 3 -0.003003 -0.003241 0.015245 -0.005975 0.003602 -0.004182
# 4 -0.001552 -0.004131 -0.005975 0.037602 0.000506 -0.002861
# 5 -0.001470 -0.001766 0.003602 0.000506 0.031949 -0.004133
# 6 0.010881 0.017528 -0.004182 -0.002861 -0.004133 0.053996
#
#
# Mechanical properties :
#
#
# Convention : Reuss Voigt Hill
#
# Bulk Modulus (GPa) = 29.49792 53.35113 41.42453
# Shear Modulus (GPa) = 26.42685 35.72759 31.07722
#
# Velocity S-wave (km/s) = 3.35435 3.90021 3.63754
# Velocity P-wave (km/s) = 5.24991 6.55724 5.93965
#
# Compressibility (1/GPa) = 0.03390069
#
# Stress axis : x y z
#
# Youngs Moduli (GPa) = 68.83835 69.66018 65.59333
#
# Poissons Ratio (x) = -0.07872 0.19695
# Poissons Ratio (y) = -0.07779 0.21258
# Poissons Ratio (z) = 0.20669 0.22576
#
# Static dielectric constant tensor:
#      x y z
#    x 4.258380 -0.614310 -0.222040 
#    y -0.614310 5.269230 0.197390 
#    z -0.222040 0.197390 4.035840 
# 
# 
# High freq. dielectric constant tensor:
#      x y z
#    x 1.921640 -0.025550 -0.000540 
#    y -0.025550 1.952060 0.015800 
#    z -0.000540 0.015800 1.902220 
# 
# From -- ./inp_files/174534.got.cif
#   From: 2010.06.25/outbox.cif.g09.slc.cpg/sg2_88_cif.got.tgz:174534.got - 2010.06.27 13:26:56.
