data_PCOD8012672
_publ_section_title
;
Structure prediction by ZEFSAII (Michael W. Deem and Ramdas Pophale) SiO2 
 PCOD8012672
Probable space group: P -1
;
_chemical_formula_sum "Si O2"
_cell_formula_units_Z 16
_cell_length_a 19.022820
_cell_length_b 12.987442
_cell_length_c 9.369978
_cell_angle_alpha 126.293008
_cell_angle_beta 44.213382
_cell_angle_gamma 153.292916
_cell_volume 716.809901
_symmetry_space_group_name_H-M "P -1"
_symmetry_group_IT_number 2
_symmetry_cell_setting 'triclinic'
loop_
_space_group_symop_operation_xyz
x,y,z
-x,-y,-z
loop_
_atom_site_type_symbol
_atom_site_label
_atom_site_fract_x
_atom_site_fract_y
_atom_site_fract_z
Si Si1 0.409419 0.743370 0.723509
Si Si2 0.380146 0.250983 0.433028
Si Si3 0.297139 0.288501 0.083893
Si Si4 0.884191 0.000053 0.144889
Si Si5 0.764492 0.508606 0.522190
Si Si6 0.748423 0.273479 0.566047
Si Si7 0.910779 0.537888 0.838442
Si Si8 0.886137 0.011796 0.656159
O O1 0.488372 0.732725 0.723120
O O2 0.344384 0.597323 0.556553
O O3 0.569677 0.005550 0.651209
O O4 0.239136 0.639413 0.960808
O O5 0.500000 0.500000 0.500000
O O6 0.205560 0.040374 0.615410
O O7 0.287540 0.172022 0.349322
O O8 0.230597 0.359856 0.278668
O O9 0.201308 0.069876 0.127862
O O10 0.500000 0.500000 0.000000
O O11 0.281275 0.230189 0.896662
O O12 0.014772 0.239933 0.076213
O O13 0.000000 0.000000 0.000000
O O14 0.688638 0.311323 0.563125
O O15 0.982067 0.727268 0.349050
O O16 0.816309 0.418631 0.725749
O O17 0.912198 0.366403 0.330406
O O18 0.000000 0.000000 0.500000
#
# Coordination Sequence:
#
# PCOD8012672 Si02
#       8
#     2   2   2   2   2   2   2   2
#     4  12  25  46  70 103 139 177 238 284 343 414
#     4  12  23  39  67  99 138 180 227 288 342 407
#     4  11  23  40  64 100 139 171 221 281 341 405
#     4  12  22  40  67  98 134 178 224 276 344 407
#     4  11  24  45  68  98 140 186 224 285 347 410
#     4  11  25  47  71  98 142 180 235 286 342 412
#     4  11  25  45  71 101 137 181 233 289 344 410
#     4  10  21  40  62  92 133 175 217 272 341 400
#
# _framework density 22.321121000000002
#
# number of rings (size 3 to 8) (size 9 to 14) (size 15 to 20)
#    0.000    0.750    1.250    8.250    1.750    1.500 
#    2.250    0.000    0.000    0.000    0.000    0.000 
#    0.000    0.000    0.000    0.000    0.000    0.000 
#
# Total GULP energy -198209.288365 kJ/mol
# GULP energy per Si atom -12388.080523 kJ/mol
# Density = 2.227032 g / cm^3
# Si number density = 22.321121 Si / 1000 Ang^3
#
#
#
# Elastic Constant Matrix: (Units=GPa)
#
#
# Indices 1 2 3 4 5 6 
#
# 1 98.8036 36.0431 11.6536 3.5208 1.8883 -5.6208
# 2 36.0431 121.6558 15.8956 -9.2401 -14.9926 -5.7758
# 3 11.6536 15.8956 88.6525 -12.8340 -8.5462 -10.3746
# 4 3.5208 -9.2401 -12.8340 44.7906 7.2477 8.6257
# 5 1.8883 -14.9926 -8.5462 7.2477 17.4918 -1.1305
# 6 -5.6208 -5.7758 -10.3746 8.6257 -1.1305 38.4995
#
#
#
# Elastic Compliance Matrix: (Units=1/GPa)
#
#
# Indices 1 2 3 4 5 6 
#
# 1 0.011954 -0.004010 -0.001422 -0.001604 -0.004694 0.000982
# 2 -0.004010 0.010686 -0.000269 0.000749 0.009218 0.001048
# 3 -0.001422 -0.000269 0.012692 0.002283 0.005360 0.002818
# 4 -0.001604 0.000749 0.002283 0.025807 -0.009122 -0.005556
# 5 -0.004694 0.009218 0.005360 -0.009122 0.072383 0.006311
# 6 0.000982 0.001048 0.002818 -0.005556 0.006311 0.028465
#
#
# Mechanical properties :
#
#
# Convention : Reuss Voigt Hill
#
# Bulk Modulus (GPa) = 41.78860 48.47739 45.13299
# Shear Modulus (GPa) = 27.56868 36.52437 32.04653
#
# Velocity S-wave (km/s) = 3.51820 4.04953 3.79318
# Velocity P-wave (km/s) = 5.93851 6.60532 6.28077
#
# Compressibility (1/GPa) = 0.02392997
#
# Stress axis : x y z
#
# Youngs Moduli (GPa) = 83.65239 93.58398 78.78832
#
# Poissons Ratio (x) = 0.37523 0.11206
# Poissons Ratio (y) = 0.33541 0.02121
# Poissons Ratio (z) = 0.11898 0.02520
#
# Static dielectric constant tensor:
#      x y z
#    x 4.062230 0.039390 0.090830 
#    y 0.039390 3.723870 0.149170 
#    z 0.090830 0.149170 3.588660 
# 
# 
# High freq. dielectric constant tensor:
#      x y z
#    x 1.878820 0.008970 0.010720 
#    y 0.008970 1.898780 -0.017470 
#    z 0.010720 -0.017470 1.873270 
# 
# From -- ./inp_files/333596.got.cif
#   From: 2010.06.25/outbox.cif.g09.slc.cpg/sg2_167_cif.got.tgz:333596.got - 2010.06.27 13:26:56.
