data_PCOD8012886
_publ_section_title
;
Structure prediction by ZEFSAII (Michael W. Deem and Ramdas Pophale) SiO2 
 PCOD8012886
Probable space group: P -1
;
_chemical_formula_sum "Si O2"
_cell_formula_units_Z 14
_cell_length_a 14.245948
_cell_length_b 11.861815
_cell_length_c 5.246046
_cell_angle_alpha 66.481626
_cell_angle_beta 87.986264
_cell_angle_gamma 128.863317
_cell_volume 580.107815
_symmetry_space_group_name_H-M "P -1"
_symmetry_group_IT_number 2
_symmetry_cell_setting 'triclinic'
loop_
_space_group_symop_operation_xyz
x,y,z
-x,-y,-z
loop_
_atom_site_type_symbol
_atom_site_label
_atom_site_fract_x
_atom_site_fract_y
_atom_site_fract_z
Si Si1 0.144997 0.552285 0.179446
Si Si2 0.193164 0.001252 0.914895
Si Si3 0.533638 0.741209 0.235629
Si Si4 0.561599 0.118107 0.137595
Si Si5 0.961398 0.609980 0.166056
Si Si6 0.605493 0.558353 0.144806
Si Si7 0.851233 0.896238 0.659104
O O1 0.136742 0.463152 0.517727
O O2 0.019906 0.527054 0.225642
O O3 0.281747 0.752334 0.976514
O O4 0.126092 0.448576 0.026774
O O5 0.337040 0.064688 0.853363
O O6 0.210444 0.118240 0.588886
O O7 0.151608 0.008860 0.193723
O O8 0.081393 0.812384 0.985314
O O9 0.599738 0.670314 0.231245
O O10 0.425202 0.604125 0.582473
O O11 0.468946 0.762182 0.994680
O O12 0.500000 0.000000 0.500000
O O13 0.500000 0.000000 0.000000
O O14 0.500000 0.500000 0.000000
O O15 0.757819 0.693003 0.916835
O O16 0.000000 0.000000 0.500000
#
# Coordination Sequence:
#
# PCOD8012886 Si02
#       7
#     2   2   2   2   2   2   2
#     4  10  22  41  63  92 130 171 220 270 334 390
#     4  11  22  41  66  95 128 176 223 268 344 404
#     4  10  24  42  69  99 131 181 229 277 334 415
#     4  12  27  44  68 102 139 175 225 284 337 397
#     4  10  21  40  64  89 126 173 219 268 327 410
#     4  10  21  44  70  93 133 180 226 277 338 407
#     4  11  24  41  64  98 136 166 223 284 343 401
#
# _framework density 24.133444000000001
#
# number of rings (size 3 to 8) (size 9 to 14) (size 15 to 20)
#    0.000    1.429    1.429    3.000    2.000    5.714 
#    5.143    0.000    0.000    0.000    0.000    0.000 
#    0.000    0.000    0.000    0.000    0.000    0.000 
#
# Total GULP energy -173445.320301 kJ/mol
# GULP energy per Si atom -12388.951450 kJ/mol
# Density = 2.407852 g / cm^3
# Si number density = 24.133444 Si / 1000 Ang^3
#
#
#
# Elastic Constant Matrix: (Units=GPa)
#
#
# Indices 1 2 3 4 5 6 
#
# 1 48.5856 21.0774 49.9503 3.0327 -1.0751 17.1732
# 2 21.0774 127.7968 65.2091 3.9651 -17.6330 36.5739
# 3 49.9503 65.2091 216.5888 -0.3806 -8.6166 22.2629
# 4 3.0327 3.9651 -0.3806 55.3327 10.6564 -2.4218
# 5 -1.0751 -17.6330 -8.6166 10.6564 39.7491 -9.6691
# 6 17.1732 36.5739 22.2629 -2.4218 -9.6691 31.3218
#
#
#
# Elastic Compliance Matrix: (Units=1/GPa)
#
#
# Indices 1 2 3 4 5 6 
#
# 1 0.032400 0.002608 -0.006612 -0.002183 -0.003000 -0.017204
# 2 0.002608 0.013511 -0.003093 -0.002242 0.002489 -0.014413
# 3 -0.006612 -0.003093 0.006827 0.000671 0.000369 0.002550
# 4 -0.002183 -0.002242 0.000671 0.019531 -0.005368 0.003191
# 5 -0.003000 0.002489 0.000369 -0.005368 0.029439 0.007149
# 6 -0.017204 -0.014413 0.002550 0.003191 0.007149 0.058830
#
#
# Mechanical properties :
#
#
# Convention : Reuss Voigt Hill
#
# Bulk Modulus (GPa) = 25.94486 73.93830 49.94158
# Shear Modulus (GPa) = 26.65553 42.39634 34.52594
#
# Velocity S-wave (km/s) = 3.32702 4.19590 3.78647
# Velocity P-wave (km/s) = 5.05298 7.36057 6.31310
#
# Compressibility (1/GPa) = 0.03854328
#
# Stress axis : x y z
#
# Youngs Moduli (GPa) = 30.86450 74.01638 146.48234
#
# Poissons Ratio (x) = -0.19301 0.96854
# Poissons Ratio (y) = -0.08048 0.45300
# Poissons Ratio (z) = 0.20408 0.22890
#
# Static dielectric constant tensor:
#      x y z
#    x 2.676210 0.352330 -0.963770 
#    y 0.352330 4.470120 0.090550 
#    z -0.963770 0.090550 4.346720 
# 
# 
# High freq. dielectric constant tensor:
#      x y z
#    x 1.931480 0.024880 -0.009060 
#    y 0.024880 1.969270 -0.002690 
#    z -0.009060 -0.002690 1.977930 
# 
# From -- ./inp_files/94467.got.cif
#   From: 2010.06.25/outbox.cif.g09.slc.cpg/sg2_48_cif.got.tgz:94467.got - 2010.06.27 13:26:56.
