data_PCOD8012993
_publ_section_title
;
Structure prediction by ZEFSAII (Michael W. Deem and Ramdas Pophale) SiO2 
 PCOD8012993
Probable space group: P -1
;
_chemical_formula_sum "Si O2"
_cell_formula_units_Z 16
_cell_length_a 11.011489
_cell_length_b 10.418667
_cell_length_c 12.206649
_cell_angle_alpha 74.720449
_cell_angle_beta 58.505652
_cell_angle_gamma 38.538907
_cell_volume 715.704234
_symmetry_space_group_name_H-M "P -1"
_symmetry_group_IT_number 2
_symmetry_cell_setting 'triclinic'
loop_
_space_group_symop_operation_xyz
x,y,z
-x,-y,-z
loop_
_atom_site_type_symbol
_atom_site_label
_atom_site_fract_x
_atom_site_fract_y
_atom_site_fract_z
Si Si1 0.147863 0.189957 0.324727
Si Si2 0.313890 0.003897 0.506073
Si Si3 0.546844 0.492321 0.107727
Si Si4 0.828609 0.658141 0.357426
Si Si5 0.777841 0.112994 0.224397
Si Si6 0.568644 0.017263 0.075429
Si Si7 0.015088 0.283403 0.912417
Si Si8 0.804661 0.050419 0.836057
O O1 0.180606 0.069093 0.441449
O O2 0.363965 0.135652 0.230054
O O3 0.920837 0.444614 0.392616
O O4 0.123437 0.114074 0.247943
O O5 0.191615 0.228536 0.555096
O O6 0.575732 0.834956 0.386020
O O7 0.311069 0.885783 0.620805
O O8 0.579626 0.335101 0.200319
O O9 0.317959 0.731595 0.210132
O O10 0.500000 0.500000 0.000000
O O11 0.762283 0.433151 0.039287
O O12 0.002588 0.590803 0.200500
O O13 0.870985 0.932035 0.142274
O O14 0.974129 0.074387 0.169794
O O15 0.816916 0.784316 0.055889
O O16 0.613924 0.138090 0.994415
O O17 0.500000 0.000000 0.000000
#
# Coordination Sequence:
#
# PCOD8012993 Si02
#       8
#     2   2   2   2   2   2   2   2
#     4  11  23  43  66  91 135 170 209 268 330 384
#     4  10  23  43  64  95 126 166 226 268 310 390
#     4  12  23  40  68  97 129 173 213 264 328 379
#     4  10  22  41  67  96 121 169 218 269 322 376
#     4  11  24  41  65  95 131 169 218 273 317 381
#     4  10  21  40  64  96 134 166 207 267 325 389
#     4  11  20  42  69  94 132 164 218 274 323 381
#     4  11  24  42  61 100 133 169 217 263 326 397
#
# _framework density 22.355605000000001
#
# number of rings (size 3 to 8) (size 9 to 14) (size 15 to 20)
#    0.000    1.250    3.750    2.250    0.000    2.500 
#    0.000    3.750    0.000    0.000    0.000    0.000 
#    0.000    0.000    0.000    0.000    0.000    0.000 
#
# Total GULP energy -198300.633492 kJ/mol
# GULP energy per Si atom -12393.789593 kJ/mol
# Density = 2.230472 g / cm^3
# Si number density = 22.355605 Si / 1000 Ang^3
#
#
#
# Elastic Constant Matrix: (Units=GPa)
#
#
# Indices 1 2 3 4 5 6 
#
# 1 88.2883 28.0473 23.1340 -12.3592 2.3475 -15.0351
# 2 28.0473 120.6804 38.9371 -24.7199 13.5628 2.1495
# 3 23.1340 38.9371 73.9027 -17.4973 9.4358 2.4467
# 4 -12.3592 -24.7199 -17.4973 33.0758 -6.5011 -0.0550
# 5 2.3475 13.5628 9.4358 -6.5011 16.9150 -10.1513
# 6 -15.0351 2.1495 2.4467 -0.0550 -10.1513 32.0599
#
#
#
# Elastic Compliance Matrix: (Units=1/GPa)
#
#
# Indices 1 2 3 4 5 6 
#
# 1 0.015443 -0.002906 -0.004192 0.003466 0.010514 0.011092
# 2 -0.002906 0.011909 -0.003061 0.004525 -0.008458 -0.004598
# 3 -0.004192 -0.003061 0.018895 0.004240 -0.009620 -0.006242
# 4 0.003466 0.004525 0.004240 0.039422 0.011503 0.004708
# 5 0.010514 -0.008458 -0.009620 0.011503 0.096276 0.036736
# 6 0.011092 -0.004598 -0.006242 0.004708 0.036736 0.048818
#
#
# Mechanical properties :
#
#
# Convention : Reuss Voigt Hill
#
# Bulk Modulus (GPa) = 38.56780 51.45648 45.01214
# Shear Modulus (GPa) = 19.25123 29.26034 24.25579
#
# Velocity S-wave (km/s) = 2.93770 3.62174 3.29750
# Velocity P-wave (km/s) = 5.36621 6.36840 5.88866
#
# Compressibility (1/GPa) = 0.02592837
#
# Stress axis : x y z
#
# Youngs Moduli (GPa) = 64.75597 83.97232 52.92303
#
# Poissons Ratio (x) = 0.24399 0.22186
# Poissons Ratio (y) = 0.18816 0.16202
# Poissons Ratio (z) = 0.27147 0.25707
#
# Static dielectric constant tensor:
#      x y z
#    x 4.124330 -0.146660 -0.271260 
#    y -0.146660 4.074230 -0.185240 
#    z -0.271260 -0.185240 4.065690 
# 
# 
# High freq. dielectric constant tensor:
#      x y z
#    x 1.873160 -0.013700 -0.003990 
#    y -0.013700 1.885750 -0.018110 
#    z -0.003990 -0.018110 1.867760 
# 
# From -- ./inp_files/76993.got.cif
#   From: 2010.06.25/outbox.cif.g09.slc.cpg/sg2_39_cif.got.tgz:76993.got - 2010.06.27 13:26:56.
