data_PCOD8012561
_publ_section_title
;
Structure prediction by ZEFSAII (Michael W. Deem and Ramdas Pophale) SiO2 
 PCOD8012561
Probable space group: P -1
;
_chemical_formula_sum "Si O2"
_cell_formula_units_Z 14
_cell_length_a 15.084937
_cell_length_b 7.550052
_cell_length_c 12.433722
_cell_angle_alpha 80.481676
_cell_angle_beta 150.973004
_cell_angle_gamma 103.734754
_cell_volume 664.789546
_symmetry_space_group_name_H-M "P -1"
_symmetry_group_IT_number 2
_symmetry_cell_setting 'triclinic'
loop_
_space_group_symop_operation_xyz
x,y,z
-x,-y,-z
loop_
_atom_site_type_symbol
_atom_site_label
_atom_site_fract_x
_atom_site_fract_y
_atom_site_fract_z
Si Si1 0.015543 0.964353 0.705088
Si Si2 0.480437 0.307095 0.937884
Si Si3 0.219907 0.927396 0.728532
Si Si4 0.104843 0.130819 0.005761
Si Si5 0.485518 0.285635 0.504748
Si Si6 0.332624 0.317795 0.555679
Si Si7 0.849776 0.381398 0.774927
O O1 0.125321 0.055773 0.915924
O O2 0.940674 0.104729 0.529899
O O3 0.149851 0.870393 0.781020
O O4 0.850639 0.818994 0.592510
O O5 0.474400 0.359021 0.800783
O O6 0.305841 0.146977 0.799785
O O7 0.500000 0.500000 0.000000
O O8 0.652961 0.212789 0.157771
O O9 0.972826 0.280254 0.838413
O O10 0.318193 0.202165 0.256695
O O11 0.000000 0.000000 0.000000
O O12 0.500000 0.500000 0.500000
O O13 0.434377 0.221436 0.579329
O O14 0.687054 0.242940 0.684738
O O15 0.267527 0.502016 0.431809
O O16 0.000000 0.500000 0.000000
#
# Coordination Sequence:
#
# PCOD8012561 Si02
#       7
#     2   2   2   2   2   2   2
#     4  10  21  43  64  88 131 171 217 271 335 388
#     4  10  22  41  65  95 124 165 230 271 333 399
#     4   9  22  44  63  91 131 171 212 286 330 379
#     4  12  23  40  64  98 129 171 222 264 329 410
#     4  10  21  41  60  93 129 168 212 263 329 391
#     4  10  21  40  61  89 129 169 212 274 331 390
#     4  11  22  40  63  92 133 171 212 272 325 393
#
# _framework density 21.059297000000001
#
# number of rings (size 3 to 8) (size 9 to 14) (size 15 to 20)
#    0.000    1.714    4.286    0.000    2.000    5.143 
#    7.714    2.143    0.000    0.000    0.000    0.000 
#    0.000    0.000    0.000    0.000    0.000    0.000 
#
# Total GULP energy -173434.634364 kJ/mol
# GULP energy per Si atom -12388.188169 kJ/mol
# Density = 2.101137 g / cm^3
# Si number density = 21.059297 Si / 1000 Ang^3
#
#
#
# Elastic Constant Matrix: (Units=GPa)
#
#
# Indices 1 2 3 4 5 6 
#
# 1 140.1345 23.8230 53.8864 12.4485 -11.4250 10.3818
# 2 23.8230 65.9055 24.3788 5.1709 -8.8687 -4.7583
# 3 53.8864 24.3788 125.2865 13.7544 -11.3878 -1.0471
# 4 12.4485 5.1709 13.7544 28.5104 0.9600 -0.4758
# 5 -11.4250 -8.8687 -11.3878 0.9600 49.1534 1.8432
# 6 10.3818 -4.7583 -1.0471 -0.4758 1.8432 30.3367
#
#
#
# Elastic Compliance Matrix: (Units=1/GPa)
#
#
# Indices 1 2 3 4 5 6 
#
# 1 0.009326 -0.002090 -0.003283 -0.002213 0.001214 -0.003741
# 2 -0.002090 0.017318 -0.002124 -0.001219 0.002050 0.003215
# 3 -0.003283 -0.002124 0.010277 -0.003165 0.001258 0.001019
# 4 -0.002213 -0.001219 -0.003165 0.037885 -0.002252 0.001188
# 5 0.001214 0.002050 0.001258 -0.002252 0.021384 -0.001385
# 6 -0.003741 0.003215 0.001019 0.001188 -0.001385 0.034886
#
#
# Mechanical properties :
#
#
# Convention : Reuss Voigt Hill
#
# Bulk Modulus (GPa) = 45.60299 59.50033 52.55166
# Shear Modulus (GPa) = 32.59912 36.88267 34.74090
#
# Velocity S-wave (km/s) = 3.93869 4.18948 4.06602
# Velocity P-wave (km/s) = 6.51045 7.19148 6.85942
#
# Compressibility (1/GPa) = 0.02192838
#
# Stress axis : x y z
#
# Youngs Moduli (GPa) = 107.22402 57.74344 97.30284
#
# Poissons Ratio (x) = 0.12069 0.31941
# Poissons Ratio (y) = 0.22411 0.20665
# Poissons Ratio (z) = 0.35198 0.12263
#
# Static dielectric constant tensor:
#      x y z
#    x 4.861430 0.103990 0.234210 
#    y 0.103990 3.835840 -0.094060 
#    z 0.234210 -0.094060 4.042310 
# 
# 
# High freq. dielectric constant tensor:
#      x y z
#    x 1.836480 0.008150 0.005100 
#    y 0.008150 1.804530 -0.003290 
#    z 0.005100 -0.003290 1.835150 
# 
# From -- ./inp_files/447414.got.cif
#   From: 2010.06.25/outbox.cif.g09.slc.cpg/sg2_224_cif.got.tgz:447414.got - 2010.06.27 13:26:56.
