data_PCOD8012999
_publ_section_title
;
Structure prediction by ZEFSAII (Michael W. Deem and Ramdas Pophale) SiO2 
 PCOD8012999
Probable space group: P -1
;
_chemical_formula_sum "Si O2"
_cell_formula_units_Z 14
_cell_length_a 8.759992
_cell_length_b 29.194669
_cell_length_c 20.364542
_cell_angle_alpha 169.514310
_cell_angle_beta 39.389637
_cell_angle_gamma 140.635435
_cell_volume 597.550506
_symmetry_space_group_name_H-M "P -1"
_symmetry_group_IT_number 2
_symmetry_cell_setting 'triclinic'
loop_
_space_group_symop_operation_xyz
x,y,z
-x,-y,-z
loop_
_atom_site_type_symbol
_atom_site_label
_atom_site_fract_x
_atom_site_fract_y
_atom_site_fract_z
Si Si1 0.285335 0.008355 0.761739
Si Si2 0.879352 0.650596 0.808118
Si Si3 0.733898 0.965802 0.720380
Si Si4 0.444582 0.269718 0.426696
Si Si5 0.295966 0.263819 0.729135
Si Si6 0.927451 0.579925 0.332632
Si Si7 0.315626 0.259931 0.236888
O O1 0.573058 0.973940 0.622288
O O2 0.246662 0.125690 0.869329
O O3 0.201802 0.180901 0.092640
O O4 0.113470 0.748572 0.461464
O O5 0.682541 0.448510 0.624178
O O6 0.000000 0.500000 0.500000
O O7 0.072879 0.781538 0.980742
O O8 0.735602 0.788611 0.534383
O O9 0.794933 0.798005 0.401889
O O10 0.461798 0.041363 0.910060
O O11 0.329764 0.432082 0.636250
O O12 0.500000 0.000000 0.000000
O O13 0.500000 0.500000 0.000000
O O14 0.051364 0.315829 0.923721
O O15 0.896998 0.684369 0.563628
O O16 0.500000 0.500000 0.500000
#
# Coordination Sequence:
#
# PCOD8012999 Si02
#       7
#     2   2   2   2   2   2   2
#     4  10  21  40  64  97 132 167 219 273 326 386
#     4  12  22  40  69 101 134 167 218 277 324 391
#     4  11  23  44  67  95 136 171 216 274 330 386
#     4  12  22  39  67 103 130 169 218 274 334 386
#     4   9  23  45  68  93 131 182 218 266 329 392
#     4  11  20  41  68  92 129 179 217 266 328 390
#     4  11  22  38  63  97 126 166 221 270 323 386
#
# _framework density 23.428982999999999
#
# number of rings (size 3 to 8) (size 9 to 14) (size 15 to 20)
#    0.000    1.143    4.286    2.143    0.000    0.571 
#    7.714    7.143    3.143    0.000    0.000    0.000 
#    0.000    0.000    0.000    0.000    0.000    0.000 
#
# Total GULP energy -173550.927614 kJ/mol
# GULP energy per Si atom -12396.494830 kJ/mol
# Density = 2.337566 g / cm^3
# Si number density = 23.428983 Si / 1000 Ang^3
#
#
#
# Elastic Constant Matrix: (Units=GPa)
#
#
# Indices 1 2 3 4 5 6 
#
# 1 78.4908 9.0764 25.2566 -13.5108 19.2262 5.1845
# 2 9.0764 73.0968 34.8155 -7.4384 2.6719 14.9831
# 3 25.2566 34.8155 85.5127 -27.2647 13.9496 2.3869
# 4 -13.5108 -7.4384 -27.2647 51.9894 8.2873 4.1834
# 5 19.2262 2.6719 13.9496 8.2873 48.6772 5.5736
# 6 5.1845 14.9831 2.3869 4.1834 5.5736 29.7620
#
#
#
# Elastic Compliance Matrix: (Units=1/GPa)
#
#
# Indices 1 2 3 4 5 6 
#
# 1 0.015793 0.000279 -0.002479 0.003968 -0.005974 -0.002132
# 2 0.000279 0.019436 -0.008563 -0.001288 0.002578 -0.009448
# 3 -0.002479 -0.008563 0.019774 0.009237 -0.006135 0.003007
# 4 0.003968 -0.001288 0.009237 0.026489 -0.008316 -0.002950
# 5 -0.005974 0.002578 -0.006135 -0.008316 0.026339 -0.003529
# 6 -0.002132 -0.009448 0.003007 -0.002950 -0.003529 0.039562
#
#
# Mechanical properties :
#
#
# Convention : Reuss Voigt Hill
#
# Bulk Modulus (GPa) = 29.87109 41.71078 35.79094
# Shear Modulus (GPa) = 27.76580 37.28252 32.52416
#
# Velocity S-wave (km/s) = 3.44627 3.99344 3.72990
# Velocity P-wave (km/s) = 5.34911 6.25341 5.81885
#
# Compressibility (1/GPa) = 0.03347718
#
# Stress axis : x y z
#
# Youngs Moduli (GPa) = 63.31946 51.45196 50.57049
#
# Poissons Ratio (x) = -0.01434 0.12535
# Poissons Ratio (y) = -0.01765 0.43303
# Poissons Ratio (z) = 0.15695 0.44057
#
# Static dielectric constant tensor:
#      x y z
#    x 4.552780 0.245220 -0.259370 
#    y 0.245220 4.240470 -0.055070 
#    z -0.259370 -0.055070 4.385180 
# 
# 
# High freq. dielectric constant tensor:
#      x y z
#    x 1.930390 0.011520 -0.003400 
#    y 0.011520 1.906370 0.005550 
#    z -0.003400 0.005550 1.925270 
# 
# From -- ./inp_files/240128.got.cif
#   From: 2010.06.25/outbox.cif.g09.slc.cpg/sg2_121_cif.got.tgz:240128.got - 2010.06.27 13:26:56.
