data_PCOD8012513
_publ_section_title
;
Structure prediction by ZEFSAII (Michael W. Deem and Ramdas Pophale) SiO2 
 PCOD8012513
Probable space group: P -1
;
_chemical_formula_sum "Si O2"
_cell_formula_units_Z 16
_cell_length_a 9.915603
_cell_length_b 22.770118
_cell_length_c 8.254358
_cell_angle_alpha 141.370476
_cell_angle_beta 107.229964
_cell_angle_gamma 48.326488
_cell_volume 763.015354
_symmetry_space_group_name_H-M "P -1"
_symmetry_group_IT_number 2
_symmetry_cell_setting 'triclinic'
loop_
_space_group_symop_operation_xyz
x,y,z
-x,-y,-z
loop_
_atom_site_type_symbol
_atom_site_label
_atom_site_fract_x
_atom_site_fract_y
_atom_site_fract_z
Si Si1 0.826109 0.001622 0.623046
Si Si2 0.563680 0.746836 0.830429
Si Si3 0.729694 0.917266 0.948231
Si Si4 0.186206 0.192447 0.903771
Si Si5 0.751696 0.108291 0.466547
Si Si6 0.329886 0.356648 0.719618
Si Si7 0.875464 0.477590 0.496360
Si Si8 0.000744 0.372333 0.677224
O O1 0.798903 0.901500 0.418895
O O2 0.060132 0.914370 0.556287
O O3 0.756860 0.072788 0.576900
O O4 0.681594 0.123660 0.965918
O O5 0.633755 0.697031 0.564623
O O6 0.636502 0.619293 0.684621
O O7 0.660428 0.794826 0.049253
O O8 0.910484 0.776969 0.607981
O O9 0.754994 0.877939 0.056228
O O10 0.500000 0.000000 0.000000
O O11 0.760496 0.013881 0.146205
O O12 0.949945 0.344480 0.151133
O O13 0.543251 0.266858 0.697438
O O14 0.194671 0.343041 0.734404
O O15 0.191530 0.520011 0.034271
O O16 0.921782 0.446640 0.635129
O O17 0.000000 0.500000 0.500000
#
# Coordination Sequence:
#
# PCOD8012513 Si02
#       8
#     2   2   2   2   2   2   2   2
#     4  10  22  36  56  77 109 149 181 215 270 319
#     4  11  19  35  56  84 108 141 178 228 266 314
#     4  10  16  33  56  82 109 133 177 226 268 314
#     4   9  18  33  52  82 108 136 179 223 263 319
#     4  10  21  38  55  79 109 145 181 220 265 327
#     4  11  20  33  54  83 109 137 179 218 274 314
#     4   9  16  32  53  79 109 136 172 221 269 315
#     4  10  19  32  54  85 109 140 168 226 273 318
#
# _framework density 20.969434
#
# number of rings (size 3 to 8) (size 9 to 14) (size 15 to 20)
#    0.000    2.000    5.000    1.125    0.000    0.500 
#    0.000    3.750    0.000    7.500    0.000    0.000 
#    0.000    0.000    0.000    0.000    0.000    0.000 
#
# Total GULP energy -198224.971621 kJ/mol
# GULP energy per Si atom -12389.060726 kJ/mol
# Density = 2.092171 g / cm^3
# Si number density = 20.969434 Si / 1000 Ang^3
#
#
#
# Elastic Constant Matrix: (Units=GPa)
#
#
# Indices 1 2 3 4 5 6 
#
# 1 48.5023 31.7199 40.6112 8.5719 -7.3759 -13.5236
# 2 31.7199 75.0106 46.1988 25.3984 -1.2753 -21.3055
# 3 40.6112 46.1988 177.1509 25.8431 -10.9579 -16.3545
# 4 8.5719 25.3984 25.8431 31.3119 -3.3514 -4.6022
# 5 -7.3759 -1.2753 -10.9579 -3.3514 24.4455 6.1894
# 6 -13.5236 -21.3055 -16.3545 -4.6022 6.1894 24.5516
#
#
#
# Elastic Compliance Matrix: (Units=1/GPa)
#
#
# Indices 1 2 3 4 5 6 
#
# 1 0.033535 -0.011938 -0.004560 0.005667 0.007130 0.004340
# 2 -0.011938 0.030524 -0.001445 -0.018712 -0.009755 0.017902
# 3 -0.004560 -0.001445 0.007733 -0.003764 0.001418 0.000323
# 4 0.005667 -0.018712 -0.003764 0.048250 0.007827 -0.008552
# 5 0.007130 -0.009755 0.001418 0.007827 0.047851 -0.014190
# 6 0.004340 0.017902 0.000323 -0.008552 -0.014190 0.060846
#
#
# Mechanical properties :
#
#
# Convention : Reuss Voigt Hill
#
# Bulk Modulus (GPa) = 27.84817 59.74706 43.79762
# Shear Modulus (GPa) = 18.07708 28.20407 23.14057
#
# Velocity S-wave (km/s) = 2.93929 3.67141 3.32556
# Velocity P-wave (km/s) = 4.98281 6.82105 5.97307
#
# Compressibility (1/GPa) = 0.03590900
#
# Stress axis : x y z
#
# Youngs Moduli (GPa) = 29.81922 32.76121 129.30758
#
# Poissons Ratio (x) = 0.39109 0.58960
# Poissons Ratio (y) = 0.35597 0.18680
# Poissons Ratio (z) = 0.13596 0.04733
#
# Static dielectric constant tensor:
#      x y z
#    x 3.367590 0.018860 0.177560 
#    y 0.018860 3.864050 0.507470 
#    z 0.177560 0.507470 4.453830 
# 
# 
# High freq. dielectric constant tensor:
#      x y z
#    x 1.760900 0.000250 0.001640 
#    y 0.000250 1.816710 0.019740 
#    z 0.001640 0.019740 1.844160 
# 
# From -- ./inp_files/285614.got.cif
#   From: 2010.06.25/outbox.cif.g09.slc.cpg/sg2_143_cif.got.tgz:285614.got - 2010.06.27 13:26:56.
