data_PCOD8012564
_publ_section_title
;
Structure prediction by ZEFSAII (Michael W. Deem and Ramdas Pophale) SiO2 
 PCOD8012564
Probable space group: P -1
;
_chemical_formula_sum "Si O2"
_cell_formula_units_Z 16
_cell_length_a 19.381689
_cell_length_b 7.590826
_cell_length_c 15.905309
_cell_angle_alpha 145.811518
_cell_angle_beta 30.938548
_cell_angle_gamma 133.289786
_cell_volume 673.717729
_symmetry_space_group_name_H-M "P -1"
_symmetry_group_IT_number 2
_symmetry_cell_setting 'triclinic'
loop_
_space_group_symop_operation_xyz
x,y,z
-x,-y,-z
loop_
_atom_site_type_symbol
_atom_site_label
_atom_site_fract_x
_atom_site_fract_y
_atom_site_fract_z
Si Si1 0.301976 0.227702 0.773073
Si Si2 0.618905 0.599352 0.857610
Si Si3 0.875431 0.097976 0.041959
Si Si4 0.228306 0.854757 0.011604
Si Si5 0.115622 0.668443 0.591487
Si Si6 0.448177 0.576605 0.320020
Si Si7 0.207722 0.350647 0.545858
Si Si8 0.022493 0.886639 0.525306
O O1 0.176311 0.131711 0.922254
O O2 0.400735 0.388159 0.797133
O O3 0.370180 0.926419 0.533281
O O4 0.263866 0.484314 0.843030
O O5 0.753414 0.347711 0.613357
O O6 0.552882 0.618657 0.842012
O O7 0.663247 0.935575 0.974849
O O8 0.500000 0.500000 0.000000
O O9 0.866014 0.456966 0.225083
O O10 0.036088 0.009842 0.822497
O O11 0.780032 0.077066 0.052130
O O12 0.083336 0.924550 0.230387
O O13 0.162114 0.510394 0.567755
O O14 0.996806 0.483395 0.597300
O O15 0.369045 0.375137 0.392389
O O16 0.168036 0.988642 0.445381
O O17 0.000000 0.000000 0.500000
#
# Coordination Sequence:
#
# PCOD8012564 Si02
#       8
#     2   2   2   2   2   2   2   2
#     4  10  21  42  64  87 125 160 196 254 302 353
#     4  10  21  40  61  90 124 157 203 252 296 357
#     4  11  22  38  62  92 122 160 200 246 306 356
#     4  11  24  39  61  91 123 159 202 247 302 362
#     4   9  19  36  61  85 119 162 199 244 303 360
#     4   9  20  39  64  87 116 165 206 239 305 363
#     4   9  18  36  61  89 119 154 203 251 297 358
#     4   9  18  35  57  85 120 156 195 245 297 350
#
# _framework density 23.748819000000001
#
# number of rings (size 3 to 8) (size 9 to 14) (size 15 to 20)
#    0.000    2.250    0.000    3.375    0.000    5.000 
#    0.000   15.000    0.000    0.000    0.000    0.000 
#    0.000    0.000    0.000    0.000    0.000    0.000 
#
# Total GULP energy -198241.178617 kJ/mol
# GULP energy per Si atom -12390.073664 kJ/mol
# Density = 2.369477 g / cm^3
# Si number density = 23.748819 Si / 1000 Ang^3
#
#
#
# Elastic Constant Matrix: (Units=GPa)
#
#
# Indices 1 2 3 4 5 6 
#
# 1 59.5134 19.6396 17.1155 2.5741 20.2485 0.7143
# 2 19.6396 100.3065 23.8679 -17.2257 12.2509 21.7387
# 3 17.1155 23.8679 77.4452 -20.2085 18.0073 -5.2236
# 4 2.5741 -17.2257 -20.2085 25.4619 5.4279 3.3401
# 5 20.2485 12.2509 18.0073 5.4279 31.1452 7.7743
# 6 0.7143 21.7387 -5.2236 3.3401 7.7743 36.8739
#
#
#
# Elastic Compliance Matrix: (Units=1/GPa)
#
#
# Indices 1 2 3 4 5 6 
#
# 1 0.023279 -0.004493 -0.001611 -0.004589 -0.012911 0.005107
# 2 -0.004493 0.015527 -0.000679 0.012230 -0.002493 -0.009745
# 3 -0.001611 -0.000679 0.023413 0.021255 -0.017292 0.005469
# 4 -0.004589 0.012230 0.021255 0.070934 -0.025173 -0.005228
# 5 -0.012911 -0.002493 -0.017292 -0.025173 0.058562 -0.010796
# 6 0.005107 -0.009745 0.005469 -0.005228 -0.010796 0.036290
#
#
# Mechanical properties :
#
#
# Convention : Reuss Voigt Hill
#
# Bulk Modulus (GPa) = 20.55321 39.83458 30.19389
# Shear Modulus (GPa) = 19.39574 30.47235 24.93405
#
# Velocity S-wave (km/s) = 2.86090 3.58594 3.24374
# Velocity P-wave (km/s) = 4.42563 5.82709 5.17403
#
# Compressibility (1/GPa) = 0.04865420
#
# Stress axis : x y z
#
# Youngs Moduli (GPa) = 42.95780 64.40225 42.71059
#
# Poissons Ratio (x) = 0.28933 0.06881
# Poissons Ratio (y) = 0.19299 0.02899
# Poissons Ratio (z) = 0.06921 0.04372
#
# Static dielectric constant tensor:
#      x y z
#    x 4.162870 0.551050 0.267320 
#    y 0.551050 4.743140 -0.084600 
#    z 0.267320 -0.084600 4.270930 
# 
# 
# High freq. dielectric constant tensor:
#      x y z
#    x 1.927540 0.029170 0.024610 
#    y 0.029170 1.943800 -0.005770 
#    z 0.024610 -0.005770 1.932760 
# 
# From -- ./inp_files/577658.got.cif
#   From: 2010.06.25/outbox.cif.g09.slc.cpg/sg2_289_cif.got.tgz:577658.got - 2010.06.27 13:26:56.
