data_PCOD8012542
_publ_section_title
;
Structure prediction by ZEFSAII (Michael W. Deem and Ramdas Pophale) SiO2 
 PCOD8012542
Probable space group: P -1
;
_chemical_formula_sum "Si O2"
_cell_formula_units_Z 14
_cell_length_a 16.878937
_cell_length_b 11.697262
_cell_length_c 9.514591
_cell_angle_alpha 141.192921
_cell_angle_beta 115.020614
_cell_angle_gamma 39.867918
_cell_volume 679.149272
_symmetry_space_group_name_H-M "P -1"
_symmetry_group_IT_number 2
_symmetry_cell_setting 'triclinic'
loop_
_space_group_symop_operation_xyz
x,y,z
-x,-y,-z
loop_
_atom_site_type_symbol
_atom_site_label
_atom_site_fract_x
_atom_site_fract_y
_atom_site_fract_z
Si Si1 0.770143 0.737815 0.765311
Si Si2 0.446663 0.473781 0.767424
Si Si3 0.047320 0.123796 0.703828
Si Si4 0.498975 0.660628 0.764638
Si Si5 0.287680 0.557607 0.475779
Si Si6 0.303476 0.993875 0.320950
Si Si7 0.061326 0.393112 0.741500
O O1 0.795000 0.492972 0.602300
O O2 0.722175 0.821596 0.647218
O O3 0.910188 0.622730 0.780463
O O4 0.650270 0.008077 0.033116
O O5 0.525288 0.523527 0.804632
O O6 0.377582 0.458859 0.585066
O O7 0.558880 0.174155 0.649348
O O8 0.328490 0.748539 0.043388
O O9 0.094773 0.166735 0.647733
O O10 0.176798 0.893086 0.683944
O O11 0.931928 0.427178 0.992415
O O12 0.000000 0.000000 0.500000
O O13 0.500000 0.500000 0.500000
O O14 0.615657 0.616415 0.758719
O O15 0.171059 0.216545 0.531938
#
# Coordination Sequence:
#
# PCOD8012542 Si02
#       7
#     2   2   2   2   2   2   2
#     4  11  22  37  59  91 127 160 201 252 299 370
#     4   9  20  39  63  86 120 156 210 250 296 366
#     4  11  23  42  62  92 121 154 207 256 303 361
#     4   9  18  35  60  85 114 160 202 248 305 347
#     4  11  21  38  60  91 123 155 205 257 305 357
#     4  10  21  40  61  87 118 170 200 240 310 358
#     4  11  23  42  66  87 127 161 201 254 305 362
#
# _framework density 20.614025000000002
#
# number of rings (size 3 to 8) (size 9 to 14) (size 15 to 20)
#    0.000    1.714    1.429    4.286    0.000    4.000 
#    5.143    1.429    0.000    0.000    0.000    0.000 
#    0.000    0.000    0.000    0.000    0.000    0.000 
#
# Total GULP energy -173511.059845 kJ/mol
# GULP energy per Si atom -12393.647132 kJ/mol
# Density = 2.056711 g / cm^3
# Si number density = 20.614025 Si / 1000 Ang^3
#
#
#
# Elastic Constant Matrix: (Units=GPa)
#
#
# Indices 1 2 3 4 5 6 
#
# 1 90.7691 27.3333 64.1252 3.7504 -2.7812 7.0315
# 2 27.3333 112.6988 32.5735 8.3573 4.8741 13.9419
# 3 64.1252 32.5735 128.5219 4.8391 -20.3982 6.4013
# 4 3.7504 8.3573 4.8391 31.6836 -1.5293 2.8577
# 5 -2.7812 4.8741 -20.3982 -1.5293 34.7796 0.6218
# 6 7.0315 13.9419 6.4013 2.8577 0.6218 30.0096
#
#
#
# Elastic Compliance Matrix: (Units=1/GPa)
#
#
# Indices 1 2 3 4 5 6 
#
# 1 0.017838 -0.001331 -0.009058 -0.000419 -0.003691 -0.001513
# 2 -0.001331 0.010596 -0.002212 -0.002090 -0.002911 -0.003880
# 3 -0.009058 -0.002212 0.014113 -0.000120 0.007858 -0.000012
# 4 -0.000419 -0.002090 -0.000120 0.032444 0.001652 -0.002029
# 5 -0.003691 -0.002911 0.007858 0.001652 0.033552 -0.000311
# 6 -0.001513 -0.003880 -0.000012 -0.002029 -0.000311 0.035682
#
#
# Mechanical properties :
#
#
# Convention : Reuss Voigt Hill
#
# Bulk Modulus (GPa) = 57.64663 64.45043 61.04853
# Shear Modulus (GPa) = 28.53772 33.15841 30.84806
#
# Velocity S-wave (km/s) = 3.72477 4.01501 3.87261
# Velocity P-wave (km/s) = 6.82085 7.26821 7.04808
#
# Compressibility (1/GPa) = 0.01734707
#
# Stress axis : x y z
#
# Youngs Moduli (GPa) = 56.06050 94.37484 70.85784
#
# Poissons Ratio (x) = 0.12557 0.64180
# Poissons Ratio (y) = 0.07459 0.15672
# Poissons Ratio (z) = 0.50777 0.20874
#
# Static dielectric constant tensor:
#      x y z
#    x 3.953400 0.238390 -0.333310 
#    y 0.238390 3.921060 0.018660 
#    z -0.333310 0.018660 3.837890 
# 
# 
# High freq. dielectric constant tensor:
#      x y z
#    x 1.783480 0.014980 -0.009530 
#    y 0.014980 1.820760 0.006510 
#    z -0.009530 0.006510 1.806730 
# 
# From -- ./inp_files/285840.got.cif
#   From: 2010.06.25/outbox.cif.g09.slc.cpg/sg2_143_cif.got.tgz:285840.got - 2010.06.27 13:26:56.
