data_PCOD8012619
_publ_section_title
;
Structure prediction by ZEFSAII (Michael W. Deem and Ramdas Pophale) SiO2 
 PCOD8012619
Probable space group: P -1
;
_chemical_formula_sum "Si O2"
_cell_formula_units_Z 14
_cell_length_a 8.527550
_cell_length_b 22.897495
_cell_length_c 11.699158
_cell_angle_alpha 147.634869
_cell_angle_beta 141.141481
_cell_angle_gamma 63.034963
_cell_volume 608.976718
_symmetry_space_group_name_H-M "P -1"
_symmetry_group_IT_number 2
_symmetry_cell_setting 'triclinic'
loop_
_space_group_symop_operation_xyz
x,y,z
-x,-y,-z
loop_
_atom_site_type_symbol
_atom_site_label
_atom_site_fract_x
_atom_site_fract_y
_atom_site_fract_z
Si Si1 0.167253 0.403406 0.712473
Si Si2 0.120228 0.194617 0.198165
Si Si3 0.853727 0.361438 0.915177
Si Si4 0.719547 0.876863 0.427381
Si Si5 0.650097 0.933633 0.232302
Si Si6 0.954084 0.261893 0.579981
Si Si7 0.798397 0.203439 0.828988
O O1 0.983335 0.253549 0.301501
O O2 0.198301 0.382380 0.829275
O O3 0.500000 0.500000 0.000000
O O4 0.001574 0.477918 0.728956
O O5 0.477161 0.261262 0.536696
O O6 0.087019 0.228167 0.105132
O O7 0.907700 0.033596 0.833356
O O8 0.982708 0.337993 0.837332
O O9 0.958575 0.323162 0.023504
O O10 0.594782 0.857340 0.195160
O O11 0.428182 0.786596 0.199888
O O12 0.950922 0.836194 0.501038
O O13 0.606745 0.052737 0.414227
O O14 0.397570 0.824707 0.815834
O O15 0.000000 0.000000 0.500000
#
# Coordination Sequence:
#
# PCOD8012619 Si02
#       7
#     2   2   2   2   2   2   2
#     4  10  22  41  63  86 117 162 209 247 290 352
#     4  10  21  40  62  87 120 156 200 254 299 347
#     4  11  24  39  59  87 121 163 203 242 295 357
#     4  11  22  37  63  94 120 155 200 248 307 363
#     4  11  23  39  62  94 126 156 196 248 308 365
#     4  12  23  40  63  89 126 160 194 250 306 354
#     4  11  22  38  61  91 122 156 203 249 300 362
#
# _framework density 22.989386
#
# number of rings (size 3 to 8) (size 9 to 14) (size 15 to 20)
#    0.000    1.143    0.000    9.000    0.000    4.000 
#    0.000    2.857    0.000    9.429    0.000    0.000 
#    0.000    0.000    0.000    0.000    0.000    0.000 
#
# Total GULP energy -173602.743814 kJ/mol
# GULP energy per Si atom -12400.195987 kJ/mol
# Density = 2.293706 g / cm^3
# Si number density = 22.989386 Si / 1000 Ang^3
#
#
#
# Elastic Constant Matrix: (Units=GPa)
#
#
# Indices 1 2 3 4 5 6 
#
# 1 147.7629 53.6068 20.8492 19.3699 -14.8960 11.5431
# 2 53.6068 146.9770 29.3346 35.1068 -13.2186 9.5439
# 3 20.8492 29.3346 23.8326 16.9461 -9.5368 -3.8280
# 4 19.3699 35.1068 16.9461 35.9041 -10.5137 5.8343
# 5 -14.8960 -13.2186 -9.5368 -10.5137 33.7467 1.1797
# 6 11.5431 9.5439 -3.8280 5.8343 1.1797 41.4276
#
#
#
# Elastic Compliance Matrix: (Units=1/GPa)
#
#
# Indices 1 2 3 4 5 6 
#
# 1 0.008489 -0.001876 -0.005308 0.000712 0.001824 -0.002576
# 2 -0.001876 0.010401 -0.007932 -0.005283 -0.000577 -0.001846
# 3 -0.005308 -0.007932 0.081987 -0.027957 0.008500 0.014577
# 4 0.000712 -0.005283 -0.027957 0.048958 0.005899 -0.008627
# 5 0.001824 -0.000577 0.008500 0.005899 0.034501 -0.001403
# 6 -0.002576 -0.001846 0.014577 -0.008627 -0.001403 0.027883
#
#
# Mechanical properties :
#
#
# Convention : Reuss Voigt Hill
#
# Bulk Modulus (GPa) = 14.15499 58.46152 36.30826
# Shear Modulus (GPa) = 18.79709 36.53449 27.66579
#
# Velocity S-wave (km/s) = 2.86255 3.99079 3.47279
# Velocity P-wave (km/s) = 4.13474 6.83522 5.64873
#
# Compressibility (1/GPa) = 0.07064646
#
# Stress axis : x y z
#
# Youngs Moduli (GPa) = 117.80372 96.14534 12.19699
#
# Poissons Ratio (x) = 0.18032 0.06474
# Poissons Ratio (y) = 0.22094 0.09675
# Poissons Ratio (z) = 0.62527 0.76263
#
# Static dielectric constant tensor:
#      x y z
#    x 4.394160 -0.007660 -0.330050 
#    y -0.007660 4.255610 0.185060 
#    z -0.330050 0.185060 4.127130 
# 
# 
# High freq. dielectric constant tensor:
#      x y z
#    x 1.922010 0.001780 -0.011020 
#    y 0.001780 1.915100 0.010400 
#    z -0.011020 0.010400 1.888880 
# 
# From -- ./inp_files/191107.got.cif
#   From: 2010.06.25/outbox.cif.g09.slc.cpg/sg2_96_cif.got.tgz:191107.got - 2010.06.27 13:26:56.
