data_PCOD8012795
_publ_section_title
;
Structure prediction by ZEFSAII (Michael W. Deem and Ramdas Pophale) SiO2 
 PCOD8012795
Probable space group: P -1
;
_chemical_formula_sum "Si O2"
_cell_formula_units_Z 16
_cell_length_a 22.679671
_cell_length_b 19.533360
_cell_length_c 12.439065
_cell_angle_alpha 154.093679
_cell_angle_beta 144.682348
_cell_angle_gamma 18.427910
_cell_volume 732.593806
_symmetry_space_group_name_H-M "P -1"
_symmetry_group_IT_number 2
_symmetry_cell_setting 'triclinic'
loop_
_space_group_symop_operation_xyz
x,y,z
-x,-y,-z
loop_
_atom_site_type_symbol
_atom_site_label
_atom_site_fract_x
_atom_site_fract_y
_atom_site_fract_z
Si Si1 0.899454 0.260632 0.869579
Si Si2 0.630954 0.907087 0.655718
Si Si3 0.909501 0.556393 0.051819
Si Si4 0.393554 0.488522 0.058476
Si Si5 0.510000 0.197421 0.599306
Si Si6 0.465450 0.754055 0.526998
Si Si7 0.046801 0.451755 0.661384
Si Si8 0.788804 0.376486 0.637391
O O1 0.755984 0.416611 0.774302
O O2 0.813535 0.296272 0.899861
O O3 0.930991 0.401120 0.139765
O O4 0.106188 0.915873 0.662188
O O5 0.572035 0.875720 0.625990
O O6 0.863122 0.605282 0.547290
O O7 0.500000 0.000000 0.500000
O O8 0.559054 0.181980 0.942734
O O9 0.021158 0.462228 0.193141
O O10 0.697046 0.902465 0.237462
O O11 0.918217 0.358331 0.777608
O O12 0.000000 0.500000 0.000000
O O13 0.409093 0.427155 0.868873
O O14 0.399350 0.666213 0.333817
O O15 0.438422 0.368235 0.621897
O O16 0.745058 0.903626 0.549373
O O17 0.591291 0.650187 0.666150
#
# Coordination Sequence:
#
# PCOD8012795 Si02
#       8
#     2   2   2   2   2   2   2   2
#     4  10  21  40  63  92 131 160 217 261 316 376
#     4  10  22  39  64  93 121 169 215 251 310 377
#     4  10  22  38  61  90 122 164 213 253 319 389
#     4  11  22  40  63  91 126 167 215 257 307 383
#     4  10  23  43  61  95 132 164 214 258 313 387
#     4  11  23  40  64  90 131 166 204 270 319 370
#     4  10  21  40  65  90 130 169 200 271 314 363
#     4  10  22  39  61  92 124 167 207 268 318 369
#
# _framework density 21.840205999999998
#
# number of rings (size 3 to 8) (size 9 to 14) (size 15 to 20)
#    0.000    1.750    1.250    2.250    1.750    3.500 
#    4.500    0.625    0.000    0.000    0.000    0.000 
#    0.000    0.000    0.000    0.000    0.000    0.000 
#
# Total GULP energy -198279.271250 kJ/mol
# GULP energy per Si atom -12392.454453 kJ/mol
# Density = 2.179050 g / cm^3
# Si number density = 21.840206 Si / 1000 Ang^3
#
#
#
# Elastic Constant Matrix: (Units=GPa)
#
#
# Indices 1 2 3 4 5 6 
#
# 1 126.1954 21.6173 19.2412 -12.2278 -5.6108 -4.7188
# 2 21.6173 96.0264 16.4691 -13.2021 0.9016 -2.4902
# 3 19.2412 16.4691 56.9794 -3.9134 -2.4430 1.7344
# 4 -12.2278 -13.2021 -3.9134 22.2453 5.4745 0.3195
# 5 -5.6108 0.9016 -2.4430 5.4745 32.8527 5.9223
# 6 -4.7188 -2.4902 1.7344 0.3195 5.9223 28.3009
#
#
#
# Elastic Compliance Matrix: (Units=1/GPa)
#
#
# Indices 1 2 3 4 5 6 
#
# 1 0.008913 -0.001041 -0.002476 0.003704 0.000497 0.001400
# 2 -0.001041 0.012096 -0.002824 0.006600 -0.002076 0.001424
# 3 -0.002476 -0.002824 0.019334 0.000032 0.001476 -0.002155
# 4 0.003704 0.006600 0.000032 0.053049 -0.008827 0.002445
# 5 0.000497 -0.002076 0.001476 -0.008827 0.033439 -0.007088
# 6 0.001400 0.001424 -0.002155 0.002445 -0.007088 0.037281
#
#
# Mechanical properties :
#
#
# Convention : Reuss Voigt Hill
#
# Bulk Modulus (GPa) = 36.15110 43.76180 39.95645
# Shear Modulus (GPa) = 26.87955 31.47134 29.17544
#
# Velocity S-wave (km/s) = 3.51199 3.80014 3.65891
# Velocity P-wave (km/s) = 5.74751 6.27181 6.01538
#
# Compressibility (1/GPa) = 0.02766168
#
# Stress axis : x y z
#
# Youngs Moduli (GPa) = 112.19045 82.66966 51.72354
#
# Poissons Ratio (x) = 0.08607 0.12807
# Poissons Ratio (y) = 0.11680 0.14605
# Poissons Ratio (z) = 0.27778 0.23344
#
# Static dielectric constant tensor:
#      x y z
#    x 2.779530 0.183070 1.857880 
#    y 0.183070 3.756830 0.072060 
#    z 1.857880 0.072060 2.284420 
# 
# 
# High freq. dielectric constant tensor:
#      x y z
#    x 1.874480 0.009300 0.003980 
#    y 0.009300 1.834330 0.002670 
#    z 0.003980 0.002670 1.856820 
# 
# From -- ./inp_files/451045.got.cif
#   From: 2010.06.25/outbox.cif.g09.slc.cpg/sg2_226_cif.got.tgz:451045.got - 2010.06.27 13:26:56.
