data_PCOD8012341
_publ_section_title
;
Structure prediction by ZEFSAII (Michael W. Deem and Ramdas Pophale) SiO2 
 PCOD8012341
Probable space group: P -1
;
_chemical_formula_sum "Si O2"
_cell_formula_units_Z 12
_cell_length_a 5.315054
_cell_length_b 12.198836
_cell_length_c 16.879819
_cell_angle_alpha 34.119223
_cell_angle_beta 119.806570
_cell_angle_gamma 99.409969
_cell_volume 458.332028
_symmetry_space_group_name_H-M "P -1"
_symmetry_group_IT_number 2
_symmetry_cell_setting 'triclinic'
loop_
_space_group_symop_operation_xyz
x,y,z
-x,-y,-z
loop_
_atom_site_type_symbol
_atom_site_label
_atom_site_fract_x
_atom_site_fract_y
_atom_site_fract_z
Si Si1 0.020634 0.299941 0.752386
Si Si2 0.978784 0.278616 0.260966
Si Si3 0.548914 0.502494 0.331701
Si Si4 0.553649 0.058265 0.590085
Si Si5 0.529877 0.779638 0.876331
Si Si6 0.320203 0.880670 0.953807
O O1 0.114916 0.478100 0.620753
O O2 0.654131 0.431266 0.656597
O O3 0.026308 0.128485 0.788984
O O4 0.311556 0.146334 0.954941
O O5 0.154102 0.177058 0.434093
O O6 0.656431 0.253755 0.208912
O O7 0.246880 0.158377 0.305256
O O8 0.865778 0.543750 0.088924
O O9 0.665536 0.243891 0.483022
O O10 0.307937 0.676898 0.120343
O O11 0.617271 0.967992 0.745475
O O12 0.281974 0.866372 0.861757
#
# Coordination Sequence:
#
# PCOD8012341 Si02
#       6
#     2   2   2   2   2   2
#     4   9  20  40  68  98 135 185 220 276 346 411
#     4  10  25  43  64  98 141 179 230 279 354 401
#     4  10  21  39  69  96 134 180 226 272 344 407
#     4  11  24  42  69  98 139 181 227 286 347 409
#     4  11  23  43  69 102 132 179 234 286 337 415
#     4   9  21  37  67  98 135 178 226 279 341 410
#
# _framework density 26.181895999999998
#
# number of rings (size 3 to 8) (size 9 to 14) (size 15 to 20)
#    1.000    1.000    0.000    2.500    2.333    8.000 
#    0.000    1.667    0.000    0.000    0.000    0.000 
#    0.000    0.000    0.000    0.000    0.000    0.000 
#
# Total GULP energy -148758.045413 kJ/mol
# GULP energy per Si atom -12396.503784 kJ/mol
# Density = 2.612230 g / cm^3
# Si number density = 26.181896 Si / 1000 Ang^3
#
#
#
# Elastic Constant Matrix: (Units=GPa)
#
#
# Indices 1 2 3 4 5 6 
#
# 1 131.5714 28.7148 37.3483 -24.7962 -22.9498 -32.5925
# 2 28.7148 95.7433 48.0084 -24.0445 -25.0725 -23.6220
# 3 37.3483 48.0084 96.8974 -32.9820 -15.5226 -33.6421
# 4 -24.7962 -24.0445 -32.9820 22.5338 6.9511 -2.1121
# 5 -22.9498 -25.0725 -15.5226 6.9511 39.1176 3.2726
# 6 -32.5925 -23.6220 -33.6421 -2.1121 3.2726 31.0897
#
#
#
# Elastic Compliance Matrix: (Units=1/GPa)
#
#
# Indices 1 2 3 4 5 6 
#
# 1 0.000938 -0.006921 -0.017847 -0.034018 -0.002781 -0.025607
# 2 -0.006921 0.010439 -0.018508 -0.026089 0.001704 -0.021303
# 3 -0.017847 -0.018508 -0.012795 -0.058770 -0.012847 -0.049258
# 4 -0.034018 -0.026089 -0.058770 -0.109126 -0.030294 -0.123304
# 5 -0.002781 0.001704 -0.012847 -0.030294 0.027019 -0.020424
# 6 -0.025607 -0.021303 -0.049258 -0.123304 -0.020424 -0.070394
#
#
# Mechanical properties :
#
#
# Convention : Reuss Voigt Hill
#
# Bulk Modulus (GPa) = -11.36739 61.37278 25.00269
# Shear Modulus (GPa) = -51.71192 32.55759 -9.57716
#
# Velocity S-wave (km/s) = -4.44903 3.53018 -1.91465
# Velocity P-wave (km/s) = 5.54464 6.33309 2.16391
#
# Compressibility (1/GPa) = -0.08797091
#
# Stress axis : x y z
#
# Youngs Moduli (GPa) = 1066.39199 95.79158 -78.15622
#
# Poissons Ratio (x) = 0.66299 -1.39489
# Poissons Ratio (y) = 7.38072 -1.44651
# Poissons Ratio (z) = 19.03237 1.77290
#
# Static dielectric constant tensor:
#      x y z
#    x 4.186570 0.052980 -0.082220 
#    y 0.052980 4.462410 -0.004720 
#    z -0.082220 -0.004720 4.714190 
# 
# 
# High freq. dielectric constant tensor:
#      x y z
#    x 2.030070 0.003040 -0.000710 
#    y 0.003040 2.035670 -0.006240 
#    z -0.000710 -0.006240 2.052430 
# 
# From -- ./inp_files/137953.got.cif
#   From: 2010.06.25/outbox.cif.g09.slc.cpg/sg2_69_cif.got.tgz:137953.got - 2010.06.27 13:26:56.
