data_PCOD8012615
_publ_section_title
;
Structure prediction by ZEFSAII (Michael W. Deem and Ramdas Pophale) SiO2 
 PCOD8012615
Probable space group: P -1
;
_chemical_formula_sum "Si O2"
_cell_formula_units_Z 16
_cell_length_a 17.037358
_cell_length_b 22.485173
_cell_length_c 7.426081
_cell_angle_alpha 53.553518
_cell_angle_beta 121.114023
_cell_angle_gamma 163.355417
_cell_volume 638.282347
_symmetry_space_group_name_H-M "P -1"
_symmetry_group_IT_number 2
_symmetry_cell_setting 'triclinic'
loop_
_space_group_symop_operation_xyz
x,y,z
-x,-y,-z
loop_
_atom_site_type_symbol
_atom_site_label
_atom_site_fract_x
_atom_site_fract_y
_atom_site_fract_z
Si Si1 0.515666 0.726408 0.192709
Si Si2 0.091205 0.986357 0.167711
Si Si3 0.289603 0.696478 0.144611
Si Si4 0.993494 0.879813 0.651722
Si Si5 0.254909 0.829152 0.732617
Si Si6 0.085489 0.788364 0.928962
Si Si7 0.876360 0.294760 0.588024
Si Si8 0.574697 0.503996 0.415013
O O1 0.303101 0.632001 0.153541
O O2 0.358422 0.529015 0.391614
O O3 0.788031 0.934483 0.269001
O O4 0.615903 0.807934 0.957031
O O5 0.128391 0.001075 0.398125
O O6 0.859201 0.754602 0.217857
O O7 0.000000 0.000000 0.000000
O O8 0.078645 0.518406 0.381648
O O9 0.592289 0.944086 0.137946
O O10 0.185233 0.687785 0.922283
O O11 0.705574 0.705721 0.665341
O O12 0.905581 0.725922 0.825530
O O13 0.056725 0.724873 0.817811
O O14 0.200075 0.809429 0.496712
O O15 0.582732 0.096368 0.689555
O O16 0.969481 0.645288 0.203876
O O17 0.500000 0.500000 0.500000
#
# Coordination Sequence:
#
# PCOD8012615 Si02
#       8
#     2   2   2   2   2   2   2   2
#     4  11  23  42  63  91 130 159 204 261 302 368
#     4  11  23  43  66  88 124 163 205 257 314 361
#     4  10  22  40  63  94 124 160 209 252 302 367
#     4  10  23  42  61  94 129 158 211 252 304 370
#     4  10  22  40  65  90 126 162 206 254 301 362
#     4  10  23  41  60  93 129 160 204 259 295 366
#     4  10  21  40  62  86 126 162 205 247 315 350
#     4  10  21  40  64  90 121 161 205 251 303 372
#
# _framework density 25.067276
#
# number of rings (size 3 to 8) (size 9 to 14) (size 15 to 20)
#    0.000    1.750    2.500    2.250    0.000   11.500 
#    4.500    0.000    0.000    0.000    0.000    0.000 
#    0.000    0.000    0.000    0.000    0.000    0.000 
#
# Total GULP energy -198409.818428 kJ/mol
# GULP energy per Si atom -12400.613652 kJ/mol
# Density = 2.501022 g / cm^3
# Si number density = 25.067276 Si / 1000 Ang^3
#
#
#
# Elastic Constant Matrix: (Units=GPa)
#
#
# Indices 1 2 3 4 5 6 
#
# 1 104.0689 0.5997 27.5185 -0.3757 18.9750 7.1820
# 2 0.5997 29.4446 16.4013 -1.5942 9.8854 -0.4755
# 3 27.5185 16.4013 139.7613 -7.5303 3.4505 10.5936
# 4 -0.3757 -1.5942 -7.5303 47.6830 -4.2896 -1.0985
# 5 18.9750 9.8854 3.4505 -4.2896 31.4033 -2.2572
# 6 7.1820 -0.4755 10.5936 -1.0985 -2.2572 38.2365
#
#
#
# Elastic Compliance Matrix: (Units=1/GPa)
#
#
# Indices 1 2 3 4 5 6 
#
# 1 0.011920 0.003892 -0.002495 -0.000975 -0.008432 -0.002025
# 2 0.003892 0.041888 -0.005380 -0.000762 -0.015024 0.000372
# 3 -0.002495 -0.005380 0.008423 0.001300 0.002327 -0.001757
# 4 -0.000975 -0.000762 0.001300 0.021489 0.003668 0.000648
# 5 -0.008432 -0.015024 0.002327 0.003668 0.042154 0.003346
# 6 -0.002025 0.000372 -0.001757 0.000648 0.003346 0.027241
#
#
# Mechanical properties :
#
#
# Convention : Reuss Voigt Hill
#
# Bulk Modulus (GPa) = 18.42762 40.25710 29.34236
# Shear Modulus (GPa) = 27.90644 38.71490 33.31067
#
# Velocity S-wave (km/s) = 3.34018 3.93420 3.64930
# Velocity P-wave (km/s) = 4.71624 6.06067 5.43022
#
# Compressibility (1/GPa) = 0.05426636
#
# Stress axis : x y z
#
# Youngs Moduli (GPa) = 83.89291 23.87295 118.71673
#
# Poissons Ratio (x) = -0.09292 0.29615
# Poissons Ratio (y) = -0.32653 0.63874
# Poissons Ratio (z) = 0.20928 0.12844
#
# Static dielectric constant tensor:
#      x y z
#    x 4.535710 0.099560 0.112380 
#    y 0.099560 4.890310 -0.163730 
#    z 0.112380 -0.163730 4.811170 
# 
# 
# High freq. dielectric constant tensor:
#      x y z
#    x 1.988160 -0.003150 0.011760 
#    y -0.003150 2.012010 -0.005500 
#    z 0.011760 -0.005500 2.000450 
# 
# From -- ./inp_files/338438.got.cif
#   From: 2010.06.25/outbox.cif.g09.slc.cpg/sg2_170_cif.got.tgz:338438.got - 2010.06.27 13:26:56.
