data_PCOD8012640
_publ_section_title
;
Structure prediction by ZEFSAII (Michael W. Deem and Ramdas Pophale) SiO2 
 PCOD8012640
Probable space group: P -1
;
_chemical_formula_sum "Si O2"
_cell_formula_units_Z 16
_cell_length_a 15.402252
_cell_length_b 9.806287
_cell_length_c 22.087049
_cell_angle_alpha 135.264734
_cell_angle_beta 20.481674
_cell_angle_gamma 137.503381
_cell_volume 785.829360
_symmetry_space_group_name_H-M "P -1"
_symmetry_group_IT_number 2
_symmetry_cell_setting 'triclinic'
loop_
_space_group_symop_operation_xyz
x,y,z
-x,-y,-z
loop_
_atom_site_type_symbol
_atom_site_label
_atom_site_fract_x
_atom_site_fract_y
_atom_site_fract_z
Si Si1 0.443376 0.166641 0.402694
Si Si2 0.145345 0.113289 0.752842
Si Si3 0.581321 0.912182 0.016906
Si Si4 0.188007 0.889919 0.371456
Si Si5 0.839750 0.514483 0.550746
Si Si6 0.500873 0.089543 0.609581
Si Si7 0.146495 0.408586 0.749347
Si Si8 0.570375 0.298633 0.070494
O O1 0.221423 0.240695 0.605319
O O2 0.667349 0.366932 0.302941
O O3 0.336978 0.043256 0.373500
O O4 0.554034 0.011049 0.319942
O O5 0.228708 0.119210 0.771182
O O6 0.134517 0.330304 0.802147
O O7 0.394202 0.069237 0.546260
O O8 0.869430 0.950971 0.868245
O O9 0.383765 0.845950 0.180511
O O10 0.531848 0.099980 0.073438
O O11 0.536151 0.738955 0.940622
O O12 0.022830 0.672848 0.435596
O O13 0.000000 0.000000 0.500000
O O14 0.735036 0.296833 0.519383
O O15 0.582929 0.570325 0.754196
O O16 0.000000 0.500000 0.500000
O O17 0.871819 0.422834 0.909764
#
# Coordination Sequence:
#
# PCOD8012640 Si02
#       8
#     2   2   2   2   2   2   2   2
#     4  10  21  40  62  89 126 156 201 251 304 355
#     4   9  20  39  65  88 118 160 205 246 300 360
#     4  10  21  40  64  92 120 156 206 260 295 351
#     4  12  24  39  62  95 121 157 208 257 296 353
#     4  12  24  41  62  89 125 167 199 242 314 368
#     4  10  21  41  61  87 126 166 194 242 310 370
#     4   9  20  38  66  92 112 160 208 251 294 355
#     4  10  21  40  65  89 122 160 202 250 309 356
#
# _framework density 20.360655000000001
#
# number of rings (size 3 to 8) (size 9 to 14) (size 15 to 20)
#    0.000    1.750    2.500    1.500    5.250    1.000 
#    6.750    5.000    0.000    0.000    0.000    0.000 
#    0.000    0.000    0.000    0.000    0.000    0.000 
#
# Total GULP energy -198334.351417 kJ/mol
# GULP energy per Si atom -12395.896964 kJ/mol
# Density = 2.031431 g / cm^3
# Si number density = 20.360655 Si / 1000 Ang^3
#
#
#
# Elastic Constant Matrix: (Units=GPa)
#
#
# Indices 1 2 3 4 5 6 
#
# 1 141.7380 48.9233 39.0594 -22.9114 -13.8658 -5.5336
# 2 48.9233 103.3920 20.8942 -19.3835 -2.6851 -2.8123
# 3 39.0594 20.8942 84.4370 -21.4388 -11.3861 -9.0662
# 4 -22.9114 -19.3835 -21.4388 20.1527 9.1960 3.1244
# 5 -13.8658 -2.6851 -11.3861 9.1960 32.5523 -2.3619
# 6 -5.5336 -2.8123 -9.0662 3.1244 -2.3619 28.2451
#
#
#
# Elastic Compliance Matrix: (Units=1/GPa)
#
#
# Indices 1 2 3 4 5 6 
#
# 1 0.009733 -0.003214 -0.002211 0.004718 0.001812 0.000507
# 2 -0.003214 0.013057 0.000562 0.011100 -0.003278 -0.000651
# 3 -0.002211 0.000562 0.017105 0.015199 0.001049 0.003520
# 4 0.004718 0.011100 0.015199 0.090615 -0.017690 -0.004595
# 5 0.001812 -0.003278 0.001049 -0.017690 0.036978 0.005414
# 6 0.000507 -0.000651 0.003520 -0.004595 0.005414 0.037530
#
#
# Mechanical properties :
#
#
# Convention : Reuss Voigt Hill
#
# Bulk Modulus (GPa) = 33.14463 60.81343 46.97903
# Shear Modulus (GPa) = 22.24196 30.90270 26.57233
#
# Velocity S-wave (km/s) = 3.30873 3.90008 3.61651
# Velocity P-wave (km/s) = 5.55977 7.08617 6.36886
#
# Compressibility (1/GPa) = 0.03017080
#
# Stress axis : x y z
#
# Youngs Moduli (GPa) = 102.73964 76.58687 58.46112
#
# Poissons Ratio (x) = 0.24612 0.12924
# Poissons Ratio (y) = 0.33016 -0.03284
# Poissons Ratio (z) = 0.22713 -0.04303
#
# Static dielectric constant tensor:
#      x y z
#    x 3.736940 -0.118100 -0.148700 
#    y -0.118100 3.733280 0.037800 
#    z -0.148700 0.037800 3.630080 
# 
# 
# High freq. dielectric constant tensor:
#      x y z
#    x 1.808840 -0.002970 -0.013300 
#    y -0.002970 1.789810 -0.004610 
#    z -0.013300 -0.004610 1.787350 
# 
# From -- ./inp_files/237875.got.cif
#   From: 2010.06.25/outbox.cif.g09.slc.cpg/sg2_119_cif.got.tgz:237875.got - 2010.06.27 13:26:56.
