data_PCOD8012149
_publ_section_title
;
Structure prediction by ZEFSAII (Michael W. Deem and Ramdas Pophale) SiO2 
 PCOD8012149
Probable space group: P -1
;
_chemical_formula_sum "Si O2"
_cell_formula_units_Z 16
_cell_length_a 10.355062
_cell_length_b 12.620724
_cell_length_c 11.157267
_cell_angle_alpha 49.844211
_cell_angle_beta 66.669024
_cell_angle_gamma 37.522863
_cell_volume 657.587618
_symmetry_space_group_name_H-M "P -1"
_symmetry_group_IT_number 2
_symmetry_cell_setting 'triclinic'
loop_
_space_group_symop_operation_xyz
x,y,z
-x,-y,-z
loop_
_atom_site_type_symbol
_atom_site_label
_atom_site_fract_x
_atom_site_fract_y
_atom_site_fract_z
Si Si1 0.518849 0.547190 0.089436
Si Si2 0.015006 0.172956 0.267916
Si Si3 0.618609 0.638648 0.380463
Si Si4 0.130995 0.281606 0.729602
Si Si5 0.687431 0.969915 0.932090
Si Si6 0.053029 0.834762 0.443161
Si Si7 0.370730 0.380545 0.351230
Si Si8 0.343363 0.921779 0.750282
O O1 0.763559 0.374672 0.173872
O O2 0.383282 0.538459 0.223151
O O3 0.500000 0.500000 0.000000
O O4 0.413228 0.779984 0.946155
O O5 0.034526 0.185180 0.394012
O O6 0.112620 0.946191 0.372990
O O7 0.158471 0.174633 0.136510
O O8 0.802428 0.620343 0.313479
O O9 0.442167 0.788836 0.227681
O O10 0.507705 0.745542 0.475218
O O11 0.726154 0.406445 0.505493
O O12 0.879591 0.476978 0.640357
O O13 0.285249 0.118959 0.678428
O O14 0.158226 0.143808 0.925041
O O15 0.500000 0.000000 0.000000
O O16 0.874861 0.976869 0.300669
O O17 0.471468 0.220123 0.318446
#
# Coordination Sequence:
#
# PCOD8012149 Si02
#       8
#     2   2   2   2   2   2   2   2
#     4  10  21  39  67 102 131 166 228 275 336 406
#     4  11  23  45  70  98 137 177 226 280 342 404
#     4  11  25  46  62  99 139 175 235 279 325 413
#     4  11  25  45  66  96 138 179 228 279 338 395
#     4  10  24  45  66  94 135 180 223 276 333 403
#     4  11  24  41  69 101 136 178 225 279 342 394
#     4  11  22  42  70  98 134 178 223 280 338 402
#     4  11  23  42  67 102 133 176 222 280 339 400
#
# _framework density 24.331357000000001
#
# number of rings (size 3 to 8) (size 9 to 14) (size 15 to 20)
#    0.000    1.250    3.750    2.625    3.500    2.500 
#    4.500    1.250    0.000    0.000    0.000    0.000 
#    0.000    0.000    0.000    0.000    0.000    0.000 
#
# Total GULP energy -198243.056129 kJ/mol
# GULP energy per Si atom -12390.191008 kJ/mol
# Density = 2.427598 g / cm^3
# Si number density = 24.331357 Si / 1000 Ang^3
#
#
#
# Elastic Constant Matrix: (Units=GPa)
#
#
# Indices 1 2 3 4 5 6 
#
# 1 23.0545 -7.8605 -7.5052 -5.2794 3.2667 2.0613
# 2 -7.8605 81.2074 5.1098 -3.2897 1.5994 13.6208
# 3 -7.5052 5.1098 107.1525 -3.4341 25.7288 5.1326
# 4 -5.2794 -3.2897 -3.4341 48.0580 -7.0841 -3.2577
# 5 3.2667 1.5994 25.7288 -7.0841 25.0352 1.3370
# 6 2.0613 13.6208 5.1326 -3.2577 1.3370 33.1287
#
#
#
# Elastic Compliance Matrix: (Units=1/GPa)
#
#
# Indices 1 2 3 4 5 6 
#
# 1 0.050764 0.005864 0.006642 0.004252 -0.012318 -0.005683
# 2 0.005864 0.013931 0.000423 0.001002 -0.001485 -0.006000
# 3 0.006642 0.000423 0.013393 -0.000597 -0.014713 -0.002127
# 4 0.004252 0.001002 -0.000597 0.022313 0.006236 0.001358
# 5 -0.012318 -0.001485 -0.014713 0.006236 0.058430 0.001912
# 6 -0.005683 -0.006000 -0.002127 0.001358 0.001912 0.033392
#
#
# Mechanical properties :
#
#
# Convention : Reuss Voigt Hill
#
# Bulk Modulus (GPa) = 9.62033 21.21138 15.41586
# Shear Modulus (GPa) = 24.87389 36.02239 30.44814
#
# Velocity S-wave (km/s) = 3.20081 3.85189 3.54134
# Velocity P-wave (km/s) = 4.19794 5.34036 4.80323
#
# Compressibility (1/GPa) = 0.10394651
#
# Stress axis : x y z
#
# Youngs Moduli (GPa) = 19.69888 71.78058 74.66463
#
# Poissons Ratio (x) = -0.42092 -0.49595
# Poissons Ratio (y) = -0.11551 -0.03155
# Poissons Ratio (z) = -0.13085 -0.03033
#
# Static dielectric constant tensor:
#      x y z
#    x 3.923770 -0.087750 0.081310 
#    y -0.087750 4.288280 -0.149530 
#    z 0.081310 -0.149530 5.966300 
# 
# 
# High freq. dielectric constant tensor:
#      x y z
#    x 1.937620 -0.010720 0.016140 
#    y -0.010720 1.958970 -0.002890 
#    z 0.016140 -0.002890 1.997220 
# 
# From -- ./inp_files/432565.got.cif
#   From: 2010.06.25/outbox.cif.g09.slc.cpg/sg2_217_cif.got.tgz:432565.got - 2010.06.27 13:26:56.
