data_PCOD8012116
_publ_section_title
;
Structure prediction by ZEFSAII (Michael W. Deem and Ramdas Pophale) SiO2 
 PCOD8012116
Probable space group: P -1
;
_chemical_formula_sum "Si O2"
_cell_formula_units_Z 16
_cell_length_a 12.483565
_cell_length_b 7.872793
_cell_length_c 12.435753
_cell_angle_alpha 144.599429
_cell_angle_beta 99.415663
_cell_angle_gamma 90.565072
_cell_volume 676.177305
_symmetry_space_group_name_H-M "P -1"
_symmetry_group_IT_number 2
_symmetry_cell_setting 'triclinic'
loop_
_space_group_symop_operation_xyz
x,y,z
-x,-y,-z
loop_
_atom_site_type_symbol
_atom_site_label
_atom_site_fract_x
_atom_site_fract_y
_atom_site_fract_z
Si Si1 0.914918 0.923997 0.796877
Si Si2 0.425931 0.909279 0.647516
Si Si3 0.666009 0.260560 0.833240
Si Si4 0.337528 0.424434 0.789406
Si Si5 0.710524 0.709353 0.780943
Si Si6 0.080656 0.451380 0.204146
Si Si7 0.423116 0.224265 0.022858
Si Si8 0.163971 0.037411 0.414756
O O1 0.912484 0.853836 0.632629
O O2 0.787394 0.926371 0.816291
O O3 0.955839 0.663916 0.738269
O O4 0.996924 0.251002 0.000972
O O5 0.374633 0.561999 0.433742
O O6 0.560319 0.974982 0.692049
O O7 0.374441 0.119979 0.669389
O O8 0.393634 0.967198 0.794838
O O9 0.618314 0.482136 0.864106
O O10 0.764638 0.155524 0.737375
O O11 0.707806 0.432819 0.040754
O O12 0.443180 0.665337 0.878195
O O13 0.236784 0.331808 0.639076
O O14 0.793722 0.589325 0.813205
O O15 0.639588 0.895203 0.936344
O O16 0.085119 0.805117 0.366943
#
# Coordination Sequence:
#
# PCOD8012116 Si02
#       8
#     2   2   2   2   2   2   2   2
#     4   9  21  34  54  80 101 127 177 222 251 300
#     4   9  16  28  50  77 107 140 168 203 250 301
#     4   9  17  28  47  81 110 131 172 209 240 307
#     4   9  17  28  47  81 110 131 172 209 240 307
#     4  10  16  33  53  72  99 136 171 207 250 306
#     4   9  19  36  55  78  99 132 175 215 258 304
#     4   9  16  28  50  77 107 140 168 203 250 301
#     4  12  18  33  60  75  99 144 166 203 269 300
#
# _framework density 23.662433
#
# number of rings (size 3 to 8) (size 9 to 14) (size 15 to 20)
#    0.750    1.750    2.500    2.625    0.000    2.000 
#    0.000    3.750    0.000   12.000    0.000    0.000 
#    0.000    0.000    0.000    0.000    0.000    0.000 
#
# Total GULP energy -198270.333488 kJ/mol
# GULP energy per Si atom -12391.895843 kJ/mol
# Density = 2.360858 g / cm^3
# Si number density = 23.662433 Si / 1000 Ang^3
#
#
#
# Elastic Constant Matrix: (Units=GPa)
#
#
# Indices 1 2 3 4 5 6 
#
# 1 11.6365 16.1978 39.7571 12.5953 2.8877 8.4714
# 2 16.1978 60.3820 21.0162 -23.6915 14.3776 4.8237
# 3 39.7571 21.0162 140.1764 -24.2916 33.9925 0.7093
# 4 12.5953 -23.6915 -24.2916 15.6177 -5.0219 7.9390
# 5 2.8877 14.3776 33.9925 -5.0219 36.0996 2.1630
# 6 8.4714 4.8237 0.7093 7.9390 2.1630 22.2763
#
#
#
# Elastic Compliance Matrix: (Units=1/GPa)
#
#
# Indices 1 2 3 4 5 6 
#
# 1 0.000949 0.019403 0.006752 0.047988 -0.006210 -0.021277
# 2 0.019403 0.013433 -0.008276 -0.003282 0.000970 -0.008948
# 3 0.006752 -0.008276 0.005095 -0.013622 -0.004195 0.004324
# 4 0.047988 -0.003282 -0.013622 0.015916 0.013956 -0.024132
# 5 -0.006210 0.000970 -0.004195 0.013956 0.034063 -0.005996
# 6 -0.021277 -0.008948 0.004324 -0.024132 -0.005996 0.063964
#
#
# Mechanical properties :
#
#
# Convention : Reuss Voigt Hill
#
# Bulk Modulus (GPa) = 18.10504 40.68189 29.39346
# Shear Modulus (GPa) = 43.07631 23.81364 33.44498
#
# Velocity S-wave (km/s) = 4.27130 3.17581 3.76363
# Velocity P-wave (km/s) = 5.65627 5.53874 5.59781
#
# Compressibility (1/GPa) = 0.05523325
#
# Stress axis : x y z
#
# Youngs Moduli (GPa) = 1054.17527 74.44472 196.29008
#
# Poissons Ratio (x) = -1.44443 -1.32529
# Poissons Ratio (y) = -20.45388 1.62445
# Poissons Ratio (z) = -7.11748 0.61609
#
# Static dielectric constant tensor:
#      x y z
#    x 4.035190 0.168750 0.174090 
#    y 0.168750 4.280790 -0.171890 
#    z 0.174090 -0.171890 4.047210 
# 
# 
# High freq. dielectric constant tensor:
#      x y z
#    x 1.906560 0.006090 0.018330 
#    y 0.006090 1.942380 -0.011100 
#    z 0.018330 -0.011100 1.927410 
# 
# From -- ./inp_files/448377.got.cif
#   From: 2010.06.25/outbox.cif.g09.slc.cpg/sg2_225_cif.got.tgz:448377.got - 2010.06.27 13:26:56.
