data_PCOD8012288
_publ_section_title
;
Structure prediction by ZEFSAII (Michael W. Deem and Ramdas Pophale) SiO2 
 PCOD8012288
Probable space group: P -1
;
_chemical_formula_sum "Si O2"
_cell_formula_units_Z 16
_cell_length_a 16.954904
_cell_length_b 9.110386
_cell_length_c 9.343369
_cell_angle_alpha 62.730138
_cell_angle_beta 145.107643
_cell_angle_gamma 116.601514
_cell_volume 726.435905
_symmetry_space_group_name_H-M "P -1"
_symmetry_group_IT_number 2
_symmetry_cell_setting 'triclinic'
loop_
_space_group_symop_operation_xyz
x,y,z
-x,-y,-z
loop_
_atom_site_type_symbol
_atom_site_label
_atom_site_fract_x
_atom_site_fract_y
_atom_site_fract_z
Si Si1 0.387463 0.005056 0.040535
Si Si2 0.054075 0.334035 0.614061
Si Si3 0.643258 0.662876 0.022422
Si Si4 0.635133 0.874429 0.360060
Si Si5 0.087545 0.856063 0.741478
Si Si6 0.639749 0.536377 0.390417
Si Si7 0.113573 0.656308 0.137778
Si Si8 0.091261 0.881195 0.264294
O O1 0.511972 0.891157 0.284785
O O2 0.397523 0.149931 0.111529
O O3 0.410976 0.095030 0.883206
O O4 0.240942 0.888965 0.887895
O O5 0.220020 0.339093 0.870353
O O6 0.000000 0.500000 0.500000
O O7 0.999356 0.308166 0.382248
O O8 0.982276 0.180374 0.670454
O O9 0.679890 0.599584 0.262027
O O10 0.521788 0.543838 0.814185
O O11 0.666806 0.683139 0.485521
O O12 0.761779 0.010806 0.533031
O O13 0.095404 0.816596 0.939364
O O14 0.000000 0.000000 0.500000
O O15 0.734863 0.397586 0.637833
O O16 0.104684 0.719495 0.258910
O O17 0.000000 0.500000 0.000000
O O18 0.000000 0.000000 0.000000
#
# Coordination Sequence:
#
# PCOD8012288 Si02
#       8
#     2   2   2   2   2   2   2   2
#     4  10  21  39  68  96 126 175 228 272 322 401
#     4  12  25  40  68 101 132 171 227 277 327 396
#     4  10  21  40  68  97 137 181 222 272 333 408
#     4  10  22  41  68  97 130 173 225 274 329 395
#     4  12  24  44  70  98 131 179 230 274 330 404
#     4  10  22  42  66 100 139 177 221 273 344 399
#     4  12  26  44  68  99 139 179 218 279 344 395
#     4  12  25  43  66  98 135 173 219 274 334 394
#
# _framework density 22.025341999999998
#
# number of rings (size 3 to 8) (size 9 to 14) (size 15 to 20)
#    0.000    1.000    2.500    4.500    3.500    2.000 
#    2.250    1.875    0.000    0.000    0.000    0.000 
#    0.000    0.000    0.000    0.000    0.000    0.000 
#
# Total GULP energy -198375.117424 kJ/mol
# GULP energy per Si atom -12398.444839 kJ/mol
# Density = 2.197521 g / cm^3
# Si number density = 22.025342 Si / 1000 Ang^3
#
#
#
# Elastic Constant Matrix: (Units=GPa)
#
#
# Indices 1 2 3 4 5 6 
#
# 1 102.4684 39.6650 51.3194 7.2936 35.6605 -4.8590
# 2 39.6650 124.3046 48.0278 16.7322 18.9366 -21.8661
# 3 51.3194 48.0278 94.2199 2.5965 23.8193 2.1885
# 4 7.2936 16.7322 2.5965 46.6104 4.3962 3.4295
# 5 35.6605 18.9366 23.8193 4.3962 42.6673 2.4942
# 6 -4.8590 -21.8661 2.1885 3.4295 2.4942 39.8187
#
#
#
# Elastic Compliance Matrix: (Units=1/GPa)
#
#
# Indices 1 2 3 4 5 6 
#
# 1 0.017061 -0.000765 -0.006294 -0.001264 -0.010438 0.002771
# 2 -0.000765 0.012719 -0.005658 -0.004525 -0.001831 0.007706
# 3 -0.006294 -0.005658 0.017463 0.002591 -0.001956 -0.004935
# 4 -0.001264 -0.004525 0.002591 0.023533 -0.000527 -0.004775
# 5 -0.010438 -0.001831 -0.001956 -0.000527 0.034370 -0.004279
# 6 0.002771 0.007706 -0.004935 -0.004775 -0.004279 0.030634
#
#
# Mechanical properties :
#
#
# Convention : Reuss Voigt Hill
#
# Bulk Modulus (GPa) = 45.85000 66.55749 56.20375
# Shear Modulus (GPa) = 29.67632 37.95132 33.81382
#
# Velocity S-wave (km/s) = 3.67464 4.15550 3.92244
# Velocity P-wave (km/s) = 6.23427 7.30126 6.78876
#
# Compressibility (1/GPa) = 0.02181025
#
# Stress axis : x y z
#
# Youngs Moduli (GPa) = 58.61238 78.62524 57.26269
#
# Poissons Ratio (x) = 0.06013 0.36039
# Poissons Ratio (y) = 0.04483 0.32399
# Poissons Ratio (z) = 0.36889 0.44486
#
# Static dielectric constant tensor:
#      x y z
#    x 7.356830 -1.043940 -2.276680 
#    y -1.043940 4.272970 0.578500 
#    z -2.276680 0.578500 5.624160 
# 
# 
# High freq. dielectric constant tensor:
#      x y z
#    x 1.861780 -0.010110 0.019440 
#    y -0.010110 1.878560 0.006470 
#    z 0.019440 0.006470 1.860240 
# 
# From -- ./inp_files/298061.got.cif
#   From: 2010.06.25/outbox.cif.g09.slc.cpg/sg2_150_cif.got.tgz:298061.got - 2010.06.27 13:26:56.
