data_PCOD8012304
_publ_section_title
;
Structure prediction by ZEFSAII (Michael W. Deem and Ramdas Pophale) SiO2 
 PCOD8012304
Probable space group: P -1
;
_chemical_formula_sum "Si O2"
_cell_formula_units_Z 16
_cell_length_a 10.310568
_cell_length_b 12.131909
_cell_length_c 8.384780
_cell_angle_alpha 124.931366
_cell_angle_beta 120.184245
_cell_angle_gamma 65.722450
_cell_volume 731.950851
_symmetry_space_group_name_H-M "P -1"
_symmetry_group_IT_number 2
_symmetry_cell_setting 'triclinic'
loop_
_space_group_symop_operation_xyz
x,y,z
-x,-y,-z
loop_
_atom_site_type_symbol
_atom_site_label
_atom_site_fract_x
_atom_site_fract_y
_atom_site_fract_z
Si Si1 0.537475 0.407357 0.791724
Si Si2 0.058529 0.202913 0.739073
Si Si3 0.179842 0.964593 0.421459
Si Si4 0.790088 0.416262 0.705773
Si Si5 0.484387 0.946031 0.766739
Si Si6 0.372268 0.845515 0.172049
Si Si7 0.676735 0.714805 0.843874
Si Si8 0.623210 0.349153 0.257848
O O1 0.703636 0.410097 0.816559
O O2 0.531296 0.251557 0.711904
O O3 0.408167 0.484536 0.653677
O O4 0.500000 0.500000 0.000000
O O5 0.945084 0.130194 0.711342
O O6 0.970549 0.357099 0.781277
O O7 0.102610 0.122077 0.533688
O O8 0.214574 0.197328 0.926427
O O9 0.316168 0.920256 0.597781
O O10 0.234674 0.944216 0.256195
O O11 0.775138 0.566729 0.745412
O O12 0.721647 0.321403 0.455338
O O13 0.602251 0.799765 0.712677
O O14 0.523038 0.056353 0.756637
O O15 0.500000 0.000000 0.000000
O O16 0.302256 0.747379 0.921919
O O17 0.540500 0.696011 0.862833
#
# Coordination Sequence:
#
# PCOD8012304 Si02
#       8
#     2   2   2   2   2   2   2   2
#     4   9  19  35  60  99 126 158 208 270 321 368
#     4  11  23  41  65  92 134 178 211 252 326 410
#     4  11  24  41  64  95 129 173 214 262 329 380
#     4  11  22  40  69  94 130 171 219 263 319 388
#     4  12  23  41  67  97 126 163 222 276 316 378
#     4  11  22  38  65  97 131 161 211 284 322 364
#     4  11  22  39  65  98 124 168 217 262 316 381
#     4  10  21  39  68  99 122 164 221 274 315 375
#
# _framework density 21.859390999999999
#
# number of rings (size 3 to 8) (size 9 to 14) (size 15 to 20)
#    0.000    1.250    3.750    3.000    1.750    0.000 
#    0.000    2.500    0.000    1.500    0.000    0.000 
#    0.000    0.000    0.000    0.000    0.000    0.000 
#
# Total GULP energy -198240.724338 kJ/mol
# GULP energy per Si atom -12390.045271 kJ/mol
# Density = 2.180964 g / cm^3
# Si number density = 21.859391 Si / 1000 Ang^3
#
#
#
# Elastic Constant Matrix: (Units=GPa)
#
#
# Indices 1 2 3 4 5 6 
#
# 1 83.6560 34.0438 36.6881 1.9656 -10.9070 -2.0256
# 2 34.0438 142.2439 5.7036 10.5151 -2.9452 4.2526
# 3 36.6881 5.7036 66.3333 -2.4705 0.5248 -0.2023
# 4 1.9656 10.5151 -2.4705 27.7741 -4.5543 -2.5974
# 5 -10.9070 -2.9452 0.5248 -4.5543 35.0011 7.0908
# 6 -2.0256 4.2526 -0.2023 -2.5974 7.0908 39.9365
#
#
#
# Elastic Compliance Matrix: (Units=1/GPa)
#
#
# Indices 1 2 3 4 5 6 
#
# 1 0.018715 -0.003989 -0.010042 0.000244 0.005609 0.000343
# 2 -0.003989 0.008162 0.001398 -0.002908 -0.000728 -0.001124
# 3 -0.010042 0.001398 0.020591 0.001507 -0.003145 0.000102
# 4 0.000244 -0.002908 0.001507 0.038127 0.004358 0.002036
# 5 0.005609 -0.000728 -0.003145 0.004358 0.031891 -0.005033
# 6 0.000343 -0.001124 0.000102 0.002036 -0.005033 0.026203
#
#
# Mechanical properties :
#
#
# Convention : Reuss Voigt Hill
#
# Bulk Modulus (GPa) = 45.03973 49.45603 47.24788
# Shear Modulus (GPa) = 28.35180 34.92884 31.64032
#
# Velocity S-wave (km/s) = 3.60531 4.00169 3.80866
# Velocity P-wave (km/s) = 6.16279 6.63514 6.40333
#
# Compressibility (1/GPa) = 0.02220262
#
# Stress axis : x y z
#
# Youngs Moduli (GPa) = 53.43341 122.51550 48.56561
#
# Poissons Ratio (x) = 0.48867 0.48771
# Poissons Ratio (y) = 0.21312 -0.06791
# Poissons Ratio (z) = 0.53659 -0.17131
#
# Static dielectric constant tensor:
#      x y z
#    x 3.790660 -0.205770 -0.212550 
#    y -0.205770 4.789050 0.118430 
#    z -0.212550 0.118430 3.889780 
# 
# 
# High freq. dielectric constant tensor:
#      x y z
#    x 1.830740 -0.010950 -0.016590 
#    y -0.010950 1.876270 0.019190 
#    z -0.016590 0.019190 1.854440 
# 
# From -- ./inp_files/190352.got.cif
#   From: 2010.06.25/outbox.cif.g09.slc.cpg/sg2_96_cif.got.tgz:190352.got - 2010.06.27 13:26:56.
