data_PCOD8012635
_publ_section_title
;
Structure prediction by ZEFSAII (Michael W. Deem and Ramdas Pophale) SiO2 
 PCOD8012635
Probable space group: P -1
;
_chemical_formula_sum "Si O2"
_cell_formula_units_Z 16
_cell_length_a 9.017443
_cell_length_b 14.344957
_cell_length_c 9.951589
_cell_angle_alpha 35.757305
_cell_angle_beta 86.750158
_cell_angle_gamma 77.383901
_cell_volume 717.475555
_symmetry_space_group_name_H-M "P -1"
_symmetry_group_IT_number 2
_symmetry_cell_setting 'triclinic'
loop_
_space_group_symop_operation_xyz
x,y,z
-x,-y,-z
loop_
_atom_site_type_symbol
_atom_site_label
_atom_site_fract_x
_atom_site_fract_y
_atom_site_fract_z
Si Si1 0.211763 0.929032 0.183093
Si Si2 0.319633 0.542206 0.679844
Si Si3 0.712413 0.978313 0.437618
Si Si4 0.137780 0.878136 0.962996
Si Si5 0.424468 0.941878 0.373450
Si Si6 0.826122 0.494235 0.541700
Si Si7 0.818084 0.582418 0.914091
Si Si8 0.627430 0.589797 0.676503
O O1 0.237936 0.741138 0.455703
O O2 0.328823 0.011663 0.159750
O O3 0.237192 0.927643 0.022129
O O4 0.041417 0.039334 0.096605
O O5 0.276081 0.467722 0.631453
O O6 0.507892 0.491836 0.743834
O O7 0.253032 0.450501 0.904493
O O8 0.543552 0.041879 0.297116
O O9 0.783552 0.779537 0.663114
O O10 0.823826 0.060716 0.254456
O O11 0.696271 0.047910 0.509166
O O12 0.170397 0.681066 0.187286
O O13 0.521873 0.754219 0.559872
O O14 0.732195 0.626007 0.504980
O O15 0.000000 0.500000 0.500000
O O16 0.744046 0.498018 0.896653
O O17 0.000000 0.500000 0.000000
#
# Coordination Sequence:
#
# PCOD8012635 Si02
#       8
#     2   2   2   2   2   2   2   2
#     4   9  20  39  61  88 118 159 200 241 295 352
#     4  10  21  40  62  89 124 160 202 246 297 359
#     4  10  22  40  59  89 123 157 201 245 295 354
#     4  10  22  39  61  87 121 156 197 248 298 357
#     4   9  21  40  60  86 122 159 200 244 291 355
#     4  11  24  41  63  90 119 154 201 256 310 362
#     4  11  22  37  62  93 128 163 199 248 298 354
#     4  10  22  40  62  88 120 162 204 248 302 360
#
# _framework density 22.300411
#
# number of rings (size 3 to 8) (size 9 to 14) (size 15 to 20)
#    0.000    2.000    0.000    2.250    0.000   13.000 
#    0.000    2.500    0.000    0.000    0.000    0.000 
#    0.000    0.000    0.000    0.000    0.000    0.000 
#
# Total GULP energy -198325.969726 kJ/mol
# GULP energy per Si atom -12395.373108 kJ/mol
# Density = 2.224965 g / cm^3
# Si number density = 22.300411 Si / 1000 Ang^3
#
#
#
# Elastic Constant Matrix: (Units=GPa)
#
#
# Indices 1 2 3 4 5 6 
#
# 1 108.2842 39.4971 34.6350 6.3535 21.3822 -5.8965
# 2 39.4971 104.9730 26.7538 24.0991 8.0228 -4.6877
# 3 34.6350 26.7538 84.0928 17.6549 3.0460 -4.1451
# 4 6.3535 24.0991 17.6549 21.7587 1.2501 -3.7990
# 5 21.3822 8.0228 3.0460 1.2501 43.0181 14.7945
# 6 -5.8965 -4.6877 -4.1451 -3.7990 14.7945 33.8303
#
#
#
# Elastic Compliance Matrix: (Units=1/GPa)
#
#
# Indices 1 2 3 4 5 6 
#
# 1 0.014000 -0.004645 -0.005130 0.006588 -0.007741 0.005293
# 2 -0.004645 0.014642 0.000439 -0.015318 0.000171 -0.000522
# 3 -0.005130 0.000439 0.016378 -0.012596 0.002069 -0.001146
# 4 0.006588 -0.015318 -0.012596 0.072772 -0.004220 0.007500
# 5 -0.007741 0.000171 0.002069 -0.004220 0.032450 -0.015737
# 6 0.005293 -0.000522 -0.001146 0.007500 -0.015737 0.037993
#
#
# Mechanical properties :
#
#
# Convention : Reuss Voigt Hill
#
# Bulk Modulus (GPa) = 37.95385 55.45800 46.70593
# Shear Modulus (GPa) = 23.18121 32.81904 28.00012
#
# Velocity S-wave (km/s) = 3.22762 3.84041 3.54727
# Velocity P-wave (km/s) = 5.56294 6.67739 6.14548
#
# Compressibility (1/GPa) = 0.02634779
#
# Stress axis : x y z
#
# Youngs Moduli (GPa) = 71.42659 68.29578 61.05699
#
# Poissons Ratio (x) = 0.31721 0.31325
# Poissons Ratio (y) = 0.33175 -0.02678
# Poissons Ratio (z) = 0.36645 -0.02995
#
# Static dielectric constant tensor:
#      x y z
#    x 4.473660 0.213670 0.461580 
#    y 0.213670 4.426290 0.326730 
#    z 0.461580 0.326730 3.959030 
# 
# 
# High freq. dielectric constant tensor:
#      x y z
#    x 1.883670 -0.003620 0.021570 
#    y -0.003620 1.889740 0.017500 
#    z 0.021570 0.017500 1.862800 
# 
# From -- ./inp_files/205162.got.cif
#   From: 2010.06.25/outbox.cif.g09.slc.cpg/sg2_103_cif.got.tgz:205162.got - 2010.06.27 13:26:56.
