data_PCOD8012459
_publ_section_title
;
Structure prediction by ZEFSAII (Michael W. Deem and Ramdas Pophale) SiO2 
 PCOD8012459
Probable space group: P -1
;
_chemical_formula_sum "Si O2"
_cell_formula_units_Z 12
_cell_length_a 5.103182
_cell_length_b 11.944972
_cell_length_c 9.965234
_cell_angle_alpha 115.330841
_cell_angle_beta 80.189094
_cell_angle_gamma 89.848885
_cell_volume 539.070005
_symmetry_space_group_name_H-M "P -1"
_symmetry_group_IT_number 2
_symmetry_cell_setting 'triclinic'
loop_
_space_group_symop_operation_xyz
x,y,z
-x,-y,-z
loop_
_atom_site_type_symbol
_atom_site_label
_atom_site_fract_x
_atom_site_fract_y
_atom_site_fract_z
Si Si1 0.815592 0.098518 0.412890
Si Si2 0.651133 0.063489 0.696608
Si Si3 0.066672 0.424080 0.086267
Si Si4 0.584878 0.264752 0.034506
Si Si5 0.825049 0.534053 0.408119
Si Si6 0.556024 0.291056 0.342035
O O1 0.735794 0.137602 0.593584
O O2 0.779952 0.213210 0.370635
O O3 0.631935 0.991142 0.328478
O O4 0.125347 0.049398 0.352157
O O5 0.619974 0.148829 0.873193
O O6 0.012327 0.528974 0.259226
O O7 0.372796 0.367981 0.040404
O O8 0.000000 0.500000 0.000000
O O9 0.876420 0.312337 0.053717
O O10 0.488808 0.223356 0.171979
O O11 0.622854 0.427003 0.354369
O O12 0.690031 0.674819 0.515675
O O13 0.000000 0.500000 0.500000
#
# Coordination Sequence:
#
# PCOD8012459 Si02
#       6
#     2   2   2   2   2   2
#     4  10  23  41  63  88 118 160 203 244 306 350
#     4  10  23  42  60  90 121 154 206 251 289 364
#     4  11  24  39  61  92 122 162 201 242 303 356
#     4  11  23  41  61  89 126 154 201 255 293 355
#     4  10  21  40  59  89 127 155 203 244 295 368
#     4  10  23  38  62  90 121 163 197 249 302 355
#
# _framework density 22.260560000000002
#
# number of rings (size 3 to 8) (size 9 to 14) (size 15 to 20)
#    0.000    1.667    1.667    1.500    4.667    2.667 
#    0.000    0.000    0.000    0.000    0.000    0.000 
#    0.000    0.000    0.000    0.000    0.000    0.000 
#
# Total GULP energy -148723.074140 kJ/mol
# GULP energy per Si atom -12393.589512 kJ/mol
# Density = 2.220989 g / cm^3
# Si number density = 22.260560 Si / 1000 Ang^3
#
#
#
# Elastic Constant Matrix: (Units=GPa)
#
#
# Indices 1 2 3 4 5 6 
#
# 1 61.9488 -4.1013 9.7601 2.8842 5.0185 -21.3128
# 2 -4.1013 77.3869 42.3989 -14.8151 -0.2722 -32.2260
# 3 9.7601 42.3989 194.4595 5.6068 5.8578 -16.7717
# 4 2.8842 -14.8151 5.6068 30.1718 -7.4909 10.6717
# 5 5.0185 -0.2722 5.8578 -7.4909 29.6711 -2.2539
# 6 -21.3128 -32.2260 -16.7717 10.6717 -2.2539 37.6657
#
#
#
# Elastic Compliance Matrix: (Units=1/GPa)
#
#
# Indices 1 2 3 4 5 6 
#
# 1 0.026869 0.011851 -0.001338 -0.006819 -0.003884 0.026447
# 2 0.011851 0.028606 -0.004619 0.004469 0.002425 0.028003
# 3 -0.001338 -0.004619 0.006285 -0.003431 -0.002003 -0.001058
# 4 -0.006819 0.004469 -0.003431 0.044363 0.012053 -0.013411
# 5 -0.003884 0.002425 -0.002003 0.012053 0.037655 -0.002177
# 6 0.026447 0.028003 -0.001058 -0.013411 -0.002177 0.068671
#
#
# Mechanical properties :
#
#
# Convention : Reuss Voigt Hill
#
# Bulk Modulus (GPa) = 13.59653 47.76783 30.68218
# Shear Modulus (GPa) = 22.20488 38.55089 30.37789
#
# Velocity S-wave (km/s) = 3.16175 4.16601 3.69813
# Velocity P-wave (km/s) = 4.41022 6.68176 5.66109
#
# Compressibility (1/GPa) = 0.07354817
#
# Stress axis : x y z
#
# Youngs Moduli (GPa) = 37.21807 34.95792 159.11781
#
# Poissons Ratio (x) = -0.41429 0.21288
# Poissons Ratio (y) = -0.44107 0.73490
# Poissons Ratio (z) = 0.04979 0.16146
#
# Static dielectric constant tensor:
#      x y z
#    x 4.053500 -0.302850 -0.275420 
#    y -0.302850 3.106250 -0.460260 
#    z -0.275420 -0.460260 4.388640 
# 
# 
# High freq. dielectric constant tensor:
#      x y z
#    x 1.880990 -0.019930 0.002990 
#    y -0.019930 1.846570 -0.005340 
#    z 0.002990 -0.005340 1.900570 
# 
# From -- ./inp_files/19110.got.cif
#   From: 2010.06.25/outbox.cif.g09.slc.cpg/sg2_10_cif.got.tgz:19110.got - 2010.06.27 13:26:56.
