data_PCOD8012161
_publ_section_title
;
Structure prediction by ZEFSAII (Michael W. Deem and Ramdas Pophale) SiO2 
 PCOD8012161
Probable space group: P -1
;
_chemical_formula_sum "Si O2"
_cell_formula_units_Z 16
_cell_length_a 7.983023
_cell_length_b 8.904484
_cell_length_c 12.951509
_cell_angle_alpha 87.693145
_cell_angle_beta 56.006948
_cell_angle_gamma 108.028260
_cell_volume 698.778591
_symmetry_space_group_name_H-M "P -1"
_symmetry_group_IT_number 2
_symmetry_cell_setting 'triclinic'
loop_
_space_group_symop_operation_xyz
x,y,z
-x,-y,-z
loop_
_atom_site_type_symbol
_atom_site_label
_atom_site_fract_x
_atom_site_fract_y
_atom_site_fract_z
Si Si1 0.558816 0.821518 0.212698
Si Si2 0.253972 0.957865 0.691857
Si Si3 0.692611 0.450564 0.973034
Si Si4 0.613382 0.105029 0.058018
Si Si5 0.702939 0.944606 0.545961
Si Si6 0.051868 0.231332 0.016963
Si Si7 0.038687 0.262509 0.498358
Si Si8 0.126208 0.544081 0.309598
O O1 0.363571 0.646512 0.276134
O O2 0.635259 0.857239 0.303627
O O3 0.503835 0.979600 0.193429
O O4 0.759524 0.833619 0.069023
O O5 0.440578 0.882330 0.624375
O O6 0.053292 0.843315 0.834595
O O7 0.171331 0.980923 0.607433
O O8 0.837902 0.571780 0.009198
O O9 0.851776 0.450177 0.822037
O O10 0.500000 0.500000 0.000000
O O11 0.565564 0.268629 0.069745
O O12 0.881294 0.179587 0.980840
O O13 0.500000 0.000000 0.000000
O O14 0.753948 0.788772 0.565930
O O15 0.811356 0.098453 0.582717
O O16 0.049643 0.361010 0.385314
O O17 0.037170 0.372673 0.595898
#
# Coordination Sequence:
#
# PCOD8012161 Si02
#       8
#     2   2   2   2   2   2   2   2
#     4  11  22  43  64  94 133 173 212 260 328 394
#     4  10  21  39  67  91 131 166 212 273 318 384
#     4  12  24  42  64  98 134 175 214 265 323 385
#     4  11  22  40  64  92 128 173 217 254 315 391
#     4  10  21  42  66  93 119 166 226 263 326 375
#     4  11  24  42  65  99 137 171 212 266 325 388
#     4  10  23  41  66  91 121 170 217 275 317 380
#     4  11  22  41  64  90 134 166 215 269 326 376
#
# _framework density 22.897093000000002
#
# number of rings (size 3 to 8) (size 9 to 14) (size 15 to 20)
#    0.000    1.250    3.750    2.625    0.000    4.000 
#    4.500    0.625    0.000    0.000    0.000    0.000 
#    0.000    0.000    0.000    0.000    0.000    0.000 
#
# Total GULP energy -198276.501223 kJ/mol
# GULP energy per Si atom -12392.281326 kJ/mol
# Density = 2.284498 g / cm^3
# Si number density = 22.897093 Si / 1000 Ang^3
#
#
#
# Elastic Constant Matrix: (Units=GPa)
#
#
# Indices 1 2 3 4 5 6 
#
# 1 52.0066 45.3219 5.2730 -8.2828 3.7912 1.8454
# 2 45.3219 139.2601 20.1558 -2.7759 2.7847 -2.2168
# 3 5.2730 20.1558 79.6107 4.8667 -1.5558 -13.1545
# 4 -8.2828 -2.7759 4.8667 22.9785 11.4116 2.5953
# 5 3.7912 2.7847 -1.5558 11.4116 27.0480 0.4097
# 6 1.8454 -2.2168 -13.1545 2.5953 0.4097 49.1005
#
#
#
# Elastic Compliance Matrix: (Units=1/GPa)
#
#
# Indices 1 2 3 4 5 6 
#
# 1 0.030808 -0.009383 -0.001241 0.015451 -0.009902 -0.002648
# 2 -0.009383 0.010429 -0.001776 -0.002358 0.001127 0.000463
# 3 -0.001241 -0.001776 0.014195 -0.005918 0.003609 0.004052
# 4 0.015451 -0.002358 -0.005918 0.065479 -0.029806 -0.005485
# 5 -0.009902 0.001127 0.003609 -0.029806 0.050987 0.002540
# 6 -0.002648 0.000463 0.004052 -0.005485 0.002540 0.021841
#
#
# Mechanical properties :
#
#
# Convention : Reuss Voigt Hill
#
# Bulk Modulus (GPa) = 32.64537 45.81988 39.23263
# Shear Modulus (GPa) = 21.85798 33.16716 27.51257
#
# Velocity S-wave (km/s) = 3.09304 3.81009 3.47013
# Velocity P-wave (km/s) = 5.20041 6.27777 5.76431
#
# Compressibility (1/GPa) = 0.03063221
#
# Stress axis : x y z
#
# Youngs Moduli (GPa) = 32.45953 95.88304 70.44804
#
# Poissons Ratio (x) = 0.89966 0.08740
# Poissons Ratio (y) = 0.30456 0.12514
# Poissons Ratio (z) = 0.04027 0.17032
#
# Static dielectric constant tensor:
#      x y z
#    x 4.058430 0.102890 0.102580 
#    y 0.102890 4.420230 0.174060 
#    z 0.102580 0.174060 4.143830 
# 
# 
# High freq. dielectric constant tensor:
#      x y z
#    x 1.887170 0.007990 -0.001060 
#    y 0.007990 1.915650 0.006610 
#    z -0.001060 0.006610 1.897470 
# 
# From -- ./inp_files/492890.got.cif
#   From: 2010.06.25/outbox.cif.g09.slc.cpg/sg2_247_cif.got.tgz:492890.got - 2010.06.27 13:26:56.
