data_PCOD8012501
_publ_section_title
;
Structure prediction by ZEFSAII (Michael W. Deem and Ramdas Pophale) SiO2 
 PCOD8012501
Probable space group: P -1
;
_chemical_formula_sum "Si O2"
_cell_formula_units_Z 16
_cell_length_a 8.484268
_cell_length_b 20.383401
_cell_length_c 15.038852
_cell_angle_alpha 158.198863
_cell_angle_beta 87.408924
_cell_angle_gamma 80.890603
_cell_volume 812.214411
_symmetry_space_group_name_H-M "P -1"
_symmetry_group_IT_number 2
_symmetry_cell_setting 'triclinic'
loop_
_space_group_symop_operation_xyz
x,y,z
-x,-y,-z
loop_
_atom_site_type_symbol
_atom_site_label
_atom_site_fract_x
_atom_site_fract_y
_atom_site_fract_z
Si Si1 0.026947 0.043091 0.653026
Si Si2 0.729249 0.061460 0.919478
Si Si3 0.259397 0.628500 0.808196
Si Si4 0.425188 0.993661 0.780264
Si Si5 0.372284 0.806617 0.716157
Si Si6 0.649341 0.314843 0.701770
Si Si7 0.136880 0.695205 0.478954
Si Si8 0.897294 0.665279 0.892520
O O1 0.158707 0.823128 0.422225
O O2 0.126899 0.175195 0.826696
O O3 0.000000 0.000000 0.500000
O O4 0.820871 0.181213 0.877746
O O5 0.618536 0.985312 0.766857
O O6 0.686848 0.287984 0.174318
O O7 0.658060 0.086421 0.053326
O O8 0.948408 0.890570 0.688882
O O9 0.434850 0.418390 0.578074
O O10 0.095223 0.584804 0.735835
O O11 0.369995 0.966032 0.845804
O O12 0.442736 0.813809 0.489321
O O13 0.265891 0.221660 0.034099
O O14 0.202164 0.775709 0.661275
O O15 0.702001 0.399421 0.720115
O O16 0.500000 0.500000 0.000000
O O17 0.099953 0.523623 0.298925
#
# Coordination Sequence:
#
# PCOD8012501 Si02
#       8
#     2   2   2   2   2   2   2   2
#     4   9  20  39  63  85 119 155 196 243 304 350
#     4  12  22  40  61  90 120 164 205 247 301 353
#     4  10  21  40  60  88 127 152 203 251 297 355
#     4  10  22  41  59  90 126 154 205 251 291 363
#     4  11  23  38  63  88 120 166 202 249 300 352
#     4  10  22  42  63  90 120 158 194 250 306 356
#     4  11  22  41  61  89 124 157 202 251 295 361
#     4   9  21  41  60  87 125 158 191 251 302 349
#
# _framework density 19.699233
#
# number of rings (size 3 to 8) (size 9 to 14) (size 15 to 20)
#    0.750    1.000    1.250    3.375    3.500    0.000 
#    2.250    4.375    0.000    0.000    0.000    0.000 
#    0.000    0.000    0.000    0.000    0.000    0.000 
#
# Total GULP energy -198353.933241 kJ/mol
# GULP energy per Si atom -12397.120828 kJ/mol
# Density = 1.965440 g / cm^3
# Si number density = 19.699233 Si / 1000 Ang^3
#
#
#
# Elastic Constant Matrix: (Units=GPa)
#
#
# Indices 1 2 3 4 5 6 
#
# 1 118.7597 33.1975 33.7773 2.2255 5.3160 -13.6891
# 2 33.1975 93.2424 35.8629 2.6311 4.3780 -8.2990
# 3 33.7773 35.8629 63.7743 1.6245 -8.6324 -0.3056
# 4 2.2255 2.6311 1.6245 33.9446 4.8066 1.5062
# 5 5.3160 4.3780 -8.6324 4.8066 32.7585 6.6362
# 6 -13.6891 -8.2990 -0.3056 1.5062 6.6362 35.5759
#
#
#
# Elastic Compliance Matrix: (Units=1/GPa)
#
#
# Indices 1 2 3 4 5 6 
#
# 1 0.011112 -0.001109 -0.005800 0.000012 -0.004145 0.004740
# 2 -0.001109 0.014944 -0.008443 -0.000174 -0.004805 0.003890
# 3 -0.005800 -0.008443 0.024858 -0.001312 0.009987 -0.005795
# 4 0.000012 -0.000174 -0.001312 0.030216 -0.004666 -0.000456
# 5 -0.004145 -0.004805 0.009987 -0.004666 0.037050 -0.009344
# 6 0.004740 0.003890 -0.005795 -0.000456 -0.009344 0.032553
#
#
# Mechanical properties :
#
#
# Convention : Reuss Voigt Hill
#
# Bulk Modulus (GPa) = 49.48544 53.49465 51.49004
# Shear Modulus (GPa) = 26.57115 31.98506 29.27810
#
# Velocity S-wave (km/s) = 3.67664 4.03385 3.85938
# Velocity P-wave (km/s) = 6.57257 6.99361 6.78635
#
# Compressibility (1/GPa) = 0.02020797
#
# Stress axis : x y z
#
# Youngs Moduli (GPa) = 89.99467 66.91702 40.22882
#
# Poissons Ratio (x) = 0.07422 0.23334
# Poissons Ratio (y) = 0.09982 0.33967
# Poissons Ratio (z) = 0.52199 0.56501
#
# Static dielectric constant tensor:
#      x y z
#    x 3.624880 -0.114720 0.014870 
#    y -0.114720 3.548730 0.102180 
#    z 0.014870 0.102180 3.370160 
# 
# 
# High freq. dielectric constant tensor:
#      x y z
#    x 1.771900 -0.009060 -0.000390 
#    y -0.009060 1.772020 0.014220 
#    z -0.000390 0.014220 1.752990 
# 
# From -- ./inp_files/296432.got.cif
#   From: 2010.06.25/outbox.cif.g09.slc.cpg/sg2_149_cif.got.tgz:296432.got - 2010.06.27 13:26:56.
