data_PCOD8012767
_publ_section_title
;
Structure prediction by ZEFSAII (Michael W. Deem and Ramdas Pophale) SiO2 
 PCOD8012767
Probable space group: P -1
;
_chemical_formula_sum "Si O2"
_cell_formula_units_Z 16
_cell_length_a 5.067953
_cell_length_b 23.692063
_cell_length_c 20.512677
_cell_angle_alpha 161.868163
_cell_angle_beta 94.167842
_cell_angle_gamma 76.665532
_cell_volume 652.723279
_symmetry_space_group_name_H-M "P -1"
_symmetry_group_IT_number 2
_symmetry_cell_setting 'triclinic'
loop_
_space_group_symop_operation_xyz
x,y,z
-x,-y,-z
loop_
_atom_site_type_symbol
_atom_site_label
_atom_site_fract_x
_atom_site_fract_y
_atom_site_fract_z
Si Si1 0.197340 0.006784 0.866964
Si Si2 0.043434 0.789310 0.439803
Si Si3 0.230768 0.007076 0.462171
Si Si4 0.860647 0.355163 0.345451
Si Si5 0.450029 0.341473 0.023466
Si Si6 0.885289 0.462901 0.221616
Si Si7 0.105108 0.233777 0.354561
Si Si8 0.530916 0.086716 0.362280
O O1 0.525834 0.921786 0.814299
O O2 0.236343 0.071566 0.864233
O O3 0.074417 0.840642 0.680487
O O4 0.940241 0.207299 0.121765
O O5 0.956111 0.779885 0.352055
O O6 0.712573 0.962101 0.659882
O O7 0.210047 0.561721 0.225396
O O8 0.262609 0.887032 0.550963
O O9 0.500000 0.000000 0.500000
O O10 0.000000 0.000000 0.500000
O O11 0.356303 0.813573 0.201377
O O12 0.500000 0.500000 0.500000
O O13 0.000000 0.500000 0.500000
O O14 0.977731 0.225968 0.272929
O O15 0.669801 0.362327 0.103693
O O16 0.215952 0.291175 0.004339
O O17 0.959671 0.531548 0.368322
O O18 0.692181 0.690023 0.432210
#
# Coordination Sequence:
#
# PCOD8012767 Si02
#       8
#     2   2   2   2   2   2   2   2
#     4  11  21  40  68  91 119 171 226 266 322 389
#     4  10  21  40  63  91 124 161 203 262 315 367
#     4  12  26  42  62  92 130 165 212 249 304 394
#     4  12  26  42  56  90 142 170 212 272 328 390
#     4  10  21  40  63  91 124 161 203 262 315 367
#     4   9  18  36  64  90 118 150 208 263 311 366
#     4  11  21  40  68  91 119 171 226 266 322 389
#     4   9  18  36  64  90 118 150 208 263 311 366
#
# _framework density 24.512684
#
# number of rings (size 3 to 8) (size 9 to 14) (size 15 to 20)
#    0.000    1.500    0.000    7.500    0.000    1.000 
#    6.750    0.000    0.000    0.000    0.000    0.000 
#    0.000    0.000    0.000    0.000    0.000    0.000 
#
# Total GULP energy -198321.338969 kJ/mol
# GULP energy per Si atom -12395.083686 kJ/mol
# Density = 2.445689 g / cm^3
# Si number density = 24.512684 Si / 1000 Ang^3
#
#
#
# Elastic Constant Matrix: (Units=GPa)
#
#
# Indices 1 2 3 4 5 6 
#
# 1 178.9973 37.9624 28.4815 -12.3078 -4.5127 4.9902
# 2 37.9624 83.5901 4.9830 -30.1184 -3.1307 -1.0783
# 3 28.4815 4.9830 87.7518 -29.4964 -13.9681 5.3071
# 4 -12.3078 -30.1184 -29.4964 28.5633 -5.4749 -6.3064
# 5 -4.5127 -3.1307 -13.9681 -5.4749 46.9042 -6.8681
# 6 4.9902 -1.0783 5.3071 -6.3064 -6.8681 43.0015
#
#
#
# Elastic Compliance Matrix: (Units=1/GPa)
#
#
# Indices 1 2 3 4 5 6 
#
# 1 0.007563 -0.008677 -0.007591 -0.015243 -0.004343 -0.003088
# 2 -0.008677 0.045582 0.031555 0.084621 0.023596 0.014434
# 3 -0.007591 0.031555 0.042949 0.082010 0.025566 0.012482
# 4 -0.015243 0.084621 0.082010 0.221718 0.059730 0.035826
# 5 -0.004343 0.023596 0.025566 0.059730 0.038955 0.012922
# 6 -0.003088 0.014434 0.012482 0.035826 0.012922 0.029753
#
#
# Mechanical properties :
#
#
# Convention : Reuss Voigt Hill
#
# Bulk Modulus (GPa) = 7.89462 54.79920 31.34691
# Shear Modulus (GPa) = 12.55750 42.28794 27.42272
#
# Velocity S-wave (km/s) = 2.26583 4.15799 3.34835
# Velocity P-wave (km/s) = 3.17379 6.74210 5.26919
#
# Compressibility (1/GPa) = 0.12666858
#
# Stress axis : x y z
#
# Youngs Moduli (GPa) = 132.21925 21.93825 23.28352
#
# Poissons Ratio (x) = 0.19036 0.17673
# Poissons Ratio (y) = 1.14730 -0.73471
# Poissons Ratio (z) = 1.00361 -0.69226
#
# Static dielectric constant tensor:
#      x y z
#    x 4.779640 -0.159500 -0.167580 
#    y -0.159500 4.859910 -0.070600 
#    z -0.167580 -0.070600 4.634860 
# 
# 
# High freq. dielectric constant tensor:
#      x y z
#    x 2.000330 -0.009580 -0.014430 
#    y -0.009580 1.984480 0.008870 
#    z -0.014430 0.008870 1.967710 
# 
# From -- ./inp_files/584495.got.cif
#   From: 2010.06.25/outbox.cif.g09.slc.cpg/sg2_293_cif.got.tgz:584495.got - 2010.06.27 13:26:56.
