data_PCOD8012068
_publ_section_title
;
Structure prediction by ZEFSAII (Michael W. Deem and Ramdas Pophale) SiO2 
 PCOD8012068
Probable space group: P -1
;
_chemical_formula_sum "Si O2"
_cell_formula_units_Z 16
_cell_length_a 19.641719
_cell_length_b 10.870609
_cell_length_c 5.048272
_cell_angle_alpha 123.546428
_cell_angle_beta 68.293866
_cell_angle_gamma 134.112251
_cell_volume 644.803464
_symmetry_space_group_name_H-M "P -1"
_symmetry_group_IT_number 2
_symmetry_cell_setting 'triclinic'
loop_
_space_group_symop_operation_xyz
x,y,z
-x,-y,-z
loop_
_atom_site_type_symbol
_atom_site_label
_atom_site_fract_x
_atom_site_fract_y
_atom_site_fract_z
Si Si1 0.359835 0.931869 0.653355
Si Si2 0.230092 0.440144 0.686732
Si Si3 0.961205 0.366014 0.651382
Si Si4 0.637843 0.593111 0.279955
Si Si5 0.764186 0.232744 0.848196
Si Si6 0.585286 0.303244 0.590941
Si Si7 0.964017 0.864741 0.643342
Si Si8 0.549062 0.769613 0.683344
O O1 0.319305 0.931766 0.424260
O O2 0.404807 0.829451 0.400699
O O3 0.272110 0.821529 0.860810
O O4 0.438208 0.136905 0.935356
O O5 0.256544 0.332358 0.706271
O O6 0.331555 0.618542 0.645052
O O7 0.150497 0.293162 0.410909
O O8 0.198860 0.551584 0.017656
O O9 0.847874 0.225642 0.661502
O O10 0.000000 0.500000 0.500000
O O11 0.993211 0.239938 0.490781
O O12 0.000000 0.500000 0.000000
O O13 0.635926 0.769602 0.488568
O O14 0.553903 0.444156 0.430434
O O15 0.608418 0.488103 0.916860
O O16 0.477389 0.156123 0.440968
O O17 0.000000 0.000000 0.500000
O O18 0.000000 0.000000 0.000000
#
# Coordination Sequence:
#
# PCOD8012068 Si02
#       8
#     2   2   2   2   2   2   2   2
#     4  11  24  41  66  98 138 171 228 296 336 402
#     4  10  23  43  67  96 132 180 231 283 345 431
#     4  12  25  46  79 102 139 191 239 293 346 432
#     4  10  21  40  66  87 134 180 227 269 354 418
#     4  11  24  43  70 102 132 180 237 281 349 411
#     4  10  21  39  66  90 125 182 229 277 342 413
#     4  12  29  47  73 111 148 183 233 301 366 421
#     4  10  23  38  58  99 129 176 227 281 342 412
#
# _framework density 24.813763000000002
#
# number of rings (size 3 to 8) (size 9 to 14) (size 15 to 20)
#    0.000    1.250    2.500    2.250    5.250    2.500 
#    0.000    0.000    0.000    0.000    0.000    0.000 
#    0.000    0.000    0.000    0.000    0.000    0.000 
#
# Total GULP energy -198238.429667 kJ/mol
# GULP energy per Si atom -12389.901854 kJ/mol
# Density = 2.475729 g / cm^3
# Si number density = 24.813763 Si / 1000 Ang^3
#
#
#
# Elastic Constant Matrix: (Units=GPa)
#
#
# Indices 1 2 3 4 5 6 
#
# 1 194.1942 38.1967 65.7897 26.2267 1.4396 12.6481
# 2 38.1967 51.3231 4.5857 16.0897 -0.3958 6.5392
# 3 65.7897 4.5857 163.5762 18.9760 14.3110 -3.2065
# 4 26.2267 16.0897 18.9760 32.9715 2.6435 6.6265
# 5 1.4396 -0.3958 14.3110 2.6435 51.7205 10.3847
# 6 12.6481 6.5392 -3.2065 6.6265 10.3847 49.5816
#
#
#
# Elastic Compliance Matrix: (Units=1/GPa)
#
#
# Indices 1 2 3 4 5 6 
#
# 1 0.007259 -0.004391 -0.002682 -0.001881 0.000880 -0.001379
# 2 -0.004391 0.025885 0.002176 -0.010250 0.000417 -0.000871
# 3 -0.002682 0.002176 0.007782 -0.003599 -0.002250 0.001853
# 4 -0.001881 -0.010250 -0.003599 0.039655 -0.000328 -0.003632
# 5 0.000880 0.000417 -0.002250 -0.000328 0.020909 -0.004760
# 6 -0.001379 -0.000871 0.001853 -0.003632 -0.004760 0.022238
#
#
# Mechanical properties :
#
#
# Convention : Reuss Voigt Hill
#
# Bulk Modulus (GPa) = 32.12156 69.58196 50.85176
# Shear Modulus (GPa) = 34.74668 46.88948 40.81808
#
# Velocity S-wave (km/s) = 3.74612 4.35173 4.06023
# Velocity P-wave (km/s) = 5.62888 7.30429 6.52062
#
# Compressibility (1/GPa) = 0.03113174
#
# Stress axis : x y z
#
# Youngs Moduli (GPa) = 137.75685 38.63226 128.50491
#
# Poissons Ratio (x) = 0.16962 0.34468
# Poissons Ratio (y) = 0.60484 -0.27959
# Poissons Ratio (z) = 0.36950 -0.08405
#
# Static dielectric constant tensor:
#      x y z
#    x 5.116090 -0.119940 -0.007210 
#    y -0.119940 4.566410 0.022620 
#    z -0.007210 0.022620 4.287330 
# 
# 
# High freq. dielectric constant tensor:
#      x y z
#    x 2.011230 0.000840 0.001090 
#    y 0.000840 1.985800 -0.001260 
#    z 0.001090 -0.001260 1.989180 
# 
# From -- ./inp_files/55289.got.cif
#   From: 2010.06.25/outbox.cif.g09.slc.cpg/sg2_28_cif.got.tgz:55289.got - 2010.06.27 13:26:56.
