data_PCOD8012058
_publ_section_title
;
Structure prediction by ZEFSAII (Michael W. Deem and Ramdas Pophale) SiO2 
 PCOD8012058
Probable space group: P -1
;
_chemical_formula_sum "Si O2"
_cell_formula_units_Z 16
_cell_length_a 9.159566
_cell_length_b 8.972794
_cell_length_c 23.376795
_cell_angle_alpha 65.199160
_cell_angle_beta 131.140868
_cell_angle_gamma 74.781654
_cell_volume 809.239739
_symmetry_space_group_name_H-M "P -1"
_symmetry_group_IT_number 2
_symmetry_cell_setting 'triclinic'
loop_
_space_group_symop_operation_xyz
x,y,z
-x,-y,-z
loop_
_atom_site_type_symbol
_atom_site_label
_atom_site_fract_x
_atom_site_fract_y
_atom_site_fract_z
Si Si1 0.659867 0.159055 0.022336
Si Si2 0.252654 0.180601 0.982736
Si Si3 0.136132 0.008398 0.255997
Si Si4 0.107664 0.996294 0.587933
Si Si5 0.149721 0.545482 0.494534
Si Si6 0.715958 0.278544 0.208043
Si Si7 0.258073 0.256468 0.194348
Si Si8 0.566024 0.018969 0.198528
O O1 0.829175 0.929498 0.055843
O O2 0.381155 0.238404 0.965584
O O3 0.508130 0.416669 0.910043
O O4 0.918517 0.037855 0.155415
O O5 0.953517 0.440649 0.900650
O O6 0.504350 0.967734 0.131318
O O7 0.501493 0.720810 0.394088
O O8 0.089502 0.226597 0.190715
O O9 0.031592 0.072549 0.284585
O O10 0.189394 0.800344 0.687548
O O11 0.400809 0.921951 0.665042
O O12 0.000000 0.000000 0.500000
O O13 0.827608 0.300345 0.488797
O O14 0.000000 0.500000 0.500000
O O15 0.919968 0.730564 0.351913
O O16 0.529643 0.240277 0.146313
O O17 0.307399 0.152165 0.159561
#
# Coordination Sequence:
#
# PCOD8012058 Si02
#       8
#     2   2   2   2   2   2   2   2
#     4  11  24  37  62  93 129 155 199 270 299 361
#     4  11  22  40  58  94 127 156 203 255 320 348
#     4  12  20  40  68  89 120 166 213 244 301 374
#     4  10  24  43  63  89 132 160 197 261 307 363
#     4  10  21  40  62  91 119 162 208 247 303 358
#     4  10  21  42  62  92 116 167 207 245 308 363
#     4  10  21  39  66  87 120 166 204 246 308 365
#     4  10  21  40  61  89 124 163 203 253 298 371
#
# _framework density 19.771643000000001
#
# number of rings (size 3 to 8) (size 9 to 14) (size 15 to 20)
#    0.000    1.750    5.000    1.500    1.750    4.000 
#    0.000    3.750    0.000    0.000    0.000    0.000 
#    0.000    0.000    0.000    0.000    0.000    0.000 
#
# Total GULP energy -198287.314542 kJ/mol
# GULP energy per Si atom -12392.957159 kJ/mol
# Density = 1.972664 g / cm^3
# Si number density = 19.771643 Si / 1000 Ang^3
#
#
#
# Elastic Constant Matrix: (Units=GPa)
#
#
# Indices 1 2 3 4 5 6 
#
# 1 80.7322 24.6754 20.6943 8.0923 -5.7517 0.0154
# 2 24.6754 88.2056 53.3449 7.2725 -9.6094 -6.3641
# 3 20.6943 53.3449 87.7268 -7.4394 -8.0607 -5.9903
# 4 8.0923 7.2725 -7.4394 39.1145 -8.7166 -3.6136
# 5 -5.7517 -9.6094 -8.0607 -8.7166 30.8462 -2.7991
# 6 0.0154 -6.3641 -5.9903 -3.6136 -2.7991 30.2554
#
#
#
# Elastic Compliance Matrix: (Units=1/GPa)
#
#
# Indices 1 2 3 4 5 6 
#
# 1 0.013990 -0.002456 -0.002101 -0.002870 0.000370 -0.001248
# 2 -0.002456 0.019689 -0.011589 -0.004920 0.001383 0.001389
# 3 -0.002101 -0.011589 0.020096 0.007473 0.003612 0.002769
# 4 -0.002870 -0.004920 0.007473 0.030983 0.009093 0.004988
# 5 0.000370 0.001383 0.003612 0.009093 0.036932 0.005509
# 6 -0.001248 0.001389 0.002769 0.004988 0.005509 0.034998
#
#
# Mechanical properties :
#
#
# Convention : Reuss Voigt Hill
#
# Bulk Modulus (GPa) = 46.54696 50.45486 48.50091
# Shear Modulus (GPa) = 25.49163 30.57320 28.03242
#
# Velocity S-wave (km/s) = 3.59458 3.93659 3.76947
# Velocity P-wave (km/s) = 6.38916 6.79974 6.59765
#
# Compressibility (1/GPa) = 0.02148368
#
# Stress axis : x y z
#
# Youngs Moduli (GPa) = 71.47825 50.78882 49.76030
#
# Poissons Ratio (x) = 0.12473 0.10457
# Poissons Ratio (y) = 0.17555 0.57666
# Poissons Ratio (z) = 0.15021 0.58858
#
# Static dielectric constant tensor:
#      x y z
#    x 3.787840 -0.035760 -0.099610 
#    y -0.035760 3.730710 -0.176420 
#    z -0.099610 -0.176420 3.604910 
# 
# 
# High freq. dielectric constant tensor:
#      x y z
#    x 1.776730 -0.004290 -0.004390 
#    y -0.004290 1.763440 -0.010930 
#    z -0.004390 -0.010930 1.766330 
# 
# From -- ./inp_files/305480.got.cif
#   From: 2010.06.25/outbox.cif.g09.slc.cpg/sg2_153_cif.got.tgz:305480.got - 2010.06.27 13:26:56.
