data_PCOD8012236
_publ_section_title
;
Structure prediction by ZEFSAII (Michael W. Deem and Ramdas Pophale) SiO2 
 PCOD8012236
Probable space group: P -1
;
_chemical_formula_sum "Si O2"
_cell_formula_units_Z 16
_cell_length_a 9.192692
_cell_length_b 20.874828
_cell_length_c 12.105954
_cell_angle_alpha 28.634052
_cell_angle_beta 48.889363
_cell_angle_gamma 58.112703
_cell_volume 831.058291
_symmetry_space_group_name_H-M "P -1"
_symmetry_group_IT_number 2
_symmetry_cell_setting 'triclinic'
loop_
_space_group_symop_operation_xyz
x,y,z
-x,-y,-z
loop_
_atom_site_type_symbol
_atom_site_label
_atom_site_fract_x
_atom_site_fract_y
_atom_site_fract_z
Si Si1 0.215698 0.771155 0.890156
Si Si2 0.705832 0.179973 0.987887
Si Si3 0.169143 0.114567 0.053929
Si Si4 0.310580 0.569134 0.968505
Si Si5 0.056678 0.042942 0.781859
Si Si6 0.605246 0.996141 0.707194
Si Si7 0.084734 0.298340 0.493297
Si Si8 0.427299 0.212032 0.599471
O O1 0.241076 0.640355 0.004370
O O2 0.313302 0.908723 0.577346
O O3 0.987191 0.782690 0.004291
O O4 0.318041 0.746607 0.994170
O O5 0.869973 0.269865 0.696973
O O6 0.758291 0.032282 0.222581
O O7 0.506856 0.145618 0.070002
O O8 0.212822 0.041629 0.255730
O O9 0.371369 0.195167 0.782286
O O10 0.104423 0.002128 0.162195
O O11 0.373005 0.682801 0.671652
O O12 0.500000 0.500000 0.000000
O O13 0.133685 0.454751 0.193926
O O14 0.101130 0.205961 0.515354
O O15 0.000000 0.000000 0.000000
O O16 0.459958 0.069700 0.744096
O O17 0.242453 0.265016 0.554290
#
# Coordination Sequence:
#
# PCOD8012236 Si02
#       8
#     2   2   2   2   2   2   2   2
#     4  10  21  37  54  78 113 139 175 228 268 314
#     4  10  18  32  56  81 109 137 175 227 272 307
#     4  11  20  34  56  83 109 147 170 216 281 321
#     4   9  21  34  55  82 104 138 184 230 256 308
#     4   9  15  29  53  77 109 133 167 221 264 306
#     4  11  21  32  54  85 113 138 177 217 272 328
#     4  10  16  33  54  80 109 140 178 222 265 308
#     4  10  17  33  52  80 111 137 179 220 257 317
#
# _framework density 19.252561
#
# number of rings (size 3 to 8) (size 9 to 14) (size 15 to 20)
#    0.000    2.000    5.000    1.875    0.000    0.500 
#    0.000    0.000    0.000    7.500    3.250    0.000 
#    0.000    0.000    0.000    0.000    0.000    0.000 
#
# Total GULP energy -198260.179891 kJ/mol
# GULP energy per Si atom -12391.261243 kJ/mol
# Density = 1.920874 g / cm^3
# Si number density = 19.252561 Si / 1000 Ang^3
#
#
#
# Elastic Constant Matrix: (Units=GPa)
#
#
# Indices 1 2 3 4 5 6 
#
# 1 75.3940 15.8801 25.8276 -4.0492 -7.6135 11.7043
# 2 15.8801 103.2840 46.8098 0.8515 -14.6369 7.5234
# 3 25.8276 46.8098 97.6534 -5.8960 -25.9311 13.2149
# 4 -4.0492 0.8515 -5.8960 29.2689 5.1076 -6.5888
# 5 -7.6135 -14.6369 -25.9311 5.1076 19.6706 -5.3171
# 6 11.7043 7.5234 13.2149 -6.5888 -5.3171 15.6326
#
#
#
# Elastic Compliance Matrix: (Units=1/GPa)
#
#
# Indices 1 2 3 4 5 6 
#
# 1 0.015731 -0.000532 -0.002747 -0.000436 -0.000387 -0.009516
# 2 -0.000532 0.012584 -0.005160 -0.002234 0.002567 -0.001365
# 3 -0.002747 -0.005160 0.019236 -0.000965 0.019193 -0.005600
# 4 -0.000436 -0.002234 -0.000965 0.039066 -0.009027 0.015613
# 5 -0.000387 0.002567 0.019193 -0.009027 0.082123 0.006958
# 6 -0.009516 -0.001365 -0.005600 0.015613 0.006958 0.085431
#
#
# Mechanical properties :
#
#
# Convention : Reuss Voigt Hill
#
# Bulk Modulus (GPa) = 32.60137 50.37402 41.48770
# Shear Modulus (GPa) = 17.77622 25.43535 21.60578
#
# Velocity S-wave (km/s) = 3.04191 3.63869 3.35360
# Velocity P-wave (km/s) = 5.41368 6.62383 6.04909
#
# Compressibility (1/GPa) = 0.03067356
#
# Stress axis : x y z
#
# Youngs Moduli (GPa) = 63.56685 79.46588 51.98501
#
# Poissons Ratio (x) = 0.04226 0.14282
# Poissons Ratio (y) = 0.03380 0.26825
# Poissons Ratio (z) = 0.17464 0.41005
#
# Static dielectric constant tensor:
#      x y z
#    x 3.266510 0.194600 -0.289690 
#    y 0.194600 3.766560 -0.137660 
#    z -0.289690 -0.137660 4.006230 
# 
# 
# High freq. dielectric constant tensor:
#      x y z
#    x 1.712040 0.006780 -0.018540 
#    y 0.006780 1.746860 0.014920 
#    z -0.018540 0.014920 1.737640 
# 
# From -- ./inp_files/188400.got.cif
#   From: 2010.06.25/outbox.cif.g09.slc.cpg/sg2_95_cif.got.tgz:188400.got - 2010.06.27 13:26:56.
