data_PCOD8012551
_publ_section_title
;
Structure prediction by ZEFSAII (Michael W. Deem and Ramdas Pophale) SiO2 
 PCOD8012551
Probable space group: P -1
;
_chemical_formula_sum "Si O2"
_cell_formula_units_Z 14
_cell_length_a 23.410958
_cell_length_b 5.187397
_cell_length_c 5.414922
_cell_angle_alpha 97.522191
_cell_angle_beta 113.786020
_cell_angle_gamma 104.605058
_cell_volume 561.846639
_symmetry_space_group_name_H-M "P -1"
_symmetry_group_IT_number 2
_symmetry_cell_setting 'triclinic'
loop_
_space_group_symop_operation_xyz
x,y,z
-x,-y,-z
loop_
_atom_site_type_symbol
_atom_site_label
_atom_site_fract_x
_atom_site_fract_y
_atom_site_fract_z
Si Si1 0.619360 0.349075 0.695988
Si Si2 0.430734 0.545177 0.869770
Si Si3 0.040989 0.801452 0.993969
Si Si4 0.322020 0.106333 0.373661
Si Si5 0.071659 0.697946 0.536619
Si Si6 0.158380 0.326861 0.717423
Si Si7 0.191592 0.176945 0.256647
O O1 0.570305 0.275980 0.359113
O O2 0.665627 0.669519 0.798513
O O3 0.665980 0.162285 0.746040
O O4 0.579440 0.300112 0.878832
O O5 0.372305 0.247630 0.703777
O O6 0.500000 0.500000 0.000000
O O7 0.118380 0.956227 0.089923
O O8 0.038678 0.589124 0.193801
O O9 0.018231 0.663486 0.664751
O O10 0.000000 0.000000 0.000000
O O11 0.246400 0.025413 0.326069
O O12 0.126659 0.566874 0.687412
O O13 0.103007 0.023776 0.569376
O O14 0.203007 0.360319 0.550514
O O15 0.200357 0.366676 0.049012
#
# Coordination Sequence:
#
# PCOD8012551 Si02
#       7
#     2   2   2   2   2   2   2
#     4  10  25  41  68  99 133 176 221 268 328 388
#     4  10  24  45  69 101 135 175 220 270 326 390
#     4  10  21  41  64  93 125 165 214 266 322 383
#     4  10  26  42  67  97 137 173 225 269 330 391
#     4  10  21  40  61  88 119 158 204 260 316 379
#     4  10  22  39  62  89 119 162 207 255 318 376
#     4  10  23  41  63  92 127 170 211 268 322 382
#
# _framework density 24.917831
#
# number of rings (size 3 to 8) (size 9 to 14) (size 15 to 20)
#    0.857    1.143    0.000    1.714    4.000    5.714 
#    0.000   17.143    0.000    0.000    0.000    0.000 
#    0.000    0.000    0.000    0.000    0.000    0.000 
#
# Total GULP energy -173537.753229 kJ/mol
# GULP energy per Si atom -12395.553802 kJ/mol
# Density = 2.486112 g / cm^3
# Si number density = 24.917831 Si / 1000 Ang^3
#
#
#
# Elastic Constant Matrix: (Units=GPa)
#
#
# Indices 1 2 3 4 5 6 
#
# 1 199.2326 55.6850 92.1369 -5.1517 -10.9271 -50.7425
# 2 55.6850 115.5650 39.6910 -15.4327 -6.4841 -36.5626
# 3 92.1369 39.6910 170.1404 -21.4932 -48.5835 -10.9547
# 4 -5.1517 -15.4327 -21.4932 28.6863 2.4063 -1.4253
# 5 -10.9271 -6.4841 -48.5835 2.4063 59.0815 8.7425
# 6 -50.7425 -36.5626 -10.9547 -1.4253 8.7425 42.9617
#
#
#
# Elastic Compliance Matrix: (Units=1/GPa)
#
#
# Indices 1 2 3 4 5 6 
#
# 1 0.011070 0.000615 -0.007151 -0.001931 -0.005588 0.012848
# 2 0.000615 0.014050 -0.002763 0.006465 -0.002767 0.012757
# 3 -0.007151 -0.002763 0.013619 0.006073 0.010702 -0.009301
# 4 -0.001931 0.006465 0.006073 0.042587 0.002781 0.005616
# 5 -0.005588 -0.002767 0.010702 0.002781 0.025965 -0.011417
# 6 0.012848 0.012757 -0.009301 0.005616 -0.011417 0.049447
#
#
# Mechanical properties :
#
#
# Convention : Reuss Voigt Hill
#
# Bulk Modulus (GPa) = 49.64763 95.55153 72.59958
# Shear Modulus (GPa) = 27.46520 45.97423 36.71972
#
# Velocity S-wave (km/s) = 3.32359 4.30005 3.84296
# Velocity P-wave (km/s) = 5.89034 7.94253 6.99213
#
# Compressibility (1/GPa) = 0.02014195
#
# Stress axis : x y z
#
# Youngs Moduli (GPa) = 90.33301 71.17605 73.42812
#
# Poissons Ratio (x) = -0.04380 0.52506
# Poissons Ratio (y) = -0.05558 0.20288
# Poissons Ratio (z) = 0.64595 0.19665
#
# Static dielectric constant tensor:
#      x y z
#    x 4.450680 0.009140 -0.584210 
#    y 0.009140 4.181670 -0.074380 
#    z -0.584210 -0.074380 5.573780 
# 
# 
# High freq. dielectric constant tensor:
#      x y z
#    x 1.994040 -0.000930 -0.017480 
#    y -0.000930 1.984740 -0.001780 
#    z -0.017480 -0.001780 2.025710 
# 
# From -- ./inp_files/12011.got.cif
#   From: 2010.06.25/outbox.cif.g09.slc.cpg/sg2_7_cif.got.tgz:12011.got - 2010.06.27 13:26:56.
