data_PCOD8012169
_publ_section_title
;
Structure prediction by ZEFSAII (Michael W. Deem and Ramdas Pophale) SiO2 
 PCOD8012169
Probable space group: P -1
;
_chemical_formula_sum "Si O2"
_cell_formula_units_Z 16
_cell_length_a 12.463865
_cell_length_b 9.589866
_cell_length_c 22.534323
_cell_angle_alpha 152.344129
_cell_angle_beta 37.690600
_cell_angle_gamma 133.680697
_cell_volume 763.863855
_symmetry_space_group_name_H-M "P -1"
_symmetry_group_IT_number 2
_symmetry_cell_setting 'triclinic'
loop_
_space_group_symop_operation_xyz
x,y,z
-x,-y,-z
loop_
_atom_site_type_symbol
_atom_site_label
_atom_site_fract_x
_atom_site_fract_y
_atom_site_fract_z
Si Si1 0.820158 0.187916 0.646798
Si Si2 0.750020 0.679784 0.631208
Si Si3 0.490193 0.847387 0.636142
Si Si4 0.690362 0.365986 0.885828
Si Si5 0.400337 0.895455 0.562362
Si Si6 0.124418 0.411649 0.332267
Si Si7 0.041333 0.150307 0.855993
Si Si8 0.137715 0.110779 0.932289
O O1 0.816170 0.392882 0.784089
O O2 0.780989 0.404232 0.690394
O O3 0.660008 0.965100 0.639152
O O4 0.000000 0.000000 0.500000
O O5 0.622491 0.463157 0.569662
O O6 0.746912 0.598286 0.671597
O O7 0.947247 0.612036 0.496685
O O8 0.682149 0.022517 0.782042
O O9 0.500000 0.500000 0.500000
O O10 0.491806 0.965461 0.611576
O O11 0.318554 0.916186 0.777105
O O12 0.500000 0.500000 0.000000
O O13 0.793938 0.553170 0.960299
O O14 0.500000 0.000000 0.500000
O O15 0.215190 0.076525 0.714029
O O16 0.100919 0.067858 0.192052
O O17 0.048515 0.079628 0.895830
O O18 0.000000 0.500000 0.000000
O O19 0.000000 0.000000 0.000000
#
# Coordination Sequence:
#
# PCOD8012169 Si02
#       8
#     2   2   2   2   2   2   2   2
#     4  12  24  42  69  97 129 173 222 268 330 392
#     4  10  21  40  65  94 126 171 216 266 325 387
#     4  11  25  41  64  95 131 169 218 271 319 388
#     4  12  24  43  64  95 136 169 215 278 326 386
#     4  10  22  41  64  91 130 168 214 265 327 390
#     4  10  21  39  67  93 125 168 223 265 317 394
#     4  10  22  42  63  93 129 168 215 269 322 390
#     4  11  25  42  64  93 132 173 215 265 329 386
#
# _framework density 20.94614
#
# number of rings (size 3 to 8) (size 9 to 14) (size 15 to 20)
#    0.000    1.250    2.500    3.000    5.250    1.000 
#    2.250    0.625    0.000    0.000    0.000    0.000 
#    0.000    0.000    0.000    0.000    0.000    0.000 
#
# Total GULP energy -198301.337686 kJ/mol
# GULP energy per Si atom -12393.833605 kJ/mol
# Density = 2.089847 g / cm^3
# Si number density = 20.946140 Si / 1000 Ang^3
#
#
#
# Elastic Constant Matrix: (Units=GPa)
#
#
# Indices 1 2 3 4 5 6 
#
# 1 68.1996 13.8355 28.6165 -8.5117 5.2955 5.6110
# 2 13.8355 104.0797 55.9757 -6.8759 -5.8891 -11.5363
# 3 28.6165 55.9757 142.0861 7.3700 0.7455 0.1702
# 4 -8.5117 -6.8759 7.3700 48.2195 -5.0167 8.4588
# 5 5.2955 -5.8891 0.7455 -5.0167 35.2771 0.5415
# 6 5.6110 -11.5363 0.1702 8.4588 0.5415 35.2013
#
#
#
# Elastic Compliance Matrix: (Units=1/GPa)
#
#
# Indices 1 2 3 4 5 6 
#
# 1 0.017187 -0.000773 -0.003344 0.003906 -0.002023 -0.003884
# 2 -0.000773 0.013227 -0.005184 0.002131 0.002676 0.003930
# 3 -0.003344 -0.005184 0.009908 -0.002855 -0.000971 -0.000513
# 4 0.003906 0.002131 -0.002855 0.023490 0.003256 -0.005605
# 5 -0.002023 0.002676 -0.000971 0.003256 0.029582 -0.000033
# 6 -0.003884 0.003930 -0.000513 -0.005605 -0.000033 0.031665
#
#
# Mechanical properties :
#
#
# Convention : Reuss Voigt Hill
#
# Bulk Modulus (GPa) = 46.04447 56.80232 51.42340
# Shear Modulus (GPa) = 33.13424 38.13541 35.63483
#
# Velocity S-wave (km/s) = 3.98160 4.27153 4.12911
# Velocity P-wave (km/s) = 6.57020 7.17670 6.88014
#
# Compressibility (1/GPa) = 0.02171813
#
# Stress axis : x y z
#
# Youngs Moduli (GPa) = 58.18341 75.60384 100.93120
#
# Poissons Ratio (x) = 0.05845 0.33754
# Poissons Ratio (y) = 0.04498 0.52327
# Poissons Ratio (z) = 0.19458 0.39196
#
# Static dielectric constant tensor:
#      x y z
#    x 3.364590 -0.008860 -0.015720 
#    y -0.008860 3.678430 -0.057860 
#    z -0.015720 -0.057860 3.851130 
# 
# 
# High freq. dielectric constant tensor:
#      x y z
#    x 1.830010 -0.005990 0.020730 
#    y -0.005990 1.815850 0.004150 
#    z 0.020730 0.004150 1.829650 
# 
# From -- ./inp_files/279986.got.cif
#   From: 2010.06.25/outbox.cif.g09.slc.cpg/sg2_140_cif.got.tgz:279986.got - 2010.06.27 13:26:56.
