data_PCOD8012011
_publ_section_title
;
Structure prediction by ZEFSAII (Michael W. Deem and Ramdas Pophale) SiO2 
 PCOD8012011
Probable space group: P -1
;
_chemical_formula_sum "Si O2"
_cell_formula_units_Z 16
_cell_length_a 8.548871
_cell_length_b 8.741592
_cell_length_c 18.053472
_cell_angle_alpha 53.391798
_cell_angle_beta 141.269603
_cell_angle_gamma 110.362733
_cell_volume 658.868634
_symmetry_space_group_name_H-M "P -1"
_symmetry_group_IT_number 2
_symmetry_cell_setting 'triclinic'
loop_
_space_group_symop_operation_xyz
x,y,z
-x,-y,-z
loop_
_atom_site_type_symbol
_atom_site_label
_atom_site_fract_x
_atom_site_fract_y
_atom_site_fract_z
Si Si1 0.606003 0.624867 0.918611
Si Si2 0.961746 0.374809 0.322174
Si Si3 0.050447 0.285689 0.545283
Si Si4 0.612483 0.147603 0.835728
Si Si5 0.274369 0.020810 0.218833
Si Si6 0.311491 0.011759 0.494809
Si Si7 0.300251 0.237621 0.935904
Si Si8 0.244452 0.751573 0.996984
O O1 0.330541 0.644294 0.773567
O O2 0.728118 0.802115 0.889277
O O3 0.800929 0.433658 0.011887
O O4 0.592516 0.629279 0.001916
O O5 0.954192 0.605428 0.235438
O O6 0.098666 0.311803 0.468935
O O7 0.106251 0.221888 0.357655
O O8 0.309343 0.155987 0.715046
O O9 0.000000 0.500000 0.500000
O O10 0.825549 0.170365 0.507972
O O11 0.680229 0.309530 0.870131
O O12 0.720779 0.154614 0.789583
O O13 0.757152 0.954706 0.992817
O O14 0.525924 0.988392 0.370644
O O15 0.014686 0.072463 0.157015
O O16 0.500000 0.000000 0.500000
O O17 0.518389 0.173833 0.972282
#
# Coordination Sequence:
#
# PCOD8012011 Si02
#       8
#     2   2   2   2   2   2   2   2
#     4  10  21  39  65  96 127 176 230 280 333 405
#     4  11  21  45  68  98 136 181 237 280 337 421
#     4  12  25  46  75 100 141 184 236 280 345 426
#     4  11  24  44  66  98 136 188 232 278 346 410
#     4  11  23  41  63  97 136 175 226 282 345 409
#     4  12  27  44  71 105 138 184 231 291 349 413
#     4  10  23  40  67 100 132 175 234 288 331 399
#     4  11  22  38  64  99 132 173 224 285 343 397
#
# _framework density 24.284051000000002
#
# number of rings (size 3 to 8) (size 9 to 14) (size 15 to 20)
#    0.000    1.000    2.500    6.000    5.250    0.000 
#    0.000    1.875    0.000    0.000    0.000    0.000 
#    0.000    0.000    0.000    0.000    0.000    0.000 
#
# Total GULP energy -198240.757958 kJ/mol
# GULP energy per Si atom -12390.047372 kJ/mol
# Density = 2.422878 g / cm^3
# Si number density = 24.284051 Si / 1000 Ang^3
#
#
#
# Elastic Constant Matrix: (Units=GPa)
#
#
# Indices 1 2 3 4 5 6 
#
# 1 100.9343 41.2075 34.5259 -13.9660 12.6290 -31.2451
# 2 41.2075 81.3565 33.4414 -0.6692 8.2544 -26.7177
# 3 34.5259 33.4414 105.1679 -4.5559 6.1551 -1.3332
# 4 -13.9660 -0.6692 -4.5559 40.0564 -8.1216 -3.1143
# 5 12.6290 8.2544 6.1551 -8.1216 32.9861 -5.8013
# 6 -31.2451 -26.7177 -1.3332 -3.1143 -5.8013 35.0859
#
#
#
# Elastic Compliance Matrix: (Units=1/GPa)
#
#
# Indices 1 2 3 4 5 6 
#
# 1 0.017964 -0.002255 -0.004637 0.006563 -0.001287 0.014474
# 2 -0.002255 0.019948 -0.005397 -0.000261 -0.000935 0.012800
# 3 -0.004637 -0.005397 0.012652 -0.001074 -0.000907 -0.008004
# 4 0.006563 -0.000261 -0.001074 0.029180 0.006570 0.009281
# 5 -0.001287 -0.000935 -0.000907 0.006570 0.033575 0.004243
# 6 0.014474 0.012800 -0.008004 0.009281 0.004243 0.052359
#
#
# Mechanical properties :
#
#
# Convention : Reuss Voigt Hill
#
# Bulk Modulus (GPa) = 38.48288 56.20092 47.34190
# Shear Modulus (GPa) = 25.13576 33.51125 29.32351
#
# Velocity S-wave (km/s) = 3.22075 3.71882 3.47871
# Velocity P-wave (km/s) = 5.45090 6.45236 5.97266
#
# Compressibility (1/GPa) = 0.02598558
#
# Stress axis : x y z
#
# Youngs Moduli (GPa) = 55.66745 50.12941 79.03673
#
# Poissons Ratio (x) = 0.11303 0.36652
# Poissons Ratio (y) = 0.12552 0.42659
# Poissons Ratio (z) = 0.25815 0.27056
#
# Static dielectric constant tensor:
#      x y z
#    x 4.210320 -0.420200 -0.041530 
#    y -0.420200 4.636170 -0.043150 
#    z -0.041530 -0.043150 4.545100 
# 
# 
# High freq. dielectric constant tensor:
#      x y z
#    x 1.955430 -0.030260 0.004430 
#    y -0.030260 1.976710 0.008590 
#    z 0.004430 0.008590 1.960900 
# 
# From -- ./inp_files/557055.got.cif
#   From: 2010.06.25/outbox.cif.g09.slc.cpg/sg2_279_cif.got.tgz:557055.got - 2010.06.27 13:26:56.
