data_PCOD8012265
_publ_section_title
;
Structure prediction by ZEFSAII (Michael W. Deem and Ramdas Pophale) SiO2 
 PCOD8012265
Probable space group: P -1
;
_chemical_formula_sum "Si O2"
_cell_formula_units_Z 16
_cell_length_a 20.795310
_cell_length_b 8.615189
_cell_length_c 12.782691
_cell_angle_alpha 48.840676
_cell_angle_beta 36.206666
_cell_angle_gamma 32.775467
_cell_volume 730.837620
_symmetry_space_group_name_H-M "P -1"
_symmetry_group_IT_number 2
_symmetry_cell_setting 'triclinic'
loop_
_space_group_symop_operation_xyz
x,y,z
-x,-y,-z
loop_
_atom_site_type_symbol
_atom_site_label
_atom_site_fract_x
_atom_site_fract_y
_atom_site_fract_z
Si Si1 0.324883 0.766460 0.130844
Si Si2 0.301418 0.920505 0.544898
Si Si3 0.397685 0.452323 0.780169
Si Si4 0.212217 0.898162 0.987213
Si Si5 0.112612 0.836540 0.518670
Si Si6 0.176027 0.375734 0.097521
Si Si7 0.982310 0.857804 0.291958
Si Si8 0.113645 0.371295 0.755148
O O1 0.229198 0.880646 0.097589
O O2 0.276198 0.662912 0.328044
O O3 0.288080 0.034802 0.112494
O O4 0.500000 0.500000 0.000000
O O5 0.381975 0.675592 0.633017
O O6 0.425563 0.849430 0.331306
O O7 0.178657 0.936119 0.644866
O O8 0.221426 0.213339 0.581628
O O9 0.361121 0.581057 0.888404
O O10 0.283151 0.426046 0.904194
O O11 0.066310 0.962016 0.111869
O O12 0.184075 0.161873 0.856909
O O13 0.105831 0.624489 0.680311
O O14 0.058261 0.092441 0.553752
O O15 0.000000 0.000000 0.500000
O O16 0.091155 0.529285 0.252859
O O17 0.051371 0.503813 0.113232
#
# Coordination Sequence:
#
# PCOD8012265 Si02
#       8
#     2   2   2   2   2   2   2   2
#     4  12  28  45  62  92 137 170 205 260 325 383
#     4   9  19  36  60  97 127 165 208 267 310 371
#     4   9  19  36  60  93 135 162 207 259 320 374
#     4  10  21  42  66  96 127 168 213 260 316 377
#     4  12  24  45  63  95 130 168 210 265 314 375
#     4  10  21  41  64  96 122 168 209 264 314 372
#     4  10  21  39  68  93 122 163 218 265 307 368
#     4  10  21  40  70  96 124 165 218 264 310 370
#
# _framework density 21.892688
#
# number of rings (size 3 to 8) (size 9 to 14) (size 15 to 20)
#    0.000    1.750    2.500    0.750    3.500    6.500 
#    0.000    3.125    0.000    0.000    0.000    0.000 
#    0.000    0.000    0.000    0.000    0.000    0.000 
#
# Total GULP energy -198238.156213 kJ/mol
# GULP energy per Si atom -12389.884763 kJ/mol
# Density = 2.184286 g / cm^3
# Si number density = 21.892688 Si / 1000 Ang^3
#
#
#
# Elastic Constant Matrix: (Units=GPa)
#
#
# Indices 1 2 3 4 5 6 
#
# 1 75.4886 33.8382 37.7056 9.7597 9.9347 15.3991
# 2 33.8382 101.1522 42.7327 16.9869 -1.3949 14.2242
# 3 37.7056 42.7327 119.9158 24.3902 -4.8681 9.8363
# 4 9.7597 16.9869 24.3902 44.8554 -0.5161 -0.0586
# 5 9.9347 -1.3949 -4.8681 -0.5161 36.7778 4.6825
# 6 15.3991 14.2242 9.8363 -0.0586 4.6825 27.7480
#
#
#
# Elastic Compliance Matrix: (Units=1/GPa)
#
#
# Indices 1 2 3 4 5 6 
#
# 1 0.019039 -0.003663 -0.004265 -0.000503 -0.005048 -0.006325
# 2 -0.003663 0.013288 -0.002608 -0.002804 0.001636 -0.004137
# 3 -0.004265 -0.002608 0.011688 -0.004410 0.002653 -0.000897
# 4 -0.000503 -0.002804 -0.004410 0.025861 -0.000630 0.003441
# 5 -0.005048 0.001636 0.002653 -0.000630 0.029461 -0.003950
# 6 -0.006325 -0.004137 -0.000897 0.003441 -0.003950 0.042661
#
#
# Mechanical properties :
#
#
# Convention : Reuss Voigt Hill
#
# Bulk Modulus (GPa) = 43.58471 58.34552 50.96511
# Shear Modulus (GPa) = 29.28825 34.02824 31.65825
#
# Velocity S-wave (km/s) = 3.66158 3.94676 3.80684
# Velocity P-wave (km/s) = 6.15043 6.89041 6.53091
#
# Compressibility (1/GPa) = 0.02294383
#
# Stress axis : x y z
#
# Youngs Moduli (GPa) = 52.52376 75.25492 85.55983
#
# Poissons Ratio (x) = 0.27566 0.36492
# Poissons Ratio (y) = 0.19239 0.22310
# Poissons Ratio (z) = 0.22402 0.19623
#
# Static dielectric constant tensor:
#      x y z
#    x 4.039200 0.454870 -0.131840 
#    y 0.454870 4.167880 0.364210 
#    z -0.131840 0.364210 5.201830 
# 
# 
# High freq. dielectric constant tensor:
#      x y z
#    x 1.849870 0.021320 0.002640 
#    y 0.021320 1.850610 0.028500 
#    z 0.002640 0.028500 1.869070 
# 
# From -- ./inp_files/180492.got.cif
#   From: 2010.06.25/outbox.cif.g09.slc.cpg/sg2_91_cif.got.tgz:180492.got - 2010.06.27 13:26:56.
