data_PCOD8012689
_publ_section_title
;
Structure prediction by ZEFSAII (Michael W. Deem and Ramdas Pophale) SiO2 
 PCOD8012689
Probable space group: P -1
;
_chemical_formula_sum "Si O2"
_cell_formula_units_Z 14
_cell_length_a 7.509900
_cell_length_b 9.240461
_cell_length_c 7.962107
_cell_angle_alpha 97.219950
_cell_angle_beta 98.568738
_cell_angle_gamma 73.971740
_cell_volume 523.041380
_symmetry_space_group_name_H-M "P -1"
_symmetry_group_IT_number 2
_symmetry_cell_setting 'triclinic'
loop_
_space_group_symop_operation_xyz
x,y,z
-x,-y,-z
loop_
_atom_site_type_symbol
_atom_site_label
_atom_site_fract_x
_atom_site_fract_y
_atom_site_fract_z
Si Si1 0.259020 0.256545 0.771395
Si Si2 0.120721 0.778922 0.429217
Si Si3 0.061317 0.221709 0.285762
Si Si4 0.236320 0.442902 0.477549
Si Si5 0.352607 0.931901 0.254937
Si Si6 0.252013 0.698859 0.990838
Si Si7 0.624355 0.597259 0.862488
O O1 0.054576 0.226504 0.719919
O O2 0.303356 0.379241 0.662676
O O3 0.421773 0.104572 0.722288
O O4 0.285570 0.312566 0.971865
O O5 0.039713 0.864301 0.605839
O O6 0.241344 0.612969 0.477840
O O7 0.266975 0.862401 0.389876
O O8 0.049702 0.383005 0.406786
O O9 0.955588 0.265259 0.104194
O O10 0.266741 0.112510 0.262377
O O11 0.349941 0.352096 0.316603
O O12 0.287915 0.857407 0.070586
O O13 0.268633 0.582782 0.132255
O O14 0.404811 0.620153 0.862931
#
# Coordination Sequence:
#
# PCOD8012689 Si02
#       7
#     2   2   2   2   2   2   2
#     4  10  24  42  64  98 132 160 218 268 305 391
#     4  11  23  42  65  95 124 169 215 261 320 374
#     4  11  24  41  63  94 128 167 213 263 314 388
#     4  11  23  41  68  96 124 167 216 264 323 366
#     4  11  24  43  63  92 133 172 204 261 329 369
#     4  10  21  40  62  94 130 158 220 260 311 389
#     4  10  21  40  66  98 123 168 208 270 321 363
#
# _framework density 26.766521000000001
#
# number of rings (size 3 to 8) (size 9 to 14) (size 15 to 20)
#    0.000    1.429    1.429    4.286    4.000    4.000 
#    2.571    1.429    0.000    0.000    0.000    0.000 
#    0.000    0.000    0.000    0.000    0.000    0.000 
#
# Total GULP energy -173439.015313 kJ/mol
# GULP energy per Si atom -12388.501094 kJ/mol
# Density = 2.670560 g / cm^3
# Si number density = 26.766521 Si / 1000 Ang^3
#
#
#
# Elastic Constant Matrix: (Units=GPa)
#
#
# Indices 1 2 3 4 5 6 
#
# 1 30.5459 2.9636 0.1247 -7.0637 -3.1681 0.7352
# 2 2.9636 80.7982 -6.7515 5.5510 18.1562 -18.4670
# 3 0.1247 -6.7515 67.1499 0.4775 -9.3112 -6.5203
# 4 -7.0637 5.5510 0.4775 23.4595 3.1806 2.5210
# 5 -3.1681 18.1562 -9.3112 3.1806 35.0508 -3.2580
# 6 0.7352 -18.4670 -6.5203 2.5210 -3.2580 32.5612
#
#
#
# Elastic Compliance Matrix: (Units=1/GPa)
#
#
# Indices 1 2 3 4 5 6 
#
# 1 0.036300 -0.003838 -0.000363 0.011720 0.003774 -0.003599
# 2 -0.003838 0.016856 0.001670 -0.005231 -0.007262 0.009659
# 3 -0.000363 0.001670 0.016085 -0.001879 0.003984 0.004720
# 4 0.011720 -0.005231 -0.001879 0.048491 -0.001832 -0.007546
# 5 0.003774 -0.007262 0.003984 -0.001832 0.033869 0.000125
# 6 -0.003599 0.009659 0.004720 -0.007546 0.000125 0.037813
#
#
# Mechanical properties :
#
#
# Convention : Reuss Voigt Hill
#
# Bulk Modulus (GPa) = 15.58117 19.01862 17.29990
# Shear Modulus (GPa) = 23.16241 30.35812 26.76026
#
# Velocity S-wave (km/s) = 2.94487 3.37142 3.16534
# Velocity P-wave (km/s) = 4.17095 4.71975 4.45381
#
# Compressibility (1/GPa) = 0.06418002
#
# Stress axis : x y z
#
# Youngs Moduli (GPa) = 27.54832 59.32700 62.17037
#
# Poissons Ratio (x) = 0.22767 0.02255
# Poissons Ratio (y) = 0.10572 -0.10383
# Poissons Ratio (z) = 0.00999 -0.09908
#
# Static dielectric constant tensor:
#      x y z
#    x 4.745550 -0.139160 -0.379280 
#    y -0.139160 4.711840 0.126060 
#    z -0.379280 0.126060 4.907080 
# 
# 
# High freq. dielectric constant tensor:
#      x y z
#    x 2.072560 -0.010670 -0.022580 
#    y -0.010670 2.064050 0.013200 
#    z -0.022580 0.013200 2.082800 
# 
# From -- ./inp_files/152228.got.cif
#   From: 2010.06.25/outbox.cif.g09.slc.cpg/sg2_77_cif.got.tgz:152228.got - 2010.06.27 13:26:56.
