data_PCOD8012854
_publ_section_title
;
Structure prediction by ZEFSAII (Michael W. Deem and Ramdas Pophale) SiO2 
 PCOD8012854
Probable space group: P -1
;
_chemical_formula_sum "Si O2"
_cell_formula_units_Z 16
_cell_length_a 20.919518
_cell_length_b 22.798988
_cell_length_c 5.142161
_cell_angle_alpha 56.568797
_cell_angle_beta 115.112663
_cell_angle_gamma 159.617382
_cell_volume 676.173295
_symmetry_space_group_name_H-M "P -1"
_symmetry_group_IT_number 2
_symmetry_cell_setting 'triclinic'
loop_
_space_group_symop_operation_xyz
x,y,z
-x,-y,-z
loop_
_atom_site_type_symbol
_atom_site_label
_atom_site_fract_x
_atom_site_fract_y
_atom_site_fract_z
Si Si1 0.602593 0.694603 0.143329
Si Si2 0.083686 0.224410 0.168341
Si Si3 0.701145 0.912389 0.079885
Si Si4 0.748030 0.687393 0.255792
Si Si5 0.390063 0.605231 0.688095
Si Si6 0.332622 0.963807 0.276183
Si Si7 0.984673 0.533837 0.641259
Si Si8 0.431650 0.795531 0.419026
O O1 0.718885 0.873726 0.971038
O O2 0.750879 0.774227 0.095385
O O3 0.477333 0.546929 0.531289
O O4 0.457262 0.588923 0.932140
O O5 0.128883 0.239217 0.496398
O O6 0.156855 0.236892 0.045427
O O7 0.162373 0.376125 0.851381
O O8 0.854021 0.024005 0.278617
O O9 0.482355 0.707720 0.317502
O O10 0.751258 0.038288 0.774695
O O11 0.435389 0.714562 0.684873
O O12 0.157658 0.748332 0.465921
O O13 0.492147 0.092028 0.465652
O O14 0.427437 0.053845 0.938371
O O15 0.000000 0.500000 0.500000
O O16 0.781898 0.385192 0.612566
O O17 0.000000 0.500000 0.000000
#
# Coordination Sequence:
#
# PCOD8012854 Si02
#       8
#     2   2   2   2   2   2   2   2
#     4  10  21  40  64  84 130 164 222 266 333 379
#     4  11  24  39  61  88 127 167 220 270 335 385
#     4  11  23  40  66  93 125 170 218 276 316 386
#     4  10  24  39  59  91 123 173 212 274 330 399
#     4  10  22  42  63  92 126 171 214 270 327 380
#     4  11  25  45  70 105 134 177 230 270 323 398
#     4  12  27  47  73 106 142 178 215 268 329 397
#     4  11  24  44  72 101 137 179 220 273 328 392
#
# _framework density 23.662572999999998
#
# number of rings (size 3 to 8) (size 9 to 14) (size 15 to 20)
#    0.000    1.250    2.500    2.250    3.500    5.500 
#    0.000    2.500    0.000    0.000    0.000    0.000 
#    0.000    0.000    0.000    0.000    0.000    0.000 
#
# Total GULP energy -198219.541942 kJ/mol
# GULP energy per Si atom -12388.721371 kJ/mol
# Density = 2.360872 g / cm^3
# Si number density = 23.662573 Si / 1000 Ang^3
#
#
#
# Elastic Constant Matrix: (Units=GPa)
#
#
# Indices 1 2 3 4 5 6 
#
# 1 97.8458 33.0291 38.6749 -10.7852 20.4347 -28.6153
# 2 33.0291 91.1671 18.5459 7.3952 7.4806 -8.9760
# 3 38.6749 18.5459 80.3318 1.5928 14.7922 -11.2036
# 4 -10.7852 7.3952 1.5928 28.8821 -5.3257 -1.2195
# 5 20.4347 7.4806 14.7922 -5.3257 34.2827 2.9692
# 6 -28.6153 -8.9760 -11.2036 -1.2195 2.9692 39.3388
#
#
#
# Elastic Compliance Matrix: (Units=1/GPa)
#
#
# Indices 1 2 3 4 5 6 
#
# 1 0.020715 -0.005031 -0.005518 0.008278 -0.008731 0.013264
# 2 -0.005031 0.013288 -0.000597 -0.005361 -0.000395 -0.000934
# 3 -0.005518 -0.000597 0.016172 -0.003540 -0.004166 0.000661
# 4 0.008278 -0.005361 -0.003540 0.040145 0.003587 0.004764
# 5 -0.008731 -0.000395 -0.004166 0.003587 0.037712 -0.010363
# 6 0.013264 -0.000934 0.000661 0.004764 -0.010363 0.035974
#
#
# Mechanical properties :
#
#
# Convention : Reuss Voigt Hill
#
# Bulk Modulus (GPa) = 35.86385 49.98273 42.92329
# Shear Modulus (GPa) = 25.56345 32.44037 29.00191
#
# Velocity S-wave (km/s) = 3.29041 3.70666 3.50472
# Velocity P-wave (km/s) = 5.44288 6.28395 5.87848
#
# Compressibility (1/GPa) = 0.02788323
#
# Stress axis : x y z
#
# Youngs Moduli (GPa) = 48.27504 75.25373 61.83530
#
# Poissons Ratio (x) = 0.37863 0.34119
# Poissons Ratio (y) = 0.24289 0.03690
# Poissons Ratio (z) = 0.26637 0.04491
#
# Static dielectric constant tensor:
#      x y z
#    x 4.364830 -0.064260 0.258740 
#    y -0.064260 4.584480 -0.175730 
#    z 0.258740 -0.175730 4.135720 
# 
# 
# High freq. dielectric constant tensor:
#      x y z
#    x 1.934570 -0.008810 0.007440 
#    y -0.008810 1.945120 -0.003480 
#    z 0.007440 -0.003480 1.933840 
# 
# From -- ./inp_files/120628.got.cif
#   From: 2010.06.25/outbox.cif.g09.slc.cpg/sg2_61_cif.got.tgz:120628.got - 2010.06.27 13:26:56.
