data_PCOD8012138
_publ_section_title
;
Structure prediction by ZEFSAII (Michael W. Deem and Ramdas Pophale) SiO2 
 PCOD8012138
Probable space group: P -1
;
_chemical_formula_sum "Si O2"
_cell_formula_units_Z 8
_cell_length_a 5.126865
_cell_length_b 7.227487
_cell_length_c 8.143836
_cell_angle_alpha 100.192024
_cell_angle_beta 91.866691
_cell_angle_gamma 111.101709
_cell_volume 275.559184
_symmetry_space_group_name_H-M "P -1"
_symmetry_group_IT_number 2
_symmetry_cell_setting 'triclinic'
loop_
_space_group_symop_operation_xyz
x,y,z
-x,-y,-z
loop_
_atom_site_type_symbol
_atom_site_label
_atom_site_fract_x
_atom_site_fract_y
_atom_site_fract_z
Si Si1 0.445853 0.191737 0.101128
Si Si2 0.712490 0.916833 0.572376
Si Si3 0.188544 0.430463 0.615806
Si Si4 0.032714 0.724927 0.082895
O O1 0.266938 0.040136 0.222406
O O2 0.617288 0.390801 0.238350
O O3 0.235886 0.231856 0.977377
O O4 0.681081 0.131724 0.992300
O O5 0.622423 0.673504 0.496394
O O6 0.500000 0.000000 0.500000
O O7 0.000000 0.000000 0.500000
O O8 0.000000 0.500000 0.500000
O O9 0.967593 0.266125 0.714548
O O10 0.000000 0.500000 0.000000
#
# Coordination Sequence:
#
# PCOD8012138 Si02
#       4
#     2   2   2   2
#     4  11  23  43  67  95 128 169 216 269 321 383
#     4  12  26  43  63  96 136 173 213 267 325 384
#     4  11  23  43  72 100 126 172 224 268 318 387
#     4  10  21  39  66  99 127 160 215 276 320 372
#
# _framework density 29.031877999999999
#
# number of rings (size 3 to 8) (size 9 to 14) (size 15 to 20)
#    0.000    1.000    0.000    9.750    0.000    8.000 
#    0.000    7.500    0.000    0.000    0.000    0.000 
#    0.000    0.000    0.000    0.000    0.000    0.000 
#
# Total GULP energy -99254.281812 kJ/mol
# GULP energy per Si atom -12406.785227 kJ/mol
# Density = 2.896580 g / cm^3
# Si number density = 29.031878 Si / 1000 Ang^3
#
#
#
# Elastic Constant Matrix: (Units=GPa)
#
#
# Indices 1 2 3 4 5 6 
#
# 1 237.1562 88.6961 125.1318 -11.4127 1.7269 -46.3651
# 2 88.6961 149.6825 107.1901 -15.2000 -9.8196 -20.9556
# 3 125.1318 107.1901 291.3143 -6.0596 -27.7920 -32.9956
# 4 -11.4127 -15.2000 -6.0596 72.1225 -17.6699 -5.5624
# 5 1.7269 -9.8196 -27.7920 -17.6699 68.1046 -8.8719
# 6 -46.3651 -20.9556 -32.9956 -5.5624 -8.8719 84.2759
#
#
#
# Elastic Compliance Matrix: (Units=1/GPa)
#
#
# Indices 1 2 3 4 5 6 
#
# 1 0.006452 -0.002271 -0.001753 0.000367 -0.000820 0.002236
# 2 -0.002271 0.010206 -0.002586 0.001864 0.001023 0.000507
# 3 -0.001753 -0.002586 0.005418 0.000187 0.002027 0.000740
# 4 0.000367 0.001864 0.000187 0.015656 0.004693 0.002266
# 5 -0.000820 0.001023 0.002027 0.004693 0.017251 0.002723
# 6 0.002236 0.000507 0.000740 0.002266 0.002723 0.013948
#
#
# Mechanical properties :
#
#
# Convention : Reuss Voigt Hill
#
# Bulk Modulus (GPa) = 112.92102 146.68765 129.80434
# Shear Modulus (GPa) = 58.75208 68.70960 63.73084
#
# Velocity S-wave (km/s) = 4.50345 4.87015 4.69038
# Velocity P-wave (km/s) = 8.12535 9.06976 8.61051
#
# Compressibility (1/GPa) = 0.00885575
#
# Stress axis : x y z
#
# Youngs Moduli (GPa) = 154.99541 97.98338 184.56213
#
# Poissons Ratio (x) = 0.22255 0.32352
# Poissons Ratio (y) = 0.35204 0.47725
# Poissons Ratio (z) = 0.27169 0.25337
#
# Static dielectric constant tensor:
#      x y z
#    x 5.491520 2.841300 -0.826930 
#    y 2.841300 7.219670 -3.234700 
#    z -0.826930 -3.234700 7.311690 
# 
# 
# High freq. dielectric constant tensor:
#      x y z
#    x 2.186810 0.038050 -0.039370 
#    y 0.038050 2.278150 0.033450 
#    z -0.039370 0.033450 2.243060 
# 
# From -- ./inp_files/129004.got.cif
#   From: 2010.06.25/outbox.cif.g09.slc.cpg/sg2_65_cif.got.tgz:129004.got - 2010.06.27 13:26:56.
