data_PCOD8012623
_publ_section_title
;
Structure prediction by ZEFSAII (Michael W. Deem and Ramdas Pophale) SiO2 
 PCOD8012623
Probable space group: P -1
;
_chemical_formula_sum "Si O2"
_cell_formula_units_Z 14
_cell_length_a 9.064688
_cell_length_b 7.995367
_cell_length_c 19.792314
_cell_angle_alpha 133.589285
_cell_angle_beta 42.455106
_cell_angle_gamma 129.454589
_cell_volume 677.341671
_symmetry_space_group_name_H-M "P -1"
_symmetry_group_IT_number 2
_symmetry_cell_setting 'triclinic'
loop_
_space_group_symop_operation_xyz
x,y,z
-x,-y,-z
loop_
_atom_site_type_symbol
_atom_site_label
_atom_site_fract_x
_atom_site_fract_y
_atom_site_fract_z
Si Si1 0.756696 0.600692 0.421292
Si Si2 0.218767 0.134474 0.166935
Si Si3 0.782850 0.129710 0.246591
Si Si4 0.570444 0.002051 0.554103
Si Si5 0.751563 0.831096 0.052345
Si Si6 0.090470 0.534607 0.403802
Si Si7 0.602058 0.289954 0.980177
O O1 0.500000 0.500000 0.500000
O O2 0.819563 0.412295 0.294307
O O3 0.764598 0.855745 0.455347
O O4 0.917842 0.624879 0.438839
O O5 0.142885 0.290542 0.293892
O O6 0.028988 0.081254 0.157750
O O7 0.227428 0.878762 0.122381
O O8 0.461104 0.275116 0.093276
O O9 0.651847 0.099141 0.353815
O O10 0.653710 0.953763 0.182705
O O11 0.500000 0.000000 0.500000
O O12 0.673227 0.267391 0.620059
O O13 0.575524 0.816207 0.048016
O O14 0.754816 0.559303 0.992994
O O15 0.000000 0.000000 0.000000
O O16 0.000000 0.500000 0.500000
#
# Coordination Sequence:
#
# PCOD8012623 Si02
#       7
#     2   2   2   2   2   2   2
#     4   9  20  38  60  86 121 159 204 254 311 371
#     4  10  21  42  60  93 122 165 205 261 317 369
#     4  10  21  40  62  87 125 159 204 259 311 376
#     4  11  22  39  59  92 124 166 211 254 314 377
#     4  11  22  42  61  92 120 165 210 256 315 373
#     4  11  22  39  62  89 128 162 207 263 312 381
#     4  10  23  41  65  88 128 161 213 259 311 380
#
# _framework density 20.669038
#
# number of rings (size 3 to 8) (size 9 to 14) (size 15 to 20)
#    0.000    1.714    1.429    3.857    0.000    4.000 
#    7.714    0.000    0.000    0.000    0.000    0.000 
#    0.000    0.000    0.000    0.000    0.000    0.000 
#
# Total GULP energy -173532.856619 kJ/mol
# GULP energy per Si atom -12395.204044 kJ/mol
# Density = 2.062199 g / cm^3
# Si number density = 20.669038 Si / 1000 Ang^3
#
#
#
# Elastic Constant Matrix: (Units=GPa)
#
#
# Indices 1 2 3 4 5 6 
#
# 1 101.6845 36.5263 60.8935 21.8532 -0.9540 -4.5494
# 2 36.5263 103.9009 40.8917 17.2045 -5.4527 3.2085
# 3 60.8935 40.8917 119.8054 19.7840 2.0384 -11.5336
# 4 21.8532 17.2045 19.7840 33.6461 -1.3018 -1.6482
# 5 -0.9540 -5.4527 2.0384 -1.3018 42.7680 6.0851
# 6 -4.5494 3.2085 -11.5336 -1.6482 6.0851 36.8034
#
#
#
# Elastic Compliance Matrix: (Units=1/GPa)
#
#
# Indices 1 2 3 4 5 6 
#
# 1 0.015490 -0.002067 -0.006314 -0.005290 0.000245 -0.000161
# 2 -0.002067 0.012205 -0.002866 -0.003270 0.001929 -0.002683
# 3 -0.006314 -0.002866 0.013283 -0.002124 -0.001748 0.003826
# 4 -0.005290 -0.003270 -0.002124 0.036125 0.000597 0.000484
# 5 0.000245 0.001929 -0.001748 0.000597 0.024403 -0.004694
# 6 -0.000161 -0.002683 0.003826 0.000484 -0.004694 0.029382
#
#
# Mechanical properties :
#
#
# Convention : Reuss Voigt Hill
#
# Bulk Modulus (GPa) = 54.10130 66.89042 60.49586
# Shear Modulus (GPa) = 31.33973 35.11544 33.22759
#
# Velocity S-wave (km/s) = 3.89815 4.12629 4.01384
# Velocity P-wave (km/s) = 6.81855 7.42527 7.12837
#
# Compressibility (1/GPa) = 0.01848384
#
# Stress axis : x y z
#
# Youngs Moduli (GPa) = 64.55970 81.93536 75.28359
#
# Poissons Ratio (x) = 0.16935 0.47531
# Poissons Ratio (y) = 0.13343 0.21579
# Poissons Ratio (z) = 0.40760 0.23486
#
# Static dielectric constant tensor:
#      x y z
#    x 3.828220 -0.059450 -0.155920 
#    y -0.059450 4.063070 0.451480 
#    z -0.155920 0.451480 4.001940 
# 
# 
# High freq. dielectric constant tensor:
#      x y z
#    x 1.809400 0.004580 -0.000510 
#    y 0.004580 1.810500 0.015420 
#    z -0.000510 0.015420 1.811500 
# 
# From -- ./inp_files/203982.got.cif
#   From: 2010.06.25/outbox.cif.g09.slc.cpg/sg2_102_cif.got.tgz:203982.got - 2010.06.27 13:26:56.
