data_PCOD8012555
_publ_section_title
;
Structure prediction by ZEFSAII (Michael W. Deem and Ramdas Pophale) SiO2 
 PCOD8012555
Probable space group: P -1
;
_chemical_formula_sum "Si O2"
_cell_formula_units_Z 16
_cell_length_a 11.218696
_cell_length_b 11.491311
_cell_length_c 15.839096
_cell_angle_alpha 45.921801
_cell_angle_beta 126.815605
_cell_angle_gamma 148.701584
_cell_volume 761.988763
_symmetry_space_group_name_H-M "P -1"
_symmetry_group_IT_number 2
_symmetry_cell_setting 'triclinic'
loop_
_space_group_symop_operation_xyz
x,y,z
-x,-y,-z
loop_
_atom_site_type_symbol
_atom_site_label
_atom_site_fract_x
_atom_site_fract_y
_atom_site_fract_z
Si Si1 0.548160 0.348771 0.982028
Si Si2 0.153065 0.517831 0.814052
Si Si3 0.328221 0.838923 0.150838
Si Si4 0.907071 0.851274 0.787769
Si Si5 0.410997 0.046000 0.645822
Si Si6 0.637898 0.815513 0.283369
Si Si7 0.514742 0.642938 0.617903
Si Si8 0.818960 0.708176 0.199336
O O1 0.339425 0.302651 0.917322
O O2 0.747695 0.572110 0.891042
O O3 0.643278 0.404026 0.088931
O O4 0.452437 0.098638 0.033101
O O5 0.226454 0.754922 0.691135
O O6 0.078869 0.344193 0.792021
O O7 0.945429 0.371687 0.866508
O O8 0.436391 0.769456 0.186550
O O9 0.378318 0.864919 0.260339
O O10 0.771243 0.839789 0.664570
O O11 0.140252 0.972417 0.787489
O O12 0.966797 0.018477 0.807338
O O13 0.299519 0.087843 0.641634
O O14 0.497695 0.202547 0.518632
O O15 0.547142 0.557913 0.368207
O O16 0.330663 0.502447 0.685521
#
# Coordination Sequence:
#
# PCOD8012555 Si02
#       8
#     2   2   2   2   2   2   2   2
#     4  10  21  40  61  89 113 153 198 242 293 343
#     4  11  22  40  62  85 119 156 194 239 296 346
#     4   9  22  37  57  90 119 150 191 240 289 340
#     4  10  22  38  61  87 116 159 194 236 295 342
#     4   9  22  39  60  91 117 152 196 241 290 343
#     4   9  21  39  60  90 119 149 195 245 286 346
#     4  10  21  40  63  87 118 154 196 240 291 344
#     4  10  23  40  59  89 118 151 198 244 286 346
#
# _framework density 20.997684
#
# number of rings (size 3 to 8) (size 9 to 14) (size 15 to 20)
#    0.750    1.500    0.000    1.500    1.750    9.500 
#    0.000    7.500    0.000    0.000    0.000    0.000 
#    0.000    0.000    0.000    0.000    0.000    0.000 
#
# Total GULP energy -198335.388539 kJ/mol
# GULP energy per Si atom -12395.961784 kJ/mol
# Density = 2.094989 g / cm^3
# Si number density = 20.997684 Si / 1000 Ang^3
#
#
#
# Elastic Constant Matrix: (Units=GPa)
#
#
# Indices 1 2 3 4 5 6 
#
# 1 44.5116 10.1915 14.2160 -0.2498 4.6505 5.6740
# 2 10.1915 80.2610 43.7618 -11.2838 7.1470 8.1946
# 3 14.2160 43.7618 115.5290 -15.6339 1.1485 -2.0887
# 4 -0.2498 -11.2838 -15.6339 28.0138 -1.8415 -2.6392
# 5 4.6505 7.1470 1.1485 -1.8415 15.7363 3.0212
# 6 5.6740 8.1946 -2.0887 -2.6392 3.0212 22.0690
#
#
#
# Elastic Compliance Matrix: (Units=1/GPa)
#
#
# Indices 1 2 3 4 5 6 
#
# 1 0.025040 -0.000641 -0.003269 -0.002824 -0.006045 -0.006019
# 2 -0.000641 0.017401 -0.006205 0.002612 -0.005847 -0.005771
# 3 -0.003269 -0.006205 0.012118 0.004830 0.002599 0.004513
# 4 -0.002824 0.002612 0.004830 0.040055 0.003104 0.004578
# 5 -0.006045 -0.005847 0.002599 0.003104 0.069147 -0.005124
# 6 -0.006019 -0.005771 0.004513 0.004578 -0.005124 0.050679
#
#
# Mechanical properties :
#
#
# Convention : Reuss Voigt Hill
#
# Bulk Modulus (GPa) = 29.13078 41.84890 35.48984
# Shear Modulus (GPa) = 20.31577 24.63929 22.47753
#
# Velocity S-wave (km/s) = 3.11388 3.42925 3.27536
# Velocity P-wave (km/s) = 5.17994 5.97103 5.58950
#
# Compressibility (1/GPa) = 0.03432795
#
# Stress axis : x y z
#
# Youngs Moduli (GPa) = 39.93607 57.46677 82.52127
#
# Poissons Ratio (x) = 0.03685 0.26978
# Poissons Ratio (y) = 0.02561 0.51207
# Poissons Ratio (z) = 0.13056 0.35660
#
# Static dielectric constant tensor:
#      x y z
#    x 3.431140 -0.047700 0.063110 
#    y -0.047700 3.840710 -0.015130 
#    z 0.063110 -0.015130 3.628720 
# 
# 
# High freq. dielectric constant tensor:
#      x y z
#    x 1.802070 -0.001770 0.001610 
#    y -0.001770 1.824520 -0.008780 
#    z 0.001610 -0.008780 1.816840 
# 
# From -- ./inp_files/429251.got.cif
#   From: 2010.06.25/outbox.cif.g09.slc.cpg/sg2_215_cif.got.tgz:429251.got - 2010.06.27 13:26:56.
