data_PCOD8012974
_publ_section_title
;
Structure prediction by ZEFSAII (Michael W. Deem and Ramdas Pophale) SiO2 
 PCOD8012974
Probable space group: P -1
;
_chemical_formula_sum "Si O2"
_cell_formula_units_Z 16
_cell_length_a 12.834762
_cell_length_b 9.143228
_cell_length_c 11.910456
_cell_angle_alpha 62.855180
_cell_angle_beta 66.786031
_cell_angle_gamma 111.914336
_cell_volume 842.050466
_symmetry_space_group_name_H-M "P -1"
_symmetry_group_IT_number 2
_symmetry_cell_setting 'triclinic'
loop_
_space_group_symop_operation_xyz
x,y,z
-x,-y,-z
loop_
_atom_site_type_symbol
_atom_site_label
_atom_site_fract_x
_atom_site_fract_y
_atom_site_fract_z
Si Si1 0.441129 0.790127 0.407458
Si Si2 0.171471 0.656578 0.106880
Si Si3 0.277286 0.739169 0.787182
Si Si4 0.372839 0.234410 0.279159
Si Si5 0.174412 0.751525 0.591789
Si Si6 0.605593 0.473167 0.282645
Si Si7 0.581536 0.367219 0.946711
Si Si8 0.628670 0.857352 0.097564
O O1 0.275987 0.715975 0.495325
O O2 0.425299 0.605013 0.547931
O O3 0.501782 0.808281 0.252610
O O4 0.552032 0.022750 0.347139
O O5 0.288766 0.642321 0.116880
O O6 0.001889 0.451143 0.294412
O O7 0.172987 0.654505 0.971567
O O8 0.218511 0.881995 0.054021
O O9 0.199804 0.765816 0.710088
O O10 0.286096 0.556692 0.811714
O O11 0.442058 0.328078 0.340542
O O12 0.335158 0.373725 0.190568
O O13 0.219140 0.975872 0.447499
O O14 0.502077 0.269296 0.136292
O O15 0.684510 0.729810 0.153751
O O16 0.445679 0.212008 0.969068
#
# Coordination Sequence:
#
# PCOD8012974 Si02
#       8
#     2   2   2   2   2   2   2   2
#     4  10  18  34  58  85 109 139 184 226 272 322
#     4  11  22  36  53  82 117 147 177 220 280 326
#     4  10  18  35  60  83 108 141 187 225 271 322
#     4  10  18  35  61  85 100 141 189 236 261 311
#     4  11  20  34  58  84 113 139 182 228 279 318
#     4  10  16  33  61  84 103 135 190 232 265 308
#     4  10  21  37  58  78 110 144 193 220 262 322
#     4  10  22  35  56  78 112 148 184 217 268 329
#
# _framework density 19.001237
#
# number of rings (size 3 to 8) (size 9 to 14) (size 15 to 20)
#    0.000    1.750    3.750    2.625    0.000    0.500 
#    0.000    5.000    5.500    0.000    0.000    0.000 
#    0.000    0.000    0.000    0.000    0.000    0.000 
#
# Total GULP energy -198425.900147 kJ/mol
# GULP energy per Si atom -12401.618759 kJ/mol
# Density = 1.895799 g / cm^3
# Si number density = 19.001237 Si / 1000 Ang^3
#
#
#
# Elastic Constant Matrix: (Units=GPa)
#
#
# Indices 1 2 3 4 5 6 
#
# 1 55.6473 28.5320 37.7581 -25.3561 3.0717 -8.8976
# 2 28.5320 83.7330 41.7819 -24.4479 -0.4613 -14.0455
# 3 37.7581 41.7819 100.9503 -35.7113 0.7315 -1.9465
# 4 -25.3561 -24.4479 -35.7113 36.3034 1.9096 8.0102
# 5 3.0717 -0.4613 0.7315 1.9096 27.7415 -1.9673
# 6 -8.8976 -14.0455 -1.9465 8.0102 -1.9673 23.0292
#
#
#
# Elastic Compliance Matrix: (Units=1/GPa)
#
#
# Indices 1 2 3 4 5 6 
#
# 1 0.029887 -0.003096 -0.005233 0.012867 -0.003795 0.004417
# 2 -0.003096 0.017751 -0.004969 0.003021 0.001147 0.008257
# 3 -0.005233 -0.004969 0.018339 0.012906 -0.001451 -0.008115
# 4 0.012867 0.003021 0.012906 0.054119 -0.006252 -0.011453
# 5 -0.003795 0.001147 -0.001451 -0.006252 0.037272 0.004469
# 6 0.004417 0.008257 -0.008115 -0.011453 0.004469 0.053845
#
#
# Mechanical properties :
#
#
# Convention : Reuss Voigt Hill
#
# Bulk Modulus (GPa) = 25.39272 50.71942 38.05607
# Shear Modulus (GPa) = 19.92543 26.23204 23.07873
#
# Velocity S-wave (km/s) = 3.24178 3.71960 3.48888
# Velocity P-wave (km/s) = 5.23497 6.72293 6.02506
#
# Compressibility (1/GPa) = 0.03938136
#
# Stress axis : x y z
#
# Youngs Moduli (GPa) = 33.45926 56.33578 54.52818
#
# Poissons Ratio (x) = 0.17442 0.28533
# Poissons Ratio (y) = 0.10359 0.27096
# Poissons Ratio (z) = 0.17508 0.27994
#
# Static dielectric constant tensor:
#      x y z
#    x 3.262110 -0.144850 0.299410 
#    y -0.144850 3.504230 -0.067800 
#    z 0.299410 -0.067800 3.480700 
# 
# 
# High freq. dielectric constant tensor:
#      x y z
#    x 1.721370 -0.010980 0.029020 
#    y -0.010980 1.733300 0.000130 
#    z 0.029020 0.000130 1.733950 
# 
# From -- ./inp_files/177777.got.cif
#   From: 2010.06.25/outbox.cif.g09.slc.cpg/sg2_89_cif.got.tgz:177777.got - 2010.06.27 13:26:56.
