data_PCOD8012562
_publ_section_title
;
Structure prediction by ZEFSAII (Michael W. Deem and Ramdas Pophale) SiO2 
 PCOD8012562
Probable space group: P -1
;
_chemical_formula_sum "Si O2"
_cell_formula_units_Z 16
_cell_length_a 9.317911
_cell_length_b 8.490018
_cell_length_c 17.510027
_cell_angle_alpha 41.373153
_cell_angle_beta 113.531705
_cell_angle_gamma 103.916467
_cell_volume 835.424327
_symmetry_space_group_name_H-M "P -1"
_symmetry_group_IT_number 2
_symmetry_cell_setting 'triclinic'
loop_
_space_group_symop_operation_xyz
x,y,z
-x,-y,-z
loop_
_atom_site_type_symbol
_atom_site_label
_atom_site_fract_x
_atom_site_fract_y
_atom_site_fract_z
Si Si1 0.788484 0.556545 0.780118
Si Si2 0.920036 0.695191 0.130073
Si Si3 0.107856 0.989535 0.290091
Si Si4 0.963359 0.169758 0.043622
Si Si5 0.922673 0.801889 0.451968
Si Si6 0.542728 0.265406 0.396990
Si Si7 0.664941 0.438079 0.515402
Si Si8 0.182270 0.716746 0.659993
O O1 0.814111 0.833390 0.700275
O O2 0.610967 0.551077 0.716962
O O3 0.904461 0.452103 0.774406
O O4 0.823512 0.385944 0.924543
O O5 0.796202 0.515394 0.195806
O O6 0.900287 0.917366 0.102158
O O7 0.896127 0.783599 0.004279
O O8 0.018172 0.161035 0.145526
O O9 0.239343 0.805904 0.343053
O O10 0.992979 0.832404 0.370826
O O11 0.771131 0.656127 0.467008
O O12 0.055876 0.673903 0.582390
O O13 0.869576 0.060680 0.379168
O O14 0.636661 0.381122 0.441892
O O15 0.648428 0.249661 0.349993
O O16 0.500000 0.000000 0.500000
O O17 0.500000 0.500000 0.500000
#
# Coordination Sequence:
#
# PCOD8012562 Si02
#       8
#     2   2   2   2   2   2   2   2
#     4  10  21  40  61  90 117 161 208 245 307 361
#     4   9  20  39  62  92 110 164 208 249 299 350
#     4  12  21  40  65  91 123 160 209 255 300 370
#     4   9  21  37  68  88 118 157 216 257 291 360
#     4  11  23  39  60  94 122 162 206 250 312 360
#     4  12  24  41  60  91 129 164 199 247 324 370
#     4  12  27  37  59  94 130 160 198 261 314 368
#     4  11  22  39  65  87 128 163 200 259 300 378
#
# _framework density 19.151944
#
# number of rings (size 3 to 8) (size 9 to 14) (size 15 to 20)
#    0.750    0.500    3.750    2.250    7.000    0.000 
#    0.000    0.625    2.750    1.500    0.000    0.000 
#    0.000    0.000    0.000    0.000    0.000    0.000 
#
# Total GULP energy -198325.591503 kJ/mol
# GULP energy per Si atom -12395.349469 kJ/mol
# Density = 1.910835 g / cm^3
# Si number density = 19.151944 Si / 1000 Ang^3
#
#
#
# Elastic Constant Matrix: (Units=GPa)
#
#
# Indices 1 2 3 4 5 6 
#
# 1 104.4105 23.6302 38.2179 -10.8950 -4.8140 2.7040
# 2 23.6302 74.4200 24.2165 -8.6698 -6.1140 12.1605
# 3 38.2179 24.2165 96.1121 -6.7904 -6.8825 10.2367
# 4 -10.8950 -8.6698 -6.7904 34.5628 0.6963 -0.2622
# 5 -4.8140 -6.1140 -6.8825 0.6963 30.1219 -3.2772
# 6 2.7040 12.1605 10.2367 -0.2622 -3.2772 32.1463
#
#
#
# Elastic Compliance Matrix: (Units=1/GPa)
#
#
# Indices 1 2 3 4 5 6 
#
# 1 0.011822 -0.002322 -0.004042 0.002348 0.000576 0.001249
# 2 -0.002322 0.016215 -0.002303 0.002809 0.001785 -0.005000
# 3 -0.004042 -0.002303 0.013046 0.000659 0.001550 -0.002780
# 4 0.002348 0.002809 0.000659 0.030493 0.000261 -0.001195
# 5 0.000576 0.001785 0.001550 0.000261 0.034249 0.002276
# 6 0.001249 -0.005000 -0.002780 -0.001195 0.002276 0.034002
#
#
# Mechanical properties :
#
#
# Convention : Reuss Voigt Hill
#
# Bulk Modulus (GPa) = 42.10789 49.67463 45.89126
# Shear Modulus (GPa) = 30.28929 31.95808 31.12368
#
# Velocity S-wave (km/s) = 3.98115 4.08935 4.03562
# Velocity P-wave (km/s) = 6.57014 6.94914 6.76229
#
# Compressibility (1/GPa) = 0.02374852
#
# Stress axis : x y z
#
# Youngs Moduli (GPa) = 84.59077 61.67149 76.65436
#
# Poissons Ratio (x) = 0.14318 0.30981
# Poissons Ratio (y) = 0.19639 0.17657
# Poissons Ratio (z) = 0.34188 0.14206
#
# Static dielectric constant tensor:
#      x y z
#    x 3.418460 -0.097780 0.013610 
#    y -0.097780 3.462880 -0.089630 
#    z 0.013610 -0.089630 3.562970 
# 
# 
# High freq. dielectric constant tensor:
#      x y z
#    x 1.725480 -0.009260 -0.007490 
#    y -0.009260 1.749980 -0.015720 
#    z -0.007490 -0.015720 1.742420 
# 
# From -- ./inp_files/292792.got.cif
#   From: 2010.06.25/outbox.cif.g09.slc.cpg/sg2_147_cif.got.tgz:292792.got - 2010.06.27 13:26:56.
