data_PCOD8012808
_publ_section_title
;
Structure prediction by ZEFSAII (Michael W. Deem and Ramdas Pophale) SiO2 
 PCOD8012808
Probable space group: P -1
;
_chemical_formula_sum "Si O2"
_cell_formula_units_Z 16
_cell_length_a 16.383585
_cell_length_b 12.517134
_cell_length_c 9.949703
_cell_angle_alpha 69.048739
_cell_angle_beta 106.777385
_cell_angle_gamma 154.893721
_cell_volume 805.331649
_symmetry_space_group_name_H-M "P -1"
_symmetry_group_IT_number 2
_symmetry_cell_setting 'triclinic'
loop_
_space_group_symop_operation_xyz
x,y,z
-x,-y,-z
loop_
_atom_site_type_symbol
_atom_site_label
_atom_site_fract_x
_atom_site_fract_y
_atom_site_fract_z
Si Si1 0.816257 0.502797 0.130555
Si Si2 0.690224 0.664783 0.358359
Si Si3 0.726871 0.744049 0.650777
Si Si4 0.147054 0.704343 0.860938
Si Si5 0.155106 0.519747 0.297771
Si Si6 0.428747 0.012139 0.057910
Si Si7 0.929975 0.768717 0.817759
Si Si8 0.882856 0.664805 0.384492
O O1 0.812652 0.361816 0.174930
O O2 0.883328 0.612544 0.261134
O O3 0.598215 0.283875 0.092609
O O4 0.954649 0.737190 0.987970
O O5 0.700553 0.666089 0.522892
O O6 0.476368 0.448014 0.306964
O O7 0.738960 0.599631 0.348920
O O8 0.853209 0.948856 0.258054
O O9 0.801965 0.730019 0.785723
O O10 0.896933 0.042769 0.600322
O O11 0.067490 0.704807 0.721986
O O12 0.324530 0.968111 0.916754
O O13 0.000000 0.500000 0.000000
O O14 0.292284 0.792351 0.206858
O O15 0.186947 0.454980 0.237480
O O16 0.195519 0.525811 0.464633
O O17 0.500000 0.000000 0.000000
#
# Coordination Sequence:
#
# PCOD8012808 Si02
#       8
#     2   2   2   2   2   2   2   2
#     4  11  23  39  58  92 126 163 190 257 303 348
#     4  10  21  40  63  94 116 154 208 252 294 374
#     4  10  21  40  63  94 115 154 210 250 292 382
#     4   9  18  36  59  85 118 152 212 241 275 357
#     4  11  19  37  63  87 118 166 193 251 298 346
#     4   9  18  36  57  86 119 149 213 241 275 359
#     4  11  19  38  65  88 116 162 202 246 305 349
#     4  11  23  42  60  90 134 153 194 254 317 348
#
# _framework density 19.867591000000001
#
# number of rings (size 3 to 8) (size 9 to 14) (size 15 to 20)
#    0.000    1.750    6.250    0.750    0.000    4.000 
#    9.000    1.250    0.000    0.000    0.000    0.000 
#    0.000    0.000    0.000    0.000    0.000    0.000 
#
# Total GULP energy -198255.359128 kJ/mol
# GULP energy per Si atom -12390.959945 kJ/mol
# Density = 1.982237 g / cm^3
# Si number density = 19.867591 Si / 1000 Ang^3
#
#
#
# Elastic Constant Matrix: (Units=GPa)
#
#
# Indices 1 2 3 4 5 6 
#
# 1 73.3151 29.7083 24.2661 5.8972 2.9378 12.6771
# 2 29.7083 65.9531 6.9840 -1.2227 -5.6614 17.5678
# 3 24.2661 6.9840 103.8884 6.3015 -1.7865 -5.3876
# 4 5.8972 -1.2227 6.3015 28.7487 -5.5255 -3.3394
# 5 2.9378 -5.6614 -1.7865 -5.5255 25.6277 1.6806
# 6 12.6771 17.5678 -5.3876 -3.3394 1.6806 31.7217
#
#
#
# Elastic Compliance Matrix: (Units=1/GPa)
#
#
# Indices 1 2 3 4 5 6 
#
# 1 0.019450 -0.007658 -0.004048 -0.004902 -0.004967 -0.004472
# 2 -0.007658 0.021682 -0.000190 0.002801 0.006852 -0.009048
# 3 -0.004048 -0.000190 0.010835 -0.001015 0.000735 0.003418
# 4 -0.004902 0.002801 -0.001015 0.038325 0.009125 0.003787
# 5 -0.004967 0.006852 0.000735 0.009125 0.043320 -0.003019
# 6 -0.004472 -0.009048 0.003418 0.003787 -0.003019 0.039461
#
#
# Mechanical properties :
#
#
# Convention : Reuss Voigt Hill
#
# Bulk Modulus (GPa) = 35.49370 40.56373 38.02871
# Shear Modulus (GPa) = 24.24158 29.36619 26.80389
#
# Velocity S-wave (km/s) = 3.49686 3.84877 3.67703
# Velocity P-wave (km/s) = 5.84876 6.34130 6.10000
#
# Compressibility (1/GPa) = 0.02817402
#
# Stress axis : x y z
#
# Youngs Moduli (GPa) = 51.41520 46.12079 92.28968
#
# Poissons Ratio (x) = 0.35321 0.37360
# Poissons Ratio (y) = 0.39376 0.01754
# Poissons Ratio (z) = 0.20814 0.00876
#
# Static dielectric constant tensor:
#      x y z
#    x 3.751160 0.933750 0.115680 
#    y 0.933750 3.939450 0.375810 
#    z 0.115680 0.375810 3.389460 
# 
# 
# High freq. dielectric constant tensor:
#      x y z
#    x 1.763860 0.017630 0.012680 
#    y 0.017630 1.767940 -0.003970 
#    z 0.012680 -0.003970 1.763150 
# 
# From -- ./inp_files/307065.got.cif
#   From: 2010.06.25/outbox.cif.g09.slc.cpg/sg2_154_cif.got.tgz:307065.got - 2010.06.27 13:26:56.
