data_PCOD8012938
_publ_section_title
;
Structure prediction by ZEFSAII (Michael W. Deem and Ramdas Pophale) SiO2 
 PCOD8012938
Probable space group: P -1
;
_chemical_formula_sum "Si O2"
_cell_formula_units_Z 16
_cell_length_a 9.634830
_cell_length_b 5.154446
_cell_length_c 17.734465
_cell_angle_alpha 122.264085
_cell_angle_beta 98.774402
_cell_angle_gamma 91.016709
_cell_volume 730.827329
_symmetry_space_group_name_H-M "P -1"
_symmetry_group_IT_number 2
_symmetry_cell_setting 'triclinic'
loop_
_space_group_symop_operation_xyz
x,y,z
-x,-y,-z
loop_
_atom_site_type_symbol
_atom_site_label
_atom_site_fract_x
_atom_site_fract_y
_atom_site_fract_z
Si Si1 0.328049 0.490822 0.478529
Si Si2 0.304671 0.616888 0.183748
Si Si3 0.677553 0.405794 0.276043
Si Si4 0.688179 0.840347 0.097185
Si Si5 0.828540 0.907195 0.463764
Si Si6 0.088286 0.288103 0.019205
Si Si7 0.619610 0.675915 0.704236
Si Si8 0.452795 0.661275 0.898882
O O1 0.500000 0.500000 0.500000
O O2 0.242562 0.237142 0.487040
O O3 0.297043 0.384376 0.373835
O O4 0.259439 0.815428 0.529507
O O5 0.328910 0.551089 0.263271
O O6 0.387180 0.411948 0.100600
O O7 0.340872 0.968615 0.215886
O O8 0.147477 0.493733 0.127261
O O9 0.806503 0.641233 0.356074
O O10 0.552058 0.383112 0.325779
O O11 0.614901 0.521534 0.210511
O O12 0.724660 0.066543 0.207990
O O13 0.818045 0.858102 0.056813
O O14 0.635679 0.491324 0.061891
O O15 0.438453 0.028465 0.943579
O O16 0.000000 0.000000 0.500000
O O17 0.000000 0.500000 0.000000
O O18 0.000000 0.000000 0.000000
#
# Coordination Sequence:
#
# PCOD8012938 Si02
#       8
#     2   2   2   2   2   2   2   2
#     4  12  26  44  75 103 139 191 239 296 352 421
#     4  11  22  42  67  97 131 168 213 292 327 402
#     4   9  22  39  70  91 139 168 220 282 346 411
#     4  10  21  40  64  93 121 168 212 268 338 384
#     4  12  27  46  66 106 146 190 234 291 358 426
#     4  12  27  46  63  91 136 181 222 264 337 416
#     4  11  22  42  69 103 133 166 235 282 354 388
#     4   9  19  36  65  99 114 160 213 272 332 376
#
# _framework density 21.892997000000001
#
# number of rings (size 3 to 8) (size 9 to 14) (size 15 to 20)
#    0.750    0.500    2.500    3.000    5.250    1.000 
#    6.750    0.000    0.000    0.000    0.000    0.000 
#    0.000    0.000    0.000    0.000    0.000    0.000 
#
# Total GULP energy -198218.873651 kJ/mol
# GULP energy per Si atom -12388.679603 kJ/mol
# Density = 2.184317 g / cm^3
# Si number density = 21.892997 Si / 1000 Ang^3
#
#
#
# Elastic Constant Matrix: (Units=GPa)
#
#
# Indices 1 2 3 4 5 6 
#
# 1 105.0649 45.7396 36.3363 -2.3207 11.4378 13.0571
# 2 45.7396 140.1650 16.7550 5.2233 3.1522 17.9056
# 3 36.3363 16.7550 66.0270 10.2323 4.9179 7.1525
# 4 -2.3207 5.2233 10.2323 34.9218 8.1083 -6.4329
# 5 11.4378 3.1522 4.9179 8.1083 42.0172 -0.1331
# 6 13.0571 17.9056 7.1525 -6.4329 -0.1331 41.1401
#
#
#
# Elastic Compliance Matrix: (Units=1/GPa)
#
#
# Indices 1 2 3 4 5 6 
#
# 1 0.014231 -0.003739 -0.007169 0.004254 -0.003579 -0.000990
# 2 -0.003739 0.008765 0.000491 -0.002451 0.000766 -0.003095
# 3 -0.007169 0.000491 0.020291 -0.007185 0.000918 -0.002587
# 4 0.004254 -0.002451 -0.007185 0.034100 -0.006694 0.006276
# 5 -0.003579 0.000766 0.000918 -0.006694 0.025900 -0.000320
# 6 -0.000990 -0.003095 -0.002587 0.006276 -0.000320 0.027398
#
#
# Mechanical properties :
#
#
# Convention : Reuss Voigt Hill
#
# Bulk Modulus (GPa) = 44.53254 56.54651 50.53952
# Shear Modulus (GPa) = 31.44591 37.77756 34.61174
#
# Velocity S-wave (km/s) = 3.79403 4.15849 3.98043
# Velocity P-wave (km/s) = 6.29111 6.99586 6.65282
#
# Compressibility (1/GPa) = 0.02245549
#
# Stress axis : x y z
#
# Youngs Moduli (GPa) = 70.26746 114.08727 49.28288
#
# Poissons Ratio (x) = 0.42655 0.35329
# Poissons Ratio (y) = 0.26271 -0.02421
# Poissons Ratio (z) = 0.50372 -0.05606
#
# Static dielectric constant tensor:
#      x y z
#    x 3.942970 -0.067350 -0.063470 
#    y -0.067350 4.074980 -0.000900 
#    z -0.063470 -0.000900 4.148890 
# 
# 
# High freq. dielectric constant tensor:
#      x y z
#    x 1.839740 0.002390 -0.005120 
#    y 0.002390 1.876960 -0.004960 
#    z -0.005120 -0.004960 1.877650 
# 
# From -- ./inp_files/553959.got.cif
#   From: 2010.06.25/outbox.cif.g09.slc.cpg/sg2_277_cif.got.tgz:553959.got - 2010.06.27 13:26:56.
