data_PCOD8012574
_publ_section_title
;
Structure prediction by ZEFSAII (Michael W. Deem and Ramdas Pophale) SiO2 
 PCOD8012574
Probable space group: P -1
;
_chemical_formula_sum "Si O2"
_cell_formula_units_Z 16
_cell_length_a 8.718721
_cell_length_b 15.148007
_cell_length_c 15.147853
_cell_angle_alpha 30.179926
_cell_angle_beta 53.928899
_cell_angle_gamma 53.930450
_cell_volume 797.095825
_symmetry_space_group_name_H-M "P -1"
_symmetry_group_IT_number 2
_symmetry_cell_setting 'triclinic'
loop_
_space_group_symop_operation_xyz
x,y,z
-x,-y,-z
loop_
_atom_site_type_symbol
_atom_site_label
_atom_site_fract_x
_atom_site_fract_y
_atom_site_fract_z
Si Si1 0.169289 0.528127 0.151443
Si Si2 0.830775 0.848568 0.471825
Si Si3 0.411010 0.690214 0.066259
Si Si4 0.412103 0.443287 0.443304
Si Si5 0.203217 0.926024 0.539655
Si Si6 0.589003 0.933770 0.309759
Si Si7 0.194947 0.577158 0.577195
Si Si8 0.796774 0.460346 0.073996
O O1 0.265863 0.319589 0.319635
O O2 0.263716 0.656840 0.069391
O O3 0.937857 0.558142 0.223282
O O4 0.207100 0.574198 0.998712
O O5 0.736415 0.930579 0.343104
O O6 0.062207 0.776697 0.441857
O O7 0.792981 0.001314 0.425725
O O8 0.363035 0.593490 0.254925
O O9 0.630074 0.623859 0.017228
O O10 0.381559 0.904897 0.904930
O O11 0.363129 0.254859 0.593539
O O12 0.274209 0.511790 0.511831
O O13 0.636354 0.416298 0.416190
O O14 0.369975 0.982835 0.376126
O O15 0.243658 0.712105 0.712080
O O16 0.000000 0.000000 0.500000
O O17 0.000000 0.500000 0.000000
#
# Coordination Sequence:
#
# PCOD8012574 Si02
#       8
#     2   2   2   2   2   2   2   2
#     4  10  21  40  61  91 127 168 211 258 327 376
#     4  10  21  40  61  91 127 168 211 258 327 376
#     4  12  24  40  65  95 130 171 213 266 322 387
#     4  11  21  47  67  97 125 169 226 263 330 375
#     4  12  23  38  60  95 134 170 214 264 319 390
#     4  12  24  40  65  95 130 171 213 266 322 387
#     4   9  23  41  73  87 131 175 208 281 320 381
#     4  12  23  38  60  95 134 170 214 264 319 390
#
# _framework density 20.072869000000001
#
# number of rings (size 3 to 8) (size 9 to 14) (size 15 to 20)
#    0.750    0.250    2.500    5.250    0.000    2.000 
#    0.000    7.500    0.000    0.000    0.000    0.000 
#    0.000    0.000    0.000    0.000    0.000    0.000 
#
# Total GULP energy -198420.522091 kJ/mol
# GULP energy per Si atom -12401.282631 kJ/mol
# Density = 2.002718 g / cm^3
# Si number density = 20.072869 Si / 1000 Ang^3
#
#
#
# Elastic Constant Matrix: (Units=GPa)
#
#
# Indices 1 2 3 4 5 6 
#
# 1 53.4626 -2.3918 18.5080 -7.3097 5.0393 16.0267
# 2 -2.3918 57.1566 26.2959 -1.9915 -0.7991 15.9955
# 3 18.5080 26.2959 128.2805 -22.7693 9.7295 12.4389
# 4 -7.3097 -1.9915 -22.7693 25.4655 7.6543 -2.3058
# 5 5.0393 -0.7991 9.7295 7.6543 28.2205 2.6210
# 6 16.0267 15.9955 12.4389 -2.3058 2.6210 35.7801
#
#
#
# Elastic Compliance Matrix: (Units=1/GPa)
#
#
# Indices 1 2 3 4 5 6 
#
# 1 0.024442 0.005552 -0.002230 0.005515 -0.003818 -0.012020
# 2 0.005552 0.023350 -0.005352 -0.003472 0.003529 -0.011547
# 3 -0.002230 -0.005352 0.011750 0.011604 -0.007004 0.000568
# 4 0.005515 -0.003472 0.011604 0.057174 -0.020613 0.000242
# 5 -0.003818 0.003529 -0.007004 -0.020613 0.044410 -0.002014
# 6 -0.012020 -0.011547 0.000568 0.000242 -0.002014 0.038460
#
#
# Mechanical properties :
#
#
# Convention : Reuss Voigt Hill
#
# Bulk Modulus (GPa) = 18.02410 35.96932 26.99671
# Shear Modulus (GPa) = 22.50820 30.99239 26.75030
#
# Velocity S-wave (km/s) = 3.35225 3.93363 3.65452
# Velocity P-wave (km/s) = 4.89717 6.21205 5.59338
#
# Compressibility (1/GPa) = 0.05548128
#
# Stress axis : x y z
#
# Youngs Moduli (GPa) = 40.91277 42.82634 85.10534
#
# Poissons Ratio (x) = -0.23775 0.18983
# Poissons Ratio (y) = -0.22713 0.45545
# Poissons Ratio (z) = 0.09126 0.22919
#
# Static dielectric constant tensor:
#      x y z
#    x 3.725360 0.024160 0.007720 
#    y 0.024160 3.477040 -0.057180 
#    z 0.007720 -0.057180 3.641070 
# 
# 
# High freq. dielectric constant tensor:
#      x y z
#    x 1.798830 0.003740 0.001180 
#    y 0.003740 1.775620 -0.001220 
#    z 0.001180 -0.001220 1.779120 
# 
# From -- ./inp_files/503548.got.cif
#   From: 2010.06.25/outbox.cif.g09.slc.cpg/sg2_252_cif.got.tgz:503548.got - 2010.06.27 13:26:56.
