data_PCOD8012395
_publ_section_title
;
Structure prediction by ZEFSAII (Michael W. Deem and Ramdas Pophale) SiO2 
 PCOD8012395
Probable space group: P -1
;
_chemical_formula_sum "Si O2"
_cell_formula_units_Z 14
_cell_length_a 8.410440
_cell_length_b 13.633987
_cell_length_c 10.463283
_cell_angle_alpha 148.437625
_cell_angle_beta 97.002507
_cell_angle_gamma 91.777690
_cell_volume 601.943501
_symmetry_space_group_name_H-M "P -1"
_symmetry_group_IT_number 2
_symmetry_cell_setting 'triclinic'
loop_
_space_group_symop_operation_xyz
x,y,z
-x,-y,-z
loop_
_atom_site_type_symbol
_atom_site_label
_atom_site_fract_x
_atom_site_fract_y
_atom_site_fract_z
Si Si1 0.960525 0.729057 0.338359
Si Si2 0.220018 0.679416 0.131120
Si Si3 0.918302 0.798404 0.875582
Si Si4 0.782581 0.007522 0.706261
Si Si5 0.489458 0.639732 0.276212
Si Si6 0.633525 0.467890 0.580805
Si Si7 0.854431 0.192956 0.303272
O O1 0.893252 0.917823 0.519961
O O2 0.036776 0.692216 0.169263
O O3 0.101920 0.758439 0.491659
O O4 0.805124 0.546515 0.161879
O O5 0.345327 0.738024 0.326646
O O6 0.286293 0.826628 0.184663
O O7 0.804377 0.635966 0.773084
O O8 0.976670 0.708433 0.652181
O O9 0.816832 0.959967 0.017665
O O10 0.099666 0.897494 0.061616
O O11 0.638965 0.823224 0.532447
O O12 0.438822 0.520206 0.270511
O O13 0.500000 0.500000 0.000000
O O14 0.500000 0.500000 0.500000
O O15 0.691144 0.269394 0.339703
#
# Coordination Sequence:
#
# PCOD8012395 Si02
#       7
#     2   2   2   2   2   2   2
#     4  10  21  39  71  99 135 172 230 286 334 412
#     4  11  22  41  68  97 136 180 225 279 348 400
#     4  10  25  45  75 100 134 183 241 283 348 416
#     4  11  24  42  70  99 136 180 227 278 351 407
#     4  12  27  47  66 105 148 178 231 289 343 415
#     4  12  28  47  72 102 144 189 231 288 354 409
#     4  10  22  46  71 101 136 181 238 286 338 425
#
# _framework density 23.257997
#
# number of rings (size 3 to 8) (size 9 to 14) (size 15 to 20)
#    0.000    1.143    2.857    2.143    8.000    4.000 
#    2.571    0.000    0.000    0.000    0.000    0.000 
#    0.000    0.000    0.000    0.000    0.000    0.000 
#
# Total GULP energy -173439.932813 kJ/mol
# GULP energy per Si atom -12388.566629 kJ/mol
# Density = 2.320506 g / cm^3
# Si number density = 23.257997 Si / 1000 Ang^3
#
#
#
# Elastic Constant Matrix: (Units=GPa)
#
#
# Indices 1 2 3 4 5 6 
#
# 1 85.0613 39.2500 32.5276 -0.9674 2.4879 -6.2568
# 2 39.2500 122.4763 27.9111 8.7492 -6.7613 5.0613
# 3 32.5276 27.9111 74.1855 4.2656 0.8053 4.1611
# 4 -0.9674 8.7492 4.2656 29.3956 4.0345 0.3800
# 5 2.4879 -6.7613 0.8053 4.0345 35.6941 3.3864
# 6 -6.2568 5.0613 4.1611 0.3800 3.3864 53.3555
#
#
#
# Elastic Compliance Matrix: (Units=1/GPa)
#
#
# Indices 1 2 3 4 5 6 
#
# 1 0.016319 -0.004372 -0.005819 0.002981 -0.002448 0.002916
# 2 -0.004372 0.010427 -0.001758 -0.003363 0.002844 -0.001521
# 3 -0.005819 -0.001758 0.016915 -0.002113 0.000103 -0.001826
# 4 0.002981 -0.003363 -0.002113 0.036094 -0.004961 0.000891
# 5 -0.002448 0.002844 0.000103 -0.004961 0.029512 -0.002403
# 6 0.002916 -0.001521 -0.001826 0.000891 -0.002403 0.019517
#
#
# Mechanical properties :
#
#
# Convention : Reuss Voigt Hill
#
# Bulk Modulus (GPa) = 50.59964 53.45563 52.02763
# Shear Modulus (GPa) = 31.39349 35.82466 33.60907
#
# Velocity S-wave (km/s) = 3.67794 3.92894 3.80551
# Velocity P-wave (km/s) = 6.31184 6.60422 6.45969
#
# Compressibility (1/GPa) = 0.01976299
#
# Stress axis : x y z
#
# Youngs Moduli (GPa) = 61.27901 95.90710 59.11840
#
# Poissons Ratio (x) = 0.41933 0.34399
# Poissons Ratio (y) = 0.26793 0.10393
# Poissons Ratio (z) = 0.35656 0.16860
#
# Static dielectric constant tensor:
#      x y z
#    x 4.400550 -0.112000 -0.134530 
#    y -0.112000 4.082650 0.151560 
#    z -0.134530 0.151560 4.091660 
# 
# 
# High freq. dielectric constant tensor:
#      x y z
#    x 1.922510 -0.005570 -0.008630 
#    y -0.005570 1.919110 0.006060 
#    z -0.008630 0.006060 1.910210 
# 
# From -- ./inp_files/400094.got.cif
#   From: 2010.06.25/outbox.cif.g09.slc.cpg/sg2_201_cif.got.tgz:400094.got - 2010.06.27 13:26:56.
