data_PCOD8012764
_publ_section_title
;
Structure prediction by ZEFSAII (Michael W. Deem and Ramdas Pophale) SiO2 
 PCOD8012764
Probable space group: P -1
;
_chemical_formula_sum "Si O2"
_cell_formula_units_Z 16
_cell_length_a 7.550100
_cell_length_b 20.601106
_cell_length_c 5.282549
_cell_angle_alpha 68.209752
_cell_angle_beta 86.645983
_cell_angle_gamma 117.461638
_cell_volume 650.135544
_symmetry_space_group_name_H-M "P -1"
_symmetry_group_IT_number 2
_symmetry_cell_setting 'triclinic'
loop_
_space_group_symop_operation_xyz
x,y,z
-x,-y,-z
loop_
_atom_site_type_symbol
_atom_site_label
_atom_site_fract_x
_atom_site_fract_y
_atom_site_fract_z
Si Si1 0.297627 0.412807 0.189311
Si Si2 0.920070 0.351667 0.625355
Si Si3 0.933798 0.096727 0.921566
Si Si4 0.129421 0.799409 0.894843
Si Si5 0.755265 0.753491 0.651393
Si Si6 0.526959 0.844585 0.547650
Si Si7 0.066357 0.589373 0.955209
Si Si8 0.740180 0.939960 0.886895
O O1 0.170547 0.408844 0.462300
O O2 0.352560 0.341511 0.287682
O O3 0.500000 0.500000 0.000000
O O4 0.134057 0.399977 0.999274
O O5 0.860149 0.260179 0.815183
O O6 0.837156 0.386894 0.805877
O O7 0.798453 0.350352 0.377564
O O8 0.790528 0.113973 0.094393
O O9 0.103538 0.184832 0.668750
O O10 0.044107 0.059040 0.133643
O O11 0.795511 0.032742 0.804966
O O12 0.280954 0.809075 0.637667
O O13 0.897226 0.765820 0.864422
O O14 0.577025 0.773269 0.706209
O O15 0.596088 0.881404 0.210248
O O16 0.636455 0.913033 0.660198
O O17 0.000000 0.500000 0.000000
#
# Coordination Sequence:
#
# PCOD8012764 Si02
#       8
#     2   2   2   2   2   2   2   2
#     4  10  23  41  67  95 130 170 223 276 332 401
#     4  10  22  41  64  94 128 170 222 262 333 406
#     4  10  22  41  75  89 145 183 221 282 349 393
#     4  12  23  43  71  96 137 187 221 284 339 402
#     4  11  23  47  65 100 136 184 225 281 346 409
#     4  11  27  42  69 101 141 173 238 277 338 404
#     4  10  21  40  63  90 126 161 212 271 324 395
#     4  10  24  44  64 109 133 181 232 281 332 412
#
# _framework density 24.610251000000002
#
# number of rings (size 3 to 8) (size 9 to 14) (size 15 to 20)
#    0.750    0.750    3.750    0.375    3.500    4.000 
#    0.000    1.250    0.000    0.000    0.000    0.000 
#    0.000    0.000    0.000    0.000    0.000    0.000 
#
# Total GULP energy -198225.093040 kJ/mol
# GULP energy per Si atom -12389.068315 kJ/mol
# Density = 2.455424 g / cm^3
# Si number density = 24.610251 Si / 1000 Ang^3
#
#
#
# Elastic Constant Matrix: (Units=GPa)
#
#
# Indices 1 2 3 4 5 6 
#
# 1 53.8717 22.0309 14.2003 -1.2988 -11.5121 -27.0029
# 2 22.0309 123.0853 31.5969 0.1064 1.9571 -38.0656
# 3 14.2003 31.5969 79.6337 12.6059 -9.5049 -11.0410
# 4 -1.2988 0.1064 12.6059 49.1331 0.5901 1.1432
# 5 -11.5121 1.9571 -9.5049 0.5901 25.8579 3.6126
# 6 -27.0029 -38.0656 -11.0410 1.1432 3.6126 43.0424
#
#
#
# Elastic Compliance Matrix: (Units=1/GPa)
#
#
# Indices 1 2 3 4 5 6 
#
# 1 0.030031 0.000518 -0.001995 0.000766 0.010076 0.017920
# 2 0.000518 0.012407 -0.004133 0.000847 -0.003718 0.010526
# 3 -0.001995 -0.004133 0.015683 -0.004104 0.005456 -0.001233
# 4 0.000766 0.000847 -0.004104 0.021450 -0.001686 -0.000251
# 5 0.010076 -0.003718 0.005456 -0.001686 0.045391 0.000668
# 6 0.017920 0.010526 -0.001233 -0.000251 0.000668 0.043419
#
#
# Mechanical properties :
#
#
# Convention : Reuss Voigt Hill
#
# Bulk Modulus (GPa) = 21.32170 43.58301 32.45235
# Shear Modulus (GPa) = 25.61025 36.19085 30.90055
#
# Velocity S-wave (km/s) = 3.22938 3.83895 3.54728
# Velocity P-wave (km/s) = 4.75266 6.11537 5.47657
#
# Compressibility (1/GPa) = 0.04690058
#
# Stress axis : x y z
#
# Youngs Moduli (GPa) = 33.29913 80.60252 63.76254
#
# Poissons Ratio (x) = -0.04176 0.12719
# Poissons Ratio (y) = -0.01725 0.26356
# Poissons Ratio (z) = 0.06642 0.33316
#
# Static dielectric constant tensor:
#      x y z
#    x 4.410130 -0.365150 0.055550 
#    y -0.365150 4.420740 0.110250 
#    z 0.055550 0.110250 4.506940 
# 
# 
# High freq. dielectric constant tensor:
#      x y z
#    x 1.955520 -0.027790 0.005540 
#    y -0.027790 1.978220 0.003880 
#    z 0.005540 0.003880 1.979570 
# 
# From -- ./inp_files/52720.got.cif
#   From: 2010.06.25/outbox.cif.g09.slc.cpg/sg2_27_cif.got.tgz:52720.got - 2010.06.27 13:26:56.
