data_PCOD8012669
_publ_section_title
;
Structure prediction by ZEFSAII (Michael W. Deem and Ramdas Pophale) SiO2 
 PCOD8012669
Probable space group: P -1
;
_chemical_formula_sum "Si O2"
_cell_formula_units_Z 16
_cell_length_a 18.056926
_cell_length_b 20.823546
_cell_length_c 8.956499
_cell_angle_alpha 130.511927
_cell_angle_beta 120.692807
_cell_angle_gamma 18.896166
_cell_volume 751.334862
_symmetry_space_group_name_H-M "P -1"
_symmetry_group_IT_number 2
_symmetry_cell_setting 'triclinic'
loop_
_space_group_symop_operation_xyz
x,y,z
-x,-y,-z
loop_
_atom_site_type_symbol
_atom_site_label
_atom_site_fract_x
_atom_site_fract_y
_atom_site_fract_z
Si Si1 0.662383 0.605067 0.527681
Si Si2 0.863247 0.554348 0.075774
Si Si3 0.069982 0.211031 0.585722
Si Si4 0.208443 0.792928 0.027680
Si Si5 0.737565 0.365813 0.895003
Si Si6 0.663635 0.781739 0.925002
Si Si7 0.155007 0.980524 0.513509
Si Si8 0.636426 0.650478 0.242366
O O1 0.570859 0.777575 0.763567
O O2 0.766895 0.530719 0.358060
O O3 0.886684 0.359586 0.483952
O O4 0.431182 0.752166 0.513050
O O5 0.764374 0.598248 0.184904
O O6 0.044160 0.463387 0.179491
O O7 0.640045 0.799260 0.110092
O O8 0.023128 0.344969 0.814623
O O9 0.015479 0.191252 0.623770
O O10 0.349560 0.943757 0.406181
O O11 0.187736 0.721363 0.984538
O O12 0.185412 0.884101 0.270446
O O13 0.487192 0.542103 0.862149
O O14 0.000000 0.000000 0.000000
O O15 0.973514 0.115195 0.661975
O O16 0.667407 0.526784 0.028962
O O17 0.500000 0.000000 0.000000
#
# Coordination Sequence:
#
# PCOD8012669 Si02
#       8
#     2   2   2   2   2   2   2   2
#     4  10  23  40  63  95 128 167 207 261 311 371
#     4  10  22  41  63  92 128 167 213 260 308 371
#     4  10  21  40  62  92 129 165 212 257 309 368
#     4  11  26  44  64  95 128 165 204 264 317 371
#     4  11  24  42  67  94 128 163 210 258 315 374
#     4  10  21  40  64  92 128 167 209 260 315 365
#     4  11  22  43  65  92 129 163 208 261 307 376
#     4  11  22  40  64  95 126 168 212 261 308 370
#
# _framework density 21.295432999999999
#
# number of rings (size 3 to 8) (size 9 to 14) (size 15 to 20)
#    0.000    1.500    3.750    1.875    1.750    3.000 
#    2.250    8.750    0.000    0.000    0.000    0.000 
#    0.000    0.000    0.000    0.000    0.000    0.000 
#
# Total GULP energy -198275.540354 kJ/mol
# GULP energy per Si atom -12392.221272 kJ/mol
# Density = 2.124696 g / cm^3
# Si number density = 21.295433 Si / 1000 Ang^3
#
#
#
# Elastic Constant Matrix: (Units=GPa)
#
#
# Indices 1 2 3 4 5 6 
#
# 1 97.8796 28.5676 11.7950 3.1933 -30.8856 -6.3760
# 2 28.5676 116.9341 28.4267 -9.4082 -12.6769 7.5835
# 3 11.7950 28.4267 64.7619 1.0327 -15.0170 -20.9971
# 4 3.1933 -9.4082 1.0327 25.6137 1.7495 5.6156
# 5 -30.8856 -12.6769 -15.0170 1.7495 37.9842 3.2954
# 6 -6.3760 7.5835 -20.9971 5.6156 3.2954 34.0614
#
#
#
# Elastic Compliance Matrix: (Units=1/GPa)
#
#
# Indices 1 2 3 4 5 6 
#
# 1 0.015521 -0.004279 0.004025 -0.005860 0.012524 0.006094
# 2 -0.004279 0.012789 -0.008751 0.007955 -0.002157 -0.010145
# 3 0.004025 -0.008751 0.027642 -0.009989 0.009968 0.020424
# 4 -0.005860 0.007955 -0.009989 0.047100 -0.006829 -0.016130
# 5 0.012524 -0.002157 0.009968 -0.006829 0.039502 0.006274
# 6 0.006094 -0.010145 0.020424 -0.016130 0.006274 0.047401
#
#
# Mechanical properties :
#
#
# Convention : Reuss Voigt Hill
#
# Bulk Modulus (GPa) = 26.35640 46.35047 36.35343
# Shear Modulus (GPa) = 22.66439 33.58431 28.12435
#
# Velocity S-wave (km/s) = 3.26588 3.97554 3.63805
# Velocity P-wave (km/s) = 5.15991 6.54873 5.89536
#
# Compressibility (1/GPa) = 0.03794145
#
# Stress axis : x y z
#
# Youngs Moduli (GPa) = 64.42982 78.19422 36.17729
#
# Poissons Ratio (x) = 0.33461 -0.14561
# Poissons Ratio (y) = 0.27571 0.31657
# Poissons Ratio (z) = -0.25932 0.68424
#
# Static dielectric constant tensor:
#      x y z
#    x 4.288840 0.298130 0.070410 
#    y 0.298130 4.091690 -0.082240 
#    z 0.070410 -0.082240 3.722290 
# 
# 
# High freq. dielectric constant tensor:
#      x y z
#    x 1.854620 0.016280 0.009670 
#    y 0.016280 1.835100 -0.001360 
#    z 0.009670 -0.001360 1.819670 
# 
# From -- ./inp_files/337845.got.cif
#   From: 2010.06.25/outbox.cif.g09.slc.cpg/sg2_169_cif.got.tgz:337845.got - 2010.06.27 13:26:56.
