data_PCOD8012546
_publ_section_title
;
Structure prediction by ZEFSAII (Michael W. Deem and Ramdas Pophale) SiO2 
 PCOD8012546
Probable space group: P -1
;
_chemical_formula_sum "Si O2"
_cell_formula_units_Z 16
_cell_length_a 8.396598
_cell_length_b 24.685540
_cell_length_c 12.602389
_cell_angle_alpha 160.574485
_cell_angle_beta 62.791405
_cell_angle_gamma 118.701743
_cell_volume 761.927422
_symmetry_space_group_name_H-M "P -1"
_symmetry_group_IT_number 2
_symmetry_cell_setting 'triclinic'
loop_
_space_group_symop_operation_xyz
x,y,z
-x,-y,-z
loop_
_atom_site_type_symbol
_atom_site_label
_atom_site_fract_x
_atom_site_fract_y
_atom_site_fract_z
Si Si1 0.040067 0.243293 0.998810
Si Si2 0.190861 0.121162 0.154117
Si Si3 0.261610 0.562718 0.623479
Si Si4 0.132680 0.090605 0.484499
Si Si5 0.648787 0.558769 0.406492
Si Si6 0.512602 0.071153 0.245462
Si Si7 0.265870 0.623892 0.164638
Si Si8 0.929285 0.703838 0.306922
O O1 0.853848 0.293909 0.103513
O O2 0.156038 0.386607 0.294362
O O3 0.162229 0.190219 0.769020
O O4 0.001156 0.083165 0.789615
O O5 0.207020 0.269391 0.335489
O O6 0.216377 0.208489 0.422860
O O7 0.355902 0.024988 0.904229
O O8 0.000000 0.000000 0.000000
O O9 0.452154 0.602638 0.577032
O O10 0.285953 0.550689 0.721078
O O11 0.317741 0.037976 0.294663
O O12 0.045416 0.212855 0.660822
O O13 0.636454 0.454513 0.107969
O O14 0.591763 0.266067 0.596921
O O15 0.500000 0.000000 0.000000
O O16 0.123316 0.731604 0.358232
O O17 0.153411 0.489833 0.030926
#
# Coordination Sequence:
#
# PCOD8012546 Si02
#       8
#     2   2   2   2   2   2   2   2
#     4  10  23  41  63  88 125 164 206 263 310 376
#     4  11  22  40  61  91 127 166 206 257 309 375
#     4  10  21  42  63  94 116 163 215 258 316 358
#     4  11  23  41  60  91 127 164 209 255 320 370
#     4  10  22  39  66  90 124 160 211 263 306 370
#     4  12  24  39  60  94 130 165 202 254 313 373
#     4  10  22  40  61  90 126 164 209 255 304 379
#     4  10  21  40  61  87 122 170 209 247 311 371
#
# _framework density 20.999376000000002
#
# number of rings (size 3 to 8) (size 9 to 14) (size 15 to 20)
#    0.000    1.500    2.500    2.250    1.750    0.500 
#    6.750    0.000    0.000    8.250    0.000    0.000 
#    0.000    0.000    0.000    0.000    0.000    0.000 
#
# Total GULP energy -198310.810705 kJ/mol
# GULP energy per Si atom -12394.425669 kJ/mol
# Density = 2.095158 g / cm^3
# Si number density = 20.999376 Si / 1000 Ang^3
#
#
#
# Elastic Constant Matrix: (Units=GPa)
#
#
# Indices 1 2 3 4 5 6 
#
# 1 70.0641 48.5905 32.4616 -0.9865 0.1509 0.2993
# 2 48.5905 136.5186 52.5721 4.7373 0.5434 -3.8511
# 3 32.4616 52.5721 101.1996 -6.3484 7.5279 -3.6235
# 4 -0.9865 4.7373 -6.3484 31.0506 1.6054 -11.8400
# 5 0.1509 0.5434 7.5279 1.6054 39.7045 -3.7641
# 6 0.2993 -3.8511 -3.6235 -11.8400 -3.7641 20.6150
#
#
#
# Elastic Compliance Matrix: (Units=1/GPa)
#
#
# Indices 1 2 3 4 5 6 
#
# 1 0.019917 -0.005811 -0.003467 0.000080 0.000483 -0.001850
# 2 -0.005811 0.011071 -0.004118 -0.002762 0.000761 -0.000019
# 3 -0.003467 -0.004118 0.013774 0.005046 -0.002351 0.004171
# 4 0.000080 -0.002762 0.005046 0.043274 -0.000283 0.025172
# 5 0.000483 0.000761 -0.002351 -0.000283 0.026040 0.004314
# 6 -0.001850 -0.000019 0.004171 0.025172 0.004314 0.064510
#
#
# Mechanical properties :
#
#
# Convention : Reuss Voigt Hill
#
# Bulk Modulus (GPa) = 55.64875 63.89229 59.77052
# Shear Modulus (GPa) = 23.65541 29.88457 26.76999
#
# Velocity S-wave (km/s) = 3.35995 3.77652 3.57431
# Velocity P-wave (km/s) = 6.45059 7.03619 6.74974
#
# Compressibility (1/GPa) = 0.01796986
#
# Stress axis : x y z
#
# Youngs Moduli (GPa) = 50.20896 90.32368 72.60186
#
# Poissons Ratio (x) = 0.52483 0.25173
# Poissons Ratio (y) = 0.29174 0.29899
# Poissons Ratio (z) = 0.17409 0.37197
#
# Static dielectric constant tensor:
#      x y z
#    x 3.667900 0.075310 -0.174580 
#    y 0.075310 3.835270 -0.028690 
#    z -0.174580 -0.028690 4.037360 
# 
# 
# High freq. dielectric constant tensor:
#      x y z
#    x 1.808950 0.007880 -0.011570 
#    y 0.007880 1.824890 0.000130 
#    z -0.011570 0.000130 1.837590 
# 
# From -- ./inp_files/353790.got.cif
#   From: 2010.06.25/outbox.cif.g09.slc.cpg/sg2_177_cif.got.tgz:353790.got - 2010.06.27 13:26:56.
