data_PCOD8012890
_publ_section_title
;
Structure prediction by ZEFSAII (Michael W. Deem and Ramdas Pophale) SiO2 
 PCOD8012890
Probable space group: P -1
;
_chemical_formula_sum "Si O2"
_cell_formula_units_Z 16
_cell_length_a 11.821608
_cell_length_b 14.469788
_cell_length_c 14.239868
_cell_angle_alpha 39.397537
_cell_angle_beta 39.704091
_cell_angle_gamma 30.439330
_cell_volume 741.889939
_symmetry_space_group_name_H-M "P -1"
_symmetry_group_IT_number 2
_symmetry_cell_setting 'triclinic'
loop_
_space_group_symop_operation_xyz
x,y,z
-x,-y,-z
loop_
_atom_site_type_symbol
_atom_site_label
_atom_site_fract_x
_atom_site_fract_y
_atom_site_fract_z
Si Si1 0.427008 0.224154 0.093408
Si Si2 0.682449 0.815051 0.468759
Si Si3 0.389251 0.325437 0.547287
Si Si4 0.611190 0.502362 0.233995
Si Si5 0.085202 0.118731 0.867221
Si Si6 0.483557 0.226976 0.771009
Si Si7 0.170703 0.204956 0.105348
Si Si8 0.871244 0.523582 0.736420
O O1 0.268657 0.206642 0.142214
O O2 0.305338 0.326694 0.189138
O O3 0.675983 0.011938 0.121154
O O4 0.474919 0.349485 0.911860
O O5 0.558405 0.827155 0.442863
O O6 0.878504 0.826163 0.301512
O O7 0.781980 0.622999 0.612729
O O8 0.500000 0.000000 0.500000
O O9 0.484922 0.418893 0.365257
O O10 0.523840 0.218747 0.641162
O O11 0.114576 0.478580 0.629627
O O12 0.515507 0.615468 0.305653
O O13 0.893189 0.334662 0.184870
O O14 0.903652 0.328629 0.871563
O O15 0.000000 0.000000 0.000000
O O16 0.707234 0.012374 0.832418
O O17 0.238927 0.283441 0.918106
#
# Coordination Sequence:
#
# PCOD8012890 Si02
#       8
#     2   2   2   2   2   2   2   2
#     4  11  23  40  67  94 130 174 216 261 331 383
#     4  11  24  46  65  97 130 174 217 269 328 396
#     4  11  23  41  65  92 132 170 214 265 334 373
#     4  11  24  39  62 100 130 166 218 271 312 390
#     4  11  25  42  68  97 129 170 226 272 320 384
#     4  10  21  40  64  89 128 168 217 260 320 390
#     4  10  21  41  65  93 129 168 217 265 318 389
#     4  11  24  44  69  89 134 176 214 265 331 390
#
# _framework density 21.566541000000001
#
# number of rings (size 3 to 8) (size 9 to 14) (size 15 to 20)
#    0.000    1.250    1.250    6.375    3.500    4.000 
#    2.250    0.000    0.000    0.000    0.000    0.000 
#    0.000    0.000    0.000    0.000    0.000    0.000 
#
# Total GULP energy -198338.890667 kJ/mol
# GULP energy per Si atom -12396.180667 kJ/mol
# Density = 2.151745 g / cm^3
# Si number density = 21.566541 Si / 1000 Ang^3
#
#
#
# Elastic Constant Matrix: (Units=GPa)
#
#
# Indices 1 2 3 4 5 6 
#
# 1 65.2648 31.1320 51.3500 -1.5890 5.2474 10.9196
# 2 31.1320 104.9776 32.0147 -8.5701 -2.9438 14.3714
# 3 51.3500 32.0147 112.1077 -12.9360 -4.2773 10.9018
# 4 -1.5890 -8.5701 -12.9360 23.3238 9.1006 11.0826
# 5 5.2474 -2.9438 -4.2773 9.1006 42.2645 -1.7740
# 6 10.9196 14.3714 10.9018 11.0826 -1.7740 32.6182
#
#
#
# Elastic Compliance Matrix: (Units=1/GPa)
#
#
# Indices 1 2 3 4 5 6 
#
# 1 0.027206 -0.004665 -0.011477 -0.003518 -0.004201 -0.002250
# 2 -0.004665 0.012377 0.000089 0.007548 -0.000448 -0.006510
# 3 -0.011477 0.000089 0.015813 0.010080 0.000657 -0.004872
# 4 -0.003518 0.007548 0.010080 0.071202 -0.014629 -0.030504
# 5 -0.004201 -0.000448 0.000657 -0.014629 0.027697 0.007861
# 6 -0.002250 -0.006510 -0.004872 -0.030504 0.007861 0.046699
#
#
# Mechanical properties :
#
#
# Convention : Reuss Voigt Hill
#
# Bulk Modulus (GPa) = 42.93519 56.81596 49.87558
# Shear Modulus (GPa) = 20.75869 30.83152 25.79510
#
# Velocity S-wave (km/s) = 3.10585 3.78511 3.46218
# Velocity P-wave (km/s) = 5.72828 6.74569 6.25770
#
# Compressibility (1/GPa) = 0.02329092
#
# Stress axis : x y z
#
# Youngs Moduli (GPa) = 36.75692 80.79529 63.23839
#
# Poissons Ratio (x) = 0.37692 0.72576
# Poissons Ratio (y) = 0.17148 -0.00564
# Poissons Ratio (z) = 0.42184 -0.00721
#
# Static dielectric constant tensor:
#      x y z
#    x 3.962130 0.271030 0.037580 
#    y 0.271030 4.613960 -0.743990 
#    z 0.037580 -0.743990 4.584740 
# 
# 
# High freq. dielectric constant tensor:
#      x y z
#    x 1.834330 0.013730 0.016720 
#    y 0.013730 1.856170 -0.012770 
#    z 0.016720 -0.012770 1.851160 
# 
# From -- ./inp_files/521455.got.cif
#   From: 2010.06.25/outbox.cif.g09.slc.cpg/sg2_261_cif.got.tgz:521455.got - 2010.06.27 13:26:56.
