data_PCOD8012925
_publ_section_title
;
Structure prediction by ZEFSAII (Michael W. Deem and Ramdas Pophale) SiO2 
 PCOD8012925
Probable space group: P -1
;
_chemical_formula_sum "Si O2"
_cell_formula_units_Z 16
_cell_length_a 22.137347
_cell_length_b 10.000375
_cell_length_c 26.753973
_cell_angle_alpha 27.514139
_cell_angle_beta 162.532647
_cell_angle_gamma 152.990839
_cell_volume 776.977209
_symmetry_space_group_name_H-M "P -1"
_symmetry_group_IT_number 2
_symmetry_cell_setting 'triclinic'
loop_
_space_group_symop_operation_xyz
x,y,z
-x,-y,-z
loop_
_atom_site_type_symbol
_atom_site_label
_atom_site_fract_x
_atom_site_fract_y
_atom_site_fract_z
Si Si1 0.358942 0.244404 0.077792
Si Si2 0.015849 0.884222 0.251614
Si Si3 0.004372 0.369431 0.490473
Si Si4 0.357433 0.152752 0.593543
Si Si5 0.479027 0.147197 0.487166
Si Si6 0.347683 0.122815 0.873053
Si Si7 0.984040 0.743258 0.781060
Si Si8 0.197461 0.947361 0.147932
O O1 0.524317 0.586100 0.088212
O O2 0.452187 0.968647 0.232335
O O3 0.282433 0.205537 0.087505
O O4 0.164836 0.231570 0.893497
O O5 0.030143 0.609581 0.387883
O O6 0.235364 0.041258 0.345124
O O7 0.956788 0.122869 0.161537
O O8 0.199798 0.240863 0.680525
O O9 0.000000 0.500000 0.500000
O O10 0.786782 0.092237 0.399820
O O11 0.440404 0.483917 0.574997
O O12 0.206891 0.151435 0.427423
O O13 0.614319 0.029704 0.672615
O O14 0.500000 0.000000 0.500000
O O15 0.196861 0.853102 0.878486
O O16 0.500000 0.000000 0.000000
O O17 0.894783 0.385243 0.838728
O O18 0.000000 0.000000 0.000000
#
# Coordination Sequence:
#
# PCOD8012925 Si02
#       8
#     2   2   2   2   2   2   2   2
#     4  12  24  39  62  96 128 166 221 261 322 386
#     4  12  24  40  65  95 130 170 215 269 317 392
#     4  11  20  44  69  92 127 167 216 264 327 386
#     4  10  21  42  68  91 124 169 219 264 324 388
#     4  11  25  43  65  94 132 169 217 271 330 383
#     4  11  22  40  67  96 129 166 216 271 327 383
#     4  10  21  40  64  92 122 169 216 261 328 386
#     4  11  23  40  63  89 126 168 211 266 324 386
#
# _framework density 20.592624000000001
#
# number of rings (size 3 to 8) (size 9 to 14) (size 15 to 20)
#    0.000    1.000    3.750    3.750    0.000    9.000 
#    0.000    3.750    0.000    0.000    0.000    0.000 
#    0.000    0.000    0.000    0.000    0.000    0.000 
#
# Total GULP energy -198399.878085 kJ/mol
# GULP energy per Si atom -12399.992380 kJ/mol
# Density = 2.054575 g / cm^3
# Si number density = 20.592624 Si / 1000 Ang^3
#
#
#
# Elastic Constant Matrix: (Units=GPa)
#
#
# Indices 1 2 3 4 5 6 
#
# 1 108.5642 39.0775 41.9978 8.3654 8.5527 -1.9711
# 2 39.0775 109.3969 24.1767 13.8624 -8.2255 7.5554
# 3 41.9978 24.1767 81.8630 10.9206 17.4029 -1.0000
# 4 8.3654 13.8624 10.9206 32.8598 0.0089 5.9289
# 5 8.5527 -8.2255 17.4029 0.0089 37.0826 -0.1717
# 6 -1.9711 7.5554 -1.0000 5.9289 -0.1717 33.1269
#
#
#
# Elastic Compliance Matrix: (Units=1/GPa)
#
#
# Indices 1 2 3 4 5 6 
#
# 1 0.012604 -0.003539 -0.005090 -0.000285 -0.001297 0.001448
# 2 -0.003539 0.011773 -0.002259 -0.002879 0.004477 -0.002426
# 3 -0.005090 -0.002259 0.017642 -0.003864 -0.007599 0.001397
# 4 -0.000285 -0.002879 -0.003864 0.034006 0.001207 -0.005557
# 5 -0.001297 0.004477 -0.007599 0.001207 0.031819 -0.001379
# 6 0.001448 -0.002426 0.001397 -0.005557 -0.001379 0.031856
#
#
# Mechanical properties :
#
#
# Convention : Reuss Voigt Hill
#
# Bulk Modulus (GPa) = 49.39657 56.70313 53.04985
# Shear Modulus (GPa) = 29.72239 33.58533 31.65386
#
# Velocity S-wave (km/s) = 3.80327 4.04287 3.92490
# Velocity P-wave (km/s) = 6.58225 7.02770 6.80862
#
# Compressibility (1/GPa) = 0.02024432
#
# Stress axis : x y z
#
# Youngs Moduli (GPa) = 79.33768 84.93804 56.68320
#
# Poissons Ratio (x) = 0.30058 0.28851
# Poissons Ratio (y) = 0.28077 0.12804
# Poissons Ratio (z) = 0.40382 0.19187
#
# Static dielectric constant tensor:
#      x y z
#    x 3.604340 0.057520 0.132520 
#    y 0.057520 3.447790 0.203350 
#    z 0.132520 0.203350 3.709530 
# 
# 
# High freq. dielectric constant tensor:
#      x y z
#    x 1.794810 0.014380 0.014410 
#    y 0.014380 1.825130 0.000620 
#    z 0.014410 0.000620 1.808430 
# 
# From -- ./inp_files/208313.got.cif
#   From: 2010.06.25/outbox.cif.g09.slc.cpg/sg2_105_cif.got.tgz:208313.got - 2010.06.27 13:26:56.
