data_PCOD8012209
_publ_section_title
;
Structure prediction by ZEFSAII (Michael W. Deem and Ramdas Pophale) SiO2 
 PCOD8012209
Probable space group: P -1
;
_chemical_formula_sum "Si O2"
_cell_formula_units_Z 14
_cell_length_a 10.602682
_cell_length_b 14.329389
_cell_length_c 9.422698
_cell_angle_alpha 28.625428
_cell_angle_beta 88.155439
_cell_angle_gamma 77.348108
_cell_volume 628.738344
_symmetry_space_group_name_H-M "P -1"
_symmetry_group_IT_number 2
_symmetry_cell_setting 'triclinic'
loop_
_space_group_symop_operation_xyz
x,y,z
-x,-y,-z
loop_
_atom_site_type_symbol
_atom_site_label
_atom_site_fract_x
_atom_site_fract_y
_atom_site_fract_z
Si Si1 0.035992 0.150729 0.692948
Si Si2 0.809636 0.493385 0.081054
Si Si3 0.173308 0.443357 0.309890
Si Si4 0.639096 0.969271 0.463893
Si Si5 0.013063 0.903871 0.782371
Si Si6 0.706869 0.156350 0.467911
Si Si7 0.456378 0.119502 0.694621
O O1 0.142653 0.240725 0.635120
O O2 0.902425 0.362605 0.380611
O O3 0.092926 0.015671 0.726366
O O4 0.000000 0.000000 0.000000
O O5 0.698827 0.392472 0.179756
O O6 0.890827 0.488802 0.936785
O O7 0.739579 0.731378 0.820018
O O8 0.340161 0.356236 0.415521
O O9 0.099492 0.650987 0.132240
O O10 0.614414 0.995629 0.258328
O O11 0.500000 0.000000 0.500000
O O12 0.693112 0.128219 0.333747
O O13 0.856823 0.980068 0.747212
O O14 0.000000 0.000000 0.500000
O O15 0.588957 0.129554 0.601336
O O16 0.500000 0.000000 0.000000
#
# Coordination Sequence:
#
# PCOD8012209 Si02
#       7
#     2   2   2   2   2   2   2
#     4  11  25  41  64 100 136 166 211 272 333 383
#     4  10  21  39  67  97 125 169 214 267 321 384
#     4  11  23  41  71  93 131 174 219 261 330 384
#     4   9  20  38  64  92 118 169 219 258 306 384
#     4  11  23  42  70 102 125 169 221 273 315 392
#     4  10  21  41  68  92 130 162 221 260 319 385
#     4  10  24  41  63  92 136 174 207 270 330 379
#
# _framework density 22.266815999999999
#
# number of rings (size 3 to 8) (size 9 to 14) (size 15 to 20)
#    0.000    1.714    2.857    1.286    8.000    5.714 
#    5.143    0.000    0.000    7.714    0.000    0.000 
#    0.000    0.000    0.000    0.000    0.000    0.000 
#
# Total GULP energy -173437.853008 kJ/mol
# GULP energy per Si atom -12388.418072 kJ/mol
# Density = 2.221614 g / cm^3
# Si number density = 22.266816 Si / 1000 Ang^3
#
#
#
# Elastic Constant Matrix: (Units=GPa)
#
#
# Indices 1 2 3 4 5 6 
#
# 1 73.9946 26.5901 25.7575 -17.4056 -2.1278 -5.9208
# 2 26.5901 91.1254 35.1425 -12.3280 -0.1357 0.9817
# 3 25.7575 35.1425 106.2201 7.0093 0.6754 -10.5728
# 4 -17.4056 -12.3280 7.0093 36.9569 3.0374 3.4794
# 5 -2.1278 -0.1357 0.6754 3.0374 37.6287 -5.7203
# 6 -5.9208 0.9817 -10.5728 3.4794 -5.7203 37.4922
#
#
#
# Elastic Compliance Matrix: (Units=1/GPa)
#
#
# Indices 1 2 3 4 5 6 
#
# 1 0.017819 -0.002618 -0.003881 0.008101 0.000585 0.001126
# 2 -0.002618 0.014183 -0.004625 0.004690 -0.000795 -0.002646
# 3 -0.003881 -0.004625 0.012662 -0.006174 0.000604 0.003744
# 4 0.008101 0.004690 -0.006174 0.034235 -0.002815 -0.004191
# 5 0.000585 -0.000795 0.000604 -0.002815 0.027544 0.004747
# 6 0.001126 -0.002646 0.003744 -0.004191 0.004747 0.029088
#
#
# Mechanical properties :
#
#
# Convention : Reuss Voigt Hill
#
# Bulk Modulus (GPa) = 44.61242 49.59115 47.10178
# Shear Modulus (GPa) = 30.25682 34.67224 32.46453
#
# Velocity S-wave (km/s) = 3.69023 3.95032 3.82249
# Velocity P-wave (km/s) = 6.18352 6.56707 6.37818
#
# Compressibility (1/GPa) = 0.02241528
#
# Stress axis : x y z
#
# Youngs Moduli (GPa) = 56.12088 70.50482 78.97590
#
# Poissons Ratio (x) = 0.18459 0.30650
# Poissons Ratio (y) = 0.14693 0.36530
# Poissons Ratio (z) = 0.21780 0.32612
#
# Static dielectric constant tensor:
#      x y z
#    x 4.602540 0.477450 -0.071000 
#    y 0.477450 4.805040 -0.327360 
#    z -0.071000 -0.327360 3.893220 
# 
# 
# High freq. dielectric constant tensor:
#      x y z
#    x 1.885240 -0.001560 0.002050 
#    y -0.001560 1.878170 -0.014420 
#    z 0.002050 -0.014420 1.851380 
# 
# From -- ./inp_files/271347.got.cif
#   From: 2010.06.25/outbox.cif.g09.slc.cpg/sg2_136_cif.got.tgz:271347.got - 2010.06.27 13:26:56.
