data_PCOD8012246
_publ_section_title
;
Structure prediction by ZEFSAII (Michael W. Deem and Ramdas Pophale) SiO2 
 PCOD8012246
Probable space group: P -1
;
_chemical_formula_sum "Si O2"
_cell_formula_units_Z 14
_cell_length_a 9.319131
_cell_length_b 8.784500
_cell_length_c 11.925818
_cell_angle_alpha 139.111471
_cell_angle_beta 80.012827
_cell_angle_gamma 96.144036
_cell_volume 628.948468
_symmetry_space_group_name_H-M "P -1"
_symmetry_group_IT_number 2
_symmetry_cell_setting 'triclinic'
loop_
_space_group_symop_operation_xyz
x,y,z
-x,-y,-z
loop_
_atom_site_type_symbol
_atom_site_label
_atom_site_fract_x
_atom_site_fract_y
_atom_site_fract_z
Si Si1 0.864851 0.332968 0.429256
Si Si2 0.741130 0.406954 0.728334
Si Si3 0.695267 0.560244 0.385951
Si Si4 0.949187 0.553847 0.192662
Si Si5 0.330579 0.941360 0.274009
Si Si6 0.485217 0.759254 0.931252
Si Si7 0.029470 0.880462 0.180211
O O1 0.791588 0.312077 0.548511
O O2 0.733888 0.405763 0.403616
O O3 0.000000 0.500000 0.500000
O O4 0.929986 0.079314 0.244773
O O5 0.655007 0.211269 0.699368
O O6 0.644938 0.643549 0.861941
O O7 0.881666 0.470244 0.814491
O O8 0.848142 0.637091 0.354792
O O9 0.604602 0.419054 0.230114
O O10 0.608131 0.800658 0.567349
O O11 0.926076 0.738100 0.198113
O O12 0.902081 0.296068 0.019935
O O13 0.162300 0.991040 0.289962
O O14 0.416681 0.805672 0.088349
O O15 0.500000 0.000000 0.000000
#
# Coordination Sequence:
#
# PCOD8012246 Si02
#       7
#     2   2   2   2   2   2   2
#     4  12  23  39  67 103 136 171 219 274 336 396
#     4  11  25  45  68 101 135 177 226 275 331 396
#     4  12  25  44  71  98 136 179 223 271 341 395
#     4  10  21  41  70 100 129 175 223 280 327 393
#     4  11  23  47  73  96 135 178 227 277 327 398
#     4  12  29  47  66  99 140 178 223 277 335 401
#     4  10  21  39  68 104 134 166 226 279 332 388
#
# _framework density 22.259374999999999
#
# number of rings (size 3 to 8) (size 9 to 14) (size 15 to 20)
#    0.000    0.857    4.286    2.143    2.000    5.714 
#    0.000    0.000    0.000    0.000    0.000    0.000 
#    0.000    0.000    0.000    0.000    0.000    0.000 
#
# Total GULP energy -173635.404845 kJ/mol
# GULP energy per Si atom -12402.528918 kJ/mol
# Density = 2.220871 g / cm^3
# Si number density = 22.259375 Si / 1000 Ang^3
#
#
#
# Elastic Constant Matrix: (Units=GPa)
#
#
# Indices 1 2 3 4 5 6 
#
# 1 62.0484 20.1280 24.6727 9.1387 -2.0731 -7.4572
# 2 20.1280 86.2541 27.0946 -0.4499 -0.6486 -7.4945
# 3 24.6727 27.0946 127.1484 7.0119 3.7588 2.8021
# 4 9.1387 -0.4499 7.0119 48.4491 -2.5060 -8.8508
# 5 -2.0731 -0.6486 3.7588 -2.5060 27.9400 2.0036
# 6 -7.4572 -7.4945 2.8021 -8.8508 2.0036 31.9298
#
#
#
# Elastic Compliance Matrix: (Units=1/GPa)
#
#
# Indices 1 2 3 4 5 6 
#
# 1 0.019167 -0.003260 -0.002991 -0.002565 0.001291 0.003182
# 2 -0.003260 0.013378 -0.002385 0.001654 0.000321 0.003026
# 3 -0.002991 -0.002385 0.009118 -0.001277 -0.001452 -0.002322
# 4 -0.002565 0.001654 -0.001277 0.022511 0.001606 0.006040
# 5 0.001291 0.000321 -0.001452 0.001606 0.036329 -0.001330
# 6 0.003182 0.003026 -0.002322 0.006040 -0.001330 0.034734
#
#
# Mechanical properties :
#
#
# Convention : Reuss Voigt Hill
#
# Bulk Modulus (GPa) = 41.00288 46.58238 43.79263
# Shear Modulus (GPa) = 31.12556 35.23414 33.17985
#
# Velocity S-wave (km/s) = 3.74346 3.98287 3.86502
# Velocity P-wave (km/s) = 6.09468 6.49026 6.29558
#
# Compressibility (1/GPa) = 0.02438853
#
# Stress axis : x y z
#
# Youngs Moduli (GPa) = 52.17364 74.75078 109.67185
#
# Poissons Ratio (x) = 0.24371 0.32807
# Poissons Ratio (y) = 0.17010 0.26162
# Poissons Ratio (z) = 0.15607 0.17832
#
# Static dielectric constant tensor:
#      x y z
#    x 3.904590 -0.091180 -0.078040 
#    y -0.091180 4.178510 -0.023920 
#    z -0.078040 -0.023920 4.054170 
# 
# 
# High freq. dielectric constant tensor:
#      x y z
#    x 1.861110 -0.005080 -0.006540 
#    y -0.005080 1.885180 -0.000820 
#    z -0.006540 -0.000820 1.889680 
# 
# From -- ./inp_files/186852.got.cif
#   From: 2010.06.25/outbox.cif.g09.slc.cpg/sg2_94_cif.got.tgz:186852.got - 2010.06.27 13:26:56.
