data_PCOD8012450
_publ_section_title
;
Structure prediction by ZEFSAII (Michael W. Deem and Ramdas Pophale) SiO2 
 PCOD8012450
Probable space group: P -1
;
_chemical_formula_sum "Si O2"
_cell_formula_units_Z 14
_cell_length_a 14.331984
_cell_length_b 14.823771
_cell_length_c 8.249054
_cell_angle_alpha 125.332593
_cell_angle_beta 97.623111
_cell_angle_gamma 37.390572
_cell_volume 652.455194
_symmetry_space_group_name_H-M "P -1"
_symmetry_group_IT_number 2
_symmetry_cell_setting 'triclinic'
loop_
_space_group_symop_operation_xyz
x,y,z
-x,-y,-z
loop_
_atom_site_type_symbol
_atom_site_label
_atom_site_fract_x
_atom_site_fract_y
_atom_site_fract_z
Si Si1 0.288211 0.957372 0.054814
Si Si2 0.916854 0.348212 0.798978
Si Si3 0.831611 0.813176 0.033451
Si Si4 0.636167 0.514532 0.138118
Si Si5 0.946814 0.454480 0.617111
Si Si6 0.599259 0.700600 0.624861
Si Si7 0.235731 0.860641 0.228292
O O1 0.180508 0.166535 0.355336
O O2 0.283211 0.849241 0.042022
O O3 0.154540 0.099082 0.002818
O O4 0.522800 0.736553 0.823648
O O5 0.850449 0.507290 0.816009
O O6 0.084813 0.234838 0.827733
O O7 0.722402 0.515348 0.033446
O O8 0.016583 0.136096 0.518066
O O9 0.589524 0.032792 0.221451
O O10 0.953008 0.580557 0.750260
O O11 0.646628 0.548912 0.358839
O O12 0.405649 0.727339 0.254392
O O13 0.775600 0.259573 0.899163
O O14 0.799882 0.565844 0.552775
#
# Coordination Sequence:
#
# PCOD8012450 Si02
#       7
#     2   2   2   2   2   2   2
#     4   9  21  36  60  83 118 145 198 238 278 343
#     4  11  22  40  60  90 116 151 199 235 285 350
#     4  10  21  40  59  86 122 150 192 240 286 341
#     4  11  22  38  64  81 124 151 191 239 300 332
#     4  11  21  39  62  85 118 158 189 236 292 337
#     4  10  22  38  58  89 117 151 195 236 285 348
#     4  10  21  41  59  90 111 157 191 245 286 344
#
# _framework density 21.457409999999999
#
# number of rings (size 3 to 8) (size 9 to 14) (size 15 to 20)
#    0.857    0.857    1.429    3.429    0.000    0.571 
#    0.000    8.571    0.000    0.000    0.000    0.000 
#    0.000    0.000    0.000    0.000    0.000    0.000 
#
# Total GULP energy -173478.434146 kJ/mol
# GULP energy per Si atom -12391.316725 kJ/mol
# Density = 2.140857 g / cm^3
# Si number density = 21.457410 Si / 1000 Ang^3
#
#
#
# Elastic Constant Matrix: (Units=GPa)
#
#
# Indices 1 2 3 4 5 6 
#
# 1 65.3413 22.9038 24.2037 -12.8440 -1.0530 7.9052
# 2 22.9038 72.8312 2.0488 -13.5024 14.4731 3.3466
# 3 24.2037 2.0488 79.8223 -15.9776 0.3919 -7.3873
# 4 -12.8440 -13.5024 -15.9776 26.2941 0.4758 0.6257
# 5 -1.0530 14.4731 0.3919 0.4758 31.9464 -2.3226
# 6 7.9052 3.3466 -7.3873 0.6257 -2.3226 18.6618
#
#
#
# Elastic Compliance Matrix: (Units=1/GPa)
#
#
# Indices 1 2 3 4 5 6 
#
# 1 0.022023 -0.006100 -0.006783 0.003709 0.002739 -0.010704
# 2 -0.006100 0.019059 0.003084 0.008871 -0.009081 -0.001041
# 3 -0.006783 0.003084 0.016992 0.008415 -0.001330 0.008599
# 4 0.003709 0.008871 0.008415 0.049650 -0.004892 -0.002104
# 5 0.002739 -0.009081 -0.001330 -0.004892 0.035929 0.004577
# 6 -0.010704 -0.001041 0.008599 -0.002104 0.004577 0.062350
#
#
# Mechanical properties :
#
#
# Convention : Reuss Voigt Hill
#
# Bulk Modulus (GPa) = 25.98946 35.14525 30.56736
# Shear Modulus (GPa) = 20.97083 26.63635 23.80359
#
# Velocity S-wave (km/s) = 3.12961 3.52711 3.33429
# Velocity P-wave (km/s) = 5.01973 5.74474 5.39443
#
# Compressibility (1/GPa) = 0.03847714
#
# Stress axis : x y z
#
# Youngs Moduli (GPa) = 45.40692 52.46888 58.85066
#
# Poissons Ratio (x) = 0.32005 0.39918
# Poissons Ratio (y) = 0.27698 -0.18151
# Poissons Ratio (z) = 0.30799 -0.16183
#
# Static dielectric constant tensor:
#      x y z
#    x 3.521890 0.137460 -0.133630 
#    y 0.137460 3.836780 -0.015630 
#    z -0.133630 -0.015630 3.918840 
# 
# 
# High freq. dielectric constant tensor:
#      x y z
#    x 1.812730 0.007720 -0.013640 
#    y 0.007720 1.841440 -0.003280 
#    z -0.013640 -0.003280 1.848990 
# 
# From -- ./inp_files/43369.got.cif
#   From: 2010.06.25/outbox.cif.g09.slc.cpg/sg2_22_cif.got.tgz:43369.got - 2010.06.27 13:26:56.
