data_PCOD8012797
_publ_section_title
;
Structure prediction by ZEFSAII (Michael W. Deem and Ramdas Pophale) SiO2 
 PCOD8012797
Probable space group: P -1
;
_chemical_formula_sum "Si O2"
_cell_formula_units_Z 14
_cell_length_a 8.377564
_cell_length_b 8.378286
_cell_length_c 12.019070
_cell_angle_alpha 106.590922
_cell_angle_beta 112.948632
_cell_angle_gamma 54.470788
_cell_volume 630.252968
_symmetry_space_group_name_H-M "P -1"
_symmetry_group_IT_number 2
_symmetry_cell_setting 'triclinic'
loop_
_space_group_symop_operation_xyz
x,y,z
-x,-y,-z
loop_
_atom_site_type_symbol
_atom_site_label
_atom_site_fract_x
_atom_site_fract_y
_atom_site_fract_z
Si Si1 0.589050 0.477714 0.845194
Si Si2 0.118981 0.239539 0.158459
Si Si3 0.083035 0.923840 0.200370
Si Si4 0.201346 0.825567 0.456175
Si Si5 0.311233 0.408488 0.884919
Si Si6 0.615391 0.611758 0.646629
Si Si7 0.736192 0.877486 0.064229
O O1 0.823761 0.299040 0.861212
O O2 0.457581 0.376037 0.814059
O O3 0.519909 0.597001 0.734927
O O4 0.570036 0.612454 0.970731
O O5 0.247795 0.295431 0.282721
O O6 0.881664 0.378120 0.147130
O O7 0.159629 0.027216 0.158543
O O8 0.164487 0.253536 0.045223
O O9 0.169890 0.920379 0.344861
O O10 0.838258 0.005397 0.147112
O O11 0.418361 0.775139 0.555216
O O12 0.238100 0.604384 0.414608
O O13 0.000000 0.000000 0.500000
O O14 0.236619 0.255064 0.845624
O O15 0.500000 0.000000 0.000000
#
# Coordination Sequence:
#
# PCOD8012797 Si02
#       7
#     2   2   2   2   2   2   2
#     4  10  21  40  63  92 133 168 215 260 329 390
#     4  12  24  40  66  99 135 169 214 267 334 399
#     4  11  25  43  63  95 134 172 217 275 319 392
#     4  10  24  45  74  91 126 176 231 276 331 385
#     4  11  22  36  63  96 130 173 206 260 328 398
#     4  10  23  46  69  97 132 176 217 281 331 385
#     4  12  25  39  64  97 135 177 214 262 329 400
#
# _framework density 22.213304000000001
#
# number of rings (size 3 to 8) (size 9 to 14) (size 15 to 20)
#    0.000    1.143    2.857    3.429    8.000    0.571 
#    2.571    0.714    0.000    0.000    0.000    0.000 
#    0.000    0.000    0.000    0.000    0.000    0.000 
#
# Total GULP energy -173458.881947 kJ/mol
# GULP energy per Si atom -12389.920139 kJ/mol
# Density = 2.216275 g / cm^3
# Si number density = 22.213304 Si / 1000 Ang^3
#
#
#
# Elastic Constant Matrix: (Units=GPa)
#
#
# Indices 1 2 3 4 5 6 
#
# 1 123.4152 28.7520 42.2949 -4.7097 8.8990 8.5199
# 2 28.7520 70.3360 22.6082 -7.7061 4.5650 -9.2132
# 3 42.2949 22.6082 97.4797 -11.4528 18.0582 -2.6489
# 4 -4.7097 -7.7061 -11.4528 30.5635 -1.0797 4.3116
# 5 8.8990 4.5650 18.0582 -1.0797 33.8946 0.4435
# 6 8.5199 -9.2132 -2.6489 4.3116 0.4435 42.4246
#
#
#
# Elastic Compliance Matrix: (Units=1/GPa)
#
#
# Indices 1 2 3 4 5 6 
#
# 1 0.010425 -0.003456 -0.003795 -0.000264 -0.000218 -0.003052
# 2 -0.003456 0.017093 -0.002013 0.002443 -0.000297 0.004035
# 3 -0.003795 -0.002013 0.013966 0.003803 -0.006063 0.000874
# 4 -0.000264 0.002443 0.003803 0.035064 -0.001133 -0.002731
# 5 -0.000218 -0.000297 -0.006063 -0.001133 0.032803 -0.000627
# 6 -0.003052 0.004035 0.000874 -0.002731 -0.000627 0.025399
#
#
# Mechanical properties :
#
#
# Convention : Reuss Voigt Hill
#
# Bulk Modulus (GPa) = 43.56350 53.17123 48.36737
# Shear Modulus (GPa) = 31.06930 34.54826 32.80878
#
# Velocity S-wave (km/s) = 3.74395 3.94800 3.84733
# Velocity P-wave (km/s) = 6.19222 6.69111 6.44649
#
# Compressibility (1/GPa) = 0.02295500
#
# Stress axis : x y z
#
# Youngs Moduli (GPa) = 95.92447 58.50399 71.60272
#
# Poissons Ratio (x) = 0.20220 0.27175
# Poissons Ratio (y) = 0.33153 0.14413
# Poissons Ratio (z) = 0.36405 0.11777
#
# Static dielectric constant tensor:
#      x y z
#    x 3.342600 -0.365720 0.306540 
#    y -0.365720 3.876820 0.097490 
#    z 0.306540 0.097490 3.881850 
# 
# 
# High freq. dielectric constant tensor:
#      x y z
#    x 1.878950 -0.006760 0.006510 
#    y -0.006760 1.874850 -0.013570 
#    z 0.006510 -0.013570 1.859110 
# 
# From -- ./inp_files/171170.got.cif
#   From: 2010.06.25/outbox.cif.g09.slc.cpg/sg2_86_cif.got.tgz:171170.got - 2010.06.27 13:26:56.
