data_PCOD8012885
_publ_section_title
;
Structure prediction by ZEFSAII (Michael W. Deem and Ramdas Pophale) SiO2 
 PCOD8012885
Probable space group: P -1
;
_chemical_formula_sum "Si O2"
_cell_formula_units_Z 16
_cell_length_a 13.534245
_cell_length_b 13.539311
_cell_length_c 8.795463
_cell_angle_alpha 57.753274
_cell_angle_beta 87.008350
_cell_angle_gamma 40.087338
_cell_volume 664.275185
_symmetry_space_group_name_H-M "P -1"
_symmetry_group_IT_number 2
_symmetry_cell_setting 'triclinic'
loop_
_space_group_symop_operation_xyz
x,y,z
-x,-y,-z
loop_
_atom_site_type_symbol
_atom_site_label
_atom_site_fract_x
_atom_site_fract_y
_atom_site_fract_z
Si Si1 0.169911 0.168948 0.519439
Si Si2 0.568732 0.738539 0.014224
Si Si3 0.778013 0.689556 0.256460
Si Si4 0.943109 0.929621 0.206130
Si Si5 0.131584 0.905483 0.428247
Si Si6 0.963723 0.376899 0.750113
Si Si7 0.527477 0.414194 0.732250
Si Si8 0.031193 0.680775 0.871550
O O1 0.140806 0.208223 0.306357
O O2 0.006512 0.421058 0.402250
O O3 0.119165 0.087371 0.633377
O O4 0.398510 0.957837 0.729865
O O5 0.601636 0.818780 0.056272
O O6 0.513986 0.683634 0.168579
O O7 0.771588 0.500680 0.099270
O O8 0.808839 0.799308 0.160772
O O9 0.772589 0.636788 0.467268
O O10 0.107372 0.850661 0.323066
O O11 0.026743 0.766348 0.192685
O O12 0.754567 0.203377 0.943370
O O13 0.070307 0.098791 0.233812
O O14 0.369802 0.646184 0.663764
O O15 0.000000 0.000000 0.500000
O O16 0.914421 0.445064 0.876420
O O17 0.500000 0.500000 0.500000
#
# Coordination Sequence:
#
# PCOD8012885 Si02
#       8
#     2   2   2   2   2   2   2   2
#     4   9  19  38  61  88 120 161 202 260 304 367
#     4  10  21  40  64  89 125 170 206 258 311 372
#     4   9  20  42  65  86 122 164 214 252 318 372
#     4  10  22  41  62  86 125 162 210 253 313 369
#     4  12  22  40  65  91 121 170 208 250 313 375
#     4  10  21  40  64  91 123 165 203 269 313 364
#     4  11  23  38  61  93 127 163 207 257 307 365
#     4  11  22  38  61  92 128 159 212 255 313 374
#
# _framework density 24.086404000000002
#
# number of rings (size 3 to 8) (size 9 to 14) (size 15 to 20)
#    0.000    1.750    2.500    2.250    0.000    6.500 
#    0.000   18.750    0.000    0.000    0.000    0.000 
#    0.000    0.000    0.000    0.000    0.000    0.000 
#
# Total GULP energy -198260.722111 kJ/mol
# GULP energy per Si atom -12391.295132 kJ/mol
# Density = 2.403158 g / cm^3
# Si number density = 24.086404 Si / 1000 Ang^3
#
#
#
# Elastic Constant Matrix: (Units=GPa)
#
#
# Indices 1 2 3 4 5 6 
#
# 1 67.8095 7.2958 22.9167 13.0151 12.9050 16.8991
# 2 7.2958 60.8640 35.4014 22.7830 -7.3732 8.9883
# 3 22.9167 35.4014 131.7439 29.9652 19.4718 0.9387
# 4 13.0151 22.7830 29.9652 42.6462 2.8470 -0.2587
# 5 12.9050 -7.3732 19.4718 2.8470 38.2071 2.5841
# 6 16.8991 8.9883 0.9387 -0.2587 2.5841 32.6696
#
#
#
# Elastic Compliance Matrix: (Units=1/GPa)
#
#
# Indices 1 2 3 4 5 6 
#
# 1 0.019610 0.001831 -0.002000 -0.005342 -0.004156 -0.010304
# 2 0.001831 0.026271 -0.006162 -0.010918 0.009000 -0.008796
# 3 -0.002000 -0.006162 0.011313 -0.003615 -0.006204 0.002867
# 4 -0.005342 -0.010918 -0.003615 0.033582 -0.001385 0.006247
# 5 -0.004156 0.009000 -0.006204 -0.001385 0.032765 -0.002751
# 6 -0.010304 -0.008796 0.002867 0.006247 -0.002751 0.038544
#
#
# Mechanical properties :
#
#
# Convention : Reuss Voigt Hill
#
# Bulk Modulus (GPa) = 22.45623 43.51612 32.98617
# Shear Modulus (GPa) = 26.37236 35.69148 31.03192
#
# Velocity S-wave (km/s) = 3.31253 3.85361 3.59327
# Velocity P-wave (km/s) = 4.89631 6.15681 5.56238
#
# Compressibility (1/GPa) = 0.04453108
#
# Stress axis : x y z
#
# Youngs Moduli (GPa) = 50.99329 38.06482 88.39404
#
# Poissons Ratio (x) = -0.06969 0.17682
# Poissons Ratio (y) = -0.09336 0.54469
# Poissons Ratio (z) = 0.10200 0.23456
#
# Static dielectric constant tensor:
#      x y z
#    x 4.461940 0.267010 -0.083690 
#    y 0.267010 4.404020 -0.163740 
#    z -0.083690 -0.163740 4.846440 
# 
# 
# High freq. dielectric constant tensor:
#      x y z
#    x 1.945400 0.016220 0.000140 
#    y 0.016220 1.943500 -0.002380 
#    z 0.000140 -0.002380 1.972490 
# 
# From -- ./inp_files/312734.got.cif
#   From: 2010.06.25/outbox.cif.g09.slc.cpg/sg2_157_cif.got.tgz:312734.got - 2010.06.27 13:26:56.
