data_PCOD8012978
_publ_section_title
;
Structure prediction by ZEFSAII (Michael W. Deem and Ramdas Pophale) SiO2 
 PCOD8012978
Probable space group: P -1
;
_chemical_formula_sum "Si O2"
_cell_formula_units_Z 16
_cell_length_a 16.789656
_cell_length_b 6.744193
_cell_length_c 8.835842
_cell_angle_alpha 63.616058
_cell_angle_beta 77.141319
_cell_angle_gamma 53.343259
_cell_volume 717.753661
_symmetry_space_group_name_H-M "P -1"
_symmetry_group_IT_number 2
_symmetry_cell_setting 'triclinic'
loop_
_space_group_symop_operation_xyz
x,y,z
-x,-y,-z
loop_
_atom_site_type_symbol
_atom_site_label
_atom_site_fract_x
_atom_site_fract_y
_atom_site_fract_z
Si Si1 0.722656 0.297288 0.864581
Si Si2 0.834628 0.303154 0.302087
Si Si3 0.092153 0.248549 0.622327
Si Si4 0.892789 0.681991 0.060870
Si Si5 0.432129 0.151796 0.668216
Si Si6 0.641518 0.482882 0.169734
Si Si7 0.471675 0.397167 0.312197
Si Si8 0.235567 0.395203 0.484837
O O1 0.630438 0.332306 0.796778
O O2 0.753465 0.482358 0.713934
O O3 0.686312 0.424499 0.003454
O O4 0.813831 0.981734 0.924874
O O5 0.844607 0.511675 0.128162
O O6 0.733980 0.323202 0.299207
O O7 0.840585 0.353248 0.459602
O O8 0.918277 0.993312 0.335857
O O9 0.086037 0.274067 0.794843
O O10 0.191089 0.221403 0.527203
O O11 0.000000 0.500000 0.500000
O O12 0.000000 0.500000 0.000000
O O13 0.417176 0.213767 0.834728
O O14 0.463518 0.336916 0.512324
O O15 0.335647 0.204813 0.604284
O O16 0.519053 0.838926 0.715902
O O17 0.568317 0.390502 0.243255
#
# Coordination Sequence:
#
# PCOD8012978 Si02
#       8
#     2   2   2   2   2   2   2   2
#     4  11  24  43  62 101 134 173 214 275 330 378
#     4  10  23  44  67  92 125 177 215 263 328 393
#     4  11  24  42  69  95 119 169 226 271 325 394
#     4  11  27  46  67  92 137 172 212 280 333 380
#     4   9  20  39  66  93 129 181 212 256 325 384
#     4  11  21  39  65  93 135 167 214 263 320 387
#     4  10  21  40  64  95 135 170 217 263 318 393
#     4   9  22  42  64  93 135 166 216 268 318 391
#
# _framework density 22.291772000000002
#
# number of rings (size 3 to 8) (size 9 to 14) (size 15 to 20)
#    0.000    1.750    1.250    1.500    7.000    3.000 
#    2.250    0.000    0.000    0.000    0.000    0.000 
#    0.000    0.000    0.000    0.000    0.000    0.000 
#
# Total GULP energy -198235.109977 kJ/mol
# GULP energy per Si atom -12389.694374 kJ/mol
# Density = 2.224103 g / cm^3
# Si number density = 22.291772 Si / 1000 Ang^3
#
#
#
# Elastic Constant Matrix: (Units=GPa)
#
#
# Indices 1 2 3 4 5 6 
#
# 1 86.8231 30.3291 41.4419 -3.2545 -12.0535 -8.0540
# 2 30.3291 116.8375 49.0987 -6.3037 -7.7108 -9.6314
# 3 41.4419 49.0987 87.7363 -0.6252 -10.0821 -7.2116
# 4 -3.2545 -6.3037 -0.6252 29.9955 -13.3587 -2.4684
# 5 -12.0535 -7.7108 -10.0821 -13.3587 32.1330 -1.0434
# 6 -8.0540 -9.6314 -7.2116 -2.4684 -1.0434 31.3287
#
#
#
# Elastic Compliance Matrix: (Units=1/GPa)
#
#
# Indices 1 2 3 4 5 6 
#
# 1 0.015958 -0.000670 -0.006227 0.004264 0.005741 0.002990
# 2 -0.000670 0.011682 -0.005733 0.003479 0.002279 0.002449
# 3 -0.006227 -0.005733 0.017783 -0.000746 0.001582 0.000724
# 4 0.004264 0.003479 -0.000746 0.044296 0.020816 0.006178
# 5 0.005741 0.002279 0.001582 0.020816 0.043154 0.005618
# 6 0.002990 0.002449 0.000724 0.006178 0.005618 0.034282
#
#
# Mechanical properties :
#
#
# Convention : Reuss Voigt Hill
#
# Bulk Modulus (GPa) = 49.59431 59.23737 54.41584
# Shear Modulus (GPa) = 25.10850 30.05990 27.58420
#
# Velocity S-wave (km/s) = 3.35977 3.67614 3.52151
# Velocity P-wave (km/s) = 6.11120 6.68207 6.40300
#
# Compressibility (1/GPa) = 0.02016360
#
# Stress axis : x y z
#
# Youngs Moduli (GPa) = 62.66367 85.60121 56.23317
#
# Poissons Ratio (x) = 0.05739 0.35015
# Poissons Ratio (y) = 0.04201 0.32237
# Poissons Ratio (z) = 0.39019 0.49073
#
# Static dielectric constant tensor:
#      x y z
#    x 4.557330 0.126950 -0.154580 
#    y 0.126950 4.433030 0.089980 
#    z -0.154580 0.089980 3.842730 
# 
# 
# High freq. dielectric constant tensor:
#      x y z
#    x 1.879980 -0.006740 -0.006560 
#    y -0.006740 1.885470 0.004250 
#    z -0.006560 0.004250 1.864000 
# 
# From -- ./inp_files/323321.got.cif
#   From: 2010.06.25/outbox.cif.g09.slc.cpg/sg2_162_cif.got.tgz:323321.got - 2010.06.27 13:26:56.
