data_PCOD8012645
_publ_section_title
;
Structure prediction by ZEFSAII (Michael W. Deem and Ramdas Pophale) SiO2 
 PCOD8012645
Probable space group: P -1
;
_chemical_formula_sum "Si O2"
_cell_formula_units_Z 14
_cell_length_a 8.421608
_cell_length_b 8.622539
_cell_length_c 22.317815
_cell_angle_alpha 43.118574
_cell_angle_beta 41.691697
_cell_angle_gamma 73.693558
_cell_volume 599.464664
_symmetry_space_group_name_H-M "P -1"
_symmetry_group_IT_number 2
_symmetry_cell_setting 'triclinic'
loop_
_space_group_symop_operation_xyz
x,y,z
-x,-y,-z
loop_
_atom_site_type_symbol
_atom_site_label
_atom_site_fract_x
_atom_site_fract_y
_atom_site_fract_z
Si Si1 0.526382 0.304393 0.264645
Si Si2 0.654599 0.128695 0.659642
Si Si3 0.759226 0.474357 0.796084
Si Si4 0.169280 0.058929 0.553677
Si Si5 0.070283 0.900806 0.947760
Si Si6 0.156579 0.970954 0.140408
Si Si7 0.730525 0.656796 0.442978
O O1 0.329233 0.393523 0.266643
O O2 0.391957 0.184561 0.400864
O O3 0.512232 0.069869 0.294959
O O4 0.866209 0.564930 0.099982
O O5 0.793884 0.447244 0.513705
O O6 0.918956 0.114215 0.608932
O O7 0.413224 0.019880 0.812252
O O8 0.873592 0.316664 0.775061
O O9 0.483081 0.247435 0.978192
O O10 0.010870 0.725912 0.695471
O O11 0.362643 0.216710 0.514156
O O12 0.005088 0.016709 0.875227
O O13 0.000000 0.000000 0.000000
O O14 0.007885 0.935808 0.255847
O O15 0.500000 0.500000 0.500000
#
# Coordination Sequence:
#
# PCOD8012645 Si02
#       7
#     2   2   2   2   2   2   2
#     4  10  21  40  67  94 127 166 216 264 315 377
#     4  11  22  42  67  93 128 168 214 265 315 377
#     4   9  20  40  66  92 124 164 215 265 315 373
#     4  11  23  41  69  97 123 171 220 261 311 386
#     4  11  23  40  62  94 129 169 213 256 320 387
#     4  10  21  40  62  89 131 167 204 266 322 371
#     4  12  24  40  61  92 134 165 209 262 321 375
#
# _framework density 23.354168999999999
#
# number of rings (size 3 to 8) (size 9 to 14) (size 15 to 20)
#    0.000    1.429    1.429    5.143    0.000    4.000 
#    2.571    1.429    0.000    0.000    0.000    0.000 
#    0.000    0.000    0.000    0.000    0.000    0.000 
#
# Total GULP energy -173566.420582 kJ/mol
# GULP energy per Si atom -12397.601470 kJ/mol
# Density = 2.330101 g / cm^3
# Si number density = 23.354169 Si / 1000 Ang^3
#
#
#
# Elastic Constant Matrix: (Units=GPa)
#
#
# Indices 1 2 3 4 5 6 
#
# 1 35.6302 22.5965 29.2447 0.9766 3.3777 18.0933
# 2 22.5965 95.9123 56.2243 3.1550 24.1370 33.4312
# 3 29.2447 56.2243 144.0626 2.1591 15.1767 21.2101
# 4 0.9766 3.1550 2.1591 55.0392 -0.2533 -3.1392
# 5 3.3777 24.1370 15.1767 -0.2533 23.4349 2.7967
# 6 18.0933 33.4312 21.2101 -3.1392 2.7967 43.4038
#
#
#
# Elastic Compliance Matrix: (Units=1/GPa)
#
#
# Indices 1 2 3 4 5 6 
#
# 1 0.040334 -0.002180 -0.005637 -0.001079 0.001570 -0.012559
# 2 -0.002180 0.023256 -0.004582 -0.001983 -0.019060 -0.013680
# 3 -0.005637 -0.004582 0.009804 0.000039 -0.000955 0.001152
# 4 -0.001079 -0.001983 0.000039 0.018490 0.001994 0.003166
# 5 0.001570 -0.019060 -0.000955 0.001994 0.061442 0.010678
# 6 -0.012559 -0.013680 0.001152 0.003166 0.010678 0.037789
#
#
# Mechanical properties :
#
#
# Convention : Reuss Voigt Hill
#
# Bulk Modulus (GPa) = 20.57792 54.63734 37.60763
# Shear Modulus (GPa) = 21.54140 35.54490 28.54315
#
# Velocity S-wave (km/s) = 3.04036 3.90551 3.49977
# Velocity P-wave (km/s) = 4.59951 6.61689 5.69819
#
# Compressibility (1/GPa) = 0.04859577
#
# Stress axis : x y z
#
# Youngs Moduli (GPa) = 24.79320 43.00001 101.99581
#
# Poissons Ratio (x) = 0.09374 0.57496
# Poissons Ratio (y) = 0.05405 0.46734
# Poissons Ratio (z) = 0.13976 0.19702
#
# Static dielectric constant tensor:
#      x y z
#    x 4.067180 0.263670 0.114830 
#    y 0.263670 4.700600 0.237410 
#    z 0.114830 0.237410 5.048810 
# 
# 
# High freq. dielectric constant tensor:
#      x y z
#    x 1.900290 0.007290 0.000550 
#    y 0.007290 1.930990 -0.005330 
#    z 0.000550 -0.005330 1.945630 
# 
# From -- ./inp_files/174902.got.cif
#   From: 2010.06.25/outbox.cif.g09.slc.cpg/sg2_88_cif.got.tgz:174902.got - 2010.06.27 13:26:56.
