data_PCOD8012008
_publ_section_title
;
Structure prediction by ZEFSAII (Michael W. Deem and Ramdas Pophale) SiO2 
 PCOD8012008
Probable space group: P -1
;
_chemical_formula_sum "Si O2"
_cell_formula_units_Z 14
_cell_length_a 15.091802
_cell_length_b 8.989892
_cell_length_c 14.865879
_cell_angle_alpha 51.456814
_cell_angle_beta 28.430130
_cell_angle_gamma 70.711608
_cell_volume 609.399729
_symmetry_space_group_name_H-M "P -1"
_symmetry_group_IT_number 2
_symmetry_cell_setting 'triclinic'
loop_
_space_group_symop_operation_xyz
x,y,z
-x,-y,-z
loop_
_atom_site_type_symbol
_atom_site_label
_atom_site_fract_x
_atom_site_fract_y
_atom_site_fract_z
Si Si1 0.731755 0.158390 0.789077
Si Si2 0.180230 0.143482 0.629628
Si Si3 0.681281 0.437535 0.123826
Si Si4 0.923059 0.529500 0.340417
Si Si5 0.223582 0.751544 0.730456
Si Si6 0.618322 0.085921 0.667523
Si Si7 0.002858 0.972457 0.659759
O O1 0.862450 0.424138 0.536714
O O2 0.906219 0.086632 0.642426
O O3 0.500000 0.000000 0.000000
O O4 0.643080 0.109429 0.991077
O O5 0.451403 0.352836 0.308353
O O6 0.062090 0.232157 0.764872
O O7 0.140911 0.903866 0.789377
O O8 0.074616 0.104833 0.640280
O O9 0.626341 0.272304 0.321919
O O10 0.835738 0.412252 0.926089
O O11 0.801808 0.698316 0.955254
O O12 0.723850 0.340360 0.521042
O O13 0.378980 0.889750 0.452003
O O14 0.000000 0.500000 0.000000
O O15 0.776835 0.002003 0.589805
#
# Coordination Sequence:
#
# PCOD8012008 Si02
#       7
#     2   2   2   2   2   2   2
#     4  10  21  39  65  96 126 165 211 257 315 371
#     4  11  24  40  66  98 124 167 214 253 320 374
#     4  11  22  43  66  91 131 167 208 257 315 371
#     4  10  22  39  62  96 130 158 213 266 305 373
#     4  11  20  44  67  89 129 170 206 261 313 372
#     4   9  20  40  66  91 129 168 210 253 316 373
#     4  10  22  41  65  90 130 169 206 257 309 377
#
# _framework density 22.973426
#
# number of rings (size 3 to 8) (size 9 to 14) (size 15 to 20)
#    0.000    1.714    4.286    2.143    0.000    9.714 
#    0.000    9.286    0.000    0.000    0.000    0.000 
#    0.000    0.000    0.000    0.000    0.000    0.000 
#
# Total GULP energy -173515.905137 kJ/mol
# GULP energy per Si atom -12393.993224 kJ/mol
# Density = 2.292114 g / cm^3
# Si number density = 22.973426 Si / 1000 Ang^3
#
#
#
# Elastic Constant Matrix: (Units=GPa)
#
#
# Indices 1 2 3 4 5 6 
#
# 1 81.2283 38.6060 36.9458 -1.0992 -0.3373 -7.9399
# 2 38.6060 145.9081 29.3934 -5.8569 -9.6399 -5.0947
# 3 36.9458 29.3934 86.6000 10.0527 4.7562 5.6172
# 4 -1.0992 -5.8569 10.0527 23.5701 1.5900 3.1609
# 5 -0.3373 -9.6399 4.7562 1.5900 42.4006 -0.6889
# 6 -7.9399 -5.0947 5.6172 3.1609 -0.6889 30.7624
#
#
#
# Elastic Compliance Matrix: (Units=1/GPa)
#
#
# Indices 1 2 3 4 5 6 
#
# 1 0.017437 -0.002896 -0.007080 0.002415 0.000266 0.005072
# 2 -0.002896 0.008292 -0.002037 0.002554 0.002008 0.000780
# 3 -0.007080 -0.002037 0.016497 -0.007123 -0.002176 -0.004494
# 4 0.002415 0.002554 -0.007123 0.046566 -0.000387 -0.002446
# 5 0.000266 0.002008 -0.002176 -0.000387 0.024324 0.001383
# 6 0.005072 0.000780 -0.004494 -0.002446 0.001383 0.035048
#
#
# Mechanical properties :
#
#
# Convention : Reuss Voigt Hill
#
# Bulk Modulus (GPa) = 54.94030 58.18073 56.56052
# Shear Modulus (GPa) = 28.04926 33.26603 30.65765
#
# Velocity S-wave (km/s) = 3.49799 3.80942 3.65702
# Velocity P-wave (km/s) = 6.34675 6.68798 6.51960
#
# Compressibility (1/GPa) = 0.01820157
#
# Stress axis : x y z
#
# Youngs Moduli (GPa) = 57.34869 120.59093 60.61692
#
# Poissons Ratio (x) = 0.34920 0.42918
# Poissons Ratio (y) = 0.16607 0.12345
# Poissons Ratio (z) = 0.40604 0.24559
#
# Static dielectric constant tensor:
#      x y z
#    x 4.289500 -0.002540 0.227600 
#    y -0.002540 4.269100 0.096830 
#    z 0.227600 0.096830 4.241970 
# 
# 
# High freq. dielectric constant tensor:
#      x y z
#    x 1.902830 -0.003060 -0.005880 
#    y -0.003060 1.913520 -0.002620 
#    z -0.005880 -0.002620 1.887890 
# 
# From -- ./inp_files/529361.got.cif
#   From: 2010.06.25/outbox.cif.g09.slc.cpg/sg2_265_cif.got.tgz:529361.got - 2010.06.27 13:26:56.
