data_PCOD8012423
_publ_section_title
;
Structure prediction by ZEFSAII (Michael W. Deem and Ramdas Pophale) SiO2 
 PCOD8012423
Probable space group: P -1
;
_chemical_formula_sum "Si O2"
_cell_formula_units_Z 14
_cell_length_a 4.999018
_cell_length_b 8.645841
_cell_length_c 16.511345
_cell_angle_alpha 77.792472
_cell_angle_beta 119.847571
_cell_angle_gamma 85.552355
_cell_volume 590.744344
_symmetry_space_group_name_H-M "P -1"
_symmetry_group_IT_number 2
_symmetry_cell_setting 'triclinic'
loop_
_space_group_symop_operation_xyz
x,y,z
-x,-y,-z
loop_
_atom_site_type_symbol
_atom_site_label
_atom_site_fract_x
_atom_site_fract_y
_atom_site_fract_z
Si Si1 0.639390 0.934757 0.292756
Si Si2 0.701984 0.972010 0.613799
Si Si3 0.994689 0.633698 0.759057
Si Si4 0.503490 0.679737 0.997912
Si Si5 0.336597 0.270118 0.147426
Si Si6 0.135915 0.995307 0.932989
Si Si7 0.856517 0.720217 0.203245
O O1 0.478524 0.905838 0.357206
O O2 0.394595 0.076433 0.193533
O O3 0.962046 0.987992 0.357138
O O4 0.706905 0.779311 0.261160
O O5 0.737681 0.783429 0.666071
O O6 0.500000 0.000000 0.500000
O O7 0.925387 0.621669 0.846204
O O8 0.344340 0.662949 0.796375
O O9 0.938237 0.462796 0.731613
O O10 0.592412 0.695000 0.102485
O O11 0.500000 0.500000 0.000000
O O12 0.752670 0.715911 0.963441
O O13 0.164205 0.813330 0.917787
O O14 0.976098 0.141358 0.829314
O O15 0.500000 0.000000 0.000000
O O16 0.000000 0.000000 0.000000
#
# Coordination Sequence:
#
# PCOD8012423 Si02
#       7
#     2   2   2   2   2   2   2
#     4  10  22  40  66  92 124 156 197 255 311 361
#     4  10  22  45  70  92 117 155 200 249 316 392
#     4  10  23  38  63  88 122 157 207 250 307 355
#     4  11  22  39  60  85 125 173 218 241 286 348
#     4  10  21  40  55  88 120 168 210 247 285 355
#     4  10  24  39  55  82 117 164 209 253 292 333
#     4  11  23  40  59  92 130 164 206 257 300 346
#
# _framework density 23.698913999999998
#
# number of rings (size 3 to 8) (size 9 to 14) (size 15 to 20)
#    0.000    1.714    2.857    0.429    2.000    6.286 
#    0.000    1.429    0.000    0.000    0.000    0.000 
#    0.000    0.000    0.000    0.000    0.000    0.000 
#
# Total GULP energy -173455.594456 kJ/mol
# GULP energy per Si atom -12389.685318 kJ/mol
# Density = 2.364497 g / cm^3
# Si number density = 23.698914 Si / 1000 Ang^3
#
#
#
# Elastic Constant Matrix: (Units=GPa)
#
#
# Indices 1 2 3 4 5 6 
#
# 1 75.8734 29.3428 8.2862 1.9503 -21.6942 -18.5536
# 2 29.3428 202.0443 34.3146 7.9476 -14.1998 -9.6750
# 3 8.2862 34.3146 114.9209 7.6413 -10.7805 -13.8299
# 4 1.9503 7.9476 7.6413 29.0701 -5.6054 -7.8939
# 5 -21.6942 -14.1998 -10.7805 -5.6054 32.4663 4.0096
# 6 -18.5536 -9.6750 -13.8299 -7.8939 4.0096 31.9914
#
#
#
# Elastic Compliance Matrix: (Units=1/GPa)
#
#
# Indices 1 2 3 4 5 6 
#
# 1 0.019850 -0.001885 0.001327 0.004186 0.012243 0.011014
# 2 -0.001885 0.005529 -0.001440 -0.000998 0.000552 -0.000359
# 3 0.001327 -0.001440 0.009840 -0.000614 0.002916 0.004071
# 4 0.004186 -0.000998 -0.000614 0.038864 0.007570 0.010502
# 5 0.012243 0.000552 0.002916 0.007570 0.040847 0.005276
# 6 0.011014 -0.000359 0.004071 0.010502 0.005276 0.041228
#
#
# Mechanical properties :
#
#
# Convention : Reuss Voigt Hill
#
# Bulk Modulus (GPa) = 32.02724 59.63621 45.83173
# Shear Modulus (GPa) = 29.31499 40.09858 34.70678
#
# Velocity S-wave (km/s) = 3.52088 4.11786 3.83102
# Velocity P-wave (km/s) = 5.48383 6.91576 6.24100
#
# Compressibility (1/GPa) = 0.03122342
#
# Stress axis : x y z
#
# Youngs Moduli (GPa) = 50.37728 180.87757 101.62396
#
# Poissons Ratio (x) = 0.34097 -0.13488
# Poissons Ratio (y) = 0.09496 0.14633
# Poissons Ratio (z) = -0.06686 0.26046
#
# Static dielectric constant tensor:
#      x y z
#    x 4.638900 0.295670 -0.307400 
#    y 0.295670 5.196260 -0.330130 
#    z -0.307400 -0.330130 3.920040 
# 
# 
# High freq. dielectric constant tensor:
#      x y z
#    x 1.957950 -0.000320 -0.012110 
#    y -0.000320 1.962040 0.012750 
#    z -0.012110 0.012750 1.894660 
# 
# From -- ./inp_files/36176.got.cif
#   From: 2010.06.25/outbox.cif.g09.slc.cpg/sg2_19_cif.got.tgz:36176.got - 2010.06.27 13:26:56.
