data_PCOD8012034
_publ_section_title
;
Structure prediction by ZEFSAII (Michael W. Deem and Ramdas Pophale) SiO2 
 PCOD8012034
Probable space group: P -1
;
_chemical_formula_sum "Si O2"
_cell_formula_units_Z 16
_cell_length_a 10.105282
_cell_length_b 19.786829
_cell_length_c 5.144535
_cell_angle_alpha 99.582770
_cell_angle_beta 114.518188
_cell_angle_gamma 117.842442
_cell_volume 739.932648
_symmetry_space_group_name_H-M "P -1"
_symmetry_group_IT_number 2
_symmetry_cell_setting 'triclinic'
loop_
_space_group_symop_operation_xyz
x,y,z
-x,-y,-z
loop_
_atom_site_type_symbol
_atom_site_label
_atom_site_fract_x
_atom_site_fract_y
_atom_site_fract_z
Si Si1 0.658125 0.597753 0.647180
Si Si2 0.857899 0.819964 0.268911
Si Si3 0.690395 0.091884 0.742880
Si Si4 0.562324 0.655188 0.099786
Si Si5 0.004624 0.382097 0.906760
Si Si6 0.989144 0.917239 0.939422
Si Si7 0.838383 0.451113 0.141008
Si Si8 0.160456 0.796719 0.544801
O O1 0.500000 0.500000 0.500000
O O2 0.626359 0.633464 0.390612
O O3 0.645107 0.641847 0.910465
O O4 0.861489 0.623535 0.798549
O O5 0.661191 0.756039 0.208058
O O6 0.960985 0.897943 0.600096
O O7 0.968497 0.779745 0.334298
O O8 0.839576 0.847374 0.982063
O O9 0.708136 0.149424 0.555009
O O10 0.500000 0.000000 0.500000
O O11 0.732030 0.149103 0.072531
O O12 0.827857 0.067715 0.809494
O O13 0.347732 0.605362 0.887713
O O14 0.890050 0.299401 0.568029
O O15 0.151758 0.473783 0.950675
O O16 0.858455 0.389188 0.938851
O O17 0.000000 0.000000 0.000000
O O18 0.000000 0.500000 0.500000
#
# Coordination Sequence:
#
# PCOD8012034 Si02
#       8
#     2   2   2   2   2   2   2   2
#     4  12  24  40  70  96 124 177 235 280 320 395
#     4  10  21  39  65  99 125 166 217 277 321 388
#     4  10  22  42  67  96 129 165 213 269 331 402
#     4  12  25  43  67  98 132 171 233 285 329 390
#     4  11  25  44  65  98 135 183 234 276 351 398
#     4  10  21  41  66  93 131 165 205 263 342 398
#     4  11  27  45  64  92 148 188 217 289 351 401
#     4  10  22  39  69  96 127 170 221 277 322 392
#
# _framework density 21.623593
#
# number of rings (size 3 to 8) (size 9 to 14) (size 15 to 20)
#    0.000    1.250    2.500    2.625    8.750    0.000 
#    2.250    0.000    0.000    0.000    0.000    0.000 
#    0.000    0.000    0.000    0.000    0.000    0.000 
#
# Total GULP energy -198232.092013 kJ/mol
# GULP energy per Si atom -12389.505751 kJ/mol
# Density = 2.157438 g / cm^3
# Si number density = 21.623593 Si / 1000 Ang^3
#
#
#
# Elastic Constant Matrix: (Units=GPa)
#
#
# Indices 1 2 3 4 5 6 
#
# 1 87.4881 66.4059 49.1232 10.2613 -3.0237 7.9499
# 2 66.4059 111.8446 47.3705 10.8397 -10.6460 8.4819
# 3 49.1232 47.3705 109.7488 1.7008 -10.2017 3.8093
# 4 10.2613 10.8397 1.7008 45.4584 5.2617 -6.5761
# 5 -3.0237 -10.6460 -10.2017 5.2617 39.9327 5.8750
# 6 7.9499 8.4819 3.8093 -6.5761 5.8750 40.7714
#
#
#
# Elastic Compliance Matrix: (Units=1/GPa)
#
#
# Indices 1 2 3 4 5 6 
#
# 1 0.023780 -0.011509 -0.005778 -0.002415 -0.002164 -0.001780
# 2 -0.011509 0.017298 -0.001849 -0.002209 0.003867 -0.002095
# 3 -0.005778 -0.001849 0.012672 0.001050 0.002141 0.000188
# 4 -0.002415 -0.002209 0.001050 0.024334 -0.004505 0.005406
# 5 -0.002164 0.003867 0.002141 -0.004505 0.027833 -0.005320
# 6 -0.001780 -0.002095 0.000188 0.005406 -0.005320 0.026931
#
#
# Mechanical properties :
#
#
# Convention : Reuss Voigt Hill
#
# Bulk Modulus (GPa) = 64.60328 70.54230 67.57279
# Shear Modulus (GPa) = 28.36411 34.97795 31.67103
#
# Velocity S-wave (km/s) = 3.62570 4.02628 3.83123
# Velocity P-wave (km/s) = 6.88976 7.36941 7.13362
#
# Compressibility (1/GPa) = 0.01547909
#
# Stress axis : x y z
#
# Youngs Moduli (GPa) = 42.05180 57.80990 78.91276
#
# Poissons Ratio (x) = 0.66531 0.45599
# Poissons Ratio (y) = 0.48396 0.14588
# Poissons Ratio (z) = 0.24299 0.10687
#
# Static dielectric constant tensor:
#      x y z
#    x 4.444380 0.516700 -0.684690 
#    y 0.516700 4.173350 -0.396950 
#    z -0.684690 -0.396950 3.784280 
# 
# 
# High freq. dielectric constant tensor:
#      x y z
#    x 1.838330 0.009630 -0.013250 
#    y 0.009630 1.856580 0.007330 
#    z -0.013250 0.007330 1.856810 
# 
# From -- ./inp_files/48671.got.cif
#   From: 2010.06.25/outbox.cif.g09.slc.cpg/sg2_25_cif.got.tgz:48671.got - 2010.06.27 13:26:56.
