data_PCOD8012285
_publ_section_title
;
Structure prediction by ZEFSAII (Michael W. Deem and Ramdas Pophale) SiO2 
 PCOD8012285
Probable space group: P -1
;
_chemical_formula_sum "Si O2"
_cell_formula_units_Z 16
_cell_length_a 8.388821
_cell_length_b 20.151602
_cell_length_c 11.572417
_cell_angle_alpha 40.768920
_cell_angle_beta 36.417065
_cell_angle_gamma 56.640559
_cell_volume 749.382493
_symmetry_space_group_name_H-M "P -1"
_symmetry_group_IT_number 2
_symmetry_cell_setting 'triclinic'
loop_
_space_group_symop_operation_xyz
x,y,z
-x,-y,-z
loop_
_atom_site_type_symbol
_atom_site_label
_atom_site_fract_x
_atom_site_fract_y
_atom_site_fract_z
Si Si1 0.185415 0.412519 0.513778
Si Si2 0.014560 0.870439 0.368723
Si Si3 0.250711 0.452124 0.964141
Si Si4 0.148625 0.255066 0.148476
Si Si5 0.148264 0.955168 0.643531
Si Si6 0.846767 0.271909 0.072059
Si Si7 0.740246 0.679195 0.652073
Si Si8 0.605111 0.918992 0.868437
O O1 0.162847 0.348409 0.493533
O O2 0.000000 0.500000 0.500000
O O3 0.090678 0.334734 0.774831
O O4 0.493366 0.459438 0.299192
O O5 0.020175 0.809993 0.566077
O O6 0.882456 0.794534 0.445749
O O7 0.837072 0.964207 0.364254
O O8 0.318293 0.918790 0.095510
O O9 0.308787 0.361673 0.963201
O O10 0.179409 0.405474 0.194344
O O11 0.000000 0.500000 0.000000
O O12 0.377229 0.194162 0.043783
O O13 0.928423 0.272470 0.157782
O O14 0.840904 0.948120 0.785809
O O15 0.361784 0.997078 0.363800
O O16 0.212110 0.844115 0.791719
O O17 0.583677 0.326915 0.141661
#
# Coordination Sequence:
#
# PCOD8012285 Si02
#       8
#     2   2   2   2   2   2   2   2
#     4  12  27  44  69  91 130 183 214 262 338 391
#     4  10  21  39  68  95 131 166 213 266 319 385
#     4  11  24  44  70  95 127 166 223 282 320 381
#     4   9  22  39  64  98 127 165 215 271 318 373
#     4   9  20  37  62  96 127 171 207 265 319 377
#     4  11  24  44  65  94 137 170 218 264 324 394
#     4  11  26  44  63  95 132 170 212 275 327 384
#     4   9  18  36  63  94 133 162 209 264 321 382
#
# _framework density 21.350912999999998
#
# number of rings (size 3 to 8) (size 9 to 14) (size 15 to 20)
#    0.000    1.750    1.250    2.250    3.500    9.000 
#    0.000    1.250    0.000    0.000    0.000    0.000 
#    0.000    0.000    0.000    0.000    0.000    0.000 
#
# Total GULP energy -198459.961745 kJ/mol
# GULP energy per Si atom -12403.747609 kJ/mol
# Density = 2.130232 g / cm^3
# Si number density = 21.350913 Si / 1000 Ang^3
#
#
#
# Elastic Constant Matrix: (Units=GPa)
#
#
# Indices 1 2 3 4 5 6 
#
# 1 81.7370 38.0831 27.4744 -1.4139 2.8253 12.4209
# 2 38.0831 110.5977 37.7737 -6.7938 14.0247 18.7086
# 3 27.4744 37.7737 99.3455 2.3736 8.8682 10.2410
# 4 -1.4139 -6.7938 2.3736 34.2275 -2.1796 -1.2104
# 5 2.8253 14.0247 8.8682 -2.1796 17.1922 -2.2645
# 6 12.4209 18.7086 10.2410 -1.2104 -2.2645 41.9215
#
#
#
# Elastic Compliance Matrix: (Units=1/GPa)
#
#
# Indices 1 2 3 4 5 6 
#
# 1 0.015341 -0.004353 -0.002586 0.000018 0.002122 -0.001856
# 2 -0.004353 0.013522 -0.002688 0.001939 -0.009280 -0.004533
# 3 -0.002586 -0.002688 0.012355 -0.001809 -0.004160 -0.001329
# 4 0.000018 0.001939 -0.001809 0.029954 0.003226 0.000610
# 5 0.002122 -0.009280 -0.004160 0.003226 0.069042 0.008351
# 6 -0.001856 -0.004533 -0.001329 0.000610 0.008351 0.027220
#
#
# Mechanical properties :
#
#
# Convention : Reuss Voigt Hill
#
# Bulk Modulus (GPa) = 45.53197 55.37140 50.45168
# Shear Modulus (GPa) = 25.77202 31.22484 28.49843
#
# Velocity S-wave (km/s) = 3.47806 3.82836 3.65741
# Velocity P-wave (km/s) = 6.12381 6.74775 6.44333
#
# Compressibility (1/GPa) = 0.02196259
#
# Stress axis : x y z
#
# Youngs Moduli (GPa) = 65.18549 73.95607 80.94132
#
# Poissons Ratio (x) = 0.32195 0.20931
# Poissons Ratio (y) = 0.28377 0.21757
# Poissons Ratio (z) = 0.16856 0.19879
#
# Static dielectric constant tensor:
#      x y z
#    x 3.787660 0.264800 0.000870 
#    y 0.264800 4.162460 -0.219600 
#    z 0.000870 -0.219600 4.181450 
# 
# 
# High freq. dielectric constant tensor:
#      x y z
#    x 1.830640 0.013580 0.000030 
#    y 0.013580 1.851920 -0.009670 
#    z 0.000030 -0.009670 1.834600 
# 
# From -- ./inp_files/127434.got.cif
#   From: 2010.06.25/outbox.cif.g09.slc.cpg/sg2_64_cif.got.tgz:127434.got - 2010.06.27 13:26:56.
