data_PCOD8012446
_publ_section_title
;
Structure prediction by ZEFSAII (Michael W. Deem and Ramdas Pophale) SiO2 
 PCOD8012446
Probable space group: P -1
;
_chemical_formula_sum "Si O2"
_cell_formula_units_Z 16
_cell_length_a 8.341948
_cell_length_b 12.620711
_cell_length_c 16.405781
_cell_angle_alpha 152.701646
_cell_angle_beta 87.430550
_cell_angle_gamma 85.957561
_cell_volume 768.060410
_symmetry_space_group_name_H-M "P -1"
_symmetry_group_IT_number 2
_symmetry_cell_setting 'triclinic'
loop_
_space_group_symop_operation_xyz
x,y,z
-x,-y,-z
loop_
_atom_site_type_symbol
_atom_site_label
_atom_site_fract_x
_atom_site_fract_y
_atom_site_fract_z
Si Si1 0.045918 0.857818 0.166224
Si Si2 0.644580 0.660356 0.758673
Si Si3 0.718577 0.715039 0.048419
Si Si4 0.347468 0.928447 0.844741
Si Si5 0.891182 0.323149 0.407092
Si Si6 0.302930 0.404850 0.853628
Si Si7 0.401059 0.629680 0.293619
Si Si8 0.106454 0.051288 0.604375
O O1 0.910453 0.708139 0.047886
O O2 0.010560 0.967197 0.330672
O O3 0.026244 0.080134 0.258455
O O4 0.232037 0.691537 0.046578
O O5 0.523819 0.774298 0.765885
O O6 0.786571 0.448746 0.573068
O O7 0.544455 0.541465 0.746236
O O8 0.717876 0.863226 0.942919
O O9 0.634882 0.693952 0.124581
O O10 0.627230 0.952901 0.162697
O O11 0.712490 0.481130 0.839302
O O12 0.224951 0.751058 0.711955
O O13 0.000000 0.500000 0.500000
O O14 0.443109 0.327610 0.729960
O O15 0.144279 0.307543 0.766579
O O16 0.287920 0.878902 0.495523
O O17 0.000000 0.000000 0.500000
#
# Coordination Sequence:
#
# PCOD8012446 Si02
#       8
#     2   2   2   2   2   2   2   2
#     4  10  21  40  59  84 120 163 203 246 311 377
#     4  10  21  42  63  91 127 167 212 257 325 377
#     4   9  19  37  63  85 119 166 200 248 311 376
#     4   9  21  40  67  90 123 171 205 262 324 375
#     4  11  23  41  64  93 125 163 218 264 312 377
#     4  11  22  37  60  93 122 159 209 250 307 376
#     4  11  21  37  60  91 126 156 204 264 306 368
#     4  11  21  38  59  85 125 163 198 248 313 369
#
# _framework density 20.831693999999999
#
# number of rings (size 3 to 8) (size 9 to 14) (size 15 to 20)
#    0.000    1.750    1.250    4.125    0.000    3.500 
#    2.250    0.000    0.000    0.000    0.000    0.000 
#    0.000    0.000    0.000    0.000    0.000    0.000 
#
# Total GULP energy -198264.934084 kJ/mol
# GULP energy per Si atom -12391.558380 kJ/mol
# Density = 2.078428 g / cm^3
# Si number density = 20.831694 Si / 1000 Ang^3
#
#
#
# Elastic Constant Matrix: (Units=GPa)
#
#
# Indices 1 2 3 4 5 6 
#
# 1 54.1610 46.5360 27.9784 0.3907 8.9892 -4.3929
# 2 46.5360 111.2219 31.1694 1.0025 3.5796 -8.0630
# 3 27.9784 31.1694 89.8162 1.6135 2.4714 -7.6852
# 4 0.3907 1.0025 1.6135 30.5367 -4.0943 1.7107
# 5 8.9892 3.5796 2.4714 -4.0943 40.2846 -0.1337
# 6 -4.3929 -8.0630 -7.6852 1.7107 -0.1337 34.0016
#
#
#
# Elastic Compliance Matrix: (Units=1/GPa)
#
#
# Indices 1 2 3 4 5 6 
#
# 1 0.032646 -0.011806 -0.005892 -0.000518 -0.005926 0.000089
# 2 -0.011806 0.014339 -0.001196 -0.000156 0.001423 0.001618
# 3 -0.005892 -0.001196 0.013557 -0.000646 0.000531 0.002054
# 4 -0.000518 -0.000156 -0.000646 0.033377 0.003555 -0.001915
# 5 -0.005926 0.001423 0.000531 0.003555 0.026347 -0.000384
# 6 0.000089 0.001618 0.002054 -0.001915 -0.000384 0.030365
#
#
# Mechanical properties :
#
#
# Convention : Reuss Voigt Hill
#
# Bulk Modulus (GPa) = 43.95097 51.84074 47.89586
# Shear Modulus (GPa) = 25.50962 30.93227 28.22094
#
# Velocity S-wave (km/s) = 3.50316 3.85758 3.68463
# Velocity P-wave (km/s) = 6.12428 6.69184 6.41434
#
# Compressibility (1/GPa) = 0.02275263
#
# Stress axis : x y z
#
# Youngs Moduli (GPa) = 30.63176 69.74005 73.76127
#
# Poissons Ratio (x) = 0.82336 0.43462
# Poissons Ratio (y) = 0.36164 0.08824
# Poissons Ratio (z) = 0.18049 0.08343
#
# Static dielectric constant tensor:
#      x y z
#    x 3.433070 -0.153980 0.176640 
#    y -0.153980 2.807950 -0.974410 
#    z 0.176640 -0.974410 3.430160 
# 
# 
# High freq. dielectric constant tensor:
#      x y z
#    x 1.788150 -0.012650 0.011710 
#    y -0.012650 1.819220 0.006910 
#    z 0.011710 0.006910 1.830420 
# 
# From -- ./inp_files/273416.got.cif
#   From: 2010.06.25/outbox.cif.g09.slc.cpg/sg2_137_cif.got.tgz:273416.got - 2010.06.27 13:26:56.
