data_PCOD8012567
_publ_section_title
;
Structure prediction by ZEFSAII (Michael W. Deem and Ramdas Pophale) SiO2 
 PCOD8012567
Probable space group: P -1
;
_chemical_formula_sum "Si O2"
_cell_formula_units_Z 16
_cell_length_a 15.922793
_cell_length_b 24.589620
_cell_length_c 15.277834
_cell_angle_alpha 154.132302
_cell_angle_beta 150.685000
_cell_angle_gamma 17.888801
_cell_volume 796.187028
_symmetry_space_group_name_H-M "P -1"
_symmetry_group_IT_number 2
_symmetry_cell_setting 'triclinic'
loop_
_space_group_symop_operation_xyz
x,y,z
-x,-y,-z
loop_
_atom_site_type_symbol
_atom_site_label
_atom_site_fract_x
_atom_site_fract_y
_atom_site_fract_z
Si Si1 0.207161 0.388025 0.148839
Si Si2 0.086330 0.689444 0.945586
Si Si3 0.131223 0.433517 0.344475
Si Si4 0.729153 0.088968 0.101963
Si Si5 0.281529 0.198902 0.781091
Si Si6 0.547870 0.871149 0.431752
Si Si7 0.155278 0.884150 0.061638
Si Si8 0.598831 0.509251 0.229911
O O1 0.217787 0.346481 0.199212
O O2 0.494635 0.294071 0.243971
O O3 0.949247 0.624426 0.240855
O O4 0.175802 0.279028 0.901990
O O5 0.283372 0.529524 0.815538
O O6 0.920980 0.665357 0.796715
O O7 0.280086 0.646924 0.132685
O O8 0.858393 0.914835 0.032634
O O9 0.377038 0.375513 0.526816
O O10 0.867297 0.673915 0.457408
O O11 0.565090 0.117387 0.912620
O O12 0.964167 0.036586 0.191969
O O13 0.374546 0.007995 0.559941
O O14 0.438235 0.799197 0.198067
O O15 0.500000 0.000000 0.500000
O O16 0.223477 0.699537 0.863703
O O17 0.000000 0.000000 0.000000
#
# Coordination Sequence:
#
# PCOD8012567 Si02
#       8
#     2   2   2   2   2   2   2   2
#     4   9  21  39  64  86 126 165 200 250 316 374
#     4  10  21  40  61  90 128 164 207 259 302 366
#     4  12  22  38  68  96 121 166 208 254 310 370
#     4   9  20  41  59  82 127 164 199 250 310 362
#     4   9  19  39  61  85 121 164 195 256 310 366
#     4  12  21  35  62  96 117 154 212 254 308 367
#     4  11  22  35  60  93 125 158 201 265 310 361
#     4  10  22  40  58  94 131 157 205 262 313 351
#
# _framework density 20.095780000000001
#
# number of rings (size 3 to 8) (size 9 to 14) (size 15 to 20)
#    0.750    1.000    2.500    3.375    0.000    0.500 
#    0.000    2.500    0.000    0.000    0.000    0.000 
#    0.000    0.000    0.000    0.000    0.000    0.000 
#
# Total GULP energy -198220.657857 kJ/mol
# GULP energy per Si atom -12388.791116 kJ/mol
# Density = 2.005004 g / cm^3
# Si number density = 20.095780 Si / 1000 Ang^3
#
#
#
# Elastic Constant Matrix: (Units=GPa)
#
#
# Indices 1 2 3 4 5 6 
#
# 1 102.8953 20.5141 41.7348 1.4291 2.3343 5.7581
# 2 20.5141 85.1621 12.9810 -6.8832 2.1014 0.1553
# 3 41.7348 12.9810 98.0171 -15.5658 -0.5518 -0.4858
# 4 1.4291 -6.8832 -15.5658 23.6053 -8.0549 -4.3862
# 5 2.3343 2.1014 -0.5518 -8.0549 31.3045 -1.3728
# 6 5.7581 0.1553 -0.4858 -4.3862 -1.3728 20.2738
#
#
#
# Elastic Compliance Matrix: (Units=1/GPa)
#
#
# Indices 1 2 3 4 5 6 
#
# 1 0.013561 -0.002817 -0.006781 -0.008383 -0.003363 -0.006034
# 2 -0.002817 0.012734 0.000253 0.004584 0.000616 0.001742
# 3 -0.006781 0.000253 0.015166 0.012962 0.004327 0.005385
# 4 -0.008383 0.004584 0.012962 0.061822 0.017207 0.017197
# 5 -0.003363 0.000616 0.004327 0.017207 0.036977 0.007281
# 6 -0.006034 0.001742 0.005385 0.017197 0.007281 0.055368
#
#
# Mechanical properties :
#
#
# Convention : Reuss Voigt Hill
#
# Bulk Modulus (GPa) = 43.91480 48.50381 46.20931
# Shear Modulus (GPa) = 22.53186 29.09303 25.81244
#
# Velocity S-wave (km/s) = 3.35210 3.80902 3.58784
# Velocity P-wave (km/s) = 6.07308 6.59799 6.34097
#
# Compressibility (1/GPa) = 0.02277137
#
# Stress axis : x y z
#
# Youngs Moduli (GPa) = 73.74074 78.52760 65.93813
#
# Poissons Ratio (x) = 0.22117 0.44714
# Poissons Ratio (y) = 0.20769 -0.01667
# Poissons Ratio (z) = 0.50005 -0.01986
#
# Static dielectric constant tensor:
#      x y z
#    x 3.566040 -0.069960 -0.119550 
#    y -0.069960 3.758220 -0.182260 
#    z -0.119550 -0.182260 3.475500 
# 
# 
# High freq. dielectric constant tensor:
#      x y z
#    x 1.772920 0.002790 -0.010350 
#    y 0.002790 1.791610 -0.016880 
#    z -0.010350 -0.016880 1.758460 
# 
# From -- ./inp_files/535422.got.cif
#   From: 2010.06.25/outbox.cif.g09.slc.cpg/sg2_268_cif.got.tgz:535422.got - 2010.06.27 13:26:56.
