data_PCOD8012312
_publ_section_title
;
Structure prediction by ZEFSAII (Michael W. Deem and Ramdas Pophale) SiO2 
 PCOD8012312
Probable space group: P -1
;
_chemical_formula_sum "Si O2"
_cell_formula_units_Z 16
_cell_length_a 13.402186
_cell_length_b 10.973080
_cell_length_c 11.116605
_cell_angle_alpha 128.735816
_cell_angle_beta 114.450831
_cell_angle_gamma 35.690187
_cell_volume 727.832692
_symmetry_space_group_name_H-M "P -1"
_symmetry_group_IT_number 2
_symmetry_cell_setting 'triclinic'
loop_
_space_group_symop_operation_xyz
x,y,z
-x,-y,-z
loop_
_atom_site_type_symbol
_atom_site_label
_atom_site_fract_x
_atom_site_fract_y
_atom_site_fract_z
Si Si1 0.443919 0.779735 0.176514
Si Si2 0.106727 0.282955 0.720703
Si Si3 0.721090 0.688757 0.858553
Si Si4 0.619604 0.348342 0.159111
Si Si5 0.776353 0.513430 0.036373
Si Si6 0.612224 0.099981 0.183386
Si Si7 0.005735 0.967565 0.842996
Si Si8 0.869515 0.783275 0.581054
O O1 0.474961 0.631252 0.215412
O O2 0.625792 0.653032 0.146641
O O3 0.307846 0.057614 0.333756
O O4 0.346365 0.799367 0.031385
O O5 0.106531 0.471029 0.851357
O O6 0.168492 0.166364 0.547977
O O7 0.908278 0.443981 0.742926
O O8 0.236033 0.051490 0.734661
O O9 0.559180 0.787268 0.767308
O O10 0.691578 0.650258 0.952577
O O11 0.690047 0.908226 0.993883
O O12 0.556230 0.324718 0.231363
O O13 0.794070 0.239599 0.224803
O O14 0.889037 0.234609 0.893208
O O15 0.941057 0.870338 0.712454
O O16 0.000000 0.000000 0.000000
O O17 0.000000 0.500000 0.500000
#
# Coordination Sequence:
#
# PCOD8012312 Si02
#       8
#     2   2   2   2   2   2   2   2
#     4  11  23  40  69 102 135 171 227 293 338 395
#     4  11  25  45  64 104 145 181 221 277 352 412
#     4  10  21  39  69 100 138 176 233 281 333 396
#     4  11  21  41  71 103 132 166 238 296 326 391
#     4  11  21  42  74 102 130 175 237 289 326 399
#     4  10  21  39  70 103 129 182 230 287 334 398
#     4  12  21  40  70  97 128 177 231 275 340 397
#     4  12  29  45  64  97 147 182 217 280 355 421
#
# _framework density 21.983073000000001
#
# number of rings (size 3 to 8) (size 9 to 14) (size 15 to 20)
#    0.000    1.000    3.750    4.500    1.750    0.500 
#    2.250    3.125    0.000    0.000    0.000    0.000 
#    0.000    0.000    0.000    0.000    0.000    0.000 
#
# Total GULP energy -198331.495914 kJ/mol
# GULP energy per Si atom -12395.718495 kJ/mol
# Density = 2.193304 g / cm^3
# Si number density = 21.983073 Si / 1000 Ang^3
#
#
#
# Elastic Constant Matrix: (Units=GPa)
#
#
# Indices 1 2 3 4 5 6 
#
# 1 87.8572 42.4264 22.9846 2.4861 3.5559 -3.4057
# 2 42.4264 104.5430 28.1330 13.7181 1.2549 -3.7587
# 3 22.9846 28.1330 74.0096 9.9507 1.7367 -1.0279
# 4 2.4861 13.7181 9.9507 24.0606 -3.1629 2.2792
# 5 3.5559 1.2549 1.7367 -3.1629 29.6386 9.0808
# 6 -3.4057 -3.7587 -1.0279 2.2792 9.0808 49.6097
#
#
#
# Elastic Compliance Matrix: (Units=1/GPa)
#
#
# Indices 1 2 3 4 5 6 
#
# 1 0.014799 -0.005551 -0.002790 0.002555 -0.001306 0.000659
# 2 -0.005551 0.013344 -0.002485 -0.006196 -0.000719 0.000995
# 3 -0.002790 -0.002485 0.016044 -0.005122 -0.001170 0.000402
# 4 0.002555 -0.006196 -0.005122 0.048173 0.006566 -0.003815
# 5 -0.001306 -0.000719 -0.001170 0.006566 0.036910 -0.007226
# 6 0.000659 0.000995 0.000402 -0.003815 -0.007226 0.021784
#
#
# Mechanical properties :
#
#
# Convention : Reuss Voigt Hill
#
# Bulk Modulus (GPa) = 44.37237 50.38865 47.38051
# Shear Modulus (GPa) = 27.74422 32.18617 29.96519
#
# Velocity S-wave (km/s) = 3.55642 3.83055 3.69603
# Velocity P-wave (km/s) = 6.09038 6.52192 6.30984
#
# Compressibility (1/GPa) = 0.02253655
#
# Stress axis : x y z
#
# Youngs Moduli (GPa) = 67.57421 74.93870 62.32690
#
# Poissons Ratio (x) = 0.41598 0.17387
# Poissons Ratio (y) = 0.37510 0.15487
# Poissons Ratio (z) = 0.18850 0.18621
#
# Static dielectric constant tensor:
#      x y z
#    x 4.216940 0.065810 0.224460 
#    y 0.065810 3.820470 -0.222890 
#    z 0.224460 -0.222890 3.761650 
# 
# 
# High freq. dielectric constant tensor:
#      x y z
#    x 1.873640 -0.002940 0.000650 
#    y -0.002940 1.886530 -0.002020 
#    z 0.000650 -0.002020 1.817270 
# 
# From -- ./inp_files/451813.got.cif
#   From: 2010.06.25/outbox.cif.g09.slc.cpg/sg2_226_cif.got.tgz:451813.got - 2010.06.27 13:26:56.
