data_PCOD8012081
_publ_section_title
;
Structure prediction by ZEFSAII (Michael W. Deem and Ramdas Pophale) SiO2 
 PCOD8012081
Probable space group: P -1
;
_chemical_formula_sum "Si O2"
_cell_formula_units_Z 16
_cell_length_a 27.907837
_cell_length_b 5.230551
_cell_length_c 12.608082
_cell_angle_alpha 56.804627
_cell_angle_beta 152.986293
_cell_angle_gamma 123.205485
_cell_volume 690.782824
_symmetry_space_group_name_H-M "P -1"
_symmetry_group_IT_number 2
_symmetry_cell_setting 'triclinic'
loop_
_space_group_symop_operation_xyz
x,y,z
-x,-y,-z
loop_
_atom_site_type_symbol
_atom_site_label
_atom_site_fract_x
_atom_site_fract_y
_atom_site_fract_z
Si Si1 0.926911 0.686620 0.959760
Si Si2 0.566147 0.735185 0.155249
Si Si3 0.591238 0.365045 0.496675
Si Si4 0.883427 0.551047 0.538200
Si Si5 0.174598 0.178296 0.846087
Si Si6 0.791554 0.845230 0.481458
Si Si7 0.591495 0.709714 0.696324
Si Si8 0.189447 0.462105 0.026219
O O1 0.000987 0.417419 0.181871
O O2 0.839724 0.612404 0.710630
O O3 0.863057 0.723800 0.933636
O O4 0.000000 0.000000 0.000000
O O5 0.600275 0.555851 0.364266
O O6 0.670476 0.875141 0.263663
O O7 0.500000 0.500000 0.000000
O O8 0.500000 0.000000 0.000000
O O9 0.468515 0.280680 0.311542
O O10 0.680763 0.542672 0.715585
O O11 0.624341 0.027617 0.622869
O O12 0.896946 0.728475 0.412472
O O13 0.800693 0.699833 0.415400
O O14 0.852116 0.191926 0.530030
O O15 0.294429 0.385866 0.026775
O O16 0.132893 0.282185 0.853672
O O17 0.168913 0.813125 0.909245
O O18 0.500000 0.500000 0.500000
#
# Coordination Sequence:
#
# PCOD8012081 Si02
#       8
#     2   2   2   2   2   2   2   2
#     4  10  24  47  74  99 132 182 233 283 346 408
#     4  12  28  43  66 103 138 183 222 280 347 402
#     4  10  23  42  62  96 134 178 225 275 329 410
#     4  11  25  44  70 100 134 179 228 290 341 394
#     4  11  25  40  66 102 135 175 225 282 341 396
#     4  11  24  46  68  97 139 181 229 276 338 417
#     4  10  21  39  66  92 131 182 225 266 332 405
#     4  11  23  44  68  98 135 177 223 282 338 408
#
# _framework density 23.162127999999999
#
# number of rings (size 3 to 8) (size 9 to 14) (size 15 to 20)
#    0.000    1.250    2.500    1.875    5.250    5.000 
#    0.000    0.000    0.000    0.000    0.000    0.000 
#    0.000    0.000    0.000    0.000    0.000    0.000 
#
# Total GULP energy -198273.536529 kJ/mol
# GULP energy per Si atom -12392.096033 kJ/mol
# Density = 2.310941 g / cm^3
# Si number density = 23.162128 Si / 1000 Ang^3
#
#
#
# Elastic Constant Matrix: (Units=GPa)
#
#
# Indices 1 2 3 4 5 6 
#
# 1 111.6445 31.3689 27.6638 -12.2126 -14.3232 -4.5439
# 2 31.3689 75.0456 23.6675 -10.4644 -10.6550 -12.7282
# 3 27.6638 23.6675 85.4899 -7.6014 -11.8668 -2.5390
# 4 -12.2126 -10.4644 -7.6014 19.8703 3.0882 -3.0992
# 5 -14.3232 -10.6550 -11.8668 3.0882 47.0754 5.5628
# 6 -4.5439 -12.7282 -2.5390 -3.0992 5.5628 43.2856
#
#
#
# Elastic Compliance Matrix: (Units=1/GPa)
#
#
# Indices 1 2 3 4 5 6 
#
# 1 0.011035 -0.003089 -0.002090 0.004098 0.001841 0.000184
# 2 -0.003089 0.017506 -0.002922 0.006784 0.001253 0.004977
# 3 -0.002090 -0.002922 0.013635 0.002011 0.002055 -0.000399
# 4 0.004098 0.006784 0.002011 0.058476 -0.001363 0.006905
# 5 0.001841 0.001253 0.002055 -0.001363 0.022973 -0.002368
# 6 0.000184 0.004977 -0.000399 0.006905 -0.002368 0.025360
#
#
# Mechanical properties :
#
#
# Convention : Reuss Voigt Hill
#
# Bulk Modulus (GPa) = 38.50152 48.62005 43.56079
# Shear Modulus (GPa) = 28.76110 34.67825 31.71968
#
# Velocity S-wave (km/s) = 3.52764 3.87356 3.70464
# Velocity P-wave (km/s) = 5.76637 6.40646 6.09482
#
# Compressibility (1/GPa) = 0.02597300
#
# Stress axis : x y z
#
# Youngs Moduli (GPa) = 90.62183 57.12335 73.34193
#
# Poissons Ratio (x) = 0.17647 0.15329
# Poissons Ratio (y) = 0.27996 0.21430
# Poissons Ratio (z) = 0.18941 0.16691
#
# Static dielectric constant tensor:
#      x y z
#    x 5.000020 0.267610 0.788170 
#    y 0.267610 3.961990 0.115590 
#    z 0.788170 0.115590 5.322790 
# 
# 
# High freq. dielectric constant tensor:
#      x y z
#    x 1.923440 0.006430 0.002850 
#    y 0.006430 1.904290 0.002600 
#    z 0.002850 0.002600 1.924020 
# 
# From -- ./inp_files/475888.got.cif
#   From: 2010.06.25/outbox.cif.g09.slc.cpg/sg2_238_cif.got.tgz:475888.got - 2010.06.27 13:26:56.
