data_PCOD8012788
_publ_section_title
;
Structure prediction by ZEFSAII (Michael W. Deem and Ramdas Pophale) SiO2 
 PCOD8012788
Probable space group: P -1
;
_chemical_formula_sum "Si O2"
_cell_formula_units_Z 16
_cell_length_a 19.939685
_cell_length_b 15.841490
_cell_length_c 11.079035
_cell_angle_alpha 31.555182
_cell_angle_beta 32.133547
_cell_angle_gamma 25.297456
_cell_volume 735.509674
_symmetry_space_group_name_H-M "P -1"
_symmetry_group_IT_number 2
_symmetry_cell_setting 'triclinic'
loop_
_space_group_symop_operation_xyz
x,y,z
-x,-y,-z
loop_
_atom_site_type_symbol
_atom_site_label
_atom_site_fract_x
_atom_site_fract_y
_atom_site_fract_z
Si Si1 0.899554 0.931324 0.190558
Si Si2 0.438275 0.831894 0.689875
Si Si3 0.363829 0.365947 0.601485
Si Si4 0.467816 0.180174 0.179046
Si Si5 0.284357 0.918311 0.485597
Si Si6 0.086226 0.756406 0.685342
Si Si7 0.808846 0.366850 0.050359
Si Si8 0.777197 0.859522 0.936289
O O1 0.739799 0.107437 0.133592
O O2 0.824330 0.905643 0.455729
O O3 0.030468 0.717374 0.173358
O O4 0.000000 0.000000 0.000000
O O5 0.574269 0.647634 0.612331
O O6 0.508201 0.742576 0.826074
O O7 0.409504 0.046795 0.452811
O O8 0.521425 0.201628 0.648599
O O9 0.249244 0.607312 0.531866
O O10 0.251879 0.300430 0.857383
O O11 0.329118 0.381409 0.064156
O O12 0.640111 0.043845 0.011315
O O13 0.265622 0.742259 0.742389
O O14 0.217606 0.035028 0.318737
O O15 0.141611 0.681670 0.827599
O O16 0.956195 0.724138 0.891510
O O17 0.000000 0.000000 0.500000
#
# Coordination Sequence:
#
# PCOD8012788 Si02
#       8
#     2   2   2   2   2   2   2   2
#     4   9  20  39  60  87 128 161 202 253 309 364
#     4   9  20  44  63  93 125 161 212 256 307 369
#     4  10  23  41  65  91 121 168 210 251 316 368
#     4  10  22  38  68  92 123 166 207 257 308 372
#     4  10  21  40  63  92 127 161 208 257 305 373
#     4  12  25  40  61  92 128 163 203 263 310 365
#     4  11  23  40  61  94 124 166 208 253 317 367
#     4  11  22  41  65  91 128 163 207 258 309 374
#
# _framework density 21.753623999999999
#
# number of rings (size 3 to 8) (size 9 to 14) (size 15 to 20)
#    0.000    1.750    1.250    2.250    1.750    4.500 
#    2.250    4.375    0.000    0.000    0.000    0.000 
#    0.000    0.000    0.000    0.000    0.000    0.000 
#
# Total GULP energy -198398.700436 kJ/mol
# GULP energy per Si atom -12399.918777 kJ/mol
# Density = 2.170411 g / cm^3
# Si number density = 21.753624 Si / 1000 Ang^3
#
#
#
# Elastic Constant Matrix: (Units=GPa)
#
#
# Indices 1 2 3 4 5 6 
#
# 1 144.0803 61.2968 35.8765 8.5128 15.8665 -12.3383
# 2 61.2968 119.6369 33.2506 18.4105 18.4394 7.4678
# 3 35.8765 33.2506 55.0659 9.0243 8.2872 -4.6743
# 4 8.5128 18.4105 9.0243 34.6736 -7.1675 2.9705
# 5 15.8665 18.4394 8.2872 -7.1675 41.2061 8.5568
# 6 -12.3383 7.4678 -4.6743 2.9705 8.5568 42.1826
#
#
#
# Elastic Compliance Matrix: (Units=1/GPa)
#
#
# Indices 1 2 3 4 5 6 
#
# 1 0.010112 -0.004095 -0.003437 -0.000187 -0.002183 0.003758
# 2 -0.004095 0.013208 -0.004056 -0.005517 -0.003895 -0.002807
# 3 -0.003437 -0.004056 0.024315 -0.004278 -0.003193 0.003356
# 4 -0.000187 -0.005517 -0.004278 0.035442 0.010431 -0.004164
# 5 -0.002183 -0.003895 -0.003193 0.010431 0.030822 -0.007289
# 6 0.003758 -0.002807 0.003356 -0.004164 -0.007289 0.027446
#
#
# Mechanical properties :
#
#
# Convention : Reuss Voigt Hill
#
# Bulk Modulus (GPa) = 40.88420 64.40342 52.64381
# Shear Modulus (GPa) = 28.95628 36.16976 32.56302
#
# Velocity S-wave (km/s) = 3.65238 4.08205 3.87318
# Velocity P-wave (km/s) = 6.05157 7.20330 6.65241
#
# Compressibility (1/GPa) = 0.02445933
#
# Stress axis : x y z
#
# Youngs Moduli (GPa) = 98.89464 75.70942 41.12686
#
# Poissons Ratio (x) = 0.31002 0.14137
# Poissons Ratio (y) = 0.40496 0.16680
# Poissons Ratio (z) = 0.33993 0.30706
#
# Static dielectric constant tensor:
#      x y z
#    x 4.243360 0.089730 -0.000570 
#    y 0.089730 3.997490 0.378620 
#    z -0.000570 0.378620 3.777830 
# 
# 
# High freq. dielectric constant tensor:
#      x y z
#    x 1.878920 0.000310 0.000560 
#    y 0.000310 1.852820 0.027010 
#    z 0.000560 0.027010 1.837300 
# 
# From -- ./inp_files/389465.got.cif
#   From: 2010.06.25/outbox.cif.g09.slc.cpg/sg2_195_cif.got.tgz:389465.got - 2010.06.27 13:26:56.
