data_PCOD8012544
_publ_section_title
;
Structure prediction by ZEFSAII (Michael W. Deem and Ramdas Pophale) SiO2 
 PCOD8012544
Probable space group: P -1
;
_chemical_formula_sum "Si O2"
_cell_formula_units_Z 16
_cell_length_a 18.774699
_cell_length_b 17.572950
_cell_length_c 5.077602
_cell_angle_alpha 108.993865
_cell_angle_beta 102.931982
_cell_angle_gamma 27.421224
_cell_volume 721.290135
_symmetry_space_group_name_H-M "P -1"
_symmetry_group_IT_number 2
_symmetry_cell_setting 'triclinic'
loop_
_space_group_symop_operation_xyz
x,y,z
-x,-y,-z
loop_
_atom_site_type_symbol
_atom_site_label
_atom_site_fract_x
_atom_site_fract_y
_atom_site_fract_z
Si Si1 0.166012 0.361255 0.853900
Si Si2 0.055463 0.856858 0.962726
Si Si3 0.577478 0.999821 0.209777
Si Si4 0.674303 0.306260 0.912107
Si Si5 0.198965 0.087998 0.899795
Si Si6 0.748005 0.629743 0.560193
Si Si7 0.006121 0.737310 0.571812
Si Si8 0.236187 0.877819 0.717217
O O1 0.147884 0.422679 0.626336
O O2 0.283418 0.171349 0.682612
O O3 0.245754 0.341508 0.109096
O O4 0.000000 0.500000 0.000000
O O5 0.237387 0.693569 0.989211
O O6 0.030132 0.810997 0.673618
O O7 0.954826 0.930845 0.221677
O O8 0.000000 0.000000 0.000000
O O9 0.438752 0.183640 0.458979
O O10 0.669464 0.971081 0.060523
O O11 0.500000 0.000000 0.000000
O O12 0.705429 0.242089 0.578025
O O13 0.500000 0.500000 0.000000
O O14 0.713734 0.199763 0.037978
O O15 0.064988 0.225636 0.719170
O O16 0.295369 0.910244 0.743836
O O17 0.116404 0.171804 0.207263
O O18 0.822964 0.467782 0.458292
#
# Coordination Sequence:
#
# PCOD8012544 Si02
#       8
#     2   2   2   2   2   2   2   2
#     4  11  22  40  63  86 117 160 203 247 298 367
#     4   9  20  39  63  88 121 162 208 251 299 365
#     4  10  24  42  63  91 125 163 202 255 318 373
#     4  11  22  38  61  93 126 160 201 252 310 368
#     4  11  23  42  64  87 120 161 210 253 304 371
#     4  11  23  39  58  89 122 151 197 253 309 363
#     4  11  23  40  63  91 119 161 209 257 305 362
#     4  10  21  40  61  87 120 164 206 250 303 365
#
# _framework density 22.182475
#
# number of rings (size 3 to 8) (size 9 to 14) (size 15 to 20)
#    0.000    1.500    0.000    6.000    0.000    9.000 
#    0.000    5.000    0.000    0.000    0.000    0.000 
#    0.000    0.000    0.000    0.000    0.000    0.000 
#
# Total GULP energy -198221.227858 kJ/mol
# GULP energy per Si atom -12388.826741 kJ/mol
# Density = 2.213199 g / cm^3
# Si number density = 22.182475 Si / 1000 Ang^3
#
#
#
# Elastic Constant Matrix: (Units=GPa)
#
#
# Indices 1 2 3 4 5 6 
#
# 1 176.6454 61.3764 8.3152 -80.1179 -9.2782 -23.3478
# 2 61.3764 121.3802 12.0079 -3.1897 -7.5718 -15.9533
# 3 8.3152 12.0079 67.4953 19.6936 1.1449 4.8004
# 4 -80.1179 -3.1897 19.6936 182.5203 47.8244 35.9546
# 5 -9.2782 -7.5718 1.1449 47.8244 42.4611 9.4829
# 6 -23.3478 -15.9533 4.8004 35.9546 9.4829 46.2077
#
#
#
# Elastic Compliance Matrix: (Units=1/GPa)
#
#
# Indices 1 2 3 4 5 6 
#
# 1 0.009833 -0.004952 -0.001936 0.005804 -0.005223 0.000016
# 2 -0.004952 0.011449 -0.000657 -0.003757 0.004419 0.003535
# 3 -0.001936 -0.000657 0.016109 -0.003126 0.002773 -0.001015
# 4 0.005804 -0.003757 -0.003126 0.012558 -0.012280 -0.005291
# 5 -0.005223 0.004419 0.002773 -0.012280 0.036821 0.000598
# 6 0.000016 0.003535 -0.001015 -0.005291 0.000598 0.026970
#
#
# Mechanical properties :
#
#
# Convention : Reuss Voigt Hill
#
# Bulk Modulus (GPa) = 44.84257 58.76887 51.80572
# Shear Modulus (GPa) = 36.69370 73.15924 54.92647
#
# Velocity S-wave (km/s) = 4.07157 5.74911 4.98146
# Velocity P-wave (km/s) = 6.50867 8.40360 7.51609
#
# Compressibility (1/GPa) = 0.02230024
#
# Stress axis : x y z
#
# Youngs Moduli (GPa) = 101.69987 87.34354 62.07850
#
# Poissons Ratio (x) = 0.43250 0.12021
# Poissons Ratio (y) = 0.50359 0.04079
# Poissons Ratio (z) = 0.19693 0.05739
#
# Static dielectric constant tensor:
#      x y z
#    x 4.323890 -0.032050 0.048730 
#    y -0.032050 4.474610 0.274030 
#    z 0.048730 0.274030 3.910590 
# 
# 
# High freq. dielectric constant tensor:
#      x y z
#    x 1.875090 0.006700 -0.004920 
#    y 0.006700 1.873510 0.013880 
#    z -0.004920 0.013880 1.865310 
# 
# From -- ./inp_files/111534.got.cif
#   From: 2010.06.25/outbox.cif.g09.slc.cpg/sg2_56_cif.got.tgz:111534.got - 2010.06.27 13:26:56.
