data_PCOD8012946
_publ_section_title
;
Structure prediction by ZEFSAII (Michael W. Deem and Ramdas Pophale) SiO2 
 PCOD8012946
Probable space group: P -1
;
_chemical_formula_sum "Si O2"
_cell_formula_units_Z 14
_cell_length_a 7.128187
_cell_length_b 18.416590
_cell_length_c 13.506964
_cell_angle_alpha 21.568221
_cell_angle_beta 86.380152
_cell_angle_gamma 85.345956
_cell_volume 649.309719
_symmetry_space_group_name_H-M "P -1"
_symmetry_group_IT_number 2
_symmetry_cell_setting 'triclinic'
loop_
_space_group_symop_operation_xyz
x,y,z
-x,-y,-z
loop_
_atom_site_type_symbol
_atom_site_label
_atom_site_fract_x
_atom_site_fract_y
_atom_site_fract_z
Si Si1 0.105954 0.698263 0.240370
Si Si2 0.782568 0.966577 0.822140
Si Si3 0.511522 0.345817 0.829621
Si Si4 0.887713 0.577542 0.045014
Si Si5 0.215985 0.711151 0.751475
Si Si6 0.498647 0.221896 0.191079
Si Si7 0.773817 0.298952 0.556712
O O1 0.314806 0.638154 0.270262
O O2 0.122564 0.782488 0.244680
O O3 0.000000 0.500000 0.500000
O O4 0.989526 0.864418 0.968872
O O5 0.797073 0.084691 0.568396
O O6 0.712556 0.116376 0.722733
O O7 0.633116 0.800555 0.028654
O O8 0.409894 0.561405 0.583184
O O9 0.607034 0.258298 0.038742
O O10 0.813678 0.474167 0.080712
O O11 0.923910 0.420306 0.332747
O O12 0.715137 0.720144 0.904270
O O13 0.060015 0.710659 0.845098
O O14 0.413282 0.669536 0.855510
O O15 0.500000 0.000000 0.500000
#
# Coordination Sequence:
#
# PCOD8012946 Si02
#       7
#     2   2   2   2   2   2   2
#     4  12  26  44  69  94 131 167 219 271 320 377
#     4  11  24  44  68  96 130 169 217 263 317 389
#     4  11  25  45  63  98 128 171 213 269 321 375
#     4   9  22  40  63  93 127 162 207 261 312 374
#     4  10  21  40  64  93 127 163 207 259 313 379
#     4  11  22  36  62  92 126 162 204 251 319 379
#     4  10  23  47  66  94 131 171 215 263 322 377
#
# _framework density 21.561358999999999
#
# number of rings (size 3 to 8) (size 9 to 14) (size 15 to 20)
#    0.000    1.429    2.857    1.286    4.000    1.143 
#    2.571    0.000    0.000    0.000    0.000    0.000 
#    0.000    0.000    0.000    0.000    0.000    0.000 
#
# Total GULP energy -173516.405006 kJ/mol
# GULP energy per Si atom -12394.028929 kJ/mol
# Density = 2.151228 g / cm^3
# Si number density = 21.561359 Si / 1000 Ang^3
#
#
#
# Elastic Constant Matrix: (Units=GPa)
#
#
# Indices 1 2 3 4 5 6 
#
# 1 86.8714 30.1253 27.6249 -2.0631 -6.8537 -8.8004
# 2 30.1253 107.5151 29.3357 4.1860 0.6236 -1.1995
# 3 27.6249 29.3357 71.8530 -1.6882 3.5434 -2.0100
# 4 -2.0631 4.1860 -1.6882 44.3884 2.3379 3.6580
# 5 -6.8537 0.6236 3.5434 2.3379 29.0876 10.3627
# 6 -8.8004 -1.1995 -2.0100 3.6580 10.3627 30.3482
#
#
#
# Elastic Compliance Matrix: (Units=1/GPa)
#
#
# Indices 1 2 3 4 5 6 
#
# 1 0.014430 -0.002830 -0.004456 0.000387 0.003009 0.002703
# 2 -0.002830 0.011086 -0.003466 -0.001265 -0.000247 -0.000375
# 3 -0.004456 -0.003466 0.017257 0.000893 -0.003426 0.000776
# 4 0.000387 -0.001265 0.000893 0.022942 -0.001016 -0.002297
# 5 0.003009 -0.000247 -0.003426 -0.001016 0.040214 -0.012973
# 6 0.002703 -0.000375 0.000776 -0.002297 -0.012973 0.038478
#
#
# Mechanical properties :
#
#
# Convention : Reuss Voigt Hill
#
# Bulk Modulus (GPa) = 47.01653 48.93461 47.97557
# Shear Modulus (GPa) = 28.90132 32.70841 30.80487
#
# Velocity S-wave (km/s) = 3.66515 3.89908 3.78392
# Velocity P-wave (km/s) = 6.30590 6.55860 6.43349
#
# Compressibility (1/GPa) = 0.02126911
#
# Stress axis : x y z
#
# Youngs Moduli (GPa) = 69.29956 90.20243 57.94604
#
# Poissons Ratio (x) = 0.25525 0.25822
# Poissons Ratio (y) = 0.19610 0.20086
# Poissons Ratio (z) = 0.30882 0.31267
#
# Static dielectric constant tensor:
#      x y z
#    x -7.596550 -8.581140 -0.213600 
#    y -8.581140 -2.291240 0.201050 
#    z -0.213600 0.201050 3.890490 
# 
# 
# High freq. dielectric constant tensor:
#      x y z
#    x 1.829260 0.007740 0.000550 
#    y 0.007740 1.866050 0.013010 
#    z 0.000550 0.013010 1.850690 
# 
# From -- ./inp_files/28167.got.cif
#   From: 2010.06.25/outbox.cif.g09.slc.cpg/sg2_15_cif.got.tgz:28167.got - 2010.06.27 13:26:56.
