data_PCOD8012741
_publ_section_title
;
Structure prediction by ZEFSAII (Michael W. Deem and Ramdas Pophale) SiO2 
 PCOD8012741
Probable space group: P -1
;
_chemical_formula_sum "Si O2"
_cell_formula_units_Z 16
_cell_length_a 8.666812
_cell_length_b 9.315921
_cell_length_c 25.503356
_cell_angle_alpha 138.133068
_cell_angle_beta 50.443678
_cell_angle_gamma 98.104994
_cell_volume 807.310993
_symmetry_space_group_name_H-M "P -1"
_symmetry_group_IT_number 2
_symmetry_cell_setting 'triclinic'
loop_
_space_group_symop_operation_xyz
x,y,z
-x,-y,-z
loop_
_atom_site_type_symbol
_atom_site_label
_atom_site_fract_x
_atom_site_fract_y
_atom_site_fract_z
Si Si1 0.276800 0.698062 0.867368
Si Si2 0.236727 0.635977 0.064128
Si Si3 0.433787 0.361857 0.838527
Si Si4 0.631651 0.238825 0.463125
Si Si5 0.002609 0.006192 0.587817
Si Si6 0.086969 0.730010 0.680697
Si Si7 0.760345 0.746238 0.239778
Si Si8 0.159567 0.562365 0.349132
O O1 0.329656 0.638708 0.902282
O O2 0.263160 0.465529 0.782523
O O3 0.521847 0.652327 0.776200
O O4 0.000000 0.000000 0.000000
O O5 0.062700 0.607908 0.132108
O O6 0.500000 0.500000 0.000000
O O7 0.296353 0.460720 0.951156
O O8 0.092357 0.960382 0.170686
O O9 0.748106 0.153843 0.719906
O O10 0.358173 0.195535 0.777943
O O11 0.337718 0.535536 0.612004
O O12 0.816736 0.270411 0.398423
O O13 0.596464 0.035031 0.385882
O O14 0.749035 0.122367 0.463732
O O15 0.959707 0.238724 0.622137
O O16 0.045139 0.759376 0.478595
O O17 0.920375 0.629428 0.685100
#
# Coordination Sequence:
#
# PCOD8012741 Si02
#       8
#     2   2   2   2   2   2   2   2
#     4   9  21  38  59  86 121 155 202 242 288 355
#     4  11  22  38  61  90 119 155 198 241 302 357
#     4   9  19  37  60  85 115 157 193 240 292 353
#     4  10  21  41  60  91 121 156 198 251 303 342
#     4  10  21  40  63  88 119 159 199 242 300 359
#     4  10  23  38  60  89 126 151 200 253 290 356
#     4   9  20  38  63  82 120 157 193 245 295 352
#     4  10  22  41  61  89 120 159 202 243 296 357
#
# _framework density 19.81888
#
# number of rings (size 3 to 8) (size 9 to 14) (size 15 to 20)
#    0.750    1.500    0.000    2.625    3.500    2.000 
#    2.250    5.000    0.000    0.000    0.000    0.000 
#    0.000    0.000    0.000    0.000    0.000    0.000 
#
# Total GULP energy -198336.614501 kJ/mol
# GULP energy per Si atom -12396.038406 kJ/mol
# Density = 1.977377 g / cm^3
# Si number density = 19.818880 Si / 1000 Ang^3
#
#
#
# Elastic Constant Matrix: (Units=GPa)
#
#
# Indices 1 2 3 4 5 6 
#
# 1 124.7305 46.2161 53.4396 14.3459 -8.2223 1.1684
# 2 46.2161 65.9290 32.1922 10.2509 -7.5777 19.0690
# 3 53.4396 32.1922 101.0725 11.1388 -14.9482 -6.9632
# 4 14.3459 10.2509 11.1388 24.8785 -2.0397 -2.0514
# 5 -8.2223 -7.5777 -14.9482 -2.0397 38.0637 2.5125
# 6 1.1684 19.0690 -6.9632 -2.0514 2.5125 42.9120
#
#
#
# Elastic Compliance Matrix: (Units=1/GPa)
#
#
# Indices 1 2 3 4 5 6 
#
# 1 0.012637 -0.007172 -0.004073 -0.002381 -0.000564 0.002101
# 2 -0.007172 0.027668 -0.004898 -0.005958 0.002596 -0.013331
# 3 -0.004073 -0.004898 0.014595 -0.001519 0.003506 0.004378
# 4 -0.002381 -0.005958 -0.001519 0.045070 -0.000188 0.004631
# 5 -0.000564 0.002596 0.003506 -0.000188 0.028181 -0.002228
# 6 0.002101 -0.013331 0.004378 0.004631 -0.002228 0.030233
#
#
# Mechanical properties :
#
#
# Convention : Reuss Voigt Hill
#
# Bulk Modulus (GPa) = 44.22272 61.71422 52.96847
# Shear Modulus (GPa) = 25.22608 31.82976 28.52792
#
# Velocity S-wave (km/s) = 3.57155 4.01188 3.79810
# Velocity P-wave (km/s) = 6.27453 7.25720 6.78368
#
# Compressibility (1/GPa) = 0.02261281
#
# Stress axis : x y z
#
# Youngs Moduli (GPa) = 79.13377 36.14345 68.51482
#
# Poissons Ratio (x) = 0.25921 0.27909
# Poissons Ratio (y) = 0.56752 0.33561
# Poissons Ratio (z) = 0.32235 0.17704
#
# Static dielectric constant tensor:
#      x y z
#    x 3.525760 0.084890 -0.115290 
#    y 0.084890 3.445050 0.039170 
#    z -0.115290 0.039170 3.595250 
# 
# 
# High freq. dielectric constant tensor:
#      x y z
#    x 1.774300 0.011340 -0.013620 
#    y 0.011340 1.752580 0.001110 
#    z -0.013620 0.001110 1.775200 
# 
# From -- ./inp_files/606870.got.cif
#   From: 2010.06.25/outbox.cif.g09.slc.cpg/sg2_304_cif.got.tgz:606870.got - 2010.06.27 13:26:56.
