data_PCOD8012102
_publ_section_title
;
Structure prediction by ZEFSAII (Michael W. Deem and Ramdas Pophale) SiO2 
 PCOD8012102
Probable space group: P -1
;
_chemical_formula_sum "Si O2"
_cell_formula_units_Z 14
_cell_length_a 16.482952
_cell_length_b 12.132259
_cell_length_c 6.637088
_cell_angle_alpha 57.862385
_cell_angle_beta 138.854879
_cell_angle_gamma 134.724966
_cell_volume 620.461693
_symmetry_space_group_name_H-M "P -1"
_symmetry_group_IT_number 2
_symmetry_cell_setting 'triclinic'
loop_
_space_group_symop_operation_xyz
x,y,z
-x,-y,-z
loop_
_atom_site_type_symbol
_atom_site_label
_atom_site_fract_x
_atom_site_fract_y
_atom_site_fract_z
Si Si1 0.820487 0.623841 0.178541
Si Si2 0.635695 0.354936 0.816893
Si Si3 0.362093 0.833361 0.642174
Si Si4 0.133346 0.483826 0.231743
Si Si5 0.558805 0.842755 0.665033
Si Si6 0.132223 0.070998 0.839631
Si Si7 0.948921 0.234216 0.849535
O O1 0.792900 0.511766 0.422696
O O2 0.829308 0.776187 0.119499
O O3 0.975722 0.681967 0.302507
O O4 0.684460 0.512199 0.880422
O O5 0.757627 0.385659 0.848837
O O6 0.489202 0.290865 0.467585
O O7 0.608878 0.213076 0.041865
O O8 0.433240 0.778592 0.662550
O O9 0.185729 0.745550 0.372546
O O10 0.433851 0.016027 0.577096
O O11 0.000000 0.500000 0.000000
O O12 0.068089 0.314352 0.174388
O O13 0.713494 0.888450 0.012391
O O14 0.000000 0.000000 0.500000
O O15 0.096148 0.943309 0.068121
#
# Coordination Sequence:
#
# PCOD8012102 Si02
#       7
#     2   2   2   2   2   2   2
#     4  11  23  39  64  93 130 166 207 261 310 370
#     4  11  22  39  61  96 131 160 208 256 317 374
#     4  10  21  42  66  97 127 163 209 258 317 371
#     4  11  21  36  63  94 131 167 202 258 314 369
#     4  10  23  42  67  92 127 168 205 261 313 373
#     4  11  23  46  66  88 126 169 217 256 309 372
#     4  10  21  39  66  95 124 164 211 262 308 369
#
# _framework density 22.563845000000001
#
# number of rings (size 3 to 8) (size 9 to 14) (size 15 to 20)
#    0.000    1.429    1.429    4.286    0.000    2.857 
#   10.286    2.857    0.000    0.000    0.000    0.000 
#    0.000    0.000    0.000    0.000    0.000    0.000 
#
# Total GULP energy -173448.915195 kJ/mol
# GULP energy per Si atom -12389.208228 kJ/mol
# Density = 2.251249 g / cm^3
# Si number density = 22.563845 Si / 1000 Ang^3
#
#
#
# Elastic Constant Matrix: (Units=GPa)
#
#
# Indices 1 2 3 4 5 6 
#
# 1 123.7597 57.6615 58.1309 -0.7955 -10.8009 12.4753
# 2 57.6615 96.9971 49.3295 7.2820 -8.2946 3.9028
# 3 58.1309 49.3295 122.5255 17.9673 -7.9570 -2.4781
# 4 -0.7955 7.2820 17.9673 32.5243 0.7126 -13.5589
# 5 -10.8009 -8.2946 -7.9570 0.7126 31.1766 -4.8017
# 6 12.4753 3.9028 -2.4781 -13.5589 -4.8017 35.9105
#
#
#
# Elastic Compliance Matrix: (Units=1/GPa)
#
#
# Indices 1 2 3 4 5 6 
#
# 1 0.013179 -0.005565 -0.004373 0.002671 0.001435 -0.003075
# 2 -0.005565 0.015563 -0.003241 -0.002109 0.001341 -0.000599
# 3 -0.004373 -0.003241 0.012512 -0.006073 0.001044 0.000581
# 4 0.002671 -0.002109 -0.006073 0.040560 0.000075 0.014207
# 5 0.001435 0.001341 0.001044 0.000075 0.033806 0.003977
# 6 -0.003075 -0.000599 0.000581 0.014207 0.003977 0.034916
#
#
# Mechanical properties :
#
#
# Convention : Reuss Voigt Hill
#
# Bulk Modulus (GPa) = 67.13379 74.83625 70.98502
# Shear Modulus (GPa) = 27.49360 31.79962 29.64661
#
# Velocity S-wave (km/s) = 3.49446 3.75816 3.62871
# Velocity P-wave (km/s) = 6.78963 7.21596 7.00604
#
# Compressibility (1/GPa) = 0.01489563
#
# Stress axis : x y z
#
# Youngs Moduli (GPa) = 75.87667 64.25375 79.92637
#
# Poissons Ratio (x) = 0.35756 0.34952
# Poissons Ratio (y) = 0.42223 0.25908
# Poissons Ratio (z) = 0.33181 0.20828
#
# Static dielectric constant tensor:
#      x y z
#    x 4.091280 0.161170 -0.206870 
#    y 0.161170 4.503370 0.183230 
#    z -0.206870 0.183230 4.072740 
# 
# 
# High freq. dielectric constant tensor:
#      x y z
#    x 1.881530 0.012600 -0.013780 
#    y 0.012600 1.912160 0.018330 
#    z -0.013780 0.018330 1.869620 
# 
# From -- ./inp_files/70114.got.cif
#   From: 2010.06.25/outbox.cif.g09.slc.cpg/sg2_36_cif.got.tgz:70114.got - 2010.06.27 13:26:56.
