data_PCOD8012174
_publ_section_title
;
Structure prediction by ZEFSAII (Michael W. Deem and Ramdas Pophale) SiO2 
 PCOD8012174
Probable space group: P -1
;
_chemical_formula_sum "Si O2"
_cell_formula_units_Z 16
_cell_length_a 9.097160
_cell_length_b 11.154870
_cell_length_c 14.790124
_cell_angle_alpha 151.765482
_cell_angle_beta 85.763103
_cell_angle_gamma 102.688060
_cell_volume 669.019747
_symmetry_space_group_name_H-M "P -1"
_symmetry_group_IT_number 2
_symmetry_cell_setting 'triclinic'
loop_
_space_group_symop_operation_xyz
x,y,z
-x,-y,-z
loop_
_atom_site_type_symbol
_atom_site_label
_atom_site_fract_x
_atom_site_fract_y
_atom_site_fract_z
Si Si1 0.212797 0.967518 0.532660
Si Si2 0.567611 0.557207 0.634644
Si Si3 0.773078 0.037117 0.037666
Si Si4 0.706582 0.888862 0.571732
Si Si5 0.932522 0.665756 0.885766
Si Si6 0.478330 0.191167 0.795475
Si Si7 0.753436 0.215547 0.344315
Si Si8 0.981258 0.993992 0.271779
O O1 0.210058 0.089545 0.514918
O O2 0.144119 0.648826 0.328277
O O3 0.112124 0.090517 0.685884
O O4 0.390576 0.056406 0.618199
O O5 0.500000 0.500000 0.500000
O O6 0.624165 0.866713 0.870258
O O7 0.721080 0.462563 0.560298
O O8 0.438998 0.384910 0.596767
O O9 0.832469 0.819658 0.940943
O O10 0.894653 0.241612 0.102413
O O11 0.731742 0.219048 0.238574
O O12 0.644524 0.140820 0.756878
O O13 0.833600 0.889137 0.642182
O O14 0.943397 0.733895 0.037045
O O15 0.374137 0.061861 0.801095
O O16 0.500000 0.500000 0.000000
O O17 0.926274 0.220022 0.371121
#
# Coordination Sequence:
#
# PCOD8012174 Si02
#       8
#     2   2   2   2   2   2   2   2
#     4  11  24  42  66  97 133 173 225 263 331 390
#     4  11  24  44  66  96 133 168 216 275 326 388
#     4  10  21  39  67  93 128 175 220 261 327 387
#     4  11  24  41  67 100 134 172 216 278 326 389
#     4  10  22  40  65  95 131 176 216 273 318 389
#     4  10  23  42  69  97 133 176 214 272 331 390
#     4   9  22  42  66  94 127 172 222 264 324 393
#     4  10  22  44  63  95 136 171 217 269 327 383
#
# _framework density 23.915586000000001
#
# number of rings (size 3 to 8) (size 9 to 14) (size 15 to 20)
#    0.000    1.750    0.000    3.750    7.000    3.000 
#    2.250    7.500    0.000    0.000    0.000    0.000 
#    0.000    0.000    0.000    0.000    0.000    0.000 
#
# Total GULP energy -198403.273530 kJ/mol
# GULP energy per Si atom -12400.204596 kJ/mol
# Density = 2.386115 g / cm^3
# Si number density = 23.915586 Si / 1000 Ang^3
#
#
#
# Elastic Constant Matrix: (Units=GPa)
#
#
# Indices 1 2 3 4 5 6 
#
# 1 108.5737 12.9962 37.4168 -11.1211 16.9625 -1.5006
# 2 12.9962 94.5166 47.0030 -13.7722 1.7547 11.5271
# 3 37.4168 47.0030 126.2609 -10.3766 15.5178 9.5394
# 4 -11.1211 -13.7722 -10.3766 39.2444 1.5715 -0.8908
# 5 16.9625 1.7547 15.5178 1.5715 29.6259 -10.0722
# 6 -1.5006 11.5271 9.5394 -0.8908 -10.0722 27.3465
#
#
#
# Elastic Compliance Matrix: (Units=1/GPa)
#
#
# Indices 1 2 3 4 5 6 
#
# 1 0.011159 0.000270 -0.002464 0.002811 -0.005454 -0.000559
# 2 0.000270 0.013878 -0.004611 0.003640 -0.000173 -0.004172
# 3 -0.002464 -0.004611 0.011482 0.000856 -0.005845 -0.004322
# 4 0.002811 0.003640 0.000856 0.027910 -0.004590 -0.002460
# 5 -0.005454 -0.000173 -0.005845 -0.004590 0.046592 0.018824
# 6 -0.000559 -0.004172 -0.004322 -0.002460 0.018824 0.046656
#
#
# Mechanical properties :
#
#
# Convention : Reuss Voigt Hill
#
# Bulk Modulus (GPa) = 43.64884 58.24257 50.94571
# Shear Modulus (GPa) = 27.94481 34.70570 31.32526
#
# Velocity S-wave (km/s) = 3.42201 3.81356 3.62308
# Velocity P-wave (km/s) = 5.82274 6.61795 6.23304
#
# Compressibility (1/GPa) = 0.02291012
#
# Stress axis : x y z
#
# Youngs Moduli (GPa) = 89.61003 72.05426 87.09285
#
# Poissons Ratio (x) = -0.01945 0.21459
# Poissons Ratio (y) = -0.02419 0.40158
# Poissons Ratio (z) = 0.22079 0.33224
#
# Static dielectric constant tensor:
#      x y z
#    x 4.438080 0.086530 -0.021880 
#    y 0.086530 4.296640 -0.283960 
#    z -0.021880 -0.283960 4.212430 
# 
# 
# High freq. dielectric constant tensor:
#      x y z
#    x 1.948170 0.008850 0.003810 
#    y 0.008850 1.946450 -0.016970 
#    z 0.003810 -0.016970 1.941840 
# 
# From -- ./inp_files/501165.got.cif
#   From: 2010.06.25/outbox.cif.g09.slc.cpg/sg2_251_cif.got.tgz:501165.got - 2010.06.27 13:26:56.
