data_PCOD8012257
_publ_section_title
;
Structure prediction by ZEFSAII (Michael W. Deem and Ramdas Pophale) SiO2 
 PCOD8012257
Probable space group: P -1
;
_chemical_formula_sum "Si O2"
_cell_formula_units_Z 16
_cell_length_a 8.426664
_cell_length_b 21.464361
_cell_length_c 8.576111
_cell_angle_alpha 59.555436
_cell_angle_beta 82.098605
_cell_angle_gamma 130.106850
_cell_volume 726.897707
_symmetry_space_group_name_H-M "P -1"
_symmetry_group_IT_number 2
_symmetry_cell_setting 'triclinic'
loop_
_space_group_symop_operation_xyz
x,y,z
-x,-y,-z
loop_
_atom_site_type_symbol
_atom_site_label
_atom_site_fract_x
_atom_site_fract_y
_atom_site_fract_z
Si Si1 0.611637 0.911135 0.735850
Si Si2 0.735079 0.439850 0.772371
Si Si3 0.133206 0.659391 0.967249
Si Si4 0.263860 0.704042 0.537550
Si Si5 0.589484 0.951485 0.034855
Si Si6 0.582446 0.456707 0.464899
Si Si7 0.155200 0.158827 0.195232
Si Si8 0.205179 0.191746 0.789343
O O1 0.308738 0.797247 0.824947
O O2 0.725930 0.874163 0.728556
O O3 0.533570 0.898542 0.939443
O O4 0.846009 0.057114 0.451940
O O5 0.744656 0.463992 0.557366
O O6 0.944445 0.573633 0.667750
O O7 0.827382 0.392694 0.853174
O O8 0.384046 0.308222 0.027700
O O9 0.220394 0.670218 0.767607
O O10 0.792213 0.550929 0.169132
O O11 0.381981 0.829632 0.336733
O O12 0.506372 0.742455 0.385167
O O13 0.500000 0.000000 0.000000
O O14 0.933788 0.071063 0.868486
O O15 0.500000 0.500000 0.500000
O O16 0.289587 0.308407 0.625844
O O17 0.104329 0.133975 0.049255
#
# Coordination Sequence:
#
# PCOD8012257 Si02
#       8
#     2   2   2   2   2   2   2   2
#     4  10  21  39  68  90 133 167 221 269 331 384
#     4  10  22  41  70  97 133 167 226 269 332 387
#     4  11  23  41  71 101 128 175 228 277 326 393
#     4  12  24  43  69  99 133 173 227 285 327 388
#     4  12  28  44  63  96 136 182 216 279 341 398
#     4  11  25  43  67  99 139 179 212 272 339 405
#     4   9  20  38  66 101 119 173 217 274 317 391
#     4  11  24  42  67  93 133 173 227 271 330 392
#
# _framework density 22.011348000000002
#
# number of rings (size 3 to 8) (size 9 to 14) (size 15 to 20)
#    0.000    1.250    2.500    2.625   10.500    0.000 
#    4.500    1.875    0.000    0.000    0.000    0.000 
#    0.000    0.000    0.000    0.000    0.000    0.000 
#
# Total GULP energy -198276.280914 kJ/mol
# GULP energy per Si atom -12392.267557 kJ/mol
# Density = 2.196125 g / cm^3
# Si number density = 22.011348 Si / 1000 Ang^3
#
#
#
# Elastic Constant Matrix: (Units=GPa)
#
#
# Indices 1 2 3 4 5 6 
#
# 1 44.7441 14.8449 31.3728 -0.2088 6.6929 -11.9554
# 2 14.8449 116.0264 49.1290 -21.9289 -1.1318 11.3133
# 3 31.3728 49.1290 155.6067 -12.8535 -3.1212 -0.4879
# 4 -0.2088 -21.9289 -12.8535 50.8062 -1.4194 -0.8540
# 5 6.6929 -1.1318 -3.1212 -1.4194 16.1735 -7.6467
# 6 -11.9554 11.3133 -0.4879 -0.8540 -7.6467 26.8685
#
#
#
# Elastic Compliance Matrix: (Units=1/GPa)
#
#
# Indices 1 2 3 4 5 6 
#
# 1 0.032448 -0.003641 -0.005768 -0.002919 -0.008775 0.013276
# 2 -0.003641 0.011640 -0.002635 0.004202 -0.000995 -0.006719
# 3 -0.005768 -0.002635 0.008591 0.001118 0.003883 -0.000161
# 4 -0.002919 0.004202 0.001118 0.021823 0.002912 -0.001526
# 5 -0.008775 -0.000995 0.003883 0.002912 0.074904 0.017995
# 6 0.013276 -0.006719 -0.000161 -0.001526 0.017995 0.051025
#
#
# Mechanical properties :
#
#
# Convention : Reuss Voigt Hill
#
# Bulk Modulus (GPa) = 34.97618 56.34119 45.65869
# Shear Modulus (GPa) = 21.36315 33.50502 27.43408
#
# Velocity S-wave (km/s) = 3.11875 3.90573 3.53421
# Velocity P-wave (km/s) = 5.37525 6.78171 6.11903
#
# Compressibility (1/GPa) = 0.02859088
#
# Stress axis : x y z
#
# Youngs Moduli (GPa) = 30.81875 85.91251 116.40091
#
# Poissons Ratio (x) = 0.31281 0.67139
# Poissons Ratio (y) = 0.11221 0.30670
# Poissons Ratio (z) = 0.17776 0.22637
#
# Static dielectric constant tensor:
#      x y z
#    x 3.580930 0.165590 -0.076810 
#    y 0.165590 3.994230 -0.465820 
#    z -0.076810 -0.465820 4.727350 
# 
# 
# High freq. dielectric constant tensor:
#      x y z
#    x 1.820430 0.006950 -0.003600 
#    y 0.006950 1.865220 -0.019690 
#    z -0.003600 -0.019690 1.895590 
# 
# From -- ./inp_files/223434.got.cif
#   From: 2010.06.25/outbox.cif.g09.slc.cpg/sg2_112_cif.got.tgz:223434.got - 2010.06.27 13:26:56.
