data_PCOD8012936
_publ_section_title
;
Structure prediction by ZEFSAII (Michael W. Deem and Ramdas Pophale) SiO2 
 PCOD8012936
Probable space group: P -1
;
_chemical_formula_sum "Si O2"
_cell_formula_units_Z 14
_cell_length_a 9.474253
_cell_length_b 9.968023
_cell_length_c 7.725969
_cell_angle_alpha 73.627015
_cell_angle_beta 74.982698
_cell_angle_gamma 63.836317
_cell_volume 620.572296
_symmetry_space_group_name_H-M "P -1"
_symmetry_group_IT_number 2
_symmetry_cell_setting 'triclinic'
loop_
_space_group_symop_operation_xyz
x,y,z
-x,-y,-z
loop_
_atom_site_type_symbol
_atom_site_label
_atom_site_fract_x
_atom_site_fract_y
_atom_site_fract_z
Si Si1 0.201921 0.148229 0.565390
Si Si2 0.352470 0.354338 0.331575
Si Si3 0.838040 0.033319 0.642448
Si Si4 0.599038 0.460189 0.308590
Si Si5 0.732795 0.953032 0.044751
Si Si6 0.422501 0.248315 0.986179
Si Si7 0.158766 0.661439 0.463917
O O1 0.323739 0.232641 0.512346
O O2 0.267567 0.016602 0.443060
O O3 0.183618 0.077354 0.782064
O O4 0.031128 0.272610 0.512749
O O5 0.535833 0.341980 0.278600
O O6 0.231018 0.525319 0.353396
O O7 0.315675 0.311111 0.168058
O O8 0.767598 0.212300 0.646005
O O9 0.854973 0.944680 0.852451
O O10 0.000000 0.000000 0.500000
O O11 0.500000 0.500000 0.500000
O O12 0.555230 0.609552 0.155778
O O13 0.784753 0.390957 0.335012
O O14 0.668809 0.820570 0.087908
O O15 0.592286 0.118882 0.028287
#
# Coordination Sequence:
#
# PCOD8012936 Si02
#       7
#     2   2   2   2   2   2   2
#     4  11  24  44  71  99 135 182 221 278 342 399
#     4  11  22  42  67 101 133 177 230 271 341 400
#     4  10  23  44  65  96 137 178 224 268 336 408
#     4  10  21  40  64  92 135 172 219 273 333 391
#     4  11  23  43  68  99 141 172 230 281 334 398
#     4  11  24  41  65 104 135 177 225 282 336 406
#     4  10  23  43  66  96 138 173 223 278 336 399
#
# _framework density 22.559823000000002
#
# number of rings (size 3 to 8) (size 9 to 14) (size 15 to 20)
#    0.000    1.429    1.429    4.286    2.000    4.000 
#    5.143    1.429    0.000    0.000    0.000    0.000 
#    0.000    0.000    0.000    0.000    0.000    0.000 
#
# Total GULP energy -173461.491787 kJ/mol
# GULP energy per Si atom -12390.106556 kJ/mol
# Density = 2.250848 g / cm^3
# Si number density = 22.559823 Si / 1000 Ang^3
#
#
#
# Elastic Constant Matrix: (Units=GPa)
#
#
# Indices 1 2 3 4 5 6 
#
# 1 86.3407 38.5624 31.7156 -17.7816 5.9088 10.1046
# 2 38.5624 109.5579 55.1852 -5.6859 1.2573 23.6150
# 3 31.7156 55.1852 159.9433 -10.8441 3.8598 15.1528
# 4 -17.7816 -5.6859 -10.8441 37.2517 3.3266 -2.3005
# 5 5.9088 1.2573 3.8598 3.3266 32.1458 -0.6816
# 6 10.1046 23.6150 15.1528 -2.3005 -0.6816 26.5866
#
#
#
# Elastic Compliance Matrix: (Units=1/GPa)
#
#
# Indices 1 2 3 4 5 6 
#
# 1 0.015637 -0.004432 -0.000942 0.006749 -0.003307 -0.000970
# 2 -0.004432 0.014239 -0.003279 -0.001520 0.000614 -0.009209
# 3 -0.000942 -0.003279 0.007780 0.001319 -0.000792 -0.001070
# 4 0.006749 -0.001520 0.001319 0.030655 -0.004500 0.000571
# 5 -0.003307 0.000614 -0.000792 -0.004500 0.032287 0.001602
# 6 -0.000970 -0.009209 -0.001070 0.000571 0.001602 0.046862
#
#
# Mechanical properties :
#
#
# Convention : Reuss Voigt Hill
#
# Bulk Modulus (GPa) = 49.14235 67.41871 58.28053
# Shear Modulus (GPa) = 29.14595 34.55540 31.85067
#
# Velocity S-wave (km/s) = 3.59826 3.91797 3.76151
# Velocity P-wave (km/s) = 6.25249 7.10046 6.68993
#
# Compressibility (1/GPa) = 0.02034905
#
# Stress axis : x y z
#
# Youngs Moduli (GPa) = 63.94894 70.23191 128.52810
#
# Poissons Ratio (x) = 0.31128 0.12111
# Poissons Ratio (y) = 0.28343 0.42148
# Poissons Ratio (z) = 0.06026 0.23031
#
# Static dielectric constant tensor:
#      x y z
#    x 4.952860 0.622650 0.070780 
#    y 0.622650 4.744690 -0.148180 
#    z 0.070780 -0.148180 4.243270 
# 
# 
# High freq. dielectric constant tensor:
#      x y z
#    x 1.870830 0.025390 0.002260 
#    y 0.025390 1.904120 -0.003600 
#    z 0.002260 -0.003600 1.887780 
# 
# From -- ./inp_files/237534.got.cif
#   From: 2010.06.25/outbox.cif.g09.slc.cpg/sg2_119_cif.got.tgz:237534.got - 2010.06.27 13:26:56.
