data_PCOD8012508
_publ_section_title
;
Structure prediction by ZEFSAII (Michael W. Deem and Ramdas Pophale) SiO2 
 PCOD8012508
Probable space group: P -1
;
_chemical_formula_sum "Si O2"
_cell_formula_units_Z 16
_cell_length_a 17.327685
_cell_length_b 7.731840
_cell_length_c 8.742856
_cell_angle_alpha 129.591357
_cell_angle_beta 52.537922
_cell_angle_gamma 110.030736
_cell_volume 714.519155
_symmetry_space_group_name_H-M "P -1"
_symmetry_group_IT_number 2
_symmetry_cell_setting 'triclinic'
loop_
_space_group_symop_operation_xyz
x,y,z
-x,-y,-z
loop_
_atom_site_type_symbol
_atom_site_label
_atom_site_fract_x
_atom_site_fract_y
_atom_site_fract_z
Si Si1 0.814667 0.923721 0.929231
Si Si2 0.189573 0.548533 0.224471
Si Si3 0.629762 0.433239 0.165465
Si Si4 0.138059 0.353848 0.668961
Si Si5 0.073711 0.717945 0.184646
Si Si6 0.314455 0.076757 0.198258
Si Si7 0.412371 0.492134 0.395765
Si Si8 0.242368 0.719903 0.566823
O O1 0.788743 0.038364 0.187857
O O2 0.889857 0.068432 0.828355
O O3 0.858944 0.669953 0.770454
O O4 0.719165 0.905611 0.928705
O O5 0.113946 0.702725 0.300011
O O6 0.225526 0.718963 0.405569
O O7 0.283550 0.448703 0.956264
O O8 0.525506 0.541067 0.293314
O O9 0.639766 0.464007 0.352450
O O10 0.643683 0.172486 0.954969
O O11 0.222973 0.151906 0.463439
O O12 0.175712 0.533549 0.607982
O O13 0.042889 0.250073 0.654456
O O14 0.111716 0.477139 0.929616
O O15 0.402022 0.235853 0.211954
O O16 0.356271 0.657889 0.435165
#
# Coordination Sequence:
#
# PCOD8012508 Si02
#       8
#     2   2   2   2   2   2   2   2
#     4  11  22  42  63  88 132 167 204 263 309 365
#     4  12  23  40  64  94 125 166 211 255 316 377
#     4  11  23  39  66  97 122 168 212 257 311 382
#     4   9  20  41  69  91 125 173 204 262 315 369
#     4  10  22  43  66  93 128 166 216 254 313 376
#     4  11  19  40  66  90 123 166 205 254 317 364
#     4  10  21  41  67  91 128 164 210 259 315 373
#     4  10  21  40  60  90 131 163 204 268 313 361
#
# _framework density 22.392679999999999
#
# number of rings (size 3 to 8) (size 9 to 14) (size 15 to 20)
#    0.000    1.500    5.000    1.875    0.000    3.500 
#    0.000    6.250    0.000    0.000    0.000    0.000 
#    0.000    0.000    0.000    0.000    0.000    0.000 
#
# Total GULP energy -198362.301505 kJ/mol
# GULP energy per Si atom -12397.643844 kJ/mol
# Density = 2.234171 g / cm^3
# Si number density = 22.392680 Si / 1000 Ang^3
#
#
#
# Elastic Constant Matrix: (Units=GPa)
#
#
# Indices 1 2 3 4 5 6 
#
# 1 109.5368 13.0854 19.4628 -8.2413 9.4718 2.1943
# 2 13.0854 61.4701 1.3350 7.6500 0.2865 1.6456
# 3 19.4628 1.3350 74.8537 14.1209 13.9653 -3.0724
# 4 -8.2413 7.6500 14.1209 24.0148 7.3738 0.6569
# 5 9.4718 0.2865 13.9653 7.3738 31.9018 -1.5434
# 6 2.1943 1.6456 -3.0724 0.6569 -1.5434 29.4340
#
#
#
# Elastic Compliance Matrix: (Units=1/GPa)
#
#
# Indices 1 2 3 4 5 6 
#
# 1 0.011149 -0.003261 -0.003781 0.008231 -0.003597 -0.001416
# 2 -0.003261 0.017977 0.001743 -0.008473 0.001988 -0.000287
# 3 -0.003781 0.001743 0.017144 -0.010822 -0.003799 0.002016
# 4 0.008231 -0.008473 -0.010822 0.056976 -0.010950 -0.003115
# 5 -0.003597 0.001988 -0.003799 -0.010950 0.036684 0.001928
# 6 -0.001416 -0.000287 0.002016 -0.003115 0.001928 0.034477
#
#
# Mechanical properties :
#
#
# Convention : Reuss Voigt Hill
#
# Bulk Modulus (GPa) = 28.03164 34.84744 31.43954
# Shear Modulus (GPa) = 25.39405 31.20196 28.29801
#
# Velocity S-wave (km/s) = 3.37119 3.73688 3.55874
# Velocity P-wave (km/s) = 5.26295 5.84934 5.56388
#
# Compressibility (1/GPa) = 0.03567397
#
# Stress axis : x y z
#
# Youngs Moduli (GPa) = 89.69127 55.62564 58.32785
#
# Poissons Ratio (x) = 0.18140 0.22051
# Poissons Ratio (y) = 0.29248 -0.10167
# Poissons Ratio (z) = 0.33909 -0.09696
#
# Static dielectric constant tensor:
#      x y z
#    x 4.003230 0.215880 0.219090 
#    y 0.215880 3.766660 0.165260 
#    z 0.219090 0.165260 4.340050 
# 
# 
# High freq. dielectric constant tensor:
#      x y z
#    x 1.883460 0.013190 0.015640 
#    y 0.013190 1.858330 0.014100 
#    z 0.015640 0.014100 1.888100 
# 
# From -- ./inp_files/329507.got.cif
#   From: 2010.06.25/outbox.cif.g09.slc.cpg/sg2_165_cif.got.tgz:329507.got - 2010.06.27 13:26:56.
