data_PCOD8012572
_publ_section_title
;
Structure prediction by ZEFSAII (Michael W. Deem and Ramdas Pophale) SiO2 
 PCOD8012572
Probable space group: P -1
;
_chemical_formula_sum "Si O2"
_cell_formula_units_Z 16
_cell_length_a 18.222911
_cell_length_b 24.297599
_cell_length_c 6.912923
_cell_angle_alpha 111.866316
_cell_angle_beta 120.554526
_cell_angle_gamma 18.930401
_cell_volume 788.096994
_symmetry_space_group_name_H-M "P -1"
_symmetry_group_IT_number 2
_symmetry_cell_setting 'triclinic'
loop_
_space_group_symop_operation_xyz
x,y,z
-x,-y,-z
loop_
_atom_site_type_symbol
_atom_site_label
_atom_site_fract_x
_atom_site_fract_y
_atom_site_fract_z
Si Si1 0.869864 0.292287 0.196998
Si Si2 0.393853 0.128491 0.629151
Si Si3 0.674777 0.942669 0.131539
Si Si4 0.400032 0.589989 0.684415
Si Si5 0.433627 0.896823 0.461614
Si Si6 0.882846 0.100964 0.273587
Si Si7 0.090962 0.611179 0.490167
Si Si8 0.622032 0.199944 0.721885
O O1 0.831993 0.295549 0.375548
O O2 0.878465 0.357411 0.269394
O O3 0.646353 0.414417 0.922053
O O4 0.146931 0.084195 0.220732
O O5 0.358257 0.205206 0.528641
O O6 0.110884 0.304862 0.584544
O O7 0.500000 0.000000 0.500000
O O8 0.622238 0.998810 0.916747
O O9 0.972116 0.722604 0.285479
O O10 0.588415 0.053335 0.300573
O O11 0.500000 0.000000 0.000000
O O12 0.500000 0.500000 0.500000
O O13 0.313493 0.715143 0.709262
O O14 0.512829 0.776161 0.425742
O O15 0.714450 0.162191 0.009108
O O16 0.000000 0.000000 0.500000
O O17 0.126760 0.963690 0.294500
O O18 0.385145 0.393738 0.561651
#
# Coordination Sequence:
#
# PCOD8012572 Si02
#       8
#     2   2   2   2   2   2   2   2
#     4  10  21  40  61  91 125 160 209 260 310 355
#     4  11  20  39  67  92 123 160 208 262 310 358
#     4   9  19  38  62  91 119 155 215 254 306 355
#     4  11  24  38  65  96 119 156 219 263 306 371
#     4  11  22  39  65  89 126 171 201 260 312 366
#     4  11  26  44  64  90 131 173 203 255 326 375
#     4  10  21  41  63  91 122 169 204 257 308 364
#     4  11  25  46  61  88 140 166 205 256 316 385
#
# _framework density 20.302068999999999
#
# number of rings (size 3 to 8) (size 9 to 14) (size 15 to 20)
#    0.000    1.500    6.250    0.000    3.500    3.500 
#    2.250    2.500    0.000    0.000    0.000    0.000 
#    0.000    0.000    0.000    0.000    0.000    0.000 
#
# Total GULP energy -198227.337066 kJ/mol
# GULP energy per Si atom -12389.208567 kJ/mol
# Density = 2.025586 g / cm^3
# Si number density = 20.302069 Si / 1000 Ang^3
#
#
#
# Elastic Constant Matrix: (Units=GPa)
#
#
# Indices 1 2 3 4 5 6 
#
# 1 85.8049 5.7028 31.1183 14.3459 2.9331 8.3887
# 2 5.7028 74.9605 33.7226 4.4611 1.3354 9.3298
# 3 31.1183 33.7226 119.9184 14.0196 -2.8615 8.6485
# 4 14.3459 4.4611 14.0196 25.1930 -4.0579 1.2757
# 5 2.9331 1.3354 -2.8615 -4.0579 27.0251 2.1808
# 6 8.3887 9.3298 8.6485 1.2757 2.1808 32.2585
#
#
#
# Elastic Compliance Matrix: (Units=1/GPa)
#
#
# Indices 1 2 3 4 5 6 
#
# 1 0.014201 0.001093 -0.003056 -0.006881 -0.002732 -0.002733
# 2 0.001093 0.015745 -0.004368 -0.000997 -0.001223 -0.003545
# 3 -0.003056 -0.004368 0.010831 -0.003269 0.001268 -0.000802
# 4 -0.006881 -0.000997 -0.003269 0.046773 0.007425 0.000602
# 5 -0.002732 -0.001223 0.001268 0.007425 0.038785 -0.002192
# 6 -0.002733 -0.003545 -0.000802 0.000602 -0.002192 0.033075
#
#
# Mechanical properties :
#
#
# Convention : Reuss Voigt Hill
#
# Bulk Modulus (GPa) = 35.57013 46.86346 41.21680
# Shear Modulus (GPa) = 27.55680 30.90465 29.23073
#
# Velocity S-wave (km/s) = 3.68821 3.90582 3.79857
# Velocity P-wave (km/s) = 5.97458 6.59347 6.29164
#
# Compressibility (1/GPa) = 0.02811348
#
# Stress axis : x y z
#
# Youngs Moduli (GPa) = 70.41738 63.51380 92.33064
#
# Poissons Ratio (x) = -0.06940 0.28216
# Poissons Ratio (y) = -0.07695 0.40331
# Poissons Ratio (z) = 0.21520 0.27744
#
# Static dielectric constant tensor:
#      x y z
#    x 4.154430 0.019290 -0.052130 
#    y 0.019290 3.554760 -0.096480 
#    z -0.052130 -0.096480 4.339390 
# 
# 
# High freq. dielectric constant tensor:
#      x y z
#    x 1.795810 0.001350 0.011530 
#    y 0.001350 1.777910 -0.005900 
#    z 0.011530 -0.005900 1.794140 
# 
# From -- ./inp_files/112937.got.cif
#   From: 2010.06.25/outbox.cif.g09.slc.cpg/sg2_57_cif.got.tgz:112937.got - 2010.06.27 13:26:56.
