data_PCOD8012670
_publ_section_title
;
Structure prediction by ZEFSAII (Michael W. Deem and Ramdas Pophale) SiO2 
 PCOD8012670
Probable space group: P -1
;
_chemical_formula_sum "Si O2"
_cell_formula_units_Z 16
_cell_length_a 7.162546
_cell_length_b 13.177701
_cell_length_c 8.574389
_cell_angle_alpha 73.106200
_cell_angle_beta 66.607905
_cell_angle_gamma 80.434277
_cell_volume 709.539229
_symmetry_space_group_name_H-M "P -1"
_symmetry_group_IT_number 2
_symmetry_cell_setting 'triclinic'
loop_
_space_group_symop_operation_xyz
x,y,z
-x,-y,-z
loop_
_atom_site_type_symbol
_atom_site_label
_atom_site_fract_x
_atom_site_fract_y
_atom_site_fract_z
Si Si1 0.140777 0.765828 0.918704
Si Si2 0.950295 0.681852 0.717516
Si Si3 0.006310 0.902934 0.157887
Si Si4 0.280137 0.963763 0.610673
Si Si5 0.521835 0.624067 0.959979
Si Si6 0.224320 0.831726 0.394426
Si Si7 0.528165 0.649178 0.303585
Si Si8 0.822709 0.496067 0.433643
O O1 0.263099 0.867750 0.781061
O O2 0.308232 0.675015 0.948035
O O3 0.990547 0.730436 0.851328
O O4 0.993940 0.797633 0.101625
O O5 0.711194 0.664271 0.777614
O O6 0.033766 0.757437 0.520541
O O7 0.081071 0.569435 0.715630
O O8 0.211401 0.883428 0.202672
O O9 0.836630 0.928455 0.334885
O O10 0.000000 0.000000 0.000000
O O11 0.207970 0.926644 0.481825
O O12 0.500000 0.000000 0.500000
O O13 0.500000 0.500000 0.000000
O O14 0.573438 0.660852 0.100826
O O15 0.436975 0.759372 0.362724
O O16 0.734370 0.610487 0.346206
O O17 0.364403 0.559885 0.402630
O O18 0.000000 0.500000 0.500000
#
# Coordination Sequence:
#
# PCOD8012670 Si02
#       8
#     2   2   2   2   2   2   2   2
#     4  10  23  45  64  95 139 169 219 271 330 397
#     4  10  24  40  64  96 132 176 219 269 328 386
#     4  10  21  43  68  93 132 174 213 273 339 392
#     4  10  23  41  68 100 125 171 220 274 331 394
#     4  12  24  40  66  97 133 175 220 274 326 389
#     4  10  21  44  66  93 134 172 216 273 329 397
#     4  10  22  39  62  92 129 170 219 267 321 387
#     4  10  21  40  62  92 129 176 217 264 324 389
#
# _framework density 22.549845999999999
#
# number of rings (size 3 to 8) (size 9 to 14) (size 15 to 20)
#    0.000    1.750    1.250    1.875    1.750    8.000 
#    2.250    1.250    0.000    0.000    0.000    0.000 
#    0.000    0.000    0.000    0.000    0.000    0.000 
#
# Total GULP energy -198272.731552 kJ/mol
# GULP energy per Si atom -12392.045722 kJ/mol
# Density = 2.249852 g / cm^3
# Si number density = 22.549846 Si / 1000 Ang^3
#
#
#
# Elastic Constant Matrix: (Units=GPa)
#
#
# Indices 1 2 3 4 5 6 
#
# 1 106.2765 52.6349 28.4851 -0.9590 11.0890 -14.3369
# 2 52.6349 123.1751 45.2884 26.2987 -1.9556 -15.1631
# 3 28.4851 45.2884 79.2488 21.6823 12.5717 -2.2164
# 4 -0.9590 26.2987 21.6823 38.5743 -1.6794 -0.5202
# 5 11.0890 -1.9556 12.5717 -1.6794 43.7043 -5.6374
# 6 -14.3369 -15.1631 -2.2164 -0.5202 -5.6374 37.4207
#
#
#
# Elastic Compliance Matrix: (Units=1/GPa)
#
#
# Indices 1 2 3 4 5 6 
#
# 1 0.013637 -0.005795 -0.002712 0.005742 -0.002405 0.002434
# 2 -0.005795 0.014341 -0.004645 -0.007100 0.003662 0.003768
# 3 -0.002712 -0.004645 0.019274 -0.008021 -0.005727 -0.002754
# 4 0.005742 -0.007100 -0.008021 0.035491 0.001847 -0.000380
# 5 -0.002405 0.003662 -0.005727 0.001847 0.025909 0.004152
# 6 0.002434 0.003768 -0.002754 -0.000380 0.004152 0.029640
#
#
# Mechanical properties :
#
#
# Convention : Reuss Voigt Hill
#
# Bulk Modulus (GPa) = 47.73749 62.39080 55.06415
# Shear Modulus (GPa) = 29.14128 36.09266 32.61697
#
# Velocity S-wave (km/s) = 3.59876 4.00506 3.80733
# Velocity P-wave (km/s) = 6.20354 7.00823 6.61813
#
# Compressibility (1/GPa) = 0.02094790
#
# Stress axis : x y z
#
# Youngs Moduli (GPa) = 73.32804 69.73139 51.88409
#
# Poissons Ratio (x) = 0.40410 0.14069
# Poissons Ratio (y) = 0.42495 0.24102
# Poissons Ratio (z) = 0.19883 0.32392
#
# Static dielectric constant tensor:
#      x y z
#    x 3.880110 -0.466910 0.066610 
#    y -0.466910 4.230860 0.241960 
#    z 0.066610 0.241960 4.359780 
# 
# 
# High freq. dielectric constant tensor:
#      x y z
#    x 1.875590 -0.016450 0.004500 
#    y -0.016450 1.897200 0.021200 
#    z 0.004500 0.021200 1.893430 
# 
# From -- ./inp_files/135094.got.cif
#   From: 2010.06.25/outbox.cif.g09.slc.cpg/sg2_68_cif.got.tgz:135094.got - 2010.06.27 13:26:56.
