data_PCOD8012667
_publ_section_title
;
Structure prediction by ZEFSAII (Michael W. Deem and Ramdas Pophale) SiO2 
 PCOD8012667
Probable space group: P -1
;
_chemical_formula_sum "Si O2"
_cell_formula_units_Z 12
_cell_length_a 13.549794
_cell_length_b 6.972675
_cell_length_c 11.995626
_cell_angle_alpha 70.025335
_cell_angle_beta 32.226048
_cell_angle_gamma 77.985485
_cell_volume 560.568614
_symmetry_space_group_name_H-M "P -1"
_symmetry_group_IT_number 2
_symmetry_cell_setting 'triclinic'
loop_
_space_group_symop_operation_xyz
x,y,z
-x,-y,-z
loop_
_atom_site_type_symbol
_atom_site_label
_atom_site_fract_x
_atom_site_fract_y
_atom_site_fract_z
Si Si1 0.790926 0.498290 0.162015
Si Si2 0.375760 0.398641 0.910274
Si Si3 0.419251 0.814919 0.885915
Si Si4 0.262415 0.073102 0.272420
Si Si5 0.931312 0.258303 0.624754
Si Si6 0.514688 0.780905 0.371012
O O1 0.783208 0.514787 0.031264
O O2 0.694965 0.688931 0.267329
O O3 0.667670 0.285334 0.365839
O O4 0.000000 0.500000 0.000000
O O5 0.481779 0.595654 0.838709
O O6 0.517913 0.308535 0.707695
O O7 0.275911 0.221931 0.122186
O O8 0.539030 0.910750 0.859344
O O9 0.449124 0.970349 0.721116
O O10 0.199795 0.782631 0.133365
O O11 0.111036 0.142453 0.488990
O O12 0.189854 0.837905 0.348372
O O13 0.000000 0.500000 0.500000
#
# Coordination Sequence:
#
# PCOD8012667 Si02
#       6
#     2   2   2   2   2   2
#     4   9  20  44  65  86 122 161 205 269 312 352
#     4  10  21  40  62  92 123 161 214 248 301 382
#     4  12  23  40  63  94 129 170 200 251 316 372
#     4  11  24  40  60  93 134 165 204 251 309 374
#     4  11  23  37  58  90 127 168 211 246 289 373
#     4   9  22  40  62  90 122 158 212 254 308 369
#
# _framework density 21.406832999999999
#
# number of rings (size 3 to 8) (size 9 to 14) (size 15 to 20)
#    1.000    0.667    3.333    1.000    0.000    4.667 
#    3.000    0.833    0.000    0.000    0.000    0.000 
#    0.000    0.000    0.000    0.000    0.000    0.000 
#
# Total GULP energy -148696.310468 kJ/mol
# GULP energy per Si atom -12391.359206 kJ/mol
# Density = 2.135811 g / cm^3
# Si number density = 21.406833 Si / 1000 Ang^3
#
#
#
# Elastic Constant Matrix: (Units=GPa)
#
#
# Indices 1 2 3 4 5 6 
#
# 1 80.9260 9.5485 45.4192 -15.2988 -1.5444 -10.9515
# 2 9.5485 105.6362 34.9370 -28.7277 -3.2461 5.1252
# 3 45.4192 34.9370 133.6897 -11.8119 -2.0929 -23.9963
# 4 -15.2988 -28.7277 -11.8119 39.5441 -1.2362 2.8056
# 5 -1.5444 -3.2461 -2.0929 -1.2362 25.9950 -5.1122
# 6 -10.9515 5.1252 -23.9963 2.8056 -5.1122 26.5251
#
#
#
# Elastic Compliance Matrix: (Units=1/GPa)
#
#
# Indices 1 2 3 4 5 6 
#
# 1 0.016462 0.001916 -0.005311 0.006128 0.001323 0.001229
# 2 0.001916 0.013906 -0.004663 0.009970 0.000561 -0.007061
# 3 -0.005311 -0.004663 0.012177 -0.002478 0.002005 0.010373
# 4 0.006128 0.009970 -0.002478 0.034574 0.002092 -0.004892
# 5 0.001323 0.000561 0.002005 0.002092 0.040825 0.009898
# 6 0.001229 -0.007061 0.010373 -0.004892 0.009898 0.051381
#
#
# Mechanical properties :
#
#
# Convention : Reuss Voigt Hill
#
# Bulk Modulus (GPa) = 37.83538 55.56238 46.69888
# Shear Modulus (GPa) = 25.74005 33.76930 29.75467
#
# Velocity S-wave (km/s) = 3.47136 3.97609 3.73226
# Velocity P-wave (km/s) = 5.81205 6.86227 6.35888
#
# Compressibility (1/GPa) = 0.02643029
#
# Stress axis : x y z
#
# Youngs Moduli (GPa) = 60.74778 71.90937 82.12168
#
# Poissons Ratio (x) = -0.13778 0.43611
# Poissons Ratio (y) = -0.11640 0.38292
# Poissons Ratio (z) = 0.32261 0.33530
#
# Static dielectric constant tensor:
#      x y z
#    x 3.557840 0.017200 0.179060 
#    y 0.017200 3.946600 -0.032230 
#    z 0.179060 -0.032230 3.906640 
# 
# 
# High freq. dielectric constant tensor:
#      x y z
#    x 1.805960 -0.004980 0.014940 
#    y -0.004980 1.844480 -0.007320 
#    z 0.014940 -0.007320 1.838040 
# 
# From -- ./inp_files/524696.got.cif
#   From: 2010.06.25/outbox.cif.g09.slc.cpg/sg2_263_cif.got.tgz:524696.got - 2010.06.27 13:26:56.
