data_PCOD8012955
_publ_section_title
;
Structure prediction by ZEFSAII (Michael W. Deem and Ramdas Pophale) SiO2 
 PCOD8012955
Probable space group: P -1
;
_chemical_formula_sum "Si O2"
_cell_formula_units_Z 16
_cell_length_a 14.512235
_cell_length_b 10.447949
_cell_length_c 29.419984
_cell_angle_alpha 33.338450
_cell_angle_beta 18.433275
_cell_angle_gamma 30.340983
_cell_volume 708.603868
_symmetry_space_group_name_H-M "P -1"
_symmetry_group_IT_number 2
_symmetry_cell_setting 'triclinic'
loop_
_space_group_symop_operation_xyz
x,y,z
-x,-y,-z
loop_
_atom_site_type_symbol
_atom_site_label
_atom_site_fract_x
_atom_site_fract_y
_atom_site_fract_z
Si Si1 0.770946 0.095837 0.420416
Si Si2 0.361756 0.449662 0.966155
Si Si3 0.304600 0.944197 0.000062
Si Si4 0.322811 0.424519 0.728960
Si Si5 0.606389 0.278739 0.805396
Si Si6 0.744085 0.961171 0.714424
Si Si7 0.495160 0.084400 0.248548
Si Si8 0.563941 0.155694 0.292017
O O1 0.513064 0.983847 0.587676
O O2 0.031035 0.904233 0.321710
O O3 0.934732 0.136238 0.378148
O O4 0.587829 0.367014 0.401085
O O5 0.569165 0.297676 0.871324
O O6 0.304179 0.744983 0.904116
O O7 0.548495 0.317215 0.963207
O O8 0.020414 0.431846 0.129294
O O9 0.931825 0.021705 0.145348
O O10 0.363711 0.169290 0.931123
O O11 0.475149 0.895746 0.885652
O O12 0.594103 0.271829 0.684780
O O13 0.291431 0.216888 0.769722
O O14 0.530142 0.552430 0.737222
O O15 0.794243 0.831518 0.678836
O O16 0.366018 0.131736 0.346893
#
# Coordination Sequence:
#
# PCOD8012955 Si02
#       8
#     2   2   2   2   2   2   2   2
#     4  11  23  44  65  92 128 174 204 251 318 383
#     4  11  20  39  68  95 127 158 217 266 308 367
#     4  11  22  38  66  97 121 169 208 262 316 367
#     4  10  21  40  64  94 127 163 203 266 306 370
#     4  10  22  43  64  90 127 163 212 268 308 362
#     4   9  21  41  65  93 122 166 206 255 318 355
#     4   9  23  39  63  95 128 161 207 269 308 361
#     4  11  24  41  63  93 130 165 211 256 312 379
#
# _framework density 22.579611
#
# number of rings (size 3 to 8) (size 9 to 14) (size 15 to 20)
#    0.750    1.000    2.500    3.000    1.750    3.500 
#    4.500    0.625    0.000    0.000    0.000    0.000 
#    0.000    0.000    0.000    0.000    0.000    0.000 
#
# Total GULP energy -198297.908089 kJ/mol
# GULP energy per Si atom -12393.619256 kJ/mol
# Density = 2.252822 g / cm^3
# Si number density = 22.579611 Si / 1000 Ang^3
#
#
#
# Elastic Constant Matrix: (Units=GPa)
#
#
# Indices 1 2 3 4 5 6 
#
# 1 54.4705 11.3054 7.7187 -4.4789 17.7145 -1.7056
# 2 11.3054 68.8132 36.7743 -30.1351 14.6981 -0.6792
# 3 7.7187 36.7743 91.9405 -26.9886 20.6577 -1.5670
# 4 -4.4789 -30.1351 -26.9886 34.8198 -12.9604 6.8075
# 5 17.7145 14.6981 20.6577 -12.9604 24.4309 -3.9559
# 6 -1.7056 -0.6792 -1.5670 6.8075 -3.9559 35.5696
#
#
#
# Elastic Compliance Matrix: (Units=1/GPa)
#
#
# Indices 1 2 3 4 5 6 
#
# 1 0.025163 -0.003367 0.002306 -0.005796 -0.021246 -0.000010
# 2 -0.003367 0.025811 -0.004549 0.019206 0.000380 -0.003502
# 3 0.002306 -0.004549 0.016379 0.005597 -0.010050 -0.001443
# 4 -0.005796 0.019206 0.005597 0.056833 0.016658 -0.008689
# 5 -0.021246 0.000380 -0.010050 0.016658 0.074024 0.003590
# 6 -0.000010 -0.003502 -0.001443 -0.008689 0.003590 0.030045
#
#
# Mechanical properties :
#
#
# Convention : Reuss Voigt Hill
#
# Bulk Modulus (GPa) = 17.81416 36.31343 27.06380
# Shear Modulus (GPa) = 19.36602 29.59245 24.47924
#
# Velocity S-wave (km/s) = 2.93179 3.62412 3.29619
# Velocity P-wave (km/s) = 4.40081 5.79911 5.14766
#
# Compressibility (1/GPa) = 0.05613511
#
# Stress axis : x y z
#
# Youngs Moduli (GPa) = 39.74055 38.74312 61.05551
#
# Poissons Ratio (x) = 0.13044 -0.14082
# Poissons Ratio (y) = 0.13379 0.27771
# Poissons Ratio (z) = -0.09166 0.17623
#
# Static dielectric constant tensor:
#      x y z
#    x 4.003970 -0.020530 0.259380 
#    y -0.020530 3.959930 -0.300110 
#    z 0.259380 -0.300110 3.879360 
# 
# 
# High freq. dielectric constant tensor:
#      x y z
#    x 1.881620 -0.003730 0.020160 
#    y -0.003730 1.880930 -0.020250 
#    z 0.020160 -0.020250 1.881140 
# 
# From -- ./inp_files/623510.got.cif
#   From: 2010.06.25/outbox.cif.g09.slc.cpg/sg2_312_cif.got.tgz:623510.got - 2010.06.27 13:26:56.
