data_PCOD8012867
_publ_section_title
;
Structure prediction by ZEFSAII (Michael W. Deem and Ramdas Pophale) SiO2 
 PCOD8012867
Probable space group: P -1
;
_chemical_formula_sum "Si O2"
_cell_formula_units_Z 16
_cell_length_a 11.087939
_cell_length_b 10.942400
_cell_length_c 9.193738
_cell_angle_alpha 122.743721
_cell_angle_beta 90.828712
_cell_angle_gamma 52.150459
_cell_volume 650.751138
_symmetry_space_group_name_H-M "P -1"
_symmetry_group_IT_number 2
_symmetry_cell_setting 'triclinic'
loop_
_space_group_symop_operation_xyz
x,y,z
-x,-y,-z
loop_
_atom_site_type_symbol
_atom_site_label
_atom_site_fract_x
_atom_site_fract_y
_atom_site_fract_z
Si Si1 0.087391 0.100480 0.545218
Si Si2 0.072349 0.958453 0.170234
Si Si3 0.627461 0.853250 0.185727
Si Si4 0.775329 0.017688 0.223609
Si Si5 0.716432 0.509284 0.775806
Si Si6 0.256639 0.239005 0.551487
Si Si7 0.809580 0.435069 0.406274
Si Si8 0.392257 0.631761 0.771352
O O1 0.078058 0.968959 0.353468
O O2 0.159070 0.170691 0.492463
O O3 0.893259 0.309913 0.733129
O O4 0.221241 0.953605 0.583816
O O5 0.965067 0.904262 0.093827
O O6 0.968594 0.184009 0.244882
O O7 0.263329 0.787068 0.999514
O O8 0.721984 0.735621 0.263190
O O9 0.734542 0.882780 0.115629
O O10 0.436030 0.077412 0.361318
O O11 0.619446 0.718332 0.999089
O O12 0.630110 0.241514 0.286603
O O13 0.763764 0.523985 0.625477
O O14 0.586058 0.484422 0.742813
O O15 0.140887 0.464665 0.619730
O O16 0.642478 0.502220 0.369061
#
# Coordination Sequence:
#
# PCOD8012867 Si02
#       8
#     2   2   2   2   2   2   2   2
#     4  10  23  40  63  92 124 160 201 251 300 359
#     4  10  22  40  65  91 119 160 206 249 299 362
#     4  10  23  40  63  90 121 163 204 249 302 361
#     4  10  21  40  64  88 121 161 201 246 302 360
#     4  11  24  39  60  94 126 157 203 252 302 358
#     4  10  22  42  62  88 125 162 202 248 304 361
#     4  10  22  40  62  89 122 160 201 252 305 358
#     4  11  23  41  64  90 123 161 203 250 303 360
#
# _framework density 24.586970000000001
#
# number of rings (size 3 to 8) (size 9 to 14) (size 15 to 20)
#    0.000    1.750    0.000    3.750    0.000   13.000 
#    0.000    3.750    0.000    0.000    0.000    0.000 
#    0.000    0.000    0.000    0.000    0.000    0.000 
#
# Total GULP energy -198396.316152 kJ/mol
# GULP energy per Si atom -12399.769759 kJ/mol
# Density = 2.453101 g / cm^3
# Si number density = 24.586970 Si / 1000 Ang^3
#
#
#
# Elastic Constant Matrix: (Units=GPa)
#
#
# Indices 1 2 3 4 5 6 
#
# 1 94.7681 19.5241 18.6681 10.0898 -3.4264 -4.6590
# 2 19.5241 56.0407 9.3627 0.9745 -11.3531 8.8189
# 3 18.6681 9.3627 89.8707 -2.5956 2.6734 1.3987
# 4 10.0898 0.9745 -2.5956 14.1476 -6.4674 2.9160
# 5 -3.4264 -11.3531 2.6734 -6.4674 41.0890 -2.6115
# 6 -4.6590 8.8189 1.3987 2.9160 -2.6115 41.4248
#
#
#
# Elastic Compliance Matrix: (Units=1/GPa)
#
#
# Indices 1 2 3 4 5 6 
#
# 1 0.013349 -0.004869 -0.002589 -0.011070 -0.001596 0.003304
# 2 -0.004869 0.021713 -0.001193 0.005667 0.006237 -0.005136
# 3 -0.002589 -0.001193 0.011937 0.003933 -0.000752 -0.000765
# 4 -0.011070 0.005667 0.003933 0.086713 0.013538 -0.007835
# 5 -0.001596 0.006237 -0.000752 0.013538 0.028065 -0.000666
# 6 0.003304 -0.005136 -0.000765 -0.007835 -0.000666 0.026140
#
#
# Mechanical properties :
#
#
# Convention : Reuss Voigt Hill
#
# Bulk Modulus (GPa) = 33.67319 37.30990 35.49154
# Shear Modulus (GPa) = 23.24317 32.20722 27.72520
#
# Velocity S-wave (km/s) = 3.07798 3.62322 3.36167
# Velocity P-wave (km/s) = 5.13393 5.71938 5.43454
#
# Compressibility (1/GPa) = 0.02969722
#
# Stress axis : x y z
#
# Youngs Moduli (GPa) = 74.91477 46.05602 83.77293
#
# Poissons Ratio (x) = 0.22423 0.21691
# Poissons Ratio (y) = 0.36474 0.09991
# Poissons Ratio (z) = 0.19397 0.05493
#
# Static dielectric constant tensor:
#      x y z
#    x 4.620700 -0.017770 0.014710 
#    y -0.017770 4.277420 -0.255340 
#    z 0.014710 -0.255340 4.135470 
# 
# 
# High freq. dielectric constant tensor:
#      x y z
#    x 1.989400 -0.000600 -0.002520 
#    y -0.000600 1.972260 -0.016520 
#    z -0.002520 -0.016520 1.965740 
# 
# From -- ./inp_files/263047.got.cif
#   From: 2010.06.25/outbox.cif.g09.slc.cpg/sg2_132_cif.got.tgz:263047.got - 2010.06.27 13:26:56.
