data_PCOD8012966
_publ_section_title
;
Structure prediction by ZEFSAII (Michael W. Deem and Ramdas Pophale) SiO2 
 PCOD8012966
Probable space group: P -1
;
_chemical_formula_sum "Si O2"
_cell_formula_units_Z 12
_cell_length_a 9.759383
_cell_length_b 8.946121
_cell_length_c 9.932647
_cell_angle_alpha 106.356188
_cell_angle_beta 109.823441
_cell_angle_gamma 126.725800
_cell_volume 501.099663
_symmetry_space_group_name_H-M "P -1"
_symmetry_group_IT_number 2
_symmetry_cell_setting 'triclinic'
loop_
_space_group_symop_operation_xyz
x,y,z
-x,-y,-z
loop_
_atom_site_type_symbol
_atom_site_label
_atom_site_fract_x
_atom_site_fract_y
_atom_site_fract_z
Si Si1 0.776820 0.406254 0.138265
Si Si2 0.181724 0.022823 0.025542
Si Si3 0.378527 0.089208 0.599023
Si Si4 0.203240 0.788508 0.205769
Si Si5 0.585372 0.540232 0.188786
Si Si6 0.747830 0.104815 0.225938
O O1 0.802300 0.605312 0.250984
O O2 0.830806 0.341813 0.266987
O O3 0.948608 0.519627 0.096536
O O4 0.523036 0.154221 0.942142
O O5 0.420802 0.306749 0.171846
O O6 0.199616 0.883836 0.090018
O O7 0.119419 0.912106 0.826117
O O8 0.000000 0.000000 0.000000
O O9 0.629998 0.223441 0.739584
O O10 0.368726 0.265452 0.665933
O O11 0.288585 0.982559 0.393950
O O12 0.201422 0.867643 0.591434
O O13 0.500000 0.500000 0.000000
#
# Coordination Sequence:
#
# PCOD8012966 Si02
#       6
#     2   2   2   2   2   2
#     4  10  21  40  64  95 120 177 213 263 308 377
#     4  11  24  40  64 100 124 167 222 265 312 376
#     4  11  24  44  63  98 132 171 204 267 326 382
#     4  11  26  41  65  96 138 164 209 266 328 377
#     4  11  21  40  66  92 126 168 220 263 312 374
#     4  10  22  41  67  88 129 170 222 257 310 388
#
# _framework density 23.947333
#
# number of rings (size 3 to 8) (size 9 to 14) (size 15 to 20)
#    0.000    1.333    3.333    4.000    2.333    3.333 
#    0.000    0.000    0.000    0.000    0.000    0.000 
#    0.000    0.000    0.000    0.000    0.000    0.000 
#
# Total GULP energy -148700.491830 kJ/mol
# GULP energy per Si atom -12391.707652 kJ/mol
# Density = 2.389283 g / cm^3
# Si number density = 23.947333 Si / 1000 Ang^3
#
#
#
# Elastic Constant Matrix: (Units=GPa)
#
#
# Indices 1 2 3 4 5 6 
#
# 1 148.0009 41.1619 -1.4773 1.2562 -19.0635 7.7213
# 2 41.1619 158.1312 10.1059 2.9608 -4.4193 5.9270
# 3 -1.4773 10.1059 32.9507 -4.0256 -9.6449 4.4475
# 4 1.2562 2.9608 -4.0256 25.8069 3.7006 -11.1389
# 5 -19.0635 -4.4193 -9.6449 3.7006 36.6160 3.1212
# 6 7.7213 5.9270 4.4475 -11.1389 3.1212 46.0416
#
#
#
# Elastic Compliance Matrix: (Units=1/GPa)
#
#
# Indices 1 2 3 4 5 6 
#
# 1 0.008100 -0.002033 0.002541 -0.001338 0.004947 -0.002001
# 2 -0.002033 0.007040 -0.002530 -0.001252 -0.000699 -0.000576
# 3 0.002541 -0.002530 0.035049 0.002627 0.010287 -0.003548
# 4 -0.001338 -0.001252 0.002627 0.045119 -0.005690 0.011433
# 5 0.004947 -0.000699 0.010287 -0.005690 0.033545 -0.005384
# 6 -0.002001 -0.000576 -0.003548 0.011433 -0.005384 0.025603
#
#
# Mechanical properties :
#
#
# Convention : Reuss Voigt Hill
#
# Bulk Modulus (GPa) = 21.67000 48.74043 35.20521
# Shear Modulus (GPa) = 28.75512 40.97906 34.86709
#
# Velocity S-wave (km/s) = 3.46897 4.14117 3.81988
# Velocity P-wave (km/s) = 5.01135 6.57747 5.84708
#
# Compressibility (1/GPa) = 0.04614676
#
# Stress axis : x y z
#
# Youngs Moduli (GPa) = 123.45076 142.04211 28.53135
#
# Poissons Ratio (x) = 0.28872 -0.07251
# Poissons Ratio (y) = 0.25093 0.07219
# Poissons Ratio (z) = -0.31373 0.35939
#
# Static dielectric constant tensor:
#      x y z
#    x 5.035700 0.176290 -0.361730 
#    y 0.176290 4.905650 -0.222500 
#    z -0.361730 -0.222500 4.053020 
# 
# 
# High freq. dielectric constant tensor:
#      x y z
#    x 1.976200 0.006710 -0.029040 
#    y 0.006710 1.968010 -0.005270 
#    z -0.029040 -0.005270 1.920030 
# 
# From -- ./inp_files/380035.got.cif
#   From: 2010.06.25/outbox.cif.g09.slc.cpg/sg2_191_cif.got.tgz:380035.got - 2010.06.27 13:26:56.
