data_PCOD8012776
_publ_section_title
;
Structure prediction by ZEFSAII (Michael W. Deem and Ramdas Pophale) SiO2 
 PCOD8012776
Probable space group: P -1
;
_chemical_formula_sum "Si O2"
_cell_formula_units_Z 16
_cell_length_a 12.450241
_cell_length_b 12.994219
_cell_length_c 12.437630
_cell_angle_alpha 43.585343
_cell_angle_beta 87.898349
_cell_angle_gamma 123.628630
_cell_volume 747.081738
_symmetry_space_group_name_H-M "P -1"
_symmetry_group_IT_number 2
_symmetry_cell_setting 'triclinic'
loop_
_space_group_symop_operation_xyz
x,y,z
-x,-y,-z
loop_
_atom_site_type_symbol
_atom_site_label
_atom_site_fract_x
_atom_site_fract_y
_atom_site_fract_z
Si Si1 0.513916 0.840685 0.117672
Si Si2 0.843118 0.468003 0.929949
Si Si3 0.167380 0.777486 0.350320
Si Si4 0.947276 0.583970 0.074399
Si Si5 0.817618 0.866137 0.292225
Si Si6 0.400583 0.838518 0.448923
Si Si7 0.085604 0.281214 0.471726
Si Si8 0.437669 0.590062 0.515535
O O1 0.293082 0.535489 0.331337
O O2 0.563660 0.830591 0.239382
O O3 0.500000 0.000000 0.000000
O O4 0.672858 0.963779 0.932929
O O5 0.960136 0.641249 0.904338
O O6 0.612536 0.168813 0.193256
O O7 0.880538 0.650359 0.708671
O O8 0.930404 0.424175 0.902045
O O9 0.268565 0.764071 0.421611
O O10 0.000000 0.500000 0.500000
O O11 0.083985 0.808710 0.407319
O O12 0.715840 0.284401 0.340551
O O13 0.049894 0.830177 0.958544
O O14 0.952936 0.934424 0.325152
O O15 0.592213 0.643572 0.511437
O O16 0.769513 0.723752 0.287619
O O17 0.400899 0.661569 0.559438
#
# Coordination Sequence:
#
# PCOD8012776 Si02
#       8
#     2   2   2   2   2   2   2   2
#     4  11  19  35  59  89 127 159 200 259 306 362
#     4  11  23  44  68  91 121 164 220 268 310 351
#     4  12  22  32  60  98 123 160 205 253 310 374
#     4  11  25  42  67  92 123 166 215 268 305 369
#     4  10  23  43  60  93 131 170 200 247 323 381
#     4  12  22  40  67  97 126 159 212 267 310 362
#     4  11  22  41  60  90 125 164 209 251 313 375
#     4  10  21  40  63  91 132 169 196 249 322 384
#
# _framework density 21.416664999999998
#
# number of rings (size 3 to 8) (size 9 to 14) (size 15 to 20)
#    0.000    1.000    6.250    1.125    1.750    1.000 
#    6.750    0.000    0.000    1.500    0.000    0.000 
#    0.000    0.000    0.000    0.000    0.000    0.000 
#
# Total GULP energy -198254.624117 kJ/mol
# GULP energy per Si atom -12390.914007 kJ/mol
# Density = 2.136792 g / cm^3
# Si number density = 21.416665 Si / 1000 Ang^3
#
#
#
# Elastic Constant Matrix: (Units=GPa)
#
#
# Indices 1 2 3 4 5 6 
#
# 1 80.8481 5.9256 5.3502 1.4191 -3.6798 9.7774
# 2 5.9256 36.2973 3.9169 1.7836 3.3713 4.7083
# 3 5.3502 3.9169 77.1070 8.5849 -20.0794 -10.3579
# 4 1.4191 1.7836 8.5849 31.1560 0.1947 3.4316
# 5 -3.6798 3.3713 -20.0794 0.1947 31.5831 0.5469
# 6 9.7774 4.7083 -10.3579 3.4316 0.5469 23.5845
#
#
#
# Elastic Compliance Matrix: (Units=1/GPa)
#
#
# Indices 1 2 3 4 5 6 
#
# 1 0.013323 -0.001336 -0.001507 0.000542 0.000838 -0.006017
# 2 -0.001336 0.029595 -0.003835 0.000223 -0.005634 -0.006940
# 3 -0.001507 -0.003835 0.018340 -0.005944 0.011757 0.010037
# 4 0.000542 0.000223 -0.005944 0.034583 -0.003818 -0.007823
# 5 0.000838 -0.005634 0.011757 -0.003818 0.039763 0.005574
# 6 -0.006017 -0.006940 0.010037 -0.007823 0.005574 0.051698
#
#
# Mechanical properties :
#
#
# Convention : Reuss Voigt Hill
#
# Bulk Modulus (GPa) = 20.87635 24.95975 22.91805
# Shear Modulus (GPa) = 23.08144 29.20205 26.14174
#
# Velocity S-wave (km/s) = 3.28645 3.69659 3.49754
# Velocity P-wave (km/s) = 4.91628 5.46803 5.19948
#
# Compressibility (1/GPa) = 0.04790109
#
# Stress axis : x y z
#
# Youngs Moduli (GPa) = 75.05946 33.78963 54.52558
#
# Poissons Ratio (x) = 0.04515 0.08217
# Poissons Ratio (y) = 0.10030 0.20910
# Poissons Ratio (z) = 0.11312 0.12958
#
# Static dielectric constant tensor:
#      x y z
#    x 3.969130 0.046270 -0.149010 
#    y 0.046270 3.585730 0.140380 
#    z -0.149010 0.140380 3.846240 
# 
# 
# High freq. dielectric constant tensor:
#      x y z
#    x 1.854860 0.008780 -0.001560 
#    y 0.008780 1.815540 0.002010 
#    z -0.001560 0.002010 1.832440 
# 
# From -- ./inp_files/337661.got.cif
#   From: 2010.06.25/outbox.cif.g09.slc.cpg/sg2_169_cif.got.tgz:337661.got - 2010.06.27 13:26:56.
