data_PCOD8012805
_publ_section_title
;
Structure prediction by ZEFSAII (Michael W. Deem and Ramdas Pophale) SiO2 
 PCOD8012805
Probable space group: P -1
;
_chemical_formula_sum "Si O2"
_cell_formula_units_Z 14
_cell_length_a 5.301803
_cell_length_b 25.106589
_cell_length_c 7.118978
_cell_angle_alpha 129.396412
_cell_angle_beta 70.355679
_cell_angle_gamma 105.797081
_cell_volume 687.406383
_symmetry_space_group_name_H-M "P -1"
_symmetry_group_IT_number 2
_symmetry_cell_setting 'triclinic'
loop_
_space_group_symop_operation_xyz
x,y,z
-x,-y,-z
loop_
_atom_site_type_symbol
_atom_site_label
_atom_site_fract_x
_atom_site_fract_y
_atom_site_fract_z
Si Si1 0.613291 0.358299 0.775375
Si Si2 0.184825 0.288123 0.950910
Si Si3 0.751447 0.467359 0.278838
Si Si4 0.133832 0.016960 0.303129
Si Si5 0.268131 0.918314 0.729336
Si Si6 0.275622 0.764066 0.299737
Si Si7 0.096070 0.602129 0.558536
O O1 0.303492 0.334844 0.848293
O O2 0.795180 0.298457 0.674634
O O3 0.654162 0.368606 0.566265
O O4 0.696106 0.432713 0.014855
O O5 0.414568 0.239869 0.858222
O O6 0.920667 0.242213 0.845404
O O7 0.120155 0.340118 0.252361
O O8 0.500000 0.500000 0.500000
O O9 0.986705 0.528264 0.336171
O O10 0.815777 0.405878 0.266395
O O11 0.426079 0.057000 0.347637
O O12 0.933002 0.062010 0.340138
O O13 0.000000 0.000000 0.500000
O O14 0.178353 0.947727 0.018122
O O15 0.244288 0.835905 0.573155
#
# Coordination Sequence:
#
# PCOD8012805 Si02
#       7
#     2   2   2   2   2   2   2
#     4  10  23  39  59  86 120 156 202 252 302 369
#     4  10  21  42  58  86 125 155 205 248 300 367
#     4  11  21  39  59  86 115 154 208 255 308 362
#     4  10  21  40  67  93 125 161 205 241 296 353
#     4  10  21  40  63  93 129 159 197 257 290 347
#     4  10  21  42  61  87 129 160 196 251 303 355
#     4  11  22  39  61  83 118 160 201 259 308 353
#
# _framework density 20.366409999999998
#
# number of rings (size 3 to 8) (size 9 to 14) (size 15 to 20)
#    0.857    0.857    2.857    1.714    0.000    1.714 
#    5.143    0.000    0.000    0.000    0.000    0.000 
#    0.000    0.000    0.000    0.000    0.000    0.000 
#
# Total GULP energy -173496.303759 kJ/mol
# GULP energy per Si atom -12392.593126 kJ/mol
# Density = 2.032005 g / cm^3
# Si number density = 20.366410 Si / 1000 Ang^3
#
#
#
# Elastic Constant Matrix: (Units=GPa)
#
#
# Indices 1 2 3 4 5 6 
#
# 1 119.4888 20.7006 33.9263 2.8890 -5.2694 -2.2756
# 2 20.7006 61.7592 59.3617 9.1889 -8.5710 3.7367
# 3 33.9263 59.3617 121.4743 5.8872 -14.4824 2.7222
# 4 2.8890 9.1889 5.8872 38.5627 5.7976 -6.3409
# 5 -5.2694 -8.5710 -14.4824 5.7976 26.5163 -0.2517
# 6 -2.2756 3.7367 2.7222 -6.3409 -0.2517 21.0301
#
#
#
# Elastic Compliance Matrix: (Units=1/GPa)
#
#
# Indices 1 2 3 4 5 6 
#
# 1 0.009182 -0.001271 -0.001941 0.000107 0.000344 0.001507
# 2 -0.001271 0.032667 -0.014683 -0.007018 0.003764 -0.006112
# 3 -0.001941 -0.014683 0.016339 0.000690 0.003646 0.000535
# 4 0.000107 -0.007018 0.000690 0.030443 -0.008429 0.010248
# 5 0.000344 0.003764 0.003646 -0.008429 0.042803 -0.003133
# 6 0.001507 -0.006112 0.000535 0.010248 -0.003133 0.051783
#
#
# Mechanical properties :
#
#
# Convention : Reuss Voigt Hill
#
# Bulk Modulus (GPa) = 44.64801 58.96661 51.80731
# Shear Modulus (GPa) = 22.07776 29.80407 25.94091
#
# Velocity S-wave (km/s) = 3.29603 3.82958 3.57278
# Velocity P-wave (km/s) = 6.03780 6.96922 6.52016
#
# Compressibility (1/GPa) = 0.02239741
#
# Stress axis : x y z
#
# Youngs Moduli (GPa) = 108.91331 30.61171 61.20404
#
# Poissons Ratio (x) = 0.03891 0.11880
# Poissons Ratio (y) = 0.13845 0.89865
# Poissons Ratio (z) = 0.21140 0.44947
#
# Static dielectric constant tensor:
#      x y z
#    x 3.350560 0.087560 -0.511520 
#    y 0.087560 3.437530 0.351370 
#    z -0.511520 0.351370 3.159600 
# 
# 
# High freq. dielectric constant tensor:
#      x y z
#    x 1.800830 0.001270 -0.009180 
#    y 0.001270 1.768200 0.018650 
#    z -0.009180 0.018650 1.795500 
# 
# From -- ./inp_files/14215.got.cif
#   From: 2010.06.25/outbox.cif.g09.slc.cpg/sg2_8_cif.got.tgz:14215.got - 2010.06.27 13:26:56.
