data_PCOD8012596
_publ_section_title
;
Structure prediction by ZEFSAII (Michael W. Deem and Ramdas Pophale) SiO2 
 PCOD8012596
Probable space group: P -1
;
_chemical_formula_sum "Si O2"
_cell_formula_units_Z 16
_cell_length_a 12.039479
_cell_length_b 18.034260
_cell_length_c 8.858505
_cell_angle_alpha 40.922740
_cell_angle_beta 38.182809
_cell_angle_gamma 36.811986
_cell_volume 669.745261
_symmetry_space_group_name_H-M "P -1"
_symmetry_group_IT_number 2
_symmetry_cell_setting 'triclinic'
loop_
_space_group_symop_operation_xyz
x,y,z
-x,-y,-z
loop_
_atom_site_type_symbol
_atom_site_label
_atom_site_fract_x
_atom_site_fract_y
_atom_site_fract_z
Si Si1 0.498861 0.282138 0.390383
Si Si2 0.313670 0.110088 0.801134
Si Si3 0.853896 0.872364 0.362072
Si Si4 0.895023 0.189685 0.300653
Si Si5 0.050274 0.660061 0.730717
Si Si6 0.632232 0.153080 0.835813
Si Si7 0.711163 0.161201 0.074021
Si Si8 0.740220 0.583036 0.304706
O O1 0.444552 0.166204 0.656351
O O2 0.723573 0.248960 0.261644
O O3 0.525852 0.283499 0.178165
O O4 0.307732 0.416098 0.463546
O O5 0.246017 0.163230 0.619082
O O6 0.119200 0.142407 0.066856
O O7 0.446444 0.950428 0.899927
O O8 0.885986 0.779151 0.613949
O O9 0.709171 0.026965 0.325726
O O10 0.066726 0.856845 0.092794
O O11 0.842822 0.298310 0.320998
O O12 0.849324 0.088098 0.603462
O O13 0.230262 0.548593 0.601638
O O14 0.941208 0.593572 0.040557
O O15 0.465221 0.283871 0.730211
O O16 0.671968 0.197089 0.886639
#
# Coordination Sequence:
#
# PCOD8012596 Si02
#       8
#     2   2   2   2   2   2   2   2
#     4  11  24  40  65  96 133 164 212 266 316 382
#     4  11  23  41  64 100 133 161 208 267 330 375
#     4  10  22  40  67  90 132 172 205 257 327 378
#     4  11  22  41  66  93 131 166 210 266 319 380
#     4  11  23  45  67  88 128 177 215 264 318 375
#     4  10  23  39  65  95 128 171 211 261 318 384
#     4  10  21  40  62 100 127 164 212 259 321 391
#     4  10  25  43  63  96 125 169 226 262 312 379
#
# _framework density 23.889679000000001
#
# number of rings (size 3 to 8) (size 9 to 14) (size 15 to 20)
#    0.000    1.500    3.750    0.375    3.500    7.000 
#    0.000    2.500    0.000    0.000    0.000    0.000 
#    0.000    0.000    0.000    0.000    0.000    0.000 
#
# Total GULP energy -198214.153973 kJ/mol
# GULP energy per Si atom -12388.384623 kJ/mol
# Density = 2.383530 g / cm^3
# Si number density = 23.889679 Si / 1000 Ang^3
#
#
#
# Elastic Constant Matrix: (Units=GPa)
#
#
# Indices 1 2 3 4 5 6 
#
# 1 94.3079 32.9273 13.2682 0.6797 -6.0120 21.0065
# 2 32.9273 71.3569 -2.8020 18.8178 5.4418 16.2434
# 3 13.2682 -2.8020 29.3510 10.5743 3.8033 2.7212
# 4 0.6797 18.8178 10.5743 35.6652 13.1088 6.9828
# 5 -6.0120 5.4418 3.8033 13.1088 30.9533 6.4407
# 6 21.0065 16.2434 2.7212 6.9828 6.4407 26.6548
#
#
#
# Elastic Compliance Matrix: (Units=1/GPa)
#
#
# Indices 1 2 3 4 5 6 
#
# 1 0.018023 -0.008727 -0.011481 0.007838 0.005432 -0.011080
# 2 -0.008727 0.023519 0.011987 -0.014854 -0.000016 -0.004783
# 3 -0.011481 0.011987 0.047626 -0.019895 -0.002316 0.002652
# 4 0.007838 -0.014854 -0.019895 0.047060 -0.012432 -0.004418
# 5 0.005432 -0.000016 -0.002316 -0.012432 0.041145 -0.010719
# 6 -0.011080 -0.004783 0.002652 -0.004418 -0.010719 0.052640
#
#
# Mechanical properties :
#
#
# Convention : Reuss Voigt Hill
#
# Bulk Modulus (GPa) = 13.74971 31.31141 22.53056
# Shear Modulus (GPa) = 18.47083 28.76282 23.61683
#
# Velocity S-wave (km/s) = 2.78361 3.47361 3.14758
# Velocity P-wave (km/s) = 4.01240 5.40584 4.76038
#
# Compressibility (1/GPa) = 0.07272878
#
# Stress axis : x y z
#
# Youngs Moduli (GPa) = 55.48336 42.51860 20.99672
#
# Poissons Ratio (x) = 0.37104 0.24106
# Poissons Ratio (y) = 0.48418 -0.25170
# Poissons Ratio (z) = 0.63700 -0.50969
#
# Static dielectric constant tensor:
#      x y z
#    x 4.335060 0.524060 -0.000610 
#    y 0.524060 4.278430 0.350350 
#    z -0.000610 0.350350 4.428660 
# 
# 
# High freq. dielectric constant tensor:
#      x y z
#    x 1.946780 0.034550 -0.009020 
#    y 0.034550 1.923240 0.035490 
#    z -0.009020 0.035490 1.956430 
# 
# From -- ./inp_files/278756.got.cif
#   From: 2010.06.25/outbox.cif.g09.slc.cpg/sg2_140_cif.got.tgz:278756.got - 2010.06.27 13:26:56.
