data_PCOD8012711
_publ_section_title
;
Structure prediction by ZEFSAII (Michael W. Deem and Ramdas Pophale) SiO2 
 PCOD8012711
Probable space group: P -1
;
_chemical_formula_sum "Si O2"
_cell_formula_units_Z 16
_cell_length_a 6.748120
_cell_length_b 13.810789
_cell_length_c 11.279929
_cell_angle_alpha 47.647769
_cell_angle_beta 90.795313
_cell_angle_gamma 74.327640
_cell_volume 719.113279
_symmetry_space_group_name_H-M "P -1"
_symmetry_group_IT_number 2
_symmetry_cell_setting 'triclinic'
loop_
_space_group_symop_operation_xyz
x,y,z
-x,-y,-z
loop_
_atom_site_type_symbol
_atom_site_label
_atom_site_fract_x
_atom_site_fract_y
_atom_site_fract_z
Si Si1 0.341470 0.163269 0.882473
Si Si2 0.923949 0.670528 0.465422
Si Si3 0.316335 0.308927 0.182386
Si Si4 0.058265 0.269745 0.005418
Si Si5 0.613130 0.549890 0.356640
Si Si6 0.097101 0.154567 0.460491
Si Si7 0.210428 0.844953 0.742338
Si Si8 0.691209 0.527005 0.724529
O O1 0.156619 0.216987 0.735503
O O2 0.453306 0.279703 0.787043
O O3 0.243509 0.163829 0.011642
O O4 0.500000 0.000000 0.000000
O O5 0.997238 0.742652 0.514974
O O6 0.719447 0.636279 0.537826
O O7 0.130934 0.527520 0.557076
O O8 0.148539 0.350163 0.038241
O O9 0.273921 0.187805 0.357425
O O10 0.547313 0.263133 0.162591
O O11 0.296600 0.435154 0.168316
O O12 0.931965 0.181689 0.134509
O O13 0.899903 0.386175 0.821364
O O14 0.500000 0.500000 0.500000
O O15 0.526379 0.501089 0.276237
O O16 0.886858 0.166255 0.376688
O O17 0.218459 0.997402 0.639062
#
# Coordination Sequence:
#
# PCOD8012711 Si02
#       8
#     2   2   2   2   2   2   2   2
#     4  12  28  48  69 100 142 184 229 290 350 400
#     4  11  23  46  71  96 137 176 234 285 339 405
#     4  10  22  40  67  99 136 177 221 281 346 403
#     4  11  25  42  65  97 145 178 219 284 345 404
#     4  12  24  44  75  99 131 185 236 283 337 408
#     4   9  21  39  66  97 130 181 224 279 334 409
#     4  10  21  40  62  99 139 177 223 275 342 413
#     4  11  23  43  72 103 131 177 232 278 342 410
#
# _framework density 22.249621000000001
#
# number of rings (size 3 to 8) (size 9 to 14) (size 15 to 20)
#    0.000    1.250    2.500    2.625    3.500    1.500 
#    4.500    1.875    0.000    0.000    0.000    0.000 
#    0.000    0.000    0.000    0.000    0.000    0.000 
#
# Total GULP energy -198337.632606 kJ/mol
# GULP energy per Si atom -12396.102038 kJ/mol
# Density = 2.219898 g / cm^3
# Si number density = 22.249621 Si / 1000 Ang^3
#
#
#
# Elastic Constant Matrix: (Units=GPa)
#
#
# Indices 1 2 3 4 5 6 
#
# 1 114.8753 44.2471 38.8632 -1.1120 3.6779 7.3484
# 2 44.2471 91.0696 47.4362 -10.5786 -2.9854 2.4810
# 3 38.8632 47.4362 102.1146 -3.3238 3.4165 1.9886
# 4 -1.1120 -10.5786 -3.3238 37.0721 -3.3274 -2.2700
# 5 3.6779 -2.9854 3.4165 -3.3274 32.9086 -0.6057
# 6 7.3484 2.4810 1.9886 -2.2700 -0.6057 35.0162
#
#
#
# Elastic Compliance Matrix: (Units=1/GPa)
#
#
# Indices 1 2 3 4 5 6 
#
# 1 0.011362 -0.004560 -0.002157 -0.001427 -0.001642 -0.002060
# 2 -0.004560 0.017000 -0.006130 0.004475 0.003149 0.000445
# 3 -0.002157 -0.006130 0.013496 -0.000762 -0.001792 0.000040
# 4 -0.001427 0.004475 -0.000762 0.028579 0.003570 0.001940
# 5 -0.001642 0.003149 -0.001792 0.003570 0.031422 0.000998
# 6 -0.002060 0.000445 0.000040 0.001940 0.000998 0.029100
#
#
# Mechanical properties :
#
#
# Convention : Reuss Voigt Hill
#
# Bulk Modulus (GPa) = 61.86940 63.23916 62.55428
# Shear Modulus (GPa) = 30.85639 32.83359 31.84499
#
# Velocity S-wave (km/s) = 3.72805 3.84564 3.78730
# Velocity P-wave (km/s) = 6.81164 6.94283 6.87755
#
# Compressibility (1/GPa) = 0.01616308
#
# Stress axis : x y z
#
# Youngs Moduli (GPa) = 88.01396 58.82332 74.09640
#
# Poissons Ratio (x) = 0.26824 0.15984
# Poissons Ratio (y) = 0.40135 0.45421
# Poissons Ratio (z) = 0.18986 0.36059
#
# Static dielectric constant tensor:
#      x y z
#    x 4.132060 0.263400 0.049630 
#    y 0.263400 4.143590 0.145550 
#    z 0.049630 0.145550 3.931070 
# 
# 
# High freq. dielectric constant tensor:
#      x y z
#    x 1.878310 0.011960 -0.001750 
#    y 0.011960 1.877700 0.014780 
#    z -0.001750 0.014780 1.872980 
# 
# From -- ./inp_files/367497.got.cif
#   From: 2010.06.25/outbox.cif.g09.slc.cpg/sg2_184_cif.got.tgz:367497.got - 2010.06.27 13:26:56.
