data_PCOD8012409
_publ_section_title
;
Structure prediction by ZEFSAII (Michael W. Deem and Ramdas Pophale) SiO2 
 PCOD8012409
Probable space group: P -1
;
_chemical_formula_sum "Si O2"
_cell_formula_units_Z 14
_cell_length_a 5.415524
_cell_length_b 10.005874
_cell_length_c 18.912131
_cell_angle_alpha 134.042985
_cell_angle_beta 62.004872
_cell_angle_gamma 110.104481
_cell_volume 650.199029
_symmetry_space_group_name_H-M "P -1"
_symmetry_group_IT_number 2
_symmetry_cell_setting 'triclinic'
loop_
_space_group_symop_operation_xyz
x,y,z
-x,-y,-z
loop_
_atom_site_type_symbol
_atom_site_label
_atom_site_fract_x
_atom_site_fract_y
_atom_site_fract_z
Si Si1 0.426494 0.859526 0.716247
Si Si2 0.151356 0.833547 0.456216
Si Si3 0.691771 0.000454 0.071250
Si Si4 0.126819 0.516231 0.686307
Si Si5 0.922564 0.036570 0.336039
Si Si6 0.315858 0.328910 0.733094
Si Si7 0.566686 0.695316 0.873224
O O1 0.317342 0.001231 0.843267
O O2 0.369750 0.644811 0.666369
O O3 0.250391 0.894927 0.682462
O O4 0.758427 0.889442 0.675636
O O5 0.233361 0.891030 0.546100
O O6 0.415005 0.797429 0.357790
O O7 0.972892 0.639028 0.413954
O O8 0.000000 0.000000 0.500000
O O9 0.543451 0.187452 0.135150
O O10 0.536582 0.815065 0.992991
O O11 0.000000 0.000000 0.000000
O O12 0.239814 0.401819 0.693961
O O13 0.884335 0.650251 0.795032
O O14 0.921608 0.809345 0.252593
O O15 0.381879 0.505917 0.839965
#
# Coordination Sequence:
#
# PCOD8012409 Si02
#       7
#     2   2   2   2   2   2   2
#     4  12  27  45  66 109 144 177 222 300 363 393
#     4  11  24  44  73 100 133 191 245 271 333 421
#     4  11  21  41  74 100 132 182 235 283 340 425
#     4  11  23  42  73 100 135 180 245 279 329 424
#     4  12  28  45  67 102 154 178 221 298 359 394
#     4  11  23  44  73  97 132 191 239 276 329 429
#     4  10  21  39  73 103 127 172 249 284 323 401
#
# _framework density 21.531870999999999
#
# number of rings (size 3 to 8) (size 9 to 14) (size 15 to 20)
#    0.000    0.857    4.286    2.143    8.000    1.143 
#    0.000    1.429    0.000    0.000    0.000    0.000 
#    0.000    0.000    0.000    0.000    0.000    0.000 
#
# Total GULP energy -173586.883966 kJ/mol
# GULP energy per Si atom -12399.063140 kJ/mol
# Density = 2.148286 g / cm^3
# Si number density = 21.531871 Si / 1000 Ang^3
#
#
#
# Elastic Constant Matrix: (Units=GPa)
#
#
# Indices 1 2 3 4 5 6 
#
# 1 115.2163 54.3724 23.9788 10.3241 10.1189 -8.4609
# 2 54.3724 112.3502 12.2753 24.2123 -2.7064 8.5089
# 3 23.9788 12.2753 87.9705 16.8014 9.3052 -7.7952
# 4 10.3241 24.2123 16.8014 34.4992 -5.6195 10.4882
# 5 10.1189 -2.7064 9.3052 -5.6195 31.5974 3.2495
# 6 -8.4609 8.5089 -7.7952 10.4882 3.2495 51.5528
#
#
#
# Elastic Compliance Matrix: (Units=1/GPa)
#
#
# Indices 1 2 3 4 5 6 
#
# 1 0.012620 -0.006208 -0.001784 -0.000227 -0.004412 0.003150
# 2 -0.006208 0.013549 0.000834 -0.007225 0.001800 -0.001773
# 3 -0.001784 0.000834 0.014452 -0.009225 -0.005664 0.003988
# 4 -0.000227 -0.007225 -0.009225 0.043352 0.010883 -0.009745
# 5 -0.004412 0.001800 -0.005664 0.010883 0.037482 -0.006454
# 6 0.003150 -0.001773 0.003988 -0.009745 -0.006454 0.023200
#
#
# Mechanical properties :
#
#
# Convention : Reuss Voigt Hill
#
# Bulk Modulus (GPa) = 38.01883 55.19888 46.60886
# Shear Modulus (GPa) = 29.80806 38.52393 34.16599
#
# Velocity S-wave (km/s) = 3.72475 4.23443 3.98774
# Velocity P-wave (km/s) = 6.01612 7.04264 6.54952
#
# Compressibility (1/GPa) = 0.02630275
#
# Stress axis : x y z
#
# Youngs Moduli (GPa) = 79.24140 73.80698 69.19581
#
# Poissons Ratio (x) = 0.45822 0.12347
# Poissons Ratio (y) = 0.49196 -0.05771
# Poissons Ratio (z) = 0.14140 -0.06156
#
# Static dielectric constant tensor:
#      x y z
#    x 4.069270 0.193890 0.295310 
#    y 0.193890 4.033070 0.346810 
#    z 0.295310 0.346810 4.157610 
# 
# 
# High freq. dielectric constant tensor:
#      x y z
#    x 1.864800 0.006920 0.016940 
#    y 0.006920 1.837640 0.027090 
#    z 0.016940 0.027090 1.841020 
# 
# From -- ./inp_files/34819.got.cif
#   From: 2010.06.25/outbox.cif.g09.slc.cpg/sg2_18_cif.got.tgz:34819.got - 2010.06.27 13:26:56.
