data_PCOD8012017
_publ_section_title
;
Structure prediction by ZEFSAII (Michael W. Deem and Ramdas Pophale) SiO2 
 PCOD8012017
Probable space group: P -1
;
_chemical_formula_sum "Si O2"
_cell_formula_units_Z 14
_cell_length_a 9.235125
_cell_length_b 10.764951
_cell_length_c 13.963862
_cell_angle_alpha 143.672420
_cell_angle_beta 63.016443
_cell_angle_gamma 100.220979
_cell_volume 684.758225
_symmetry_space_group_name_H-M "P -1"
_symmetry_group_IT_number 2
_symmetry_cell_setting 'triclinic'
loop_
_space_group_symop_operation_xyz
x,y,z
-x,-y,-z
loop_
_atom_site_type_symbol
_atom_site_label
_atom_site_fract_x
_atom_site_fract_y
_atom_site_fract_z
Si Si1 0.297841 0.858429 0.957931
Si Si2 0.864888 0.718451 0.129562
Si Si3 0.920113 0.665993 0.713390
Si Si4 0.516112 0.734368 0.165376
Si Si5 0.850122 0.929375 0.453956
Si Si6 0.434357 0.147761 0.983234
Si Si7 0.096427 0.562280 0.793550
O O1 0.117720 0.076918 0.150081
O O2 0.426657 0.906727 0.870281
O O3 0.391698 0.822507 0.010616
O O4 0.263722 0.632272 0.804217
O O5 0.672534 0.704981 0.174716
O O6 0.867070 0.915636 0.324130
O O7 0.000000 0.500000 0.000000
O O8 0.935807 0.731836 0.009601
O O9 0.737058 0.652862 0.799506
O O10 0.000000 0.500000 0.500000
O O11 0.056812 0.598238 0.716123
O O12 0.335594 0.885509 0.357734
O O13 0.500000 0.500000 0.000000
O O14 0.559342 0.850586 0.131222
O O15 0.857630 0.695046 0.351750
O O16 0.000000 0.000000 0.500000
#
# Coordination Sequence:
#
# PCOD8012017 Si02
#       7
#     2   2   2   2   2   2   2
#     4   9  21  41  65  91 130 176 209 264 331 395
#     4  10  22  43  63  95 129 170 219 272 329 393
#     4  10  21  39  65  97 127 167 219 265 326 396
#     4  12  24  43  69  93 138 173 221 279 336 395
#     4  11  27  41  65 101 130 176 231 271 331 398
#     4   9  22  41  64  92 130 168 217 256 341 382
#     4  11  22  41  67  95 133 170 218 274 335 390
#
# _framework density 20.445170999999998
#
# number of rings (size 3 to 8) (size 9 to 14) (size 15 to 20)
#    0.857    0.857    1.429    2.571    8.000    0.000 
#    0.000    2.857    0.000    0.000    0.000    0.000 
#    0.000    0.000    0.000    0.000    0.000    0.000 
#
# Total GULP energy -173496.816642 kJ/mol
# GULP energy per Si atom -12392.629760 kJ/mol
# Density = 2.039864 g / cm^3
# Si number density = 20.445171 Si / 1000 Ang^3
#
#
#
# Elastic Constant Matrix: (Units=GPa)
#
#
# Indices 1 2 3 4 5 6 
#
# 1 163.9224 38.1497 58.8598 4.9565 17.0551 0.8978
# 2 38.1497 55.0803 38.5264 -2.3192 13.3792 4.9661
# 3 58.8598 38.5264 128.7533 -13.8850 9.7030 2.6146
# 4 4.9565 -2.3192 -13.8850 40.9972 3.4784 6.2674
# 5 17.0551 13.3792 9.7030 3.4784 40.0715 3.0945
# 6 0.8978 4.9661 2.6146 6.2674 3.0945 29.3168
#
#
#
# Elastic Compliance Matrix: (Units=1/GPa)
#
#
# Indices 1 2 3 4 5 6 
#
# 1 0.008147 -0.003502 -0.002824 -0.002198 -0.001518 0.001226
# 2 -0.003502 0.026281 -0.005652 0.001010 -0.005737 -0.003451
# 3 -0.002824 -0.005652 0.011181 0.003922 0.000103 -0.000803
# 4 -0.002198 0.001010 0.003922 0.027154 -0.002244 -0.006022
# 5 -0.001518 -0.005737 0.000103 -0.002244 0.027799 -0.001446
# 6 0.001226 -0.003451 -0.000803 -0.006022 -0.001446 0.036169
#
#
# Mechanical properties :
#
#
# Convention : Reuss Voigt Hill
#
# Bulk Modulus (GPa) = 46.18217 68.75864 57.47041
# Shear Modulus (GPa) = 29.77899 36.22512 33.00205
#
# Velocity S-wave (km/s) = 3.82059 4.21386 4.02204
# Velocity P-wave (km/s) = 6.48844 7.57491 7.05263
#
# Compressibility (1/GPa) = 0.02165338
#
# Stress axis : x y z
#
# Youngs Moduli (GPa) = 122.74098 38.05015 89.44099
#
# Poissons Ratio (x) = 0.13324 0.25260
# Poissons Ratio (y) = 0.42981 0.50550
# Poissons Ratio (z) = 0.34665 0.21505
#
# Static dielectric constant tensor:
#      x y z
#    x 3.794860 -0.147210 -0.091860 
#    y -0.147210 3.750970 -0.288380 
#    z -0.091860 -0.288380 3.713080 
# 
# 
# High freq. dielectric constant tensor:
#      x y z
#    x 1.814760 -0.011160 0.002830 
#    y -0.011160 1.791670 -0.008160 
#    z 0.002830 -0.008160 1.781300 
# 
# From -- ./inp_files/501096.got.cif
#   From: 2010.06.25/outbox.cif.g09.slc.cpg/sg2_251_cif.got.tgz:501096.got - 2010.06.27 13:26:56.
