data_PCOD8012865
_publ_section_title
;
Structure prediction by ZEFSAII (Michael W. Deem and Ramdas Pophale) SiO2 
 PCOD8012865
Probable space group: P -1
;
_chemical_formula_sum "Si O2"
_cell_formula_units_Z 14
_cell_length_a 10.790308
_cell_length_b 10.717274
_cell_length_c 8.770426
_cell_angle_alpha 124.354189
_cell_angle_beta 91.699076
_cell_angle_gamma 60.510917
_cell_volume 684.014074
_symmetry_space_group_name_H-M "P -1"
_symmetry_group_IT_number 2
_symmetry_cell_setting 'triclinic'
loop_
_space_group_symop_operation_xyz
x,y,z
-x,-y,-z
loop_
_atom_site_type_symbol
_atom_site_label
_atom_site_fract_x
_atom_site_fract_y
_atom_site_fract_z
Si Si1 0.079662 0.497149 0.258330
Si Si2 0.687716 0.525285 0.944354
Si Si3 0.154394 0.832273 0.819419
Si Si4 0.570110 0.175486 0.042672
Si Si5 0.893267 0.187674 0.534877
Si Si6 0.213037 0.482884 0.731867
Si Si7 0.328766 0.225947 0.297863
O O1 0.207027 0.409015 0.067613
O O2 0.023085 0.710741 0.430742
O O3 0.159917 0.371132 0.324289
O O4 0.940674 0.490174 0.198645
O O5 0.513599 0.674610 0.992652
O O6 0.747097 0.327125 0.732628
O O7 0.698617 0.510118 0.116177
O O8 0.290591 0.828047 0.894406
O O9 0.156858 0.856540 0.654351
O O10 0.172936 0.643113 0.723374
O O11 0.000000 0.000000 0.000000
O O12 0.452905 0.235343 0.217879
O O13 0.629678 0.977930 0.839584
O O14 0.000000 0.000000 0.500000
O O15 0.322900 0.287820 0.514657
#
# Coordination Sequence:
#
# PCOD8012865 Si02
#       7
#     2   2   2   2   2   2   2
#     4   9  20  39  63  89 126 164 205 259 305 369
#     4   9  22  40  61  91 127 170 205 249 317 362
#     4  12  25  39  67  97 118 165 214 259 313 372
#     4  10  23  43  60  88 132 165 206 254 316 377
#     4  10  22  42  60  93 130 163 207 255 321 361
#     4  12  21  38  66  95 125 162 214 258 305 365
#     4  10  21  40  64  87 124 171 208 255 309 370
#
# _framework density 20.467414999999999
#
# number of rings (size 3 to 8) (size 9 to 14) (size 15 to 20)
#    0.857    0.857    1.429    2.571    2.000    3.429 
#    5.143    1.429    0.000    0.000    0.000    0.000 
#    0.000    0.000    0.000    0.000    0.000    0.000 
#
# Total GULP energy -173582.171737 kJ/mol
# GULP energy per Si atom -12398.726553 kJ/mol
# Density = 2.042083 g / cm^3
# Si number density = 20.467415 Si / 1000 Ang^3
#
#
#
# Elastic Constant Matrix: (Units=GPa)
#
#
# Indices 1 2 3 4 5 6 
#
# 1 89.0656 33.5930 35.2696 1.3890 9.8184 -24.5173
# 2 33.5930 150.9458 67.2375 1.6559 0.4284 -28.8450
# 3 35.2696 67.2375 143.1273 -12.6023 -11.8919 -20.5378
# 4 1.3890 1.6559 -12.6023 39.1531 -0.8529 0.9610
# 5 9.8184 0.4284 -11.8919 -0.8529 21.9370 -2.2882
# 6 -24.5173 -28.8450 -20.5378 0.9610 -2.2882 23.7597
#
#
#
# Elastic Compliance Matrix: (Units=1/GPa)
#
#
# Indices 1 2 3 4 5 6 
#
# 1 0.017387 0.000490 -0.003216 -0.002218 -0.008049 0.015071
# 2 0.000490 0.010006 -0.003786 -0.001922 -0.001571 0.009308
# 3 -0.003216 -0.003786 0.010837 0.003881 0.007752 0.002042
# 4 -0.002218 -0.001922 0.003881 0.027085 0.003981 -0.001979
# 5 -0.008049 -0.001571 0.007752 0.003981 0.053732 0.001501
# 6 0.015071 0.009308 0.002042 -0.001979 0.001501 0.070930
#
#
# Mechanical properties :
#
#
# Convention : Reuss Voigt Hill
#
# Bulk Modulus (GPa) = 39.67213 72.81543 56.24378
# Shear Modulus (GPa) = 23.65162 33.43921 28.54541
#
# Velocity S-wave (km/s) = 3.40306 4.04639 3.73859
# Velocity P-wave (km/s) = 5.90477 7.58185 6.79525
#
# Compressibility (1/GPa) = 0.02520661
#
# Stress axis : x y z
#
# Youngs Moduli (GPa) = 57.51435 99.93686 92.28047
#
# Poissons Ratio (x) = -0.04901 0.29681
# Poissons Ratio (y) = -0.02821 0.34934
# Poissons Ratio (z) = 0.18499 0.37832
#
# Static dielectric constant tensor:
#      x y z
#    x 3.506590 -0.051190 -0.064200 
#    y -0.051190 3.757200 0.052130 
#    z -0.064200 0.052130 3.653410 
# 
# 
# High freq. dielectric constant tensor:
#      x y z
#    x 1.783900 -0.003290 -0.002850 
#    y -0.003290 1.801280 0.001000 
#    z -0.002850 0.001000 1.801820 
# 
# From -- ./inp_files/261126.got.cif
#   From: 2010.06.25/outbox.cif.g09.slc.cpg/sg2_131_cif.got.tgz:261126.got - 2010.06.27 13:26:56.
