data_PCOD8012153
_publ_section_title
;
Structure prediction by ZEFSAII (Michael W. Deem and Ramdas Pophale) SiO2 
 PCOD8012153
Probable space group: P -1
;
_chemical_formula_sum "Si O2"
_cell_formula_units_Z 16
_cell_length_a 8.667683
_cell_length_b 11.489305
_cell_length_c 15.049770
_cell_angle_alpha 50.282106
_cell_angle_beta 114.015093
_cell_angle_gamma 75.606196
_cell_volume 726.462310
_symmetry_space_group_name_H-M "P -1"
_symmetry_group_IT_number 2
_symmetry_cell_setting 'triclinic'
loop_
_space_group_symop_operation_xyz
x,y,z
-x,-y,-z
loop_
_atom_site_type_symbol
_atom_site_label
_atom_site_fract_x
_atom_site_fract_y
_atom_site_fract_z
Si Si1 0.952443 0.915282 0.951181
Si Si2 0.281452 0.290397 0.192047
Si Si3 0.654899 0.281000 0.196493
Si Si4 0.842960 0.543882 0.730143
Si Si5 0.047780 0.310516 0.558496
Si Si6 0.492805 0.126305 0.648319
Si Si7 0.788137 0.088248 0.141848
Si Si8 0.763707 0.479437 0.238143
O O1 0.042985 0.692404 0.109596
O O2 0.084622 0.874719 0.910739
O O3 0.662861 0.099420 0.773511
O O4 0.000000 0.000000 0.000000
O O5 0.469794 0.281253 0.194263
O O6 0.310584 0.292096 0.303138
O O7 0.344766 0.080180 0.279218
O O8 0.000000 0.500000 0.000000
O O9 0.834187 0.093256 0.255532
O O10 0.797135 0.286197 0.302251
O O11 0.500000 0.500000 0.000000
O O12 0.654642 0.652513 0.550818
O O13 0.054077 0.526780 0.766507
O O14 0.301909 0.143287 0.645932
O O15 0.000000 0.500000 0.500000
O O16 0.821611 0.427704 0.381545
O O17 0.081569 0.160844 0.716320
O O18 0.502972 0.274644 0.958246
#
# Coordination Sequence:
#
# PCOD8012153 Si02
#       8
#     2   2   2   2   2   2   2   2
#     4  12  29  45  71  99 139 189 234 287 348 413
#     4  12  21  41  74 104 146 180 223 285 353 420
#     4  10  21  39  67 104 136 171 230 278 342 411
#     4  11  24  45  69 102 142 185 227 283 356 406
#     4  11  26  47  71 100 136 188 235 283 338 408
#     4  11  26  47  69 104 138 182 233 285 349 419
#     4  11  24  45  68 102 134 178 230 287 346 401
#     4  10  24  42  73 102 137 181 228 285 343 411
#
# _framework density 22.024545
#
# number of rings (size 3 to 8) (size 9 to 14) (size 15 to 20)
#    0.000    1.000    2.500    4.125    7.000    3.500 
#    0.000    0.000    0.000    0.000    0.000    0.000 
#    0.000    0.000    0.000    0.000    0.000    0.000 
#
# Total GULP energy -198377.529416 kJ/mol
# GULP energy per Si atom -12398.595589 kJ/mol
# Density = 2.197442 g / cm^3
# Si number density = 22.024545 Si / 1000 Ang^3
#
#
#
# Elastic Constant Matrix: (Units=GPa)
#
#
# Indices 1 2 3 4 5 6 
#
# 1 115.7936 34.6620 52.0242 6.1396 -14.9707 7.4319
# 2 34.6620 99.1082 43.9175 10.6967 11.5420 21.4896
# 3 52.0242 43.9175 134.3346 14.1052 0.4973 15.5298
# 4 6.1396 10.6967 14.1052 38.4771 3.1181 4.7835
# 5 -14.9707 11.5420 0.4973 3.1181 24.6170 6.9689
# 6 7.4319 21.4896 15.5298 4.7835 6.9689 34.1888
#
#
#
# Elastic Compliance Matrix: (Units=1/GPa)
#
#
# Indices 1 2 3 4 5 6 
#
# 1 0.012733 -0.003815 -0.003603 -0.000363 0.009846 -0.000690
# 2 -0.003815 0.014770 -0.002543 -0.001265 -0.007447 -0.005604
# 3 -0.003603 -0.002543 0.010110 -0.002164 -0.000412 -0.001824
# 4 -0.000363 -0.001265 -0.002164 0.027590 -0.002665 -0.001460
# 5 0.009846 -0.007447 -0.000412 -0.002665 0.052606 -0.007622
# 6 -0.000690 -0.005604 -0.001824 -0.001460 -0.007622 0.035509
#
#
# Mechanical properties :
#
#
# Convention : Reuss Voigt Hill
#
# Bulk Modulus (GPa) = 56.52102 67.82709 62.17406
# Shear Modulus (GPa) = 27.91178 34.03211 30.97194
#
# Velocity S-wave (km/s) = 3.56378 3.93516 3.75406
# Velocity P-wave (km/s) = 6.53089 7.17706 6.86159
#
# Compressibility (1/GPa) = 0.01769253
#
# Stress axis : x y z
#
# Youngs Moduli (GPa) = 78.53546 67.70468 98.90858
#
# Poissons Ratio (x) = 0.25828 0.35633
# Poissons Ratio (y) = 0.29959 0.25153
# Poissons Ratio (z) = 0.28294 0.17218
#
# Static dielectric constant tensor:
#      x y z
#    x 4.709690 1.061380 -0.069020 
#    y 1.061380 6.386040 0.093500 
#    z -0.069020 0.093500 4.129990 
# 
# 
# High freq. dielectric constant tensor:
#      x y z
#    x 1.868460 0.001150 -0.006460 
#    y 0.001150 1.868580 0.004200 
#    z -0.006460 0.004200 1.875460 
# 
# From -- ./inp_files/500065.got.cif
#   From: 2010.06.25/outbox.cif.g09.slc.cpg/sg2_251_cif.got.tgz:500065.got - 2010.06.27 13:26:56.
