data_PCOD8012839
_publ_section_title
;
Structure prediction by ZEFSAII (Michael W. Deem and Ramdas Pophale) SiO2 
 PCOD8012839
Probable space group: P -1
;
_chemical_formula_sum "Si O2"
_cell_formula_units_Z 16
_cell_length_a 11.411072
_cell_length_b 13.623200
_cell_length_c 6.831586
_cell_angle_alpha 96.696639
_cell_angle_beta 83.363310
_cell_angle_gamma 46.892446
_cell_volume 741.604304
_symmetry_space_group_name_H-M "P -1"
_symmetry_group_IT_number 2
_symmetry_cell_setting 'triclinic'
loop_
_space_group_symop_operation_xyz
x,y,z
-x,-y,-z
loop_
_atom_site_type_symbol
_atom_site_label
_atom_site_fract_x
_atom_site_fract_y
_atom_site_fract_z
Si Si1 0.116653 0.807119 0.025010
Si Si2 0.704593 0.795060 0.801682
Si Si3 0.138648 0.011689 0.202961
Si Si4 0.938009 0.437014 0.398661
Si Si5 0.458487 0.916881 0.215000
Si Si6 0.403723 0.289435 0.510579
Si Si7 0.631074 0.337845 0.398834
Si Si8 0.086425 0.748918 0.421620
O O1 0.108820 0.729902 0.178445
O O2 0.096763 0.921261 0.173755
O O3 0.288149 0.701427 0.843034
O O4 0.960409 0.877220 0.930077
O O5 0.657713 0.722454 0.682246
O O6 0.901695 0.691313 0.789341
O O7 0.644881 0.920416 0.702371
O O8 0.619613 0.845683 0.039786
O O9 0.082905 0.095625 0.438826
O O10 0.337317 0.910856 0.124899
O O11 0.766107 0.557021 0.336575
O O12 0.899153 0.373254 0.545651
O O13 0.000000 0.500000 0.500000
O O14 0.522213 0.836028 0.388241
O O15 0.548282 0.280545 0.429697
O O16 0.500000 0.500000 0.500000
O O17 0.770830 0.266143 0.518876
#
# Coordination Sequence:
#
# PCOD8012839 Si02
#       8
#     2   2   2   2   2   2   2   2
#     4  10  23  39  63  97 126 171 207 264 324 374
#     4  10  23  43  62  94 129 159 216 264 307 382
#     4  10  21  40  63  97 131 156 215 270 312 385
#     4  10  22  44  62  89 131 168 215 259 306 385
#     4  11  22  40  68  96 123 165 209 265 320 373
#     4  11  23  42  65  90 127 170 205 261 325 367
#     4  11  23  41  62  94 134 164 214 264 308 389
#     4  11  21  42  66  92 127 175 209 260 322 377
#
# _framework density 21.574847999999999
#
# number of rings (size 3 to 8) (size 9 to 14) (size 15 to 20)
#    0.000    1.500    2.500    2.250    0.000    4.000 
#   13.500    0.000    0.000    0.000    0.000    0.000 
#    0.000    0.000    0.000    0.000    0.000    0.000 
#
# Total GULP energy -198318.954485 kJ/mol
# GULP energy per Si atom -12394.934655 kJ/mol
# Density = 2.152574 g / cm^3
# Si number density = 21.574848 Si / 1000 Ang^3
#
#
#
# Elastic Constant Matrix: (Units=GPa)
#
#
# Indices 1 2 3 4 5 6 
#
# 1 95.9717 11.8156 18.9623 -2.3235 -11.6639 -5.2078
# 2 11.8156 80.4417 26.7105 13.1880 -9.0892 -2.6068
# 3 18.9623 26.7105 89.8571 1.7877 -7.7861 -2.1575
# 4 -2.3235 13.1880 1.7877 25.6900 -1.1274 -7.0750
# 5 -11.6639 -9.0892 -7.7861 -1.1274 24.6201 5.7996
# 6 -5.2078 -2.6068 -2.1575 -7.0750 5.7996 35.1536
#
#
#
# Elastic Compliance Matrix: (Units=1/GPa)
#
#
# Indices 1 2 3 4 5 6 
#
# 1 0.011539 -0.000922 -0.001796 0.002177 0.004364 0.001249
# 2 -0.000922 0.015617 -0.003972 -0.008063 0.004060 -0.001515
# 3 -0.001796 -0.003972 0.012822 0.001105 0.001751 0.000160
# 4 0.002177 -0.008063 0.001105 0.045661 -0.001686 0.009260
# 5 0.004364 0.004060 0.001751 -0.001686 0.046290 -0.006921
# 6 0.001249 -0.001515 0.000160 0.009260 -0.006921 0.031535
#
#
# Mechanical properties :
#
#
# Convention : Reuss Voigt Hill
#
# Bulk Modulus (GPa) = 37.59647 42.36082 39.97865
# Shear Modulus (GPa) = 26.92359 31.01154 28.96757
#
# Velocity S-wave (km/s) = 3.53642 3.79541 3.66820
# Velocity P-wave (km/s) = 5.84285 6.23569 6.04246
#
# Compressibility (1/GPa) = 0.02659824
#
# Stress axis : x y z
#
# Youngs Moduli (GPa) = 86.66271 64.03186 77.99071
#
# Poissons Ratio (x) = 0.05903 0.14009
# Poissons Ratio (y) = 0.07989 0.30977
# Poissons Ratio (z) = 0.15566 0.25433
#
# Static dielectric constant tensor:
#      x y z
#    x 3.085060 -0.121060 0.281120 
#    y -0.121060 4.247250 0.247280 
#    z 0.281120 0.247280 3.404620 
# 
# 
# High freq. dielectric constant tensor:
#      x y z
#    x 1.861800 0.000370 -0.015920 
#    y 0.000370 1.854610 0.012640 
#    z -0.015920 0.012640 1.821050 
# 
# From -- ./inp_files/77820.got.cif
#   From: 2010.06.25/outbox.cif.g09.slc.cpg/sg2_39_cif.got.tgz:77820.got - 2010.06.27 13:26:56.
