data_PCOD8012054
_publ_section_title
;
Structure prediction by ZEFSAII (Michael W. Deem and Ramdas Pophale) SiO2 
 PCOD8012054
Probable space group: P -1
;
_chemical_formula_sum "Si O2"
_cell_formula_units_Z 12
_cell_length_a 11.781111
_cell_length_b 14.778989
_cell_length_c 14.366370
_cell_angle_alpha 20.088634
_cell_angle_beta 44.771649
_cell_angle_gamma 43.793709
_cell_volume 589.177958
_symmetry_space_group_name_H-M "P -1"
_symmetry_group_IT_number 2
_symmetry_cell_setting 'triclinic'
loop_
_space_group_symop_operation_xyz
x,y,z
-x,-y,-z
loop_
_atom_site_type_symbol
_atom_site_label
_atom_site_fract_x
_atom_site_fract_y
_atom_site_fract_z
Si Si1 0.934757 0.547421 0.595269
Si Si2 0.861609 0.484477 0.959942
Si Si3 0.032307 0.053803 0.140931
Si Si4 0.669199 0.033137 0.826583
Si Si5 0.795615 0.461144 0.229209
Si Si6 0.616169 0.704952 0.731150
O O1 0.735569 0.612005 0.661558
O O2 0.000000 0.500000 0.500000
O O3 0.982393 0.793052 0.383085
O O4 0.027190 0.268440 0.855780
O O5 0.725140 0.686349 0.781058
O O6 0.019271 0.622931 0.751752
O O7 0.792740 0.406861 0.173347
O O8 0.913305 0.196457 0.155553
O O9 0.219633 0.960612 0.154332
O O10 0.670339 0.302749 0.505034
O O11 0.500000 0.000000 0.000000
O O12 0.735342 0.781541 0.964190
O O13 0.500000 0.000000 0.500000
O O14 0.500000 0.500000 0.000000
#
# Coordination Sequence:
#
# PCOD8012054 Si02
#       6
#     2   2   2   2   2   2
#     4  11  23  43  65  87 120 170 221 246 302 383
#     4   9  21  41  65  94 122 162 214 252 318 370
#     4  10  21  39  66  86 119 166 201 256 300 370
#     4  11  22  39  58  92 130 160 199 250 323 365
#     4  10  22  38  66  91 120 165 211 255 296 389
#     4  11  23  40  62  92 129 159 201 269 319 356
#
# _framework density 20.367360000000001
#
# number of rings (size 3 to 8) (size 9 to 14) (size 15 to 20)
#    0.000    1.667    0.000    6.000    0.000   11.333 
#    9.000    0.000    0.000    0.000    0.000    0.000 
#    0.000    0.000    0.000    0.000    0.000    0.000 
#
# Total GULP energy -148732.703437 kJ/mol
# GULP energy per Si atom -12394.391953 kJ/mol
# Density = 2.032100 g / cm^3
# Si number density = 20.367360 Si / 1000 Ang^3
#
#
#
# Elastic Constant Matrix: (Units=GPa)
#
#
# Indices 1 2 3 4 5 6 
#
# 1 117.7050 70.3011 50.2028 5.6681 3.7740 8.6119
# 2 70.3011 118.5241 50.9447 25.3220 -0.1348 14.3809
# 3 50.2028 50.9447 149.6291 5.2849 -8.6606 12.2939
# 4 5.6681 25.3220 5.2849 42.2597 -1.9768 -1.7951
# 5 3.7740 -0.1348 -8.6606 -1.9768 33.3983 1.0543
# 6 8.6119 14.3809 12.2939 -1.7951 1.0543 45.4163
#
#
#
# Elastic Compliance Matrix: (Units=1/GPa)
#
#
# Indices 1 2 3 4 5 6 
#
# 1 0.014256 -0.008268 -0.002260 0.003258 -0.002060 0.000703
# 2 -0.008268 0.016596 -0.002289 -0.008694 0.000001 -0.003411
# 3 -0.002260 -0.002289 0.008437 0.000688 0.002511 -0.001162
# 4 0.003258 -0.008694 0.000688 0.028543 0.001368 0.003045
# 5 -0.002060 0.000001 0.002511 0.001368 0.030937 -0.000954
# 6 0.000703 -0.003411 -0.001162 0.003045 -0.000954 0.023422
#
#
# Mechanical properties :
#
#
# Convention : Reuss Voigt Hill
#
# Bulk Modulus (GPa) = 73.23250 80.97281 77.10265
# Shear Modulus (GPa) = 32.81323 38.50883 35.66103
#
# Velocity S-wave (km/s) = 4.01817 4.35295 4.18890
# Velocity P-wave (km/s) = 7.58692 8.06887 7.83161
#
# Compressibility (1/GPa) = 0.01365514
#
# Stress axis : x y z
#
# Youngs Moduli (GPa) = 70.14819 60.25395 118.51981
#
# Poissons Ratio (x) = 0.49817 0.26786
# Poissons Ratio (y) = 0.57997 0.27132
# Poissons Ratio (z) = 0.15854 0.13794
#
# Static dielectric constant tensor:
#      x y z
#    x 3.889720 -0.099540 -0.017970 
#    y -0.099540 3.935100 0.135570 
#    z -0.017970 0.135570 3.797900 
# 
# 
# High freq. dielectric constant tensor:
#      x y z
#    x 1.791900 0.003420 0.000660 
#    y 0.003420 1.791010 -0.000870 
#    z 0.000660 -0.000870 1.813210 
# 
# From -- ./inp_files/27469.got.cif
#   From: 2010.06.25/outbox.cif.g09.slc.cpg/sg2_14_cif.got.tgz:27469.got - 2010.06.27 13:26:56.
