data_PCOD8012875
_publ_section_title
;
Structure prediction by ZEFSAII (Michael W. Deem and Ramdas Pophale) SiO2 
 PCOD8012875
Probable space group: P -1
;
_chemical_formula_sum "Si O2"
_cell_formula_units_Z 16
_cell_length_a 14.572046
_cell_length_b 8.652456
_cell_length_c 11.305772
_cell_angle_alpha 98.917684
_cell_angle_beta 121.347680
_cell_angle_gamma 44.054801
_cell_volume 786.922946
_symmetry_space_group_name_H-M "P -1"
_symmetry_group_IT_number 2
_symmetry_cell_setting 'triclinic'
loop_
_space_group_symop_operation_xyz
x,y,z
-x,-y,-z
loop_
_atom_site_type_symbol
_atom_site_label
_atom_site_fract_x
_atom_site_fract_y
_atom_site_fract_z
Si Si1 0.369120 0.323332 0.524598
Si Si2 0.792056 0.845133 0.232142
Si Si3 0.526288 0.661885 0.871974
Si Si4 0.582773 0.241263 0.825324
Si Si5 0.443624 0.160901 0.299164
Si Si6 0.693274 0.616448 0.185984
Si Si7 0.838057 0.731291 0.986614
Si Si8 0.061973 0.755325 0.513857
O O1 0.516222 0.282053 0.652548
O O2 0.354918 0.326665 0.375231
O O3 0.197396 0.582007 0.483201
O O4 0.406889 0.114298 0.588972
O O5 0.705594 0.790316 0.228687
O O6 0.920459 0.784065 0.399334
O O7 0.644710 0.131615 0.145283
O O8 0.875949 0.698237 0.148278
O O9 0.575839 0.428312 0.875337
O O10 0.495055 0.762372 0.730961
O O11 0.671345 0.592172 0.031390
O O12 0.464128 0.268389 0.832981
O O13 0.772028 0.975601 0.931034
O O14 0.309165 0.223093 0.136619
O O15 0.861226 0.357734 0.318417
O O16 0.000000 0.500000 0.000000
O O17 0.000000 0.000000 0.500000
#
# Coordination Sequence:
#
# PCOD8012875 Si02
#       8
#     2   2   2   2   2   2   2   2
#     4   9  20  42  63  86 125 163 201 255 301 368
#     4  12  22  38  65  92 120 160 208 255 303 364
#     4  12  22  38  67  95 120 159 207 263 305 359
#     4  10  22  38  62  91 122 160 206 252 312 358
#     4  10  21  40  64  89 118 161 214 249 298 370
#     4  11  22  40  61  91 125 159 208 254 301 367
#     4  11  22  38  59  87 120 163 204 245 305 369
#     4  11  24  39  60  93 128 162 200 251 317 363
#
# _framework density 20.332360000000001
#
# number of rings (size 3 to 8) (size 9 to 14) (size 15 to 20)
#    0.000    1.250    2.500    5.625    1.750    0.500 
#    0.000    1.875    0.000    0.000    0.000    0.000 
#    0.000    0.000    0.000    0.000    0.000    0.000 
#
# Total GULP energy -198348.482499 kJ/mol
# GULP energy per Si atom -12396.780156 kJ/mol
# Density = 2.028608 g / cm^3
# Si number density = 20.332360 Si / 1000 Ang^3
#
#
#
# Elastic Constant Matrix: (Units=GPa)
#
#
# Indices 1 2 3 4 5 6 
#
# 1 75.9685 58.7783 38.0368 2.5844 0.0225 5.6130
# 2 58.7783 164.5531 47.1925 -11.6742 -2.1662 8.6873
# 3 38.0368 47.1925 128.0929 3.2807 -1.3539 3.4720
# 4 2.5844 -11.6742 3.2807 35.1163 -5.1350 2.4905
# 5 0.0225 -2.1662 -1.3539 -5.1350 28.6991 6.8311
# 6 5.6130 8.6873 3.4720 2.4905 6.8311 23.8325
#
#
#
# Elastic Compliance Matrix: (Units=1/GPa)
#
#
# Indices 1 2 3 4 5 6 
#
# 1 0.020018 -0.006324 -0.003505 -0.003295 -0.000942 -0.001285
# 2 -0.006324 0.009240 -0.001540 0.004164 0.002009 -0.002666
# 3 -0.003505 -0.001540 0.009442 -0.001127 0.000107 0.000098
# 4 -0.003295 0.004164 -0.001127 0.031712 0.007367 -0.006003
# 5 -0.000942 0.002009 0.000107 0.007367 0.039310 -0.012563
# 6 -0.001285 -0.002666 0.000098 -0.006003 -0.012563 0.047448
#
#
# Mechanical properties :
#
#
# Convention : Reuss Voigt Hill
#
# Bulk Modulus (GPa) = 62.64281 72.95884 67.80083
# Shear Modulus (GPa) = 26.99362 32.50336 29.74849
#
# Velocity S-wave (km/s) = 3.64760 4.00259 3.82921
# Velocity P-wave (km/s) = 6.97254 7.57113 7.27799
#
# Compressibility (1/GPa) = 0.01596352
#
# Stress axis : x y z
#
# Youngs Moduli (GPa) = 49.95396 108.22548 105.90622
#
# Poissons Ratio (x) = 0.68437 0.37124
# Poissons Ratio (y) = 0.31589 0.16305
# Poissons Ratio (z) = 0.17511 0.16663
#
# Static dielectric constant tensor:
#      x y z
#    x 3.325390 0.081640 -0.037770 
#    y 0.081640 3.796940 0.111270 
#    z -0.037770 0.111270 4.093120 
# 
# 
# High freq. dielectric constant tensor:
#      x y z
#    x 1.759600 0.008710 -0.003460 
#    y 0.008710 1.801010 0.007360 
#    z -0.003460 0.007360 1.810750 
# 
# From -- ./inp_files/223803.got.cif
#   From: 2010.06.25/outbox.cif.g09.slc.cpg/sg2_112_cif.got.tgz:223803.got - 2010.06.27 13:26:56.
