data_PCOD8012702
_publ_section_title
;
Structure prediction by ZEFSAII (Michael W. Deem and Ramdas Pophale) SiO2 
 PCOD8012702
Probable space group: P -1
;
_chemical_formula_sum "Si O2"
_cell_formula_units_Z 16
_cell_length_a 20.801671
_cell_length_b 11.796832
_cell_length_c 17.808054
_cell_angle_alpha 31.966538
_cell_angle_beta 159.907477
_cell_angle_gamma 146.936777
_cell_volume 773.992064
_symmetry_space_group_name_H-M "P -1"
_symmetry_group_IT_number 2
_symmetry_cell_setting 'triclinic'
loop_
_space_group_symop_operation_xyz
x,y,z
-x,-y,-z
loop_
_atom_site_type_symbol
_atom_site_label
_atom_site_fract_x
_atom_site_fract_y
_atom_site_fract_z
Si Si1 0.634136 0.341341 0.006982
Si Si2 0.663266 0.057367 0.749010
Si Si3 0.507936 0.142030 0.833071
Si Si4 0.738842 0.275806 0.865674
Si Si5 0.847520 0.769455 0.669170
Si Si6 0.013171 0.158328 0.724133
Si Si7 0.375444 0.667241 0.586038
Si Si8 0.060660 0.469582 0.467559
O O1 0.642725 0.310959 0.943254
O O2 0.538199 0.539587 0.813375
O O3 0.845515 0.384475 0.248929
O O4 0.499345 0.112033 0.015572
O O5 0.648583 0.177491 0.743559
O O6 0.713608 0.247306 0.634102
O O7 0.465213 0.882684 0.612821
O O8 0.827897 0.921966 0.007880
O O9 0.584853 0.183673 0.810788
O O10 0.293322 0.188487 0.575236
O O11 0.771727 0.536428 0.755678
O O12 0.938216 0.206398 0.142131
O O13 0.850786 0.949793 0.636604
O O14 0.107264 0.293223 0.677156
O O15 0.913001 0.301964 0.587723
O O16 0.209641 0.504159 0.542744
#
# Coordination Sequence:
#
# PCOD8012702 Si02
#       8
#     2   2   2   2   2   2   2   2
#     4  11  25  43  62  99 134 163 225 261 320 399
#     4  10  23  44  64  99 134 163 225 264 316 395
#     4  11  24  41  66  93 129 174 211 270 318 381
#     4  10  23  40  67  94 127 174 214 266 322 378
#     4  10  21  40  62  96 128 159 221 265 308 385
#     4  10  22  42  67  99 132 166 224 267 306 400
#     4  11  25  43  67  95 134 176 204 274 330 380
#     4  11  24  43  68  96 132 175 210 270 330 371
#
# _framework density 20.672046000000002
#
# number of rings (size 3 to 8) (size 9 to 14) (size 15 to 20)
#    0.000    1.500    2.500    1.125    5.250    5.000 
#    2.250    2.500    0.000    0.000    0.000    0.000 
#    0.000    0.000    0.000    0.000    0.000    0.000 
#
# Total GULP energy -198418.491504 kJ/mol
# GULP energy per Si atom -12401.155719 kJ/mol
# Density = 2.062500 g / cm^3
# Si number density = 20.672046 Si / 1000 Ang^3
#
#
#
# Elastic Constant Matrix: (Units=GPa)
#
#
# Indices 1 2 3 4 5 6 
#
# 1 98.2845 27.8347 11.9388 6.7615 -2.8178 -0.0672
# 2 27.8347 85.2854 1.1144 0.0946 8.1824 -19.0052
# 3 11.9388 1.1144 81.0336 1.4672 -4.2105 2.2291
# 4 6.7615 0.0946 1.4672 25.3926 -4.1079 -1.6599
# 5 -2.8178 8.1824 -4.2105 -4.1079 16.6547 2.0441
# 6 -0.0672 -19.0052 2.2291 -1.6599 2.0441 33.6343
#
#
#
# Elastic Compliance Matrix: (Units=1/GPa)
#
#
# Indices 1 2 3 4 5 6 
#
# 1 0.012038 -0.004956 -0.001373 -0.002686 0.003836 -0.003051
# 2 -0.004956 0.016554 -0.000308 0.000278 -0.010208 0.009998
# 3 -0.001373 -0.000308 0.012751 0.000086 0.003314 -0.001219
# 4 -0.002686 0.000278 0.000086 0.041738 0.009526 0.001627
# 5 0.003836 -0.010208 0.003314 0.009526 0.070094 -0.009770
# 6 -0.003051 0.009998 -0.001219 0.001627 -0.009770 0.036130
#
#
# Mechanical properties :
#
#
# Convention : Reuss Voigt Hill
#
# Bulk Modulus (GPa) = 35.62725 38.48660 37.05693
# Shear Modulus (GPa) = 23.59214 30.05068 26.82141
#
# Velocity S-wave (km/s) = 3.38192 3.81686 3.60595
# Velocity P-wave (km/s) = 5.70278 6.17112 5.94157
#
# Compressibility (1/GPa) = 0.02806840
#
# Stress axis : x y z
#
# Youngs Moduli (GPa) = 83.07329 60.40895 78.42337
#
# Poissons Ratio (x) = 0.29937 0.10771
# Poissons Ratio (y) = 0.41168 0.02415
# Poissons Ratio (z) = 0.11410 0.01861
#
# Static dielectric constant tensor:
#      x y z
#    x 3.553520 -0.207060 -0.205290 
#    y -0.207060 3.879410 -0.113680 
#    z -0.205290 -0.113680 3.860270 
# 
# 
# High freq. dielectric constant tensor:
#      x y z
#    x 1.792570 -0.016210 -0.013600 
#    y -0.016210 1.824290 -0.008900 
#    z -0.013600 -0.008900 1.817040 
# 
# From -- ./inp_files/259043.got.cif
#   From: 2010.06.25/outbox.cif.g09.slc.cpg/sg2_130_cif.got.tgz:259043.got - 2010.06.27 13:26:56.
