data_PCOD8012632
_publ_section_title
;
Structure prediction by ZEFSAII (Michael W. Deem and Ramdas Pophale) SiO2 
 PCOD8012632
Probable space group: P -1
;
_chemical_formula_sum "Si O2"
_cell_formula_units_Z 14
_cell_length_a 10.754717
_cell_length_b 12.470341
_cell_length_c 8.277035
_cell_angle_alpha 102.891330
_cell_angle_beta 100.718916
_cell_angle_gamma 35.744694
_cell_volume 632.108761
_symmetry_space_group_name_H-M "P -1"
_symmetry_group_IT_number 2
_symmetry_cell_setting 'triclinic'
loop_
_space_group_symop_operation_xyz
x,y,z
-x,-y,-z
loop_
_atom_site_type_symbol
_atom_site_label
_atom_site_fract_x
_atom_site_fract_y
_atom_site_fract_z
Si Si1 0.418507 0.861449 0.022036
Si Si2 0.641036 0.319827 0.870946
Si Si3 0.220234 0.442397 0.234097
Si Si4 0.004084 0.231697 0.910734
Si Si5 0.554050 0.675257 0.435610
Si Si6 0.017920 0.609116 0.729356
Si Si7 0.355399 0.015805 0.380362
O O1 0.328690 0.814016 0.068051
O O2 0.443808 0.935860 0.192103
O O3 0.250671 0.023591 0.903287
O O4 0.645319 0.683964 0.934395
O O5 0.526929 0.379599 0.688827
O O6 0.500000 0.500000 0.000000
O O7 0.868809 0.214695 0.858401
O O8 0.381467 0.385786 0.383016
O O9 0.109674 0.411587 0.265130
O O10 0.042273 0.656558 0.215300
O O11 0.938242 0.344046 0.092472
O O12 0.757683 0.581379 0.356497
O O13 0.363709 0.897339 0.445925
O O14 0.885464 0.770545 0.617476
O O15 0.500000 0.000000 0.500000
#
# Coordination Sequence:
#
# PCOD8012632 Si02
#       7
#     2   2   2   2   2   2   2
#     4  10  24  41  65  94 125 163 211 258 309 370
#     4  11  20  45  70  85 122 166 218 255 301 376
#     4  12  24  39  60  98 130 161 204 261 315 369
#     4  11  23  41  66  92 121 169 206 257 315 364
#     4  11  24  41  65  94 125 166 210 257 309 369
#     4  11  23  41  64  90 126 171 208 248 315 378
#     4  10  21  40  62  88 123 166 207 248 304 369
#
# _framework density 22.148087
#
# number of rings (size 3 to 8) (size 9 to 14) (size 15 to 20)
#    0.000    1.143    4.286    2.143    0.000    5.143 
#    0.000    0.714    0.000    0.000    0.000    0.000 
#    0.000    0.000    0.000    0.000    0.000    0.000 
#
# Total GULP energy -173614.164836 kJ/mol
# GULP energy per Si atom -12401.011774 kJ/mol
# Density = 2.209768 g / cm^3
# Si number density = 22.148087 Si / 1000 Ang^3
#
#
#
# Elastic Constant Matrix: (Units=GPa)
#
#
# Indices 1 2 3 4 5 6 
#
# 1 78.2488 32.2793 34.7484 -5.2733 20.9853 6.7724
# 2 32.2793 109.2651 17.7152 -30.7917 3.3848 20.1860
# 3 34.7484 17.7152 98.1712 -26.7210 31.1960 5.4394
# 4 -5.2733 -30.7917 -26.7210 39.5819 -0.6890 -3.8914
# 5 20.9853 3.3848 31.1960 -0.6890 36.7256 -2.9433
# 6 6.7724 20.1860 5.4394 -3.8914 -2.9433 31.0909
#
#
#
# Elastic Compliance Matrix: (Units=1/GPa)
#
#
# Indices 1 2 3 4 5 6 
#
# 1 0.018882 -0.006130 -0.005319 -0.005996 -0.005859 -0.000507
# 2 -0.006130 0.015539 0.003881 0.013082 -0.001617 -0.007948
# 3 -0.005319 0.003881 0.020541 0.015484 -0.014830 -0.004421
# 4 -0.005996 0.013082 0.015484 0.044387 -0.010527 -0.005337
# 5 -0.005859 -0.001617 -0.014830 -0.010527 0.043746 0.007745
# 6 -0.000507 -0.007948 -0.004421 -0.005337 0.007745 0.038273
#
#
# Mechanical properties :
#
#
# Convention : Reuss Voigt Hill
#
# Bulk Modulus (GPa) = 25.11033 50.57455 37.84244
# Shear Modulus (GPa) = 23.83443 34.87583 29.35513
#
# Velocity S-wave (km/s) = 3.28402 3.97251 3.64456
# Velocity P-wave (km/s) = 5.07363 6.62763 5.90200
#
# Compressibility (1/GPa) = 0.03982425
#
# Stress axis : x y z
#
# Youngs Moduli (GPa) = 52.96069 64.35491 48.68307
#
# Poissons Ratio (x) = 0.39451 0.25896
# Poissons Ratio (y) = 0.32466 -0.18893
# Poissons Ratio (z) = 0.28172 -0.24975
#
# Static dielectric constant tensor:
#      x y z
#    x 3.982480 0.299330 0.357790 
#    y 0.299330 4.394330 -0.208830 
#    z 0.357790 -0.208830 4.277200 
# 
# 
# High freq. dielectric constant tensor:
#      x y z
#    x 1.845960 0.012830 0.022780 
#    y 0.012830 1.884480 -0.015380 
#    z 0.022780 -0.015380 1.880090 
# 
# From -- ./inp_files/273779.got.cif
#   From: 2010.06.25/outbox.cif.g09.slc.cpg/sg2_137_cif.got.tgz:273779.got - 2010.06.27 13:26:56.
