data_PCOD8012537
_publ_section_title
;
Structure prediction by ZEFSAII (Michael W. Deem and Ramdas Pophale) SiO2 
 PCOD8012537
Probable space group: P -1
;
_chemical_formula_sum "Si O2"
_cell_formula_units_Z 12
_cell_length_a 18.120154
_cell_length_b 11.755342
_cell_length_c 14.127663
_cell_angle_alpha 160.125499
_cell_angle_beta 33.993101
_cell_angle_gamma 147.248457
_cell_volume 541.414691
_symmetry_space_group_name_H-M "P -1"
_symmetry_group_IT_number 2
_symmetry_cell_setting 'triclinic'
loop_
_space_group_symop_operation_xyz
x,y,z
-x,-y,-z
loop_
_atom_site_type_symbol
_atom_site_label
_atom_site_fract_x
_atom_site_fract_y
_atom_site_fract_z
Si Si1 0.293021 0.019337 0.978586
Si Si2 0.362817 0.602078 0.940679
Si Si3 0.608624 0.291862 0.208280
Si Si4 0.050931 0.012054 0.099228
Si Si5 0.539929 0.222028 0.537881
Si Si6 0.124626 0.571609 0.304563
O O1 0.284709 0.700417 0.812961
O O2 0.406277 0.013646 0.775499
O O3 0.141598 0.937362 0.029211
O O4 0.339833 0.407127 0.278946
O O5 0.299409 0.564351 0.871956
O O6 0.396392 0.258610 0.675210
O O7 0.266930 0.721923 0.211141
O O8 0.515795 0.882550 0.983921
O O9 0.500000 0.500000 0.500000
O O10 0.143444 0.337537 0.190657
O O11 0.917739 0.099015 0.352961
O O12 0.996030 0.664886 0.821383
O O13 0.500000 0.000000 0.500000
#
# Coordination Sequence:
#
# PCOD8012537 Si02
#       6
#     2   2   2   2   2   2
#     4  11  22  39  60  85 123 156 196 248 296 352
#     4  10  22  38  61  90 118 159 202 243 303 356
#     4  10  21  40  61  86 120 161 198 249 301 348
#     4  10  22  40  59  88 119 160 196 240 298 351
#     4  11  22  35  60  92 119 150 194 252 308 356
#     4  10  22  39  62  85 121 157 197 243 294 359
#
# _framework density 22.164155999999998
#
# number of rings (size 3 to 8) (size 9 to 14) (size 15 to 20)
#    0.000    1.667    1.667    2.500    2.333    4.000 
#    0.000    1.667    0.000    0.000    0.000    0.000 
#    0.000    0.000    0.000    0.000    0.000    0.000 
#
# Total GULP energy -148761.511014 kJ/mol
# GULP energy per Si atom -12396.792584 kJ/mol
# Density = 2.211371 g / cm^3
# Si number density = 22.164156 Si / 1000 Ang^3
#
#
#
# Elastic Constant Matrix: (Units=GPa)
#
#
# Indices 1 2 3 4 5 6 
#
# 1 155.8823 28.9329 22.0399 -4.6986 -33.4580 -25.8911
# 2 28.9329 62.5740 8.2070 -22.6802 -9.4693 -29.6915
# 3 22.0399 8.2070 68.4255 -12.5411 -4.8039 -15.0776
# 4 -4.6986 -22.6802 -12.5411 37.6111 -4.3305 8.2555
# 5 -33.4580 -9.4693 -4.8039 -4.3305 41.4756 -0.7527
# 6 -25.8911 -29.6915 -15.0776 8.2555 -0.7527 37.9750
#
#
#
# Elastic Compliance Matrix: (Units=1/GPa)
#
#
# Indices 1 2 3 4 5 6 
#
# 1 0.009140 -0.000121 -0.001085 0.000283 0.007354 0.005790
# 2 -0.000121 0.037075 0.006023 0.019708 0.011617 0.027242
# 3 -0.001085 0.006023 0.018020 0.007833 0.003577 0.009492
# 4 0.000283 0.019708 0.007833 0.040030 0.010000 0.010208
# 5 0.007354 0.011617 0.003577 0.010000 0.034408 0.014025
# 6 0.005790 0.027242 0.009492 0.010208 0.014025 0.053408
#
#
# Mechanical properties :
#
#
# Convention : Reuss Voigt Hill
#
# Bulk Modulus (GPa) = 13.53770 45.02681 29.28226
# Shear Modulus (GPa) = 24.14637 38.59247 31.36942
#
# Velocity S-wave (km/s) = 3.30424 4.17731 3.76616
# Velocity P-wave (km/s) = 4.54736 6.60498 5.67029
#
# Compressibility (1/GPa) = 0.07386777
#
# Stress axis : x y z
#
# Youngs Moduli (GPa) = 109.41253 26.97257 55.49410
#
# Poissons Ratio (x) = 0.00325 0.06023
# Poissons Ratio (y) = 0.01320 -0.33422
# Poissons Ratio (z) = 0.11875 -0.16245
#
# Static dielectric constant tensor:
#      x y z
#    x 4.573380 -0.434530 -0.048760 
#    y -0.434530 3.734340 0.118400 
#    z -0.048760 0.118400 4.093140 
# 
# 
# High freq. dielectric constant tensor:
#      x y z
#    x 1.887840 -0.022600 0.002630 
#    y -0.022600 1.837010 -0.002590 
#    z 0.002630 -0.002590 1.878200 
# 
# From -- ./inp_files/23159.got.cif
#   From: 2010.06.25/outbox.cif.g09.slc.cpg/sg2_12_cif.got.tgz:23159.got - 2010.06.27 13:26:56.
