data_PCOD8012447
_publ_section_title
;
Structure prediction by ZEFSAII (Michael W. Deem and Ramdas Pophale) SiO2 
 PCOD8012447
Probable space group: P -1
;
_chemical_formula_sum "Si O2"
_cell_formula_units_Z 16
_cell_length_a 14.728966
_cell_length_b 14.503195
_cell_length_c 8.161592
_cell_angle_alpha 69.392345
_cell_angle_beta 80.437050
_cell_angle_gamma 138.957387
_cell_volume 762.883341
_symmetry_space_group_name_H-M "P -1"
_symmetry_group_IT_number 2
_symmetry_cell_setting 'triclinic'
loop_
_space_group_symop_operation_xyz
x,y,z
-x,-y,-z
loop_
_atom_site_type_symbol
_atom_site_label
_atom_site_fract_x
_atom_site_fract_y
_atom_site_fract_z
Si Si1 0.602708 0.186442 0.533408
Si Si2 0.545457 0.311544 0.940361
Si Si3 0.788196 0.725936 0.565036
Si Si4 0.981368 0.417021 0.715818
Si Si5 0.216072 0.167058 0.820677
Si Si6 0.754921 0.817838 0.835515
Si Si7 0.332461 0.767256 0.888694
Si Si8 0.307862 0.030045 0.885643
O O1 0.661563 0.215562 0.316027
O O2 0.433092 0.109820 0.642504
O O3 0.799356 0.407339 0.420058
O O4 0.509319 0.000420 0.763887
O O5 0.370017 0.202484 0.155079
O O6 0.644350 0.325026 0.018385
O O7 0.714666 0.545753 0.689852
O O8 0.463383 0.178270 0.891637
O O9 0.696831 0.696328 0.451619
O O10 0.713454 0.701942 0.774704
O O11 0.020371 0.942712 0.364186
O O12 0.000000 0.500000 0.500000
O O13 0.876631 0.388075 0.897928
O O14 0.866403 0.206319 0.861991
O O15 0.220571 0.054556 0.856160
O O16 0.316057 0.286116 0.894732
O O17 0.000000 0.000000 0.000000
#
# Coordination Sequence:
#
# PCOD8012447 Si02
#       8
#     2   2   2   2   2   2   2   2
#     4  10  22  42  61  87 125 158 199 252 305 365
#     4  11  22  38  59  90 118 153 202 247 298 366
#     4  10  21  40  59  85 123 164 200 250 313 350
#     4  11  22  40  65  89 121 160 199 252 307 364
#     4   9  20  39  61  86 125 161 200 258 296 363
#     4   9  21  39  57  86 121 159 207 249 299 365
#     4  10  23  40  60  91 123 157 201 251 305 363
#     4  10  23  39  60  94 117 158 211 244 305 368
#
# _framework density 20.973061000000001
#
# number of rings (size 3 to 8) (size 9 to 14) (size 15 to 20)
#    0.000    2.000    0.000    2.250    1.750   11.000 
#    9.000    0.000    0.000    0.000    0.000    0.000 
#    0.000    0.000    0.000    0.000    0.000    0.000 
#
# Total GULP energy -198272.537459 kJ/mol
# GULP energy per Si atom -12392.033591 kJ/mol
# Density = 2.092533 g / cm^3
# Si number density = 20.973061 Si / 1000 Ang^3
#
#
#
# Elastic Constant Matrix: (Units=GPa)
#
#
# Indices 1 2 3 4 5 6 
#
# 1 126.0329 17.1114 54.9928 2.4598 10.6437 -7.0583
# 2 17.1114 81.3560 45.3387 1.4884 9.1141 -9.8542
# 3 54.9928 45.3387 124.3774 -4.8695 7.0513 -6.4867
# 4 2.4598 1.4884 -4.8695 33.9045 -3.5066 -2.5032
# 5 10.6437 9.1141 7.0513 -3.5066 39.9222 1.2399
# 6 -7.0583 -9.8542 -6.4867 -2.5032 1.2399 24.3017
#
#
#
# Elastic Compliance Matrix: (Units=1/GPa)
#
#
# Indices 1 2 3 4 5 6 
#
# 1 0.010187 0.001013 -0.004694 -0.001544 -0.002318 0.002076
# 2 0.001013 0.016503 -0.006061 -0.001611 -0.003275 0.005369
# 3 -0.004694 -0.006061 0.012366 0.002430 0.000674 -0.000304
# 4 -0.001544 -0.001611 0.002430 0.030519 0.002952 0.002540
# 5 -0.002318 -0.003275 0.000674 0.002952 0.026644 -0.002877
# 6 0.002076 0.005369 -0.000304 0.002540 -0.002877 0.044257
#
#
# Mechanical properties :
#
#
# Convention : Reuss Voigt Hill
#
# Bulk Modulus (GPa) = 51.09434 62.96135 57.02784
# Shear Modulus (GPa) = 30.03269 33.91391 31.97330
#
# Velocity S-wave (km/s) = 3.78824 4.02558 3.90871
# Velocity P-wave (km/s) = 6.59917 7.18974 6.90078
#
# Compressibility (1/GPa) = 0.01957164
#
# Stress axis : x y z
#
# Youngs Moduli (GPa) = 98.16069 60.59468 80.86698
#
# Poissons Ratio (x) = -0.06137 0.37961
# Poissons Ratio (y) = -0.09941 0.49013
# Poissons Ratio (z) = 0.46079 0.36726
#
# Static dielectric constant tensor:
#      x y z
#    x 3.965390 0.670160 -0.408550 
#    y 0.670160 6.873490 -1.243310 
#    z -0.408550 -1.243310 4.785100 
# 
# 
# High freq. dielectric constant tensor:
#      x y z
#    x 1.824790 -0.005400 -0.016270 
#    y -0.005400 1.817810 0.000970 
#    z -0.016270 0.000970 1.830010 
# 
# From -- ./inp_files/312780.got.cif
#   From: 2010.06.25/outbox.cif.g09.slc.cpg/sg2_157_cif.got.tgz:312780.got - 2010.06.27 13:26:56.
