data_PCOD8012227
_publ_section_title
;
Structure prediction by ZEFSAII (Michael W. Deem and Ramdas Pophale) SiO2 
 PCOD8012227
Probable space group: P -1
;
_chemical_formula_sum "Si O2"
_cell_formula_units_Z 12
_cell_length_a 9.209224
_cell_length_b 9.243653
_cell_length_c 8.698124
_cell_angle_alpha 46.946014
_cell_angle_beta 73.689123
_cell_angle_gamma 90.509584
_cell_volume 497.572127
_symmetry_space_group_name_H-M "P -1"
_symmetry_group_IT_number 2
_symmetry_cell_setting 'triclinic'
loop_
_space_group_symop_operation_xyz
x,y,z
-x,-y,-z
loop_
_atom_site_type_symbol
_atom_site_label
_atom_site_fract_x
_atom_site_fract_y
_atom_site_fract_z
Si Si1 0.048446 0.249510 0.674404
Si Si2 0.085549 0.465527 0.188395
Si Si3 0.797463 0.083221 0.107141
Si Si4 0.360505 0.353138 0.047913
Si Si5 0.454193 0.958384 0.217643
Si Si6 0.762996 0.472586 0.316596
O O1 0.047737 0.410716 0.421777
O O2 0.165583 0.355196 0.701548
O O3 0.111584 0.061434 0.728971
O O4 0.871880 0.144898 0.868856
O O5 0.186710 0.322422 0.195775
O O6 0.908553 0.437955 0.192485
O O7 0.186482 0.703048 0.963531
O O8 0.614049 0.958552 0.256836
O O9 0.382400 0.128258 0.191091
O O10 0.500000 0.500000 0.000000
O O11 0.358990 0.451788 0.808078
O O12 0.327682 0.739095 0.424030
O O13 0.500000 0.000000 0.000000
#
# Coordination Sequence:
#
# PCOD8012227 Si02
#       6
#     2   2   2   2   2   2
#     4  10  22  42  72 100 133 183 229 276 340 406
#     4  11  23  46  69  98 139 180 227 283 336 408
#     4  10  21  39  67  99 136 175 225 272 342 400
#     4  12  28  46  68 102 143 182 225 281 348 400
#     4  12  25  43  71 103 137 176 231 283 340 406
#     4  11  26  43  71 102 138 181 230 280 339 404
#
# _framework density 24.117108000000002
#
# number of rings (size 3 to 8) (size 9 to 14) (size 15 to 20)
#    0.000    1.000    1.667    5.500    2.333    6.667 
#    0.000    0.000    0.000    0.000    0.000    0.000 
#    0.000    0.000    0.000    0.000    0.000    0.000 
#
# Total GULP energy -148806.449099 kJ/mol
# GULP energy per Si atom -12400.537425 kJ/mol
# Density = 2.406222 g / cm^3
# Si number density = 24.117108 Si / 1000 Ang^3
#
#
#
# Elastic Constant Matrix: (Units=GPa)
#
#
# Indices 1 2 3 4 5 6 
#
# 1 118.4835 17.1781 12.8289 -10.4028 -6.4879 -13.5972
# 2 17.1781 72.6686 9.4916 -9.2086 -2.0775 -16.7835
# 3 12.8289 9.4916 64.5762 -30.0013 -11.3722 3.5143
# 4 -10.4028 -9.2086 -30.0013 25.4347 1.7036 2.2657
# 5 -6.4879 -2.0775 -11.3722 1.7036 44.9245 3.4545
# 6 -13.5972 -16.7835 3.5143 2.2657 3.4545 41.3348
#
#
#
# Elastic Compliance Matrix: (Units=1/GPa)
#
#
# Indices 1 2 3 4 5 6 
#
# 1 0.009207 -0.001229 -0.000450 0.002521 0.000882 0.002356
# 2 -0.001229 0.016012 -0.000542 0.004139 -0.000187 0.005932
# 3 -0.000450 -0.000542 0.038395 0.044948 0.008448 -0.006802
# 4 0.002521 0.004139 0.044948 0.094914 0.008892 -0.007257
# 5 0.000882 -0.000187 0.008448 0.008892 0.024413 -0.003032
# 6 0.002356 0.005932 -0.006802 -0.007257 -0.003032 0.028606
#
#
# Mechanical properties :
#
#
# Convention : Reuss Voigt Hill
#
# Bulk Modulus (GPa) = 16.90027 37.19173 27.04600
# Shear Modulus (GPa) = 21.21229 36.75411 28.98320
#
# Velocity S-wave (km/s) = 2.96894 3.90806 3.47042
# Velocity P-wave (km/s) = 4.33309 5.98487 5.22467
#
# Compressibility (1/GPa) = 0.05917066
#
# Stress axis : x y z
#
# Youngs Moduli (GPa) = 108.61416 62.45481 26.04519
#
# Poissons Ratio (x) = 0.07674 0.01173
# Poissons Ratio (y) = 0.13347 0.01412
# Poissons Ratio (z) = 0.04891 0.03386
#
# Static dielectric constant tensor:
#      x y z
#    x 5.454780 -0.275010 -0.046090 
#    y -0.275010 4.244560 -0.084130 
#    z -0.046090 -0.084130 4.250840 
# 
# 
# High freq. dielectric constant tensor:
#      x y z
#    x 1.974980 -0.013920 0.003810 
#    y -0.013920 1.951760 -0.008790 
#    z 0.003810 -0.008790 1.954410 
# 
# From -- ./inp_files/149793.got.cif
#   From: 2010.06.25/outbox.cif.g09.slc.cpg/sg2_75_cif.got.tgz:149793.got - 2010.06.27 13:26:56.
