data_PCOD8012959
_publ_section_title
;
Structure prediction by ZEFSAII (Michael W. Deem and Ramdas Pophale) SiO2 
 PCOD8012959
Probable space group: P -1
;
_chemical_formula_sum "Si O2"
_cell_formula_units_Z 16
_cell_length_a 13.889589
_cell_length_b 8.452691
_cell_length_c 22.890450
_cell_angle_alpha 101.275855
_cell_angle_beta 20.057020
_cell_angle_gamma 111.041965
_cell_volume 771.272063
_symmetry_space_group_name_H-M "P -1"
_symmetry_group_IT_number 2
_symmetry_cell_setting 'triclinic'
loop_
_space_group_symop_operation_xyz
x,y,z
-x,-y,-z
loop_
_atom_site_type_symbol
_atom_site_label
_atom_site_fract_x
_atom_site_fract_y
_atom_site_fract_z
Si Si1 0.505812 0.595882 0.870109
Si Si2 0.226299 0.180087 0.111839
Si Si3 0.107573 0.498126 0.204314
Si Si4 0.683315 0.591158 0.523442
Si Si5 0.378716 0.011777 0.918627
Si Si6 0.853128 0.991619 0.733631
Si Si7 0.118600 0.600821 0.377540
Si Si8 0.952431 0.402410 0.958604
O O1 0.830315 0.807651 0.703726
O O2 0.638457 0.457340 0.793526
O O3 0.241124 0.567011 0.068035
O O4 0.313843 0.560612 0.916647
O O5 0.015977 0.281315 0.249922
O O6 0.164026 0.032902 0.188406
O O7 0.607500 0.353833 0.903624
O O8 0.139374 0.074346 0.090185
O O9 0.790468 0.512533 0.401302
O O10 0.293685 0.492151 0.736357
O O11 0.805659 0.543506 0.510475
O O12 0.818099 0.814058 0.456705
O O13 0.541285 0.992558 0.884463
O O14 0.655463 0.170939 0.729471
O O15 0.189738 0.822741 0.974121
O O16 0.000000 0.500000 0.500000
O O17 0.000000 0.500000 0.000000
#
# Coordination Sequence:
#
# PCOD8012959 Si02
#       8
#     2   2   2   2   2   2   2   2
#     4  10  21  39  62  90 119 160 194 246 314 354
#     4  10  16  33  60  95 123 152 188 246 312 356
#     4  10  18  33  63  89 125 147 194 253 302 359
#     4  11  22  39  60  94 121 154 204 251 294 353
#     4  10  20  38  60  87 120 161 204 237 302 360
#     4   9  19  31  62  92 121 152 196 247 298 362
#     4  11  21  39  66  90 115 156 213 252 283 348
#     4  11  26  44  58  80 127 170 200 244 300 353
#
# _framework density 20.744952000000001
#
# number of rings (size 3 to 8) (size 9 to 14) (size 15 to 20)
#    0.000    1.750    3.750    2.625    3.500    1.500 
#    0.000    9.375    0.000    0.000    0.000    0.000 
#    0.000    0.000    0.000    0.000    0.000    0.000 
#
# Total GULP energy -198261.989228 kJ/mol
# GULP energy per Si atom -12391.374327 kJ/mol
# Density = 2.069774 g / cm^3
# Si number density = 20.744952 Si / 1000 Ang^3
#
#
#
# Elastic Constant Matrix: (Units=GPa)
#
#
# Indices 1 2 3 4 5 6 
#
# 1 82.4855 41.1746 12.1250 -13.5593 20.8972 0.2712
# 2 41.1746 128.9296 39.4586 -14.2048 8.5984 5.0879
# 3 12.1250 39.4586 73.5273 -8.7202 8.2161 -0.6932
# 4 -13.5593 -14.2048 -8.7202 27.7513 -2.4014 5.7583
# 5 20.8972 8.5984 8.2161 -2.4014 26.4958 -1.4547
# 6 0.2712 5.0879 -0.6932 5.7583 -1.4547 36.3420
#
#
#
# Elastic Compliance Matrix: (Units=1/GPa)
#
#
# Indices 1 2 3 4 5 6 
#
# 1 0.018673 -0.004899 0.001750 0.006220 -0.013168 -0.000933
# 2 -0.004899 0.011073 -0.005106 0.002230 0.001952 -0.001886
# 3 0.001750 -0.005106 0.016944 0.003089 -0.004678 0.000348
# 4 0.006220 0.002230 0.003089 0.042396 -0.003137 -0.007143
# 5 -0.013168 0.001952 -0.004678 -0.003137 0.048780 0.002185
# 6 -0.000933 -0.001886 0.000348 -0.007143 0.002185 0.029013
#
#
# Mechanical properties :
#
#
# Convention : Reuss Voigt Hill
#
# Bulk Modulus (GPa) = 33.13350 52.27320 42.70335
# Shear Modulus (GPa) = 25.84646 30.93010 28.38828
#
# Velocity S-wave (km/s) = 3.53358 3.86550 3.70326
# Velocity P-wave (km/s) = 5.71444 6.72127 6.23820
#
# Compressibility (1/GPa) = 0.03018094
#
# Stress axis : x y z
#
# Youngs Moduli (GPa) = 53.55370 90.30750 59.01656
#
# Poissons Ratio (x) = 0.44238 -0.10327
# Poissons Ratio (y) = 0.26234 0.30134
# Poissons Ratio (z) = -0.09371 0.46112
#
# Static dielectric constant tensor:
#      x y z
#    x 3.531850 -0.175220 0.092780 
#    y -0.175220 4.298540 -0.006240 
#    z 0.092780 -0.006240 3.407440 
# 
# 
# High freq. dielectric constant tensor:
#      x y z
#    x 1.799440 -0.011940 0.022290 
#    y -0.011940 1.828470 0.002210 
#    z 0.022290 0.002210 1.774350 
# 
# From -- ./inp_files/495725.got.cif
#   From: 2010.06.25/outbox.cif.g09.slc.cpg/sg2_248_cif.got.tgz:495725.got - 2010.06.27 13:26:56.
