data_PCOD8012144
_publ_section_title
;
Structure prediction by ZEFSAII (Michael W. Deem and Ramdas Pophale) SiO2 
 PCOD8012144
Probable space group: P -1
;
_chemical_formula_sum "Si O2"
_cell_formula_units_Z 16
_cell_length_a 12.023175
_cell_length_b 8.356461
_cell_length_c 9.281483
_cell_angle_alpha 86.109594
_cell_angle_beta 78.828909
_cell_angle_gamma 125.867207
_cell_volume 721.828004
_symmetry_space_group_name_H-M "P -1"
_symmetry_group_IT_number 2
_symmetry_cell_setting 'triclinic'
loop_
_space_group_symop_operation_xyz
x,y,z
-x,-y,-z
loop_
_atom_site_type_symbol
_atom_site_label
_atom_site_fract_x
_atom_site_fract_y
_atom_site_fract_z
Si Si1 0.154387 0.173556 0.327491
Si Si2 0.137222 0.571453 0.626597
Si Si3 0.377190 0.018870 0.523740
Si Si4 0.133021 0.202310 0.660583
Si Si5 0.619607 0.731727 0.256585
Si Si6 0.148320 0.528366 0.294502
Si Si7 0.441904 0.290125 0.238348
Si Si8 0.542171 0.215205 0.943393
O O1 0.179768 0.170570 0.494014
O O2 0.094079 0.299326 0.314973
O O3 0.307483 0.274608 0.206660
O O4 0.039965 0.958520 0.290322
O O5 0.178906 0.426251 0.668360
O O6 0.157661 0.600883 0.448774
O O7 0.979710 0.473925 0.739323
O O8 0.239664 0.805901 0.637236
O O9 0.428790 0.208296 0.598783
O O10 0.369544 0.081614 0.358979
O O11 0.500000 0.000000 0.500000
O O12 0.210403 0.163337 0.768527
O O13 0.534777 0.491053 0.299165
O O14 0.578171 0.800200 0.122737
O O15 0.300289 0.664305 0.169971
O O16 0.545509 0.315728 0.085476
O O17 0.500000 0.000000 0.000000
#
# Coordination Sequence:
#
# PCOD8012144 Si02
#       8
#     2   2   2   2   2   2   2   2
#     4  10  21  39  67 101 133 177 223 277 338 406
#     4  10  22  38  67 103 133 173 222 285 339 391
#     4  12  24  39  69 104 137 171 227 290 340 388
#     4  10  22  39  69 102 136 170 227 285 339 391
#     4  12  24  44  67 102 134 178 235 284 328 402
#     4  10  21  40  65  95 135 174 228 271 336 407
#     4  12  25  42  71  97 139 183 226 274 346 410
#     4  12  27  45  68  99 139 184 223 278 348 416
#
# _framework density 22.165946999999999
#
# number of rings (size 3 to 8) (size 9 to 14) (size 15 to 20)
#    0.000    1.000    2.500    4.500    8.750    0.000 
#    0.000    0.625    2.750    3.000    0.000    0.000 
#    0.000    0.000    0.000    0.000    0.000    0.000 
#
# Total GULP energy -198226.995329 kJ/mol
# GULP energy per Si atom -12389.187208 kJ/mol
# Density = 2.211550 g / cm^3
# Si number density = 22.165947 Si / 1000 Ang^3
#
#
#
# Elastic Constant Matrix: (Units=GPa)
#
#
# Indices 1 2 3 4 5 6 
#
# 1 148.0753 57.2388 46.5076 7.4741 -6.1912 6.9939
# 2 57.2388 126.2555 43.7877 5.2127 -1.8608 1.3325
# 3 46.5076 43.7877 74.3119 5.2502 -14.1270 -1.2523
# 4 7.4741 5.2127 5.2502 19.9235 -4.8061 -3.4043
# 5 -6.1912 -1.8608 -14.1270 -4.8061 42.9327 -5.6297
# 6 6.9939 1.3325 -1.2523 -3.4043 -5.6297 30.5340
#
#
#
# Elastic Compliance Matrix: (Units=1/GPa)
#
#
# Indices 1 2 3 4 5 6 
#
# 1 0.009331 -0.002618 -0.004329 -0.002311 -0.000792 -0.002604
# 2 -0.002618 0.010878 -0.005039 -0.001047 -0.001750 -0.000521
# 3 -0.004329 -0.005039 0.020402 -0.000390 0.006241 0.003155
# 4 -0.002311 -0.001047 -0.000390 0.054369 0.006607 0.007839
# 5 -0.000792 -0.001750 0.006241 0.006607 0.026705 0.006174
# 6 -0.002604 -0.000521 0.003155 0.007839 0.006174 0.035511
#
#
# Mechanical properties :
#
#
# Convention : Reuss Voigt Hill
#
# Bulk Modulus (GPa) = 60.09375 71.52344 65.80859
# Shear Modulus (GPa) = 26.77903 32.08529 29.43216
#
# Velocity S-wave (km/s) = 3.47957 3.80874 3.64787
# Velocity P-wave (km/s) = 6.58125 7.18883 6.89174
#
# Compressibility (1/GPa) = 0.01664067
#
# Stress axis : x y z
#
# Youngs Moduli (GPa) = 107.16541 91.93087 49.01523
#
# Poissons Ratio (x) = 0.24067 0.21217
# Poissons Ratio (y) = 0.28056 0.24697
# Poissons Ratio (z) = 0.46388 0.46320
#
# Static dielectric constant tensor:
#      x y z
#    x 4.246880 0.048140 -0.121080 
#    y 0.048140 2.609740 0.239010 
#    z -0.121080 0.239010 3.738900 
# 
# 
# High freq. dielectric constant tensor:
#      x y z
#    x 1.894150 -0.012260 -0.011660 
#    y -0.012260 1.884280 0.003210 
#    z -0.011660 0.003210 1.822610 
# 
# From -- ./inp_files/243986.got.cif
#   From: 2010.06.25/outbox.cif.g09.slc.cpg/sg2_122_cif.got.tgz:243986.got - 2010.06.27 13:26:56.
