data_PCOD8012849
_publ_section_title
;
Structure prediction by ZEFSAII (Michael W. Deem and Ramdas Pophale) SiO2 
 PCOD8012849
Probable space group: P -1
;
_chemical_formula_sum "Si O2"
_cell_formula_units_Z 14
_cell_length_a 26.130117
_cell_length_b 14.710080
_cell_length_c 15.166284
_cell_angle_alpha 19.501743
_cell_angle_beta 20.395239
_cell_angle_gamma 21.109133
_cell_volume 614.148067
_symmetry_space_group_name_H-M "P -1"
_symmetry_group_IT_number 2
_symmetry_cell_setting 'triclinic'
loop_
_space_group_symop_operation_xyz
x,y,z
-x,-y,-z
loop_
_atom_site_type_symbol
_atom_site_label
_atom_site_fract_x
_atom_site_fract_y
_atom_site_fract_z
Si Si1 0.439426 0.562015 0.868119
Si Si2 0.082270 0.222193 0.683220
Si Si3 0.611961 0.313638 0.355752
Si Si4 0.848236 0.037243 0.912546
Si Si5 0.365122 0.280924 0.911071
Si Si6 0.417650 0.015442 0.712679
Si Si7 0.015928 0.461169 0.265333
O O1 0.409569 0.501648 0.869803
O O2 0.581731 0.682414 0.522628
O O3 0.276528 0.823667 0.931893
O O4 0.484783 0.267104 0.123435
O O5 0.071129 0.352097 0.679206
O O6 0.000000 0.500000 0.500000
O O7 0.273309 0.038508 0.521940
O O8 0.000000 0.000000 0.000000
O O9 0.439286 0.353181 0.636797
O O10 0.696752 0.440821 0.175229
O O11 0.928578 0.260515 0.553928
O O12 0.757719 0.982064 0.023453
O O13 0.991939 0.715616 0.999091
O O14 0.205284 0.240776 0.177345
O O15 0.500000 0.000000 0.000000
O O16 0.500000 0.000000 0.500000
#
# Coordination Sequence:
#
# PCOD8012849 Si02
#       7
#     2   2   2   2   2   2   2
#     4  11  22  39  68 100 136 173 219 273 342 404
#     4  12  24  40  63  96 135 171 221 281 336 386
#     4  11  26  43  66  99 133 184 230 276 330 410
#     4  11  22  39  65 100 132 168 218 274 343 393
#     4  11  27  46  66  91 139 187 235 269 329 407
#     4  10  21  40  64 101 140 169 211 279 344 406
#     4  12  24  40  67  96 134 176 217 276 335 396
#
# _framework density 22.795805999999999
#
# number of rings (size 3 to 8) (size 9 to 14) (size 15 to 20)
#    0.000    0.857    2.857    6.000    6.000    0.000 
#    0.000    0.000    0.000    5.143    0.000    0.000 
#    0.000    0.000    0.000    0.000    0.000    0.000 
#
# Total GULP energy -173555.468900 kJ/mol
# GULP energy per Si atom -12396.819207 kJ/mol
# Density = 2.274392 g / cm^3
# Si number density = 22.795806 Si / 1000 Ang^3
#
#
#
# Elastic Constant Matrix: (Units=GPa)
#
#
# Indices 1 2 3 4 5 6 
#
# 1 85.9011 34.8998 41.3958 2.2871 13.1067 -20.8450
# 2 34.8998 92.8986 34.5502 -8.3535 12.0981 -26.0430
# 3 41.3958 34.5502 118.0463 -22.0600 -8.4030 -9.4181
# 4 2.2871 -8.3535 -22.0600 38.8934 -12.3553 3.8943
# 5 13.1067 12.0981 -8.4030 -12.3553 51.2469 -5.8334
# 6 -20.8450 -26.0430 -9.4181 3.8943 -5.8334 31.6719
#
#
#
# Elastic Compliance Matrix: (Units=1/GPa)
#
#
# Indices 1 2 3 4 5 6 
#
# 1 0.019666 -0.001880 -0.007850 -0.009147 -0.007067 0.008887
# 2 -0.001880 0.016008 -0.003452 -0.000329 -0.002756 0.010432
# 3 -0.007850 -0.003452 0.014447 0.010610 0.007332 -0.003663
# 4 -0.009147 -0.000329 0.010610 0.036668 0.012387 -0.005363
# 5 -0.007067 -0.002756 0.007332 0.012387 0.025992 -0.001473
# 6 0.008887 0.010432 -0.003663 -0.005363 -0.001473 0.045300
#
#
# Mechanical properties :
#
#
# Convention : Reuss Voigt Hill
#
# Bulk Modulus (GPa) = 42.08893 57.61526 49.85210
# Shear Modulus (GPa) = 25.99257 36.76247 31.37752
#
# Velocity S-wave (km/s) = 3.38040 4.02018 3.71409
# Velocity P-wave (km/s) = 5.80859 6.84679 6.34894
#
# Compressibility (1/GPa) = 0.02375922
#
# Stress axis : x y z
#
# Youngs Moduli (GPa) = 50.84955 62.46807 69.22028
#
# Poissons Ratio (x) = 0.11742 0.54335
# Poissons Ratio (y) = 0.09558 0.23892
# Poissons Ratio (z) = 0.39915 0.21561
#
# Static dielectric constant tensor:
#      x y z
#    x 4.304050 0.016180 -0.399680 
#    y 0.016180 3.921280 -0.007700 
#    z -0.399680 -0.007700 4.252650 
# 
# 
# High freq. dielectric constant tensor:
#      x y z
#    x 1.901660 -0.017690 -0.011510 
#    y -0.017690 1.877700 -0.016940 
#    z -0.011510 -0.016940 1.905430 
# 
# From -- ./inp_files/55051.got.cif
#   From: 2010.06.25/outbox.cif.g09.slc.cpg/sg2_28_cif.got.tgz:55051.got - 2010.06.27 13:26:56.
