data_PCOD8012550
_publ_section_title
;
Structure prediction by ZEFSAII (Michael W. Deem and Ramdas Pophale) SiO2 
 PCOD8012550
Probable space group: P -1
;
_chemical_formula_sum "Si O2"
_cell_formula_units_Z 16
_cell_length_a 9.558138
_cell_length_b 20.923109
_cell_length_c 18.837999
_cell_angle_alpha 28.441307
_cell_angle_beta 26.589330
_cell_angle_gamma 36.436586
_cell_volume 800.147076
_symmetry_space_group_name_H-M "P -1"
_symmetry_group_IT_number 2
_symmetry_cell_setting 'triclinic'
loop_
_space_group_symop_operation_xyz
x,y,z
-x,-y,-z
loop_
_atom_site_type_symbol
_atom_site_label
_atom_site_fract_x
_atom_site_fract_y
_atom_site_fract_z
Si Si1 0.667626 0.302983 0.336998
Si Si2 0.972938 0.217966 0.064366
Si Si3 0.318749 0.511430 0.384334
Si Si4 0.629177 0.006887 0.653732
Si Si5 0.683985 0.770123 0.955727
Si Si6 0.823305 0.533185 0.349876
Si Si7 0.697385 0.987352 0.351369
Si Si8 0.657233 0.693735 0.661791
O O1 0.604736 0.412888 0.319773
O O2 0.486766 0.358541 0.294527
O O3 0.039716 0.286072 0.168468
O O4 0.523186 0.164212 0.562505
O O5 0.976005 0.083624 0.144977
O O6 0.617788 0.275962 0.185944
O O7 0.168529 0.188597 0.076617
O O8 0.122309 0.322055 0.845262
O O9 0.216584 0.459674 0.556085
O O10 0.000000 0.500000 0.500000
O O11 0.430441 0.662069 0.187984
O O12 0.505940 0.904051 0.868875
O O13 0.515245 0.966587 0.665923
O O14 0.000000 0.000000 0.500000
O O15 0.500000 0.500000 0.500000
O O16 0.093983 0.421888 0.308932
O O17 0.500000 0.000000 0.500000
O O18 0.828329 0.831065 0.435492
#
# Coordination Sequence:
#
# PCOD8012550 Si02
#       8
#     2   2   2   2   2   2   2   2
#     4   9  19  39  62  87 114 150 195 239 288 345
#     4  10  21  40  62  86 117 154 196 239 289 348
#     4  12  24  40  60  81 121 159 195 240 289 348
#     4   9  18  35  61  89 118 144 191 248 287 336
#     4  10  21  40  61  88 118 150 196 246 283 342
#     4  12  24  42  56  83 123 157 194 241 292 339
#     4   9  18  35  61  90 115 148 191 241 292 344
#     4   9  19  39  63  85 115 151 193 241 287 344
#
# _framework density 19.996324999999999
#
# number of rings (size 3 to 8) (size 9 to 14) (size 15 to 20)
#    0.000    2.000    2.500    3.000    1.750    0.000 
#   11.250    2.500    0.000    0.000    0.000    0.000 
#    0.000    0.000    0.000    0.000    0.000    0.000 
#
# Total GULP energy -198279.794120 kJ/mol
# GULP energy per Si atom -12392.487132 kJ/mol
# Density = 1.995081 g / cm^3
# Si number density = 19.996325 Si / 1000 Ang^3
#
#
#
# Elastic Constant Matrix: (Units=GPa)
#
#
# Indices 1 2 3 4 5 6 
#
# 1 120.7477 8.1615 45.8085 -9.3642 0.3863 0.6598
# 2 8.1615 13.7058 9.2705 -4.2503 -0.1569 3.2214
# 3 45.8085 9.2705 124.4606 -21.6065 4.1058 2.6951
# 4 -9.3642 -4.2503 -21.6065 26.7897 -0.7833 -0.1782
# 5 0.3863 -0.1569 4.1058 -0.7833 40.8534 -3.1096
# 6 0.6598 3.2214 2.6951 -0.1782 -3.1096 27.7730
#
#
#
# Elastic Compliance Matrix: (Units=1/GPa)
#
#
# Indices 1 2 3 4 5 6 
#
# 1 0.009800 -0.003658 -0.003325 0.000175 0.000272 0.000546
# 2 -0.003658 0.082169 -0.002966 0.009310 0.000136 -0.009081
# 3 -0.003325 -0.002966 0.010741 0.006997 -0.000977 -0.000684
# 4 0.000175 0.009310 0.006997 0.044502 0.000072 -0.001469
# 5 0.000272 0.000136 -0.000977 0.000072 0.024792 0.002849
# 6 0.000546 -0.009081 -0.000684 -0.001469 0.002849 0.037422
#
#
# Mechanical properties :
#
#
# Convention : Reuss Voigt Hill
#
# Bulk Modulus (GPa) = 12.07538 42.82168 27.44853
# Shear Modulus (GPa) = 19.46079 32.12816 25.79447
#
# Velocity S-wave (km/s) = 3.12303 4.01272 3.59550
# Velocity P-wave (km/s) = 4.36535 6.55214 5.56717
#
# Compressibility (1/GPa) = 0.08281315
#
# Stress axis : x y z
#
# Youngs Moduli (GPa) = 102.04000 12.17010 93.10045
#
# Poissons Ratio (x) = 0.04451 0.30955
# Poissons Ratio (y) = 0.37321 0.27612
# Poissons Ratio (z) = 0.33928 0.03609
#
# Static dielectric constant tensor:
#      x y z
#    x 3.661120 -0.043670 0.047240 
#    y -0.043670 3.632190 -0.334360 
#    z 0.047240 -0.334360 3.849310 
# 
# 
# High freq. dielectric constant tensor:
#      x y z
#    x 1.786900 0.000710 0.000370 
#    y 0.000710 1.757930 -0.020430 
#    z 0.000370 -0.020430 1.784730 
# 
# From -- ./inp_files/218614.got.cif
#   From: 2010.06.25/outbox.cif.g09.slc.cpg/sg2_110_cif.got.tgz:218614.got - 2010.06.27 13:26:56.
