data_PCOD8012414
_publ_section_title
;
Structure prediction by ZEFSAII (Michael W. Deem and Ramdas Pophale) SiO2 
 PCOD8012414
Probable space group: P -1
;
_chemical_formula_sum "Si O2"
_cell_formula_units_Z 12
_cell_length_a 8.351905
_cell_length_b 10.964479
_cell_length_c 13.942569
_cell_angle_alpha 47.330557
_cell_angle_beta 148.728425
_cell_angle_gamma 121.645647
_cell_volume 482.301055
_symmetry_space_group_name_H-M "P -1"
_symmetry_group_IT_number 2
_symmetry_cell_setting 'triclinic'
loop_
_space_group_symop_operation_xyz
x,y,z
-x,-y,-z
loop_
_atom_site_type_symbol
_atom_site_label
_atom_site_fract_x
_atom_site_fract_y
_atom_site_fract_z
Si Si1 0.202135 0.910513 0.883555
Si Si2 0.013002 0.453798 0.271083
Si Si3 0.809493 0.974595 0.823315
Si Si4 0.622407 0.352056 0.509077
Si Si5 0.299511 0.539635 0.078311
Si Si6 0.833636 0.120455 0.430735
O O1 0.306373 0.738830 0.971551
O O2 0.048333 0.868691 0.928217
O O3 0.941931 0.039236 0.630225
O O4 0.500000 0.000000 0.000000
O O5 0.312229 0.391377 0.392375
O O6 0.086948 0.596590 0.307599
O O7 0.930877 0.303413 0.374644
O O8 0.724547 0.517300 0.015842
O O9 0.674667 0.156512 0.614853
O O10 0.538931 0.867549 0.769773
O O11 0.000000 0.000000 0.000000
O O12 0.592192 0.446284 0.339195
O O13 0.000000 0.500000 0.000000
O O14 0.000000 0.000000 0.500000
#
# Coordination Sequence:
#
# PCOD8012414 Si02
#       6
#     2   2   2   2   2   2
#     4  12  26  45  74 102 137 187 234 291 350 417
#     4  10  21  39  74 100 135 188 225 283 355 418
#     4  12  28  45  69 104 142 183 237 290 347 418
#     4  10  22  43  68 101 141 182 230 286 350 414
#     4  10  21  40  70  99 136 182 230 278 354 410
#     4  12  21  44  70 105 140 179 234 288 349 413
#
# _framework density 24.880724000000001
#
# number of rings (size 3 to 8) (size 9 to 14) (size 15 to 20)
#    0.000    1.000    3.333    3.500    7.000    0.000 
#    0.000    5.833    0.000    0.000    0.000    0.000 
#    0.000    0.000    0.000    0.000    0.000    0.000 
#
# Total GULP energy -148805.346680 kJ/mol
# GULP energy per Si atom -12400.445557 kJ/mol
# Density = 2.482409 g / cm^3
# Si number density = 24.880724 Si / 1000 Ang^3
#
#
#
# Elastic Constant Matrix: (Units=GPa)
#
#
# Indices 1 2 3 4 5 6 
#
# 1 85.5255 18.4090 20.1787 16.4252 -8.2179 5.6780
# 2 18.4090 139.9796 28.6483 11.6866 -5.6284 16.4714
# 3 20.1787 28.6483 106.5098 17.2414 -35.2017 -3.1721
# 4 16.4252 11.6866 17.2414 51.0045 -2.3936 -3.8026
# 5 -8.2179 -5.6284 -35.2017 -2.3936 44.7391 4.2621
# 6 5.6780 16.4714 -3.1721 -3.8026 4.2621 36.7599
#
#
#
# Elastic Compliance Matrix: (Units=1/GPa)
#
#
# Indices 1 2 3 4 5 6 
#
# 1 0.013173 -0.000830 -0.001307 -0.003721 0.001309 -0.002312
# 2 -0.000830 0.008218 -0.002139 -0.001200 -0.000503 -0.003805
# 3 -0.001307 -0.002139 0.014223 -0.003346 0.010424 0.000833
# 4 -0.003721 -0.001200 -0.003346 0.022345 -0.002599 0.003437
# 5 0.001309 -0.000503 0.010424 -0.002599 0.030870 -0.002925
# 6 -0.002312 -0.003805 0.000833 0.003437 -0.002925 0.030032
#
#
# Mechanical properties :
#
#
# Convention : Reuss Voigt Hill
#
# Bulk Modulus (GPa) = 36.94796 51.83189 44.38992
# Shear Modulus (GPa) = 36.64806 44.15262 40.40034
#
# Velocity S-wave (km/s) = 3.84207 4.21714 4.03396
# Velocity P-wave (km/s) = 5.87914 6.67755 6.29102
#
# Compressibility (1/GPa) = 0.02706509
#
# Stress axis : x y z
#
# Youngs Moduli (GPa) = 75.91156 121.67849 70.30864
#
# Poissons Ratio (x) = 0.10095 0.09186
# Poissons Ratio (y) = 0.06298 0.15036
# Poissons Ratio (z) = 0.09918 0.26022
#
# Static dielectric constant tensor:
#      x y z
#    x 4.444530 -0.132650 -0.374030 
#    y -0.132650 5.122110 -0.203850 
#    z -0.374030 -0.203850 5.013650 
# 
# 
# High freq. dielectric constant tensor:
#      x y z
#    x 1.981730 0.002940 -0.019870 
#    y 0.002940 2.003980 0.006460 
#    z -0.019870 0.006460 1.994410 
# 
# From -- ./inp_files/150594.got.cif
#   From: 2010.06.25/outbox.cif.g09.slc.cpg/sg2_76_cif.got.tgz:150594.got - 2010.06.27 13:26:56.
