data_PCOD8012821
_publ_section_title
;
Structure prediction by ZEFSAII (Michael W. Deem and Ramdas Pophale) SiO2 
 PCOD8012821
Probable space group: P -1
;
_chemical_formula_sum "Si O2"
_cell_formula_units_Z 16
_cell_length_a 13.200535
_cell_length_b 11.743666
_cell_length_c 10.754885
_cell_angle_alpha 36.779637
_cell_angle_beta 83.731013
_cell_angle_gamma 60.196490
_cell_volume 719.952692
_symmetry_space_group_name_H-M "P -1"
_symmetry_group_IT_number 2
_symmetry_cell_setting 'triclinic'
loop_
_space_group_symop_operation_xyz
x,y,z
-x,-y,-z
loop_
_atom_site_type_symbol
_atom_site_label
_atom_site_fract_x
_atom_site_fract_y
_atom_site_fract_z
Si Si1 0.767237 0.428052 0.905440
Si Si2 0.505787 0.269775 0.189519
Si Si3 0.223678 0.205928 0.316642
Si Si4 0.620997 0.563490 0.547577
Si Si5 0.345000 0.845124 0.221183
Si Si6 0.040636 0.089825 0.525309
Si Si7 0.531259 0.087189 0.079419
Si Si8 0.219472 0.337650 0.923589
O O1 0.652502 0.598451 0.883076
O O2 0.829230 0.563539 0.778603
O O3 0.687968 0.463495 0.761758
O O4 0.884083 0.121760 0.188903
O O5 0.567098 0.129363 0.171095
O O6 0.609221 0.047547 0.473145
O O7 0.500000 0.500000 0.000000
O O8 0.144380 0.113574 0.436147
O O9 0.187834 0.324453 0.080994
O O10 0.457028 0.704727 0.444059
O O11 0.704845 0.307092 0.670021
O O12 0.624987 0.776735 0.314073
O O13 0.429125 0.813693 0.117075
O O14 0.214131 0.147111 0.011190
O O15 0.903389 0.363024 0.365390
O O16 0.000000 0.000000 0.500000
O O17 0.366864 0.250034 0.953911
#
# Coordination Sequence:
#
# PCOD8012821 Si02
#       8
#     2   2   2   2   2   2   2   2
#     4  12  23  42  66  99 136 165 214 275 330 389
#     4  12  21  36  64 105 129 162 207 269 344 376
#     4  12  24  42  67  95 134 166 211 279 330 385
#     4  10  21  40  63  95 129 164 214 264 322 381
#     4  10  23  42  66  95 131 172 214 269 321 378
#     4  12  26  45  62  98 132 176 221 260 327 396
#     4  11  21  41  65  95 132 164 213 272 322 384
#     4  11  23  43  64  93 131 175 217 262 318 393
#
# _framework density 22.223683000000001
#
# number of rings (size 3 to 8) (size 9 to 14) (size 15 to 20)
#    0.000    0.750    5.000    4.500    0.000    1.000 
#    2.250    0.625    0.000    3.750    0.000    0.000 
#    0.000    0.000    0.000    0.000    0.000    0.000 
#
# Total GULP energy -198352.353198 kJ/mol
# GULP energy per Si atom -12397.022075 kJ/mol
# Density = 2.217310 g / cm^3
# Si number density = 22.223683 Si / 1000 Ang^3
#
#
#
# Elastic Constant Matrix: (Units=GPa)
#
#
# Indices 1 2 3 4 5 6 
#
# 1 74.7432 30.7564 42.0475 -10.7241 -13.7021 26.0979
# 2 30.7564 88.1858 45.9749 -16.1650 1.2992 34.6086
# 3 42.0475 45.9749 176.4989 -21.9858 -1.6295 13.0182
# 4 -10.7241 -16.1650 -21.9858 46.1107 9.9143 -6.1126
# 5 -13.7021 1.2992 -1.6295 9.9143 29.3674 -10.1065
# 6 26.0979 34.6086 13.0182 -6.1126 -10.1065 35.9603
#
#
#
# Elastic Compliance Matrix: (Units=1/GPa)
#
#
# Indices 1 2 3 4 5 6 
#
# 1 0.020918 -0.000956 -0.003855 -0.000032 0.005723 -0.011262
# 2 -0.000956 0.024024 -0.003682 0.005868 -0.011746 -0.023398
# 3 -0.003855 -0.003682 0.007510 0.002025 -0.000595 0.003799
# 4 -0.000032 0.005868 0.002025 0.026364 -0.010748 -0.004897
# 5 0.005723 -0.011746 -0.000595 -0.010748 0.047320 0.018839
# 6 -0.011262 -0.023398 0.003799 -0.004897 0.018839 0.061587
#
#
# Mechanical properties :
#
#
# Convention : Reuss Voigt Hill
#
# Bulk Modulus (GPa) = 28.19561 64.10950 46.15255
# Shear Modulus (GPa) = 23.09145 36.99761 30.04453
#
# Velocity S-wave (km/s) = 3.22692 4.08460 3.68083
# Velocity P-wave (km/s) = 5.15740 7.15229 6.23514
#
# Compressibility (1/GPa) = 0.03546652
#
# Stress axis : x y z
#
# Youngs Moduli (GPa) = 47.80524 41.62531 133.16247
#
# Poissons Ratio (x) = 0.03980 0.51330
# Poissons Ratio (y) = 0.04571 0.49027
# Poissons Ratio (z) = 0.18428 0.15325
#
# Static dielectric constant tensor:
#      x y z
#    x 4.220580 0.204870 -0.227010 
#    y 0.204870 4.138170 -0.200200 
#    z -0.227010 -0.200200 4.354320 
# 
# 
# High freq. dielectric constant tensor:
#      x y z
#    x 1.860440 0.035250 -0.024140 
#    y 0.035250 1.855870 -0.007020 
#    z -0.024140 -0.007020 1.892150 
# 
# From -- ./inp_files/452150.got.cif
#   From: 2010.06.25/outbox.cif.g09.slc.cpg/sg2_227_cif.got.tgz:452150.got - 2010.06.27 13:26:56.
