data_PCOD8012754
_publ_section_title
;
Structure prediction by ZEFSAII (Michael W. Deem and Ramdas Pophale) SiO2 
 PCOD8012754
Probable space group: P -1
;
_chemical_formula_sum "Si O2"
_cell_formula_units_Z 14
_cell_length_a 7.501889
_cell_length_b 15.664962
_cell_length_c 8.488439
_cell_angle_alpha 136.675265
_cell_angle_beta 110.774267
_cell_angle_gamma 72.508399
_cell_volume 638.533308
_symmetry_space_group_name_H-M "P -1"
_symmetry_group_IT_number 2
_symmetry_cell_setting 'triclinic'
loop_
_space_group_symop_operation_xyz
x,y,z
-x,-y,-z
loop_
_atom_site_type_symbol
_atom_site_label
_atom_site_fract_x
_atom_site_fract_y
_atom_site_fract_z
Si Si1 0.942388 0.233279 0.474123
Si Si2 0.610874 0.619752 0.731326
Si Si3 0.422853 0.819275 0.167818
Si Si4 0.223651 0.674975 0.154912
Si Si5 0.526085 0.235292 0.401297
Si Si6 0.317557 0.074936 0.351397
Si Si7 0.999983 0.487925 0.670435
O O1 0.950877 0.278342 0.720379
O O2 0.726813 0.190692 0.316366
O O3 0.990328 0.344946 0.522623
O O4 0.093622 0.118372 0.333584
O O5 0.500000 0.500000 0.500000
O O6 0.622070 0.698773 0.679245
O O7 0.820656 0.574398 0.795633
O O8 0.503325 0.698173 0.938172
O O9 0.248885 0.779727 0.169912
O O10 0.595462 0.869482 0.389069
O O11 0.338597 0.925176 0.163488
O O12 0.419050 0.665951 0.310655
O O13 0.184945 0.543321 0.884682
O O14 0.428041 0.118430 0.289391
O O15 0.000000 0.500000 0.500000
#
# Coordination Sequence:
#
# PCOD8012754 Si02
#       7
#     2   2   2   2   2   2   2
#     4  10  21  40  63  89 127 164 205 258 310 375
#     4  12  22  41  64  90 132 161 205 270 310 369
#     4  10  23  40  65  94 127 164 216 256 315 371
#     4   9  21  39  60  93 124 163 212 253 314 378
#     4   9  22  40  62  92 126 165 209 251 317 376
#     4  10  21  44  64  93 127 169 211 260 306 379
#     4  12  23  38  64  94 125 164 214 260 318 373
#
# _framework density 21.925248
#
# number of rings (size 3 to 8) (size 9 to 14) (size 15 to 20)
#    0.857    0.857    1.429    3.000    0.000    2.286 
#    2.571    6.429    0.000    0.000    0.000    0.000 
#    0.000    0.000    0.000    0.000    0.000    0.000 
#
# Total GULP energy -173530.556021 kJ/mol
# GULP energy per Si atom -12395.039716 kJ/mol
# Density = 2.187535 g / cm^3
# Si number density = 21.925248 Si / 1000 Ang^3
#
#
#
# Elastic Constant Matrix: (Units=GPa)
#
#
# Indices 1 2 3 4 5 6 
#
# 1 66.5332 31.1062 17.3565 14.2596 -9.7526 6.7247
# 2 31.1062 104.1134 1.2596 16.2151 -8.7091 12.3249
# 3 17.3565 1.2596 45.6110 5.9500 -12.7408 3.2426
# 4 14.2596 16.2151 5.9500 28.8457 -5.3394 -5.1571
# 5 -9.7526 -8.7091 -12.7408 -5.3394 22.7174 -0.0458
# 6 6.7247 12.3249 3.2426 -5.1571 -0.0458 46.1481
#
#
#
# Elastic Compliance Matrix: (Units=1/GPa)
#
#
# Indices 1 2 3 4 5 6 
#
# 1 0.020714 -0.004719 -0.006194 -0.006277 0.002130 -0.002022
# 2 -0.004719 0.012508 0.003342 -0.005387 0.003371 -0.003486
# 3 -0.006194 0.003342 0.028610 -0.002519 0.014071 -0.002268
# 4 -0.006277 -0.005387 -0.002519 0.043386 0.004039 0.007383
# 5 0.002130 0.003371 0.014071 0.004039 0.055063 -0.001693
# 6 -0.002022 -0.003486 -0.002268 0.007383 -0.001693 0.023878
#
#
# Mechanical properties :
#
#
# Convention : Reuss Voigt Hill
#
# Bulk Modulus (GPa) = 21.41769 35.07802 28.24786
# Shear Modulus (GPa) = 23.27059 30.64461 26.95760
#
# Velocity S-wave (km/s) = 3.26139 3.74262 3.51026
# Velocity P-wave (km/s) = 4.89611 5.89151 5.41673
#
# Compressibility (1/GPa) = 0.04669038
#
# Stress axis : x y z
#
# Youngs Moduli (GPa) = 48.27642 79.94875 34.95309
#
# Poissons Ratio (x) = 0.37725 0.21652
# Poissons Ratio (y) = 0.22780 -0.11683
# Poissons Ratio (z) = 0.29905 -0.26722
#
# Static dielectric constant tensor:
#      x y z
#    x 4.235890 0.014410 0.032520 
#    y 0.014410 4.071680 -0.103970 
#    z 0.032520 -0.103970 3.666120 
# 
# 
# High freq. dielectric constant tensor:
#      x y z
#    x 1.857770 0.016430 0.002450 
#    y 0.016430 1.865210 -0.009810 
#    z 0.002450 -0.009810 1.844470 
# 
# From -- ./inp_files/204818.got.cif
#   From: 2010.06.25/outbox.cif.g09.slc.cpg/sg2_103_cif.got.tgz:204818.got - 2010.06.27 13:26:56.
