data_PCOD8012344
_publ_section_title
;
Structure prediction by ZEFSAII (Michael W. Deem and Ramdas Pophale) SiO2 
 PCOD8012344
Probable space group: P -1
;
_chemical_formula_sum "Si O2"
_cell_formula_units_Z 14
_cell_length_a 13.282361
_cell_length_b 9.341097
_cell_length_c 24.175251
_cell_angle_alpha 145.404533
_cell_angle_beta 155.023267
_cell_angle_gamma 50.423548
_cell_volume 640.349100
_symmetry_space_group_name_H-M "P -1"
_symmetry_group_IT_number 2
_symmetry_cell_setting 'triclinic'
loop_
_space_group_symop_operation_xyz
x,y,z
-x,-y,-z
loop_
_atom_site_type_symbol
_atom_site_label
_atom_site_fract_x
_atom_site_fract_y
_atom_site_fract_z
Si Si1 0.110337 0.361251 0.294831
Si Si2 0.386843 0.691383 0.818557
Si Si3 0.533397 0.887197 0.836406
Si Si4 0.093218 0.783990 0.504384
Si Si5 0.582124 0.254891 0.522102
Si Si6 0.216589 0.505961 0.189462
Si Si7 0.662359 0.319058 0.818438
O O1 0.175444 0.641568 0.450767
O O2 0.273639 0.206618 0.353432
O O3 0.216904 0.453002 0.314609
O O4 0.792087 0.164378 0.074312
O O5 0.345363 0.726201 0.743892
O O6 0.599541 0.565300 0.888914
O O7 0.119521 0.466619 0.643172
O O8 0.500000 0.000000 0.000000
O O9 0.354785 0.965337 0.730098
O O10 0.632679 0.686386 0.790166
O O11 0.000000 0.000000 0.500000
O O12 0.682038 0.264974 0.637844
O O13 0.588689 0.995657 0.407639
O O14 0.263992 0.655666 0.201757
O O15 0.895141 0.318104 0.973191
#
# Coordination Sequence:
#
# PCOD8012344 Si02
#       7
#     2   2   2   2   2   2   2
#     4  11  24  40  67  96 134 179 221 273 340 401
#     4  11  24  47  72  97 138 184 225 272 332 407
#     4  11  23  46  71  96 134 181 225 276 341 397
#     4  12  26  46  70  99 138 181 229 277 327 406
#     4  11  22  40  65 101 135 170 220 278 344 394
#     4  10  21  39  69  97 129 172 217 285 338 392
#     4  10  22  41  66 101 129 168 229 277 330 402
#
# _framework density 21.863074000000001
#
# number of rings (size 3 to 8) (size 9 to 14) (size 15 to 20)
#    0.000    1.143    4.286    1.714    0.000    3.429 
#   10.286    0.000    0.000    0.000    0.000    0.000 
#    0.000    0.000    0.000    0.000    0.000    0.000 
#
# Total GULP energy -173549.421016 kJ/mol
# GULP energy per Si atom -12396.387215 kJ/mol
# Density = 2.181331 g / cm^3
# Si number density = 21.863074 Si / 1000 Ang^3
#
#
#
# Elastic Constant Matrix: (Units=GPa)
#
#
# Indices 1 2 3 4 5 6 
#
# 1 85.7923 36.1353 42.8922 -6.0700 -5.3355 -6.3426
# 2 36.1353 122.5665 54.3741 -10.7617 -16.5348 -3.8332
# 3 42.8922 54.3741 128.6692 -10.9795 -13.7782 6.4304
# 4 -6.0700 -10.7617 -10.9795 40.9652 0.2893 -9.0745
# 5 -5.3355 -16.5348 -13.7782 0.2893 31.6640 12.1696
# 6 -6.3426 -3.8332 6.4304 -9.0745 12.1696 27.9129
#
#
#
# Elastic Compliance Matrix: (Units=1/GPa)
#
#
# Indices 1 2 3 4 5 6 
#
# 1 0.015395 -0.002607 -0.004516 0.001759 -0.003094 0.006101
# 2 -0.002607 0.011055 -0.003299 0.001758 0.003621 0.000678
# 3 -0.004516 -0.003299 0.011522 0.000136 0.004926 -0.006237
# 4 0.001759 0.001758 0.000136 0.027626 -0.003201 0.010987
# 5 -0.003094 0.003621 0.004926 -0.003201 0.043294 -0.021257
# 6 0.006101 0.000678 -0.006237 0.010987 -0.021257 0.051582
#
#
# Mechanical properties :
#
#
# Convention : Reuss Voigt Hill
#
# Bulk Modulus (GPa) = 58.38413 67.09234 62.73824
# Shear Modulus (GPa) = 26.73391 33.68350 30.20870
#
# Velocity S-wave (km/s) = 3.50063 3.92938 3.72119
# Velocity P-wave (km/s) = 6.56519 7.16525 6.87177
#
# Compressibility (1/GPa) = 0.01712794
#
# Stress axis : x y z
#
# Youngs Moduli (GPa) = 64.95468 90.45617 86.78939
#
# Poissons Ratio (x) = 0.23585 0.39197
# Poissons Ratio (y) = 0.16936 0.28629
# Poissons Ratio (z) = 0.29335 0.29838
#
# Static dielectric constant tensor:
#      x y z
#    x 3.966030 -0.001540 0.020060 
#    y -0.001540 3.824430 0.034640 
#    z 0.020060 0.034640 3.879970 
# 
# 
# High freq. dielectric constant tensor:
#      x y z
#    x 1.862350 0.002330 -0.004400 
#    y 0.002330 1.854890 0.002970 
#    z -0.004400 0.002970 1.858180 
# 
# From -- ./inp_files/124142.got.cif
#   From: 2010.06.25/outbox.cif.g09.slc.cpg/sg2_63_cif.got.tgz:124142.got - 2010.06.27 13:26:56.
