data_PCOD8012012
_publ_section_title
;
Structure prediction by ZEFSAII (Michael W. Deem and Ramdas Pophale) SiO2 
 PCOD8012012
Probable space group: P -1
;
_chemical_formula_sum "Si O2"
_cell_formula_units_Z 16
_cell_length_a 23.372833
_cell_length_b 17.716271
_cell_length_c 11.488217
_cell_angle_alpha 137.737300
_cell_angle_beta 31.158075
_cell_angle_gamma 161.333999
_cell_volume 712.419401
_symmetry_space_group_name_H-M "P -1"
_symmetry_group_IT_number 2
_symmetry_cell_setting 'triclinic'
loop_
_space_group_symop_operation_xyz
x,y,z
-x,-y,-z
loop_
_atom_site_type_symbol
_atom_site_label
_atom_site_fract_x
_atom_site_fract_y
_atom_site_fract_z
Si Si1 0.722876 0.931076 0.188697
Si Si2 0.418782 0.439256 0.241496
Si Si3 0.933461 0.923530 0.360695
Si Si4 0.659966 0.226556 0.869519
Si Si5 0.108970 0.271882 0.320050
Si Si6 0.809494 0.348283 0.995051
Si Si7 0.989047 0.311570 0.357202
Si Si8 0.768388 0.414805 0.391213
O O1 0.556823 0.684600 0.264322
O O2 0.531936 0.838838 0.342778
O O3 0.857563 0.131982 0.275081
O O4 0.944269 0.083941 0.895236
O O5 0.143742 0.185870 0.368476
O O6 0.599135 0.507642 0.951425
O O7 0.342175 0.346746 0.405242
O O8 0.907467 0.983802 0.363243
O O9 0.813221 0.250413 0.637672
O O10 0.742750 0.388992 0.811514
O O11 0.367867 0.926964 0.005640
O O12 0.725725 0.338062 0.011412
O O13 0.089220 0.339917 0.539802
O O14 0.033723 0.261859 0.320884
O O15 0.778071 0.402569 0.221249
O O16 0.104599 0.571999 0.742435
#
# Coordination Sequence:
#
# PCOD8012012 Si02
#       8
#     2   2   2   2   2   2   2   2
#     4  11  21  42  63  93 131 168 207 264 315 371
#     4  10  21  39  65  96 128 163 209 261 320 379
#     4  10  21  39  65  96 128 163 209 261 320 379
#     4  10  22  44  60  90 129 172 212 257 319 377
#     4  11  21  42  63  93 131 168 207 264 315 371
#     4  10  22  40  66  92 128 162 220 268 304 380
#     4  11  24  41  64  86 131 176 208 254 323 377
#     4  11  20  37  67  95 122 166 208 264 320 361
#
# _framework density 22.458680999999999
#
# number of rings (size 3 to 8) (size 9 to 14) (size 15 to 20)
#    0.000    1.500    5.000    0.750    0.000    4.000 
#    0.000    5.000    0.000    0.000    0.000    0.000 
#    0.000    0.000    0.000    0.000    0.000    0.000 
#
# Total GULP energy -198223.173306 kJ/mol
# GULP energy per Si atom -12388.948332 kJ/mol
# Density = 2.240756 g / cm^3
# Si number density = 22.458681 Si / 1000 Ang^3
#
#
#
# Elastic Constant Matrix: (Units=GPa)
#
#
# Indices 1 2 3 4 5 6 
#
# 1 72.6904 6.3327 22.7174 -14.1196 -5.1563 -11.6932
# 2 6.3327 48.7871 22.2510 -6.3066 2.8640 -2.7151
# 3 22.7174 22.2510 104.6804 14.0628 11.3316 -6.8922
# 4 -14.1196 -6.3066 14.0628 31.4593 -3.2162 11.6315
# 5 -5.1563 2.8640 11.3316 -3.2162 31.5812 -2.8273
# 6 -11.6932 -2.7151 -6.8922 11.6315 -2.8273 33.2406
#
#
#
# Elastic Compliance Matrix: (Units=1/GPa)
#
#
# Indices 1 2 3 4 5 6 
#
# 1 0.018706 0.001818 -0.006618 0.011723 0.006620 0.001818
# 2 0.001818 0.024666 -0.007289 0.009995 0.001494 -0.002227
# 3 -0.006618 -0.007289 0.015424 -0.013691 -0.006948 0.004475
# 4 0.011723 0.009995 -0.013691 0.051792 0.009835 -0.015185
# 5 0.006620 0.001494 -0.006948 0.009835 0.036162 0.000645
# 6 0.001818 -0.002227 0.004475 -0.015185 0.000645 0.036837
#
#
# Mechanical properties :
#
#
# Convention : Reuss Voigt Hill
#
# Bulk Modulus (GPa) = 28.88561 36.52892 32.70726
# Shear Modulus (GPa) = 22.79935 30.91332 26.85634
#
# Velocity S-wave (km/s) = 3.18963 3.71408 3.46180
# Velocity P-wave (km/s) = 5.14340 5.89006 5.52935
#
# Compressibility (1/GPa) = 0.03461932
#
# Stress axis : x y z
#
# Youngs Moduli (GPa) = 53.45882 40.54187 64.83267
#
# Poissons Ratio (x) = -0.07371 0.42906
# Poissons Ratio (y) = -0.09720 0.47255
# Poissons Ratio (z) = 0.35378 0.29550
#
# Static dielectric constant tensor:
#      x y z
#    x 4.690890 0.182700 1.434960 
#    y 0.182700 4.057110 0.583290 
#    z 1.434960 0.583290 8.081090 
# 
# 
# High freq. dielectric constant tensor:
#      x y z
#    x 1.872140 0.007450 0.001850 
#    y 0.007450 1.868220 0.010750 
#    z 0.001850 0.010750 1.894680 
# 
# From -- ./inp_files/455542.got.cif
#   From: 2010.06.25/outbox.cif.g09.slc.cpg/sg2_228_cif.got.tgz:455542.got - 2010.06.27 13:26:56.
