data_PCOD8012444
_publ_section_title
;
Structure prediction by ZEFSAII (Michael W. Deem and Ramdas Pophale) SiO2 
 PCOD8012444
Probable space group: P -1
;
_chemical_formula_sum "Si O2"
_cell_formula_units_Z 12
_cell_length_a 9.125879
_cell_length_b 8.610242
_cell_length_c 15.298763
_cell_angle_alpha 105.717706
_cell_angle_beta 139.498330
_cell_angle_gamma 53.886093
_cell_volume 593.627586
_symmetry_space_group_name_H-M "P -1"
_symmetry_group_IT_number 2
_symmetry_cell_setting 'triclinic'
loop_
_space_group_symop_operation_xyz
x,y,z
-x,-y,-z
loop_
_atom_site_type_symbol
_atom_site_label
_atom_site_fract_x
_atom_site_fract_y
_atom_site_fract_z
Si Si1 0.804097 0.924066 0.815270
Si Si2 0.853275 0.800644 0.196370
Si Si3 0.077067 0.979960 0.432048
Si Si4 0.229533 0.018899 0.993403
Si Si5 0.707122 0.656352 0.626530
Si Si6 0.784126 0.722124 0.476800
O O1 0.821322 0.878716 0.919440
O O2 0.854053 0.737002 0.758131
O O3 0.495067 0.139185 0.689411
O O4 0.057445 0.927634 0.898048
O O5 0.859137 0.973327 0.272419
O O6 0.118077 0.582117 0.316506
O O7 0.562862 0.837190 0.097879
O O8 0.879382 0.811160 0.105247
O O9 0.389717 0.766392 0.532910
O O10 0.061994 0.172938 0.425621
O O11 0.000000 0.000000 0.500000
O O12 0.681847 0.707392 0.521442
O O13 0.000000 0.500000 0.500000
#
# Coordination Sequence:
#
# PCOD8012444 Si02
#       6
#     2   2   2   2   2   2
#     4  10  21  40  59  84 115 155 197 233 286 341
#     4  11  22  38  58  87 118 153 192 234 293 341
#     4  11  22  38  61  89 120 148 190 248 294 339
#     4  10  22  39  58  78 120 160 192 235 275 349
#     4  11  22  38  62  87 117 151 194 244 291 342
#     4  11  22  39  64  89 115 150 194 245 293 341
#
# _framework density 20.214694999999999
#
# number of rings (size 3 to 8) (size 9 to 14) (size 15 to 20)
#    0.000    1.333    0.000    8.500    0.000    2.667 
#    0.000    6.667    0.000    0.000    0.000    0.000 
#    0.000    0.000    0.000    0.000    0.000    0.000 
#
# Total GULP energy -148846.174145 kJ/mol
# GULP energy per Si atom -12403.847845 kJ/mol
# Density = 2.016868 g / cm^3
# Si number density = 20.214695 Si / 1000 Ang^3
#
#
#
# Elastic Constant Matrix: (Units=GPa)
#
#
# Indices 1 2 3 4 5 6 
#
# 1 143.3877 31.0528 45.1496 0.5732 -2.1724 -7.5084
# 2 31.0528 98.5863 39.3314 0.1565 6.1143 3.9061
# 3 45.1496 39.3314 97.6644 16.5560 3.5449 5.2515
# 4 0.5732 0.1565 16.5560 30.5744 0.9745 -5.5701
# 5 -2.1724 6.1143 3.5449 0.9745 41.4666 2.2019
# 6 -7.5084 3.9061 5.2515 -5.5701 2.2019 25.5924
#
#
#
# Elastic Compliance Matrix: (Units=1/GPa)
#
#
# Indices 1 2 3 4 5 6 
#
# 1 0.008833 -0.001276 -0.004321 0.002932 0.000726 0.004249
# 2 -0.001276 0.012581 -0.004810 0.002498 -0.001536 -0.000632
# 3 -0.004321 -0.004810 0.016152 -0.009710 -0.000355 -0.005931
# 4 0.002932 0.002498 -0.009710 0.039976 -0.000922 0.011251
# 5 0.000726 -0.001536 -0.000355 -0.000922 0.024527 -0.001791
# 6 0.004249 -0.000632 -0.005931 0.011251 -0.001791 0.044237
#
#
# Mechanical properties :
#
#
# Convention : Reuss Voigt Hill
#
# Bulk Modulus (GPa) = 59.70171 63.41179 61.55675
# Shear Modulus (GPa) = 28.95118 34.46699 31.70909
#
# Velocity S-wave (km/s) = 3.78853 4.13370 3.96487
# Velocity P-wave (km/s) = 6.98106 7.36346 7.17481
#
# Compressibility (1/GPa) = 0.01674994
#
# Stress axis : x y z
#
# Youngs Moduli (GPa) = 113.21339 79.48622 61.91285
#
# Poissons Ratio (x) = 0.10144 0.26754
# Poissons Ratio (y) = 0.14449 0.29782
# Poissons Ratio (z) = 0.48922 0.38235
#
# Static dielectric constant tensor:
#      x y z
#    x 3.885040 0.161240 0.029010 
#    y 0.161240 3.813750 0.288150 
#    z 0.029010 0.288150 3.863690 
# 
# 
# High freq. dielectric constant tensor:
#      x y z
#    x 1.813140 -0.003440 -0.000510 
#    y -0.003440 1.773300 0.012540 
#    z -0.000510 0.012540 1.799930 
# 
# From -- ./inp_files/147151.got.cif
#   From: 2010.06.25/outbox.cif.g09.slc.cpg/sg2_74_cif.got.tgz:147151.got - 2010.06.27 13:26:56.
