data_PCOD8012092
_publ_section_title
;
Structure prediction by ZEFSAII (Michael W. Deem and Ramdas Pophale) SiO2 
 PCOD8012092
Probable space group: P -1
;
_chemical_formula_sum "Si O2"
_cell_formula_units_Z 16
_cell_length_a 8.466894
_cell_length_b 15.277885
_cell_length_c 14.699177
_cell_angle_alpha 152.609355
_cell_angle_beta 89.637559
_cell_angle_gamma 75.543520
_cell_volume 727.738021
_symmetry_space_group_name_H-M "P -1"
_symmetry_group_IT_number 2
_symmetry_cell_setting 'triclinic'
loop_
_space_group_symop_operation_xyz
x,y,z
-x,-y,-z
loop_
_atom_site_type_symbol
_atom_site_label
_atom_site_fract_x
_atom_site_fract_y
_atom_site_fract_z
Si Si1 0.247943 0.064859 0.912271
Si Si2 0.238653 0.980494 0.325281
Si Si3 0.355626 0.000371 0.149654
Si Si4 0.774851 0.575855 0.233573
Si Si5 0.873309 0.488342 0.351907
Si Si6 0.908876 0.913055 0.257577
Si Si7 0.418639 0.848197 0.379042
Si Si8 0.308189 0.722130 0.738865
O O1 0.227439 0.014982 0.762365
O O2 0.455350 0.006758 0.876474
O O3 0.211961 0.901650 0.822654
O O4 0.097596 0.330169 0.183803
O O5 0.359116 0.907250 0.164371
O O6 0.191940 0.221491 0.584904
O O7 0.366614 0.790091 0.227116
O O8 0.039179 0.011923 0.337558
O O9 0.179917 0.266103 0.384405
O O10 0.341805 0.841134 0.931987
O O11 0.758654 0.521888 0.289499
O O12 0.583244 0.629825 0.233475
O O13 0.954793 0.360440 0.985164
O O14 0.829514 0.355906 0.303357
O O15 0.778121 0.014986 0.439725
O O16 0.500000 0.000000 0.500000
O O17 0.500000 0.500000 0.500000
#
# Coordination Sequence:
#
# PCOD8012092 Si02
#       8
#     2   2   2   2   2   2   2   2
#     4  11  23  42  66  93 124 173 206 259 321 369
#     4  10  22  41  65  93 126 166 208 257 307 369
#     4  11  23  46  63  89 134 160 210 267 309 377
#     4   9  21  41  63  91 127 169 204 255 309 365
#     4  10  22  42  64  93 129 166 211 257 316 370
#     4  11  22  42  63  92 132 160 209 259 305 367
#     4  10  21  39  66  94 127 167 207 254 308 368
#     4  12  25  43  66  94 125 166 211 263 317 377
#
# _framework density 21.985932999999999
#
# number of rings (size 3 to 8) (size 9 to 14) (size 15 to 20)
#    0.000    1.500    1.250    4.875    0.000    3.000 
#    9.000    3.750    0.000    0.000    0.000    0.000 
#    0.000    0.000    0.000    0.000    0.000    0.000 
#
# Total GULP energy -198397.769641 kJ/mol
# GULP energy per Si atom -12399.860603 kJ/mol
# Density = 2.193589 g / cm^3
# Si number density = 21.985933 Si / 1000 Ang^3
#
#
#
# Elastic Constant Matrix: (Units=GPa)
#
#
# Indices 1 2 3 4 5 6 
#
# 1 51.0836 1.7365 15.8027 -4.7210 1.3255 6.8468
# 2 1.7365 101.7814 38.4968 -6.2622 -3.7089 1.2940
# 3 15.8027 38.4968 109.5380 -0.3228 2.9562 -12.7654
# 4 -4.7210 -6.2622 -0.3228 25.8411 -3.4708 -6.8127
# 5 1.3255 -3.7089 2.9562 -3.4708 33.1775 -2.3084
# 6 6.8468 1.2940 -12.7654 -6.8127 -2.3084 27.3684
#
#
#
# Elastic Compliance Matrix: (Units=1/GPa)
#
#
# Indices 1 2 3 4 5 6 
#
# 1 0.022132 0.001565 -0.004559 0.002397 -0.000552 -0.007187
# 2 0.001565 0.011837 -0.004696 0.002729 0.001804 -0.002310
# 3 -0.004559 -0.004696 0.012276 -0.000106 -0.000962 0.006981
# 4 0.002397 0.002729 -0.000106 0.043289 0.005475 0.010459
# 5 -0.000552 0.001804 -0.000962 0.005475 0.031274 0.003605
# 6 -0.007187 -0.002310 0.006981 0.010459 0.003605 0.044609
#
#
# Mechanical properties :
#
#
# Convention : Reuss Voigt Hill
#
# Bulk Modulus (GPa) = 32.39665 41.60832 37.00249
# Shear Modulus (GPa) = 26.16630 31.03520 28.60075
#
# Velocity S-wave (km/s) = 3.45358 3.76119 3.61066
# Velocity P-wave (km/s) = 5.53806 6.15046 5.85228
#
# Compressibility (1/GPa) = 0.03086739
#
# Stress axis : x y z
#
# Youngs Moduli (GPa) = 45.18369 84.47777 81.45655
#
# Poissons Ratio (x) = -0.13224 0.37133
# Poissons Ratio (y) = -0.07073 0.38251
# Poissons Ratio (z) = 0.20598 0.39670
#
# Static dielectric constant tensor:
#      x y z
#    x 4.032260 0.139180 -0.171420 
#    y 0.139180 4.932490 -0.075100 
#    z -0.171420 -0.075100 4.121400 
# 
# 
# High freq. dielectric constant tensor:
#      x y z
#    x 1.855520 -0.002640 -0.004570 
#    y -0.002640 1.881470 -0.003180 
#    z -0.004570 -0.003180 1.864910 
# 
# From -- ./inp_files/505800.got.cif
#   From: 2010.06.25/outbox.cif.g09.slc.cpg/sg2_253_cif.got.tgz:505800.got - 2010.06.27 13:26:56.
