data_PCOD8012629
_publ_section_title
;
Structure prediction by ZEFSAII (Michael W. Deem and Ramdas Pophale) SiO2 
 PCOD8012629
Probable space group: P -1
;
_chemical_formula_sum "Si O2"
_cell_formula_units_Z 16
_cell_length_a 6.493737
_cell_length_b 7.721858
_cell_length_c 19.781311
_cell_angle_alpha 75.421831
_cell_angle_beta 126.953930
_cell_angle_gamma 117.352513
_cell_volume 703.611521
_symmetry_space_group_name_H-M "P -1"
_symmetry_group_IT_number 2
_symmetry_cell_setting 'triclinic'
loop_
_space_group_symop_operation_xyz
x,y,z
-x,-y,-z
loop_
_atom_site_type_symbol
_atom_site_label
_atom_site_fract_x
_atom_site_fract_y
_atom_site_fract_z
Si Si1 0.431889 0.853290 0.252218
Si Si2 0.669731 0.383735 0.519503
Si Si3 0.378000 0.241600 0.069270
Si Si4 0.719843 0.792954 0.797386
Si Si5 0.672417 0.947029 0.152780
Si Si6 0.195427 0.327659 0.890877
Si Si7 0.293498 0.628294 0.626295
Si Si8 0.678308 0.947778 0.427153
O O1 0.618525 0.843871 0.225876
O O2 0.570928 0.810427 0.352278
O O3 0.106326 0.707425 0.196209
O O4 0.449386 0.071196 0.238893
O O5 0.500000 0.500000 0.500000
O O6 0.653682 0.420811 0.433750
O O7 0.517834 0.160781 0.537134
O O8 0.984713 0.478913 0.602061
O O9 0.236334 0.258750 0.111394
O O10 0.652438 0.440658 0.096113
O O11 0.458902 0.055318 0.091651
O O12 0.156221 0.231567 0.967620
O O13 0.516577 0.612365 0.727610
O O14 0.011599 0.892372 0.806145
O O15 0.631940 0.773944 0.108239
O O16 0.348186 0.853020 0.611584
O O17 0.000000 0.000000 0.500000
#
# Coordination Sequence:
#
# PCOD8012629 Si02
#       8
#     2   2   2   2   2   2   2   2
#     4   9  22  40  60  89 122 157 204 254 303 367
#     4  11  23  40  61  92 121 161 209 256 310 372
#     4  10  22  39  64  90 122 163 203 255 308 364
#     4   9  21  39  62  88 120 159 203 251 306 366
#     4  10  21  40  62  88 121 166 201 250 313 364
#     4  10  22  41  60  92 125 156 209 255 302 374
#     4  10  23  42  61  90 125 163 207 257 309 370
#     4  11  22  41  65  89 124 167 204 255 313 367
#
# _framework density 22.739819000000001
#
# number of rings (size 3 to 8) (size 9 to 14) (size 15 to 20)
#    0.000    2.000    1.250    0.750    3.500    7.500 
#    4.500    2.500    0.000    0.000    0.000    0.000 
#    0.000    0.000    0.000    0.000    0.000    0.000 
#
# Total GULP energy -198261.552238 kJ/mol
# GULP energy per Si atom -12391.347015 kJ/mol
# Density = 2.268806 g / cm^3
# Si number density = 22.739819 Si / 1000 Ang^3
#
#
#
# Elastic Constant Matrix: (Units=GPa)
#
#
# Indices 1 2 3 4 5 6 
#
# 1 91.7674 22.4008 31.3437 2.1762 -11.3937 19.6748
# 2 22.4008 66.8683 14.4728 4.6834 1.4407 11.9799
# 3 31.3437 14.4728 106.9779 17.1345 0.7486 -0.1978
# 4 2.1762 4.6834 17.1345 30.4468 4.1144 -1.4865
# 5 -11.3937 1.4407 0.7486 4.1144 22.0963 2.6966
# 6 19.6748 11.9799 -0.1978 -1.4865 2.6966 28.8184
#
#
#
# Elastic Compliance Matrix: (Units=1/GPa)
#
#
# Indices 1 2 3 4 5 6 
#
# 1 0.016926 -0.002839 -0.004649 -0.000130 0.010485 -0.011395
# 2 -0.002839 0.017259 -0.001212 -0.001810 -0.001578 -0.005190
# 3 -0.004649 -0.001212 0.011802 -0.005659 -0.002111 0.003664
# 4 -0.000130 -0.001810 -0.005659 0.037448 -0.007146 0.003403
# 5 0.010485 -0.001578 -0.002111 -0.007146 0.053620 -0.011903
# 6 -0.011395 -0.005190 0.003664 0.003403 -0.011903 0.045952
#
#
# Mechanical properties :
#
#
# Convention : Reuss Voigt Hill
#
# Bulk Modulus (GPa) = 34.98082 44.67203 39.82642
# Shear Modulus (GPa) = 23.81692 29.43205 26.62449
#
# Velocity S-wave (km/s) = 3.23981 3.60154 3.42545
# Velocity P-wave (km/s) = 5.42325 6.08130 5.76168
#
# Compressibility (1/GPa) = 0.02858709
#
# Stress axis : x y z
#
# Youngs Moduli (GPa) = 59.08088 57.94149 84.73460
#
# Poissons Ratio (x) = 0.16451 0.39390
# Poissons Ratio (y) = 0.16775 0.10267
# Poissons Ratio (z) = 0.27465 0.07020
#
# Static dielectric constant tensor:
#      x y z
#    x 3.815350 -0.073140 -0.237100 
#    y -0.073140 3.850980 0.366010 
#    z -0.237100 0.366010 4.501920 
# 
# 
# High freq. dielectric constant tensor:
#      x y z
#    x 1.888100 0.009190 -0.017090 
#    y 0.009190 1.893990 0.009230 
#    z -0.017090 0.009230 1.908370 
# 
# From -- ./inp_files/52377.got.cif
#   From: 2010.06.25/outbox.cif.g09.slc.cpg/sg2_27_cif.got.tgz:52377.got - 2010.06.27 13:26:56.
