data_PCOD8012147
_publ_section_title
;
Structure prediction by ZEFSAII (Michael W. Deem and Ramdas Pophale) SiO2 
 PCOD8012147
Probable space group: P -1
;
_chemical_formula_sum "Si O2"
_cell_formula_units_Z 16
_cell_length_a 15.837558
_cell_length_b 15.965871
_cell_length_c 12.103590
_cell_angle_alpha 30.467648
_cell_angle_beta 56.056119
_cell_angle_gamma 35.084176
_cell_volume 770.314078
_symmetry_space_group_name_H-M "P -1"
_symmetry_group_IT_number 2
_symmetry_cell_setting 'triclinic'
loop_
_space_group_symop_operation_xyz
x,y,z
-x,-y,-z
loop_
_atom_site_type_symbol
_atom_site_label
_atom_site_fract_x
_atom_site_fract_y
_atom_site_fract_z
Si Si1 0.108171 0.017205 0.929927
Si Si2 0.804244 0.869147 0.648350
Si Si3 0.607079 0.700309 0.276404
Si Si4 0.516551 0.562720 0.682084
Si Si5 0.686441 0.391999 0.371212
Si Si6 0.946285 0.428279 0.398295
Si Si7 0.105540 0.131340 0.053850
Si Si8 0.086206 0.629144 0.870075
O O1 0.299938 0.730420 0.073598
O O2 0.033468 0.269404 0.631297
O O3 0.090101 0.076169 0.006054
O O4 0.000000 0.000000 0.000000
O O5 0.906858 0.765877 0.579313
O O6 0.899140 0.836471 0.718647
O O7 0.615088 0.194318 0.405806
O O8 0.793530 0.685075 0.889016
O O9 0.532283 0.690251 0.440036
O O10 0.581662 0.641894 0.246019
O O11 0.805509 0.478494 0.407784
O O12 0.500000 0.000000 0.000000
O O13 0.440026 0.496832 0.759331
O O14 0.842259 0.293630 0.317991
O O15 0.743502 0.158376 0.664764
O O16 0.856892 0.722055 0.144503
O O17 0.935670 0.324354 0.033614
#
# Coordination Sequence:
#
# PCOD8012147 Si02
#       8
#     2   2   2   2   2   2   2   2
#     4  12  26  47  64  91 132 183 225 268 326 390
#     4  10  22  42  65 100 134 173 216 264 335 396
#     4  12  24  39  66  99 134 173 208 278 335 389
#     4  12  25  39  65 100 133 166 224 276 321 395
#     4  12  22  38  64 105 134 164 216 274 339 382
#     4  11  24  46  68  91 136 181 219 263 330 393
#     4  11  23  41  69  98 129 170 222 270 320 399
#     4  10  21  39  67 101 139 168 206 271 342 394
#
# _framework density 20.77075
#
# number of rings (size 3 to 8) (size 9 to 14) (size 15 to 20)
#    0.000    0.750    5.000    2.625    3.500    0.500 
#    0.000    0.000    0.000    3.000    0.000    0.000 
#    0.000    0.000    0.000    0.000    0.000    0.000 
#
# Total GULP energy -198397.038595 kJ/mol
# GULP energy per Si atom -12399.814912 kJ/mol
# Density = 2.072348 g / cm^3
# Si number density = 20.770750 Si / 1000 Ang^3
#
#
#
# Elastic Constant Matrix: (Units=GPa)
#
#
# Indices 1 2 3 4 5 6 
#
# 1 92.4050 38.3002 30.8321 -12.2036 -4.4003 -3.0493
# 2 38.3002 100.0941 32.7877 -15.4169 -2.6751 2.9490
# 3 30.8321 32.7877 101.3110 -11.6656 -2.8947 -5.4975
# 4 -12.2036 -15.4169 -11.6656 40.8023 -0.7582 -1.7476
# 5 -4.4003 -2.6751 -2.8947 -0.7582 29.1538 0.9281
# 6 -3.0493 2.9490 -5.4975 -1.7476 0.9281 30.3250
#
#
#
# Elastic Compliance Matrix: (Units=1/GPa)
#
#
# Indices 1 2 3 4 5 6 
#
# 1 0.013744 -0.004147 -0.002503 0.001915 0.001451 0.001397
# 2 -0.004147 0.012968 -0.002709 0.002807 0.000432 -0.002021
# 3 -0.002503 -0.002709 0.011844 0.001720 0.000523 0.002242
# 4 0.001915 0.002807 0.001720 0.026733 0.001358 0.001730
# 5 0.001451 0.000432 0.000523 0.001358 0.034672 -0.000784
# 6 0.001397 -0.002021 0.002242 0.001730 -0.000784 0.033843
#
#
# Mechanical properties :
#
#
# Convention : Reuss Voigt Hill
#
# Bulk Modulus (GPa) = 50.40707 55.29444 52.85076
# Shear Modulus (GPa) = 31.42023 32.84889 32.13456
#
# Velocity S-wave (km/s) = 3.89358 3.98112 3.93759
# Velocity P-wave (km/s) = 6.67340 6.91459 6.79506
#
# Compressibility (1/GPa) = 0.01983849
#
# Stress axis : x y z
#
# Youngs Moduli (GPa) = 72.75992 77.11277 84.43321
#
# Poissons Ratio (x) = 0.31975 0.21133
# Poissons Ratio (y) = 0.30170 0.22874
# Poissons Ratio (z) = 0.18211 0.20891
#
# Static dielectric constant tensor:
#      x y z
#    x 3.904360 0.066280 -0.130810 
#    y 0.066280 3.853030 -0.006560 
#    z -0.130810 -0.006560 3.898100 
# 
# 
# High freq. dielectric constant tensor:
#      x y z
#    x 1.801370 0.002920 -0.025870 
#    y 0.002920 1.824130 -0.006620 
#    z -0.025870 -0.006620 1.813670 
# 
# From -- ./inp_files/345393.got.cif
#   From: 2010.06.25/outbox.cif.g09.slc.cpg/sg2_173_cif.got.tgz:345393.got - 2010.06.27 13:26:56.
