data_PCOD8012308
_publ_section_title
;
Structure prediction by ZEFSAII (Michael W. Deem and Ramdas Pophale) SiO2 
 PCOD8012308
Probable space group: P -1
;
_chemical_formula_sum "Si O2"
_cell_formula_units_Z 16
_cell_length_a 18.947535
_cell_length_b 13.554125
_cell_length_c 11.682821
_cell_angle_alpha 30.841991
_cell_angle_beta 30.375225
_cell_angle_gamma 27.238694
_cell_volume 637.799668
_symmetry_space_group_name_H-M "P -1"
_symmetry_group_IT_number 2
_symmetry_cell_setting 'triclinic'
loop_
_space_group_symop_operation_xyz
x,y,z
-x,-y,-z
loop_
_atom_site_type_symbol
_atom_site_label
_atom_site_fract_x
_atom_site_fract_y
_atom_site_fract_z
Si Si1 0.484709 0.454564 0.260430
Si Si2 0.620624 0.635522 0.711169
Si Si3 0.260372 0.734554 0.715971
Si Si4 0.185247 0.918991 0.279196
Si Si5 0.329933 0.012205 0.190419
Si Si6 0.844422 0.603786 0.777370
Si Si7 0.126344 0.897213 0.128983
Si Si8 0.206996 0.177895 0.606261
O O1 0.460364 0.288325 0.378359
O O2 0.643870 0.278586 0.290371
O O3 0.316248 0.635707 0.390236
O O4 0.501279 0.623973 0.982214
O O5 0.798909 0.376121 0.708979
O O6 0.646519 0.831154 0.519526
O O7 0.348304 0.776921 0.444561
O O8 0.270411 0.494563 0.934183
O O9 0.070585 0.964940 0.763324
O O10 0.157030 0.987666 0.115627
O O11 0.270959 0.030584 0.121064
O O12 0.000000 0.000000 0.500000
O O13 0.170773 0.245927 0.240962
O O14 0.500000 0.000000 0.000000
O O15 0.769140 0.785756 0.595533
O O16 0.030786 0.389483 0.698118
O O17 0.219339 0.941797 0.851854
#
# Coordination Sequence:
#
# PCOD8012308 Si02
#       8
#     2   2   2   2   2   2   2   2
#     4  10  23  39  68  98 137 178 225 279 353 398
#     4  10  21  42  64 100 140 178 214 285 347 413
#     4  11  22  45  67 102 140 178 228 286 343 405
#     4  11  24  49  69  98 143 188 230 290 338 417
#     4  12  27  43  72 101 138 184 235 285 343 410
#     4  10  23  40  64 105 134 175 224 286 341 402
#     4  10  23  42  73 102 132 189 230 270 358 409
#     4  10  21  39  68  99 138 168 227 284 330 420
#
# _framework density 25.086245999999999
#
# number of rings (size 3 to 8) (size 9 to 14) (size 15 to 20)
#    0.000    1.500    2.500    1.500    3.500    3.500 
#    0.000    9.375    0.000    0.000    0.000    0.000 
#    0.000    0.000    0.000    0.000    0.000    0.000 
#
# Total GULP energy -198256.960832 kJ/mol
# GULP energy per Si atom -12391.060052 kJ/mol
# Density = 2.502915 g / cm^3
# Si number density = 25.086246 Si / 1000 Ang^3
#
#
#
# Elastic Constant Matrix: (Units=GPa)
#
#
# Indices 1 2 3 4 5 6 
#
# 1 126.5849 47.5424 11.2854 11.4548 -2.1092 -26.5974
# 2 47.5424 73.0826 8.8478 15.0302 2.8705 -6.5455
# 3 11.2854 8.8478 107.1454 -2.2936 -2.8275 3.1195
# 4 11.4548 15.0302 -2.2936 30.8665 -2.2466 0.8622
# 5 -2.1092 2.8705 -2.8275 -2.2466 35.4138 4.5346
# 6 -26.5974 -6.5455 3.1195 0.8622 4.5346 26.9064
#
#
#
# Elastic Compliance Matrix: (Units=1/GPa)
#
#
# Indices 1 2 3 4 5 6 
#
# 1 0.013268 -0.007026 -0.001208 -0.001944 -0.000354 0.011669
# 2 -0.007026 0.019855 -0.001079 -0.007278 -0.002403 -0.001352
# 3 -0.001208 -0.001079 0.009706 0.001868 0.001275 -0.002857
# 4 -0.001944 -0.007278 0.001868 0.037232 0.003719 -0.005728
# 5 -0.000354 -0.002403 0.001275 0.003719 0.029540 -0.006180
# 6 0.011669 -0.001352 -0.002857 -0.005728 -0.006180 0.049928
#
#
# Mechanical properties :
#
#
# Convention : Reuss Voigt Hill
#
# Bulk Modulus (GPa) = 41.31909 49.12935 45.22422
# Shear Modulus (GPa) = 26.84936 34.57982 30.71459
#
# Velocity S-wave (km/s) = 3.27507 3.71676 3.50288
# Velocity P-wave (km/s) = 5.55049 6.16812 5.86744
#
# Compressibility (1/GPa) = 0.02420189
#
# Stress axis : x y z
#
# Youngs Moduli (GPa) = 75.36795 50.36593 103.02627
#
# Poissons Ratio (x) = 0.35389 0.12445
# Poissons Ratio (y) = 0.52956 0.11120
# Poissons Ratio (z) = 0.09104 0.05436
#
# Static dielectric constant tensor:
#      x y z
#    x 4.785270 -0.057270 -0.030780 
#    y -0.057270 4.476290 0.105790 
#    z -0.030780 0.105790 4.615710 
# 
# 
# High freq. dielectric constant tensor:
#      x y z
#    x 2.012550 -0.002810 -0.005190 
#    y -0.002810 2.014540 0.011410 
#    z -0.005190 0.011410 1.978040 
# 
# From -- ./inp_files/471656.got.cif
#   From: 2010.06.25/outbox.cif.g09.slc.cpg/sg2_236_cif.got.tgz:471656.got - 2010.06.27 13:26:56.
