data_PCOD8012747
_publ_section_title
;
Structure prediction by ZEFSAII (Michael W. Deem and Ramdas Pophale) SiO2 
 PCOD8012747
Probable space group: P -1
;
_chemical_formula_sum "Si O2"
_cell_formula_units_Z 14
_cell_length_a 10.697167
_cell_length_b 16.014814
_cell_length_c 8.195809
_cell_angle_alpha 40.854264
_cell_angle_beta 129.289813
_cell_angle_gamma 134.838981
_cell_volume 635.971452
_symmetry_space_group_name_H-M "P -1"
_symmetry_group_IT_number 2
_symmetry_cell_setting 'triclinic'
loop_
_space_group_symop_operation_xyz
x,y,z
-x,-y,-z
loop_
_atom_site_type_symbol
_atom_site_label
_atom_site_fract_x
_atom_site_fract_y
_atom_site_fract_z
Si Si1 0.319963 0.138282 0.804808
Si Si2 0.060852 0.884987 0.511019
Si Si3 0.265477 0.684714 0.555872
Si Si4 0.364195 0.629662 0.394720
Si Si5 0.028908 0.408435 0.296471
Si Si6 0.746660 0.136984 0.995353
Si Si7 0.593468 0.899688 0.702670
O O1 0.423904 0.302701 0.578795
O O2 0.107926 0.080527 0.684838
O O3 0.376432 0.030947 0.903324
O O4 0.352014 0.139948 0.021307
O O5 0.027178 0.752945 0.559747
O O6 0.088425 0.850671 0.771704
O O7 0.233942 0.024394 0.384373
O O8 0.318213 0.594368 0.600090
O O9 0.093460 0.582740 0.669215
O O10 0.444494 0.758151 0.704490
O O11 0.202297 0.791158 0.249476
O O12 0.240534 0.487596 0.402928
O O13 0.336062 0.770951 0.109467
O O14 0.000000 0.500000 0.000000
O O15 0.500000 0.000000 0.500000
#
# Coordination Sequence:
#
# PCOD8012747 Si02
#       7
#     2   2   2   2   2   2   2
#     4  12  23  40  60  95 130 154 199 258 312 357
#     4  12  25  37  62  96 126 160 193 260 317 351
#     4  10  22  37  67  91 112 155 219 251 288 349
#     4  10  22  38  64  85 120 165 210 238 294 360
#     4  12  21  40  63  91 121 160 211 249 293 369
#     4  10  21  40  63  89 119 160 208 248 302 358
#     4  12  20  39  65  90 122 157 209 250 299 362
#
# _framework density 22.013566000000001
#
# number of rings (size 3 to 8) (size 9 to 14) (size 15 to 20)
#    0.857    0.000    4.286    4.286    0.000    0.571 
#    0.000    0.000    0.000    2.571    0.000    0.000 
#    0.000    0.000    0.000    0.000    0.000    0.000 
#
# Total GULP energy -173446.267668 kJ/mol
# GULP energy per Si atom -12389.019119 kJ/mol
# Density = 2.196346 g / cm^3
# Si number density = 22.013566 Si / 1000 Ang^3
#
#
#
# Elastic Constant Matrix: (Units=GPa)
#
#
# Indices 1 2 3 4 5 6 
#
# 1 65.0611 19.2017 10.6466 2.0548 -18.4537 18.3084
# 2 19.2017 102.3328 13.3620 20.3978 -10.7588 9.7647
# 3 10.6466 13.3620 62.4419 23.0327 -22.5602 -3.8480
# 4 2.0548 20.3978 23.0327 35.2967 -1.0665 -6.3669
# 5 -18.4537 -10.7588 -22.5602 -1.0665 27.0729 0.7435
# 6 18.3084 9.7647 -3.8480 -6.3669 0.7435 40.9964
#
#
#
# Elastic Compliance Matrix: (Units=1/GPa)
#
#
# Indices 1 2 3 4 5 6 
#
# 1 0.023792 -0.000869 0.004497 -0.005236 0.019720 -0.011167
# 2 -0.000869 0.012581 0.003386 -0.009934 0.006946 -0.003960
# 3 0.004497 0.003386 0.035503 -0.025104 0.033117 -0.003982
# 4 -0.005236 -0.009934 -0.025104 0.051917 -0.026690 0.010895
# 5 0.019720 0.006946 0.033117 -0.026690 0.080041 -0.012950
# 6 -0.011167 -0.003960 -0.003982 0.010895 -0.012950 0.031876
#
#
# Mechanical properties :
#
#
# Convention : Reuss Voigt Hill
#
# Bulk Modulus (GPa) = 11.64079 35.13959 23.39019
# Shear Modulus (GPa) = 19.97481 33.11490 26.54486
#
# Velocity S-wave (km/s) = 3.01555 3.88273 3.47629
# Velocity P-wave (km/s) = 4.17424 6.00817 5.17312
#
# Compressibility (1/GPa) = 0.08590479
#
# Stress axis : x y z
#
# Youngs Moduli (GPa) = 42.03135 79.48362 28.16658
#
# Poissons Ratio (x) = 0.06907 -0.12668
# Poissons Ratio (y) = 0.03653 -0.09537
# Poissons Ratio (z) = -0.18904 -0.26912
#
# Static dielectric constant tensor:
#      x y z
#    x 3.992730 0.238270 -0.085010 
#    y 0.238270 2.968130 -0.357420 
#    z -0.085010 -0.357420 3.399490 
# 
# 
# High freq. dielectric constant tensor:
#      x y z
#    x 1.856730 0.004050 -0.023040 
#    y 0.004050 1.880710 0.020840 
#    z -0.023040 0.020840 1.840430 
# 
# From -- ./inp_files/259032.got.cif
#   From: 2010.06.25/outbox.cif.g09.slc.cpg/sg2_130_cif.got.tgz:259032.got - 2010.06.27 13:26:56.
