data_PCOD8012523
_publ_section_title
;
Structure prediction by ZEFSAII (Michael W. Deem and Ramdas Pophale) SiO2 
 PCOD8012523
Probable space group: P -1
;
_chemical_formula_sum "Si O2"
_cell_formula_units_Z 16
_cell_length_a 9.641555
_cell_length_b 21.586971
_cell_length_c 11.443423
_cell_angle_alpha 45.561849
_cell_angle_beta 119.862356
_cell_angle_gamma 148.780992
_cell_volume 848.078974
_symmetry_space_group_name_H-M "P -1"
_symmetry_group_IT_number 2
_symmetry_cell_setting 'triclinic'
loop_
_space_group_symop_operation_xyz
x,y,z
-x,-y,-z
loop_
_atom_site_type_symbol
_atom_site_label
_atom_site_fract_x
_atom_site_fract_y
_atom_site_fract_z
Si Si1 0.998807 0.810640 0.710680
Si Si2 0.942705 0.118367 0.618754
Si Si3 0.670639 0.206399 0.189438
Si Si4 0.545283 0.350847 0.325388
Si Si5 0.132643 0.571502 0.191725
Si Si6 0.536261 0.756505 0.330157
Si Si7 0.601353 0.897727 0.375620
Si Si8 0.883170 0.281159 0.434211
O O1 0.076804 0.894465 0.512757
O O2 0.112661 0.763689 0.819483
O O3 0.661862 0.662413 0.780242
O O4 0.135282 0.924960 0.722881
O O5 0.034709 0.255994 0.515556
O O6 0.171572 0.151922 0.716520
O O7 0.642087 0.960979 0.752702
O O8 0.704839 0.224379 0.318931
O O9 0.733486 0.328796 0.000545
O O10 0.593372 0.369110 0.462956
O O11 0.385953 0.190119 0.436291
O O12 0.836232 0.486385 0.201712
O O13 0.327979 0.679367 0.239759
O O14 0.108290 0.457018 0.317038
O O15 0.585155 0.871381 0.263809
O O16 0.320125 0.818783 0.408094
#
# Coordination Sequence:
#
# PCOD8012523 Si02
#       8
#     2   2   2   2   2   2   2   2
#     4  10  16  33  56  83 103 132 180 232 261 300
#     4  10  19  35  58  84 101 137 184 228 254 309
#     4  11  21  33  55  82 115 133 172 222 280 315
#     4   8  19  30  55  77 102 135 182 216 256 305
#     4  11  22  36  50  79 116 148 166 214 269 330
#     4   9  21  34  56  80 104 143 187 213 254 313
#     4   9  16  31  59  83  99 128 182 232 253 295
#     4  10  19  35  59  80 103 140 182 218 269 307
#
# _framework density 18.866167000000001
#
# number of rings (size 3 to 8) (size 9 to 14) (size 15 to 20)
#    0.750    1.500    2.500    1.875    0.000    1.500 
#    0.000    0.625    0.000    0.000    0.000    0.000 
#    0.000    0.000    0.000    0.000    0.000    0.000 
#
# Total GULP energy -198285.026726 kJ/mol
# GULP energy per Si atom -12392.814170 kJ/mol
# Density = 1.882323 g / cm^3
# Si number density = 18.866167 Si / 1000 Ang^3
#
#
#
# Elastic Constant Matrix: (Units=GPa)
#
#
# Indices 1 2 3 4 5 6 
#
# 1 109.9373 49.0869 13.6919 4.8914 -1.2813 0.6330
# 2 49.0869 83.9470 18.4571 2.3718 3.2731 -4.0108
# 3 13.6919 18.4571 34.8693 -4.9819 -1.6845 5.5887
# 4 4.8914 2.3718 -4.9819 10.1286 1.4194 -7.1103
# 5 -1.2813 3.2731 -1.6845 1.4194 9.6037 -2.4161
# 6 0.6330 -4.0108 5.5887 -7.1103 -2.4161 20.6043
#
#
#
# Elastic Compliance Matrix: (Units=1/GPa)
#
#
# Indices 1 2 3 4 5 6 
#
# 1 0.013056 -0.007382 -0.001632 -0.008718 0.004278 -0.003902
# 2 -0.007382 0.018552 -0.008121 -0.000137 -0.007423 0.005123
# 3 -0.001632 -0.008121 0.037074 0.016478 0.005289 -0.005280
# 4 -0.008718 -0.000137 0.016478 0.143304 -0.008272 0.044255
# 5 0.004278 -0.007423 0.005289 -0.008272 0.111182 0.007172
# 6 -0.003902 0.005123 -0.005280 0.044255 0.007172 0.067196
#
#
# Mechanical properties :
#
#
# Convention : Reuss Voigt Hill
#
# Bulk Modulus (GPa) = 29.06016 43.46950 36.26483
# Shear Modulus (GPa) = 11.46510 17.90181 14.68345
#
# Velocity S-wave (km/s) = 2.46785 3.08374 2.79282
# Velocity P-wave (km/s) = 4.85357 5.98082 5.44644
#
# Compressibility (1/GPa) = 0.03441137
#
# Stress axis : x y z
#
# Youngs Moduli (GPa) = 76.59436 53.90113 26.97304
#
# Poissons Ratio (x) = 0.39791 0.04403
# Poissons Ratio (y) = 0.56544 0.21904
# Poissons Ratio (z) = 0.12504 0.43772
#
# Static dielectric constant tensor:
#      x y z
#    x 3.628250 0.025150 -0.035270 
#    y 0.025150 3.255950 -0.082970 
#    z -0.035270 -0.082970 2.955880 
# 
# 
# High freq. dielectric constant tensor:
#      x y z
#    x 1.743600 0.000570 -0.003460 
#    y 0.000570 1.717940 -0.007930 
#    z -0.003460 -0.007930 1.682900 
# 
# From -- ./inp_files/404786.got.cif
#   From: 2010.06.25/outbox.cif.g09.slc.cpg/sg2_203_cif.got.tgz:404786.got - 2010.06.27 13:26:56.
