data_PCOD8012868
_publ_section_title
;
Structure prediction by ZEFSAII (Michael W. Deem and Ramdas Pophale) SiO2 
 PCOD8012868
Probable space group: P -1
;
_chemical_formula_sum "Si O2"
_cell_formula_units_Z 16
_cell_length_a 14.989434
_cell_length_b 12.159585
_cell_length_c 6.124810
_cell_angle_alpha 68.063368
_cell_angle_beta 89.656033
_cell_angle_gamma 44.697348
_cell_volume 668.227814
_symmetry_space_group_name_H-M "P -1"
_symmetry_group_IT_number 2
_symmetry_cell_setting 'triclinic'
loop_
_space_group_symop_operation_xyz
x,y,z
-x,-y,-z
loop_
_atom_site_type_symbol
_atom_site_label
_atom_site_fract_x
_atom_site_fract_y
_atom_site_fract_z
Si Si1 0.011209 0.656212 0.257391
Si Si2 0.193244 0.882970 0.561836
Si Si3 0.784091 0.720028 0.218569
Si Si4 0.204627 0.452031 0.028737
Si Si5 0.917920 0.236858 0.494045
Si Si6 0.569104 0.841238 0.448706
Si Si7 0.442289 0.734026 0.403145
Si Si8 0.608339 0.379339 0.895694
O O1 0.094899 0.488134 0.545494
O O2 0.059508 0.589620 0.057275
O O3 0.039171 0.760953 0.266918
O O4 0.847118 0.789598 0.173366
O O5 0.151143 0.821778 0.438246
O O6 0.311354 0.842729 0.481226
O O7 0.242119 0.776424 0.873036
O O8 0.056099 0.098450 0.446196
O O9 0.644287 0.848370 0.263991
O O10 0.757406 0.709321 0.975991
O O11 0.323627 0.352236 0.280099
O O12 0.197903 0.564542 0.770294
O O13 0.467138 0.851389 0.321143
O O14 0.500000 0.000000 0.500000
O O15 0.580566 0.521361 0.635094
O O16 0.410558 0.723561 0.165216
O O17 0.500000 0.500000 0.000000
#
# Coordination Sequence:
#
# PCOD8012868 Si02
#       8
#     2   2   2   2   2   2   2   2
#     4   9  19  37  62  89 119 159 201 250 301 362
#     4  10  22  39  59  91 124 155 199 258 307 363
#     4   9  20  38  60  88 121 156 208 247 297 361
#     4  10  21  40  64  88 121 165 202 252 310 359
#     4  10  22  38  62  91 121 155 203 254 311 366
#     4  11  25  41  61  93 128 164 208 254 301 369
#     4  10  22  40  63  90 123 165 207 247 307 369
#     4   9  20  39  64  88 118 159 203 250 304 362
#
# _framework density 23.943932
#
# number of rings (size 3 to 8) (size 9 to 14) (size 15 to 20)
#    0.000    2.250    0.000    1.125    1.750   14.500 
#    2.250    2.500    0.000    0.000    0.000    0.000 
#    0.000    0.000    0.000    0.000    0.000    0.000 
#
# Total GULP energy -198325.135076 kJ/mol
# GULP energy per Si atom -12395.320942 kJ/mol
# Density = 2.388943 g / cm^3
# Si number density = 23.943932 Si / 1000 Ang^3
#
#
#
# Elastic Constant Matrix: (Units=GPa)
#
#
# Indices 1 2 3 4 5 6 
#
# 1 147.3311 58.9022 18.4235 25.7296 12.9780 6.8988
# 2 58.9022 105.9294 17.8271 33.1004 5.9748 12.2928
# 3 18.4235 17.8271 52.1155 22.1366 9.7905 4.1532
# 4 25.7296 33.1004 22.1366 43.9873 1.3086 7.6723
# 5 12.9780 5.9748 9.7905 1.3086 24.8112 9.0971
# 6 6.8988 12.2928 4.1532 7.6723 9.0971 39.9701
#
#
#
# Elastic Compliance Matrix: (Units=1/GPa)
#
#
# Indices 1 2 3 4 5 6 
#
# 1 0.009211 -0.004334 -0.000231 -0.002079 -0.003966 0.001069
# 2 -0.004334 0.014636 0.000201 -0.008197 -0.000107 -0.002177
# 3 -0.000231 0.000201 0.026774 -0.013560 -0.010587 0.002209
# 4 -0.002079 -0.008197 -0.013560 0.037532 0.008185 -0.004778
# 5 -0.003966 -0.000107 -0.010587 0.008185 0.050254 -0.011191
# 6 0.001069 -0.002177 0.002209 -0.004778 -0.011191 0.028739
#
#
# Mechanical properties :
#
#
# Convention : Reuss Voigt Hill
#
# Bulk Modulus (GPa) = 23.87020 55.07571 39.47296
# Shear Modulus (GPa) = 26.33819 35.76859 31.05339
#
# Velocity S-wave (km/s) = 3.32021 3.86923 3.60519
# Velocity P-wave (km/s) = 4.96883 6.55844 5.81818
#
# Compressibility (1/GPa) = 0.04189324
#
# Stress axis : x y z
#
# Youngs Moduli (GPa) = 108.56248 68.32364 37.34981
#
# Poissons Ratio (x) = 0.29610 0.00863
# Poissons Ratio (y) = 0.47049 -0.00749
# Poissons Ratio (z) = 0.02507 -0.01371
#
# Static dielectric constant tensor:
#      x y z
#    x 4.268470 0.073590 0.443770 
#    y 0.073590 4.220510 0.007940 
#    z 0.443770 0.007940 4.482180 
# 
# 
# High freq. dielectric constant tensor:
#      x y z
#    x 1.938460 0.002270 0.022460 
#    y 0.002270 1.947800 0.011560 
#    z 0.022460 0.011560 1.939540 
# 
# From -- ./inp_files/94604.got.cif
#   From: 2010.06.25/outbox.cif.g09.slc.cpg/sg2_48_cif.got.tgz:94604.got - 2010.06.27 13:26:56.
