data_PCOD8012557
_publ_section_title
;
Structure prediction by ZEFSAII (Michael W. Deem and Ramdas Pophale) SiO2 
 PCOD8012557
Probable space group: P -1
;
_chemical_formula_sum "Si O2"
_cell_formula_units_Z 14
_cell_length_a 5.126459
_cell_length_b 11.966229
_cell_length_c 22.510943
_cell_angle_alpha 147.753388
_cell_angle_beta 62.461101
_cell_angle_gamma 116.218049
_cell_volume 649.557357
_symmetry_space_group_name_H-M "P -1"
_symmetry_group_IT_number 2
_symmetry_cell_setting 'triclinic'
loop_
_space_group_symop_operation_xyz
x,y,z
-x,-y,-z
loop_
_atom_site_type_symbol
_atom_site_label
_atom_site_fract_x
_atom_site_fract_y
_atom_site_fract_z
Si Si1 0.669562 0.729917 0.904192
Si Si2 0.160053 0.567158 0.429784
Si Si3 0.739363 0.864805 0.639983
Si Si4 0.066960 0.907863 0.042675
Si Si5 0.331929 0.109203 0.467161
Si Si6 0.943873 0.104227 0.264180
Si Si7 0.784716 0.301439 0.649348
O O1 0.734218 0.489063 0.783500
O O2 0.846261 0.866212 0.895543
O O3 0.324533 0.754403 0.943224
O O4 0.778840 0.801864 0.990815
O O5 0.402254 0.722479 0.510013
O O6 0.271648 0.623806 0.377133
O O7 0.840673 0.629234 0.512673
O O8 0.163262 0.320491 0.329355
O O9 0.814363 0.980892 0.620654
O O10 0.396063 0.856391 0.688475
O O11 0.946399 0.982823 0.723315
O O12 0.997146 0.939252 0.133056
O O13 0.117340 0.233460 0.587068
O O14 0.429759 0.908549 0.403049
#
# Coordination Sequence:
#
# PCOD8012557 Si02
#       7
#     2   2   2   2   2   2   2
#     4  10  21  40  61  89 121 152 201 256 307 352
#     4  11  22  37  62  93 125 159 201 249 306 371
#     4  11  24  39  59  90 128 162 201 243 302 369
#     4  10  22  38  61  91 118 155 202 252 308 357
#     4  10  23  40  60  95 125 166 205 240 303 375
#     4  12  23  38  64  89 127 160 198 253 306 359
#     4  10  22  39  64  92 125 163 200 257 302 363
#
# _framework density 21.553137
#
# number of rings (size 3 to 8) (size 9 to 14) (size 15 to 20)
#    0.000    1.429    2.857    2.143    6.000    1.143 
#    0.000    0.000    0.000    5.143    0.000    0.000 
#    0.000    0.000    0.000    0.000    0.000    0.000 
#
# Total GULP energy -173477.586439 kJ/mol
# GULP energy per Si atom -12391.256174 kJ/mol
# Density = 2.150408 g / cm^3
# Si number density = 21.553137 Si / 1000 Ang^3
#
#
#
# Elastic Constant Matrix: (Units=GPa)
#
#
# Indices 1 2 3 4 5 6 
#
# 1 101.8189 20.1812 30.5292 -1.3747 4.2657 -2.9866
# 2 20.1812 45.2411 33.9734 -6.0157 -6.5613 -4.5145
# 3 30.5292 33.9734 116.2112 -8.9888 -4.5220 -10.8064
# 4 -1.3747 -6.0157 -8.9888 31.9759 -12.6228 4.2832
# 5 4.2657 -6.5613 -4.5220 -12.6228 28.7121 -9.3844
# 6 -2.9866 -4.5145 -10.8064 4.2832 -9.3844 29.0866
#
#
#
# Elastic Compliance Matrix: (Units=1/GPa)
#
#
# Indices 1 2 3 4 5 6 
#
# 1 0.011533 -0.004710 -0.002191 -0.002706 -0.004820 -0.001517
# 2 -0.004710 0.032625 -0.006734 0.008251 0.012301 0.004832
# 3 -0.002191 -0.006734 0.011817 0.002660 0.003028 0.003706
# 4 -0.002706 0.008251 0.002660 0.041758 0.022029 0.002949
# 5 -0.004820 0.012301 0.003028 0.022029 0.053979 0.016711
# 6 -0.001517 0.004832 0.003706 0.002949 0.016711 0.041308
#
#
# Mechanical properties :
#
#
# Convention : Reuss Voigt Hill
#
# Bulk Modulus (GPa) = 34.83606 48.07098 41.45352
# Shear Modulus (GPa) = 21.75248 29.86074 25.80661
#
# Velocity S-wave (km/s) = 3.18031 3.72620 3.46403
# Velocity P-wave (km/s) = 5.44829 6.39254 5.93921
#
# Compressibility (1/GPa) = 0.02870588
#
# Stress axis : x y z
#
# Youngs Moduli (GPa) = 86.71059 30.65133 84.62074
#
# Poissons Ratio (x) = 0.14435 0.18539
# Poissons Ratio (y) = 0.40837 0.56985
# Poissons Ratio (z) = 0.18997 0.20641
#
# Static dielectric constant tensor:
#      x y z
#    x 3.977890 -0.170800 0.136830 
#    y -0.170800 3.766480 -0.233510 
#    z 0.136830 -0.233510 3.731920 
# 
# 
# High freq. dielectric constant tensor:
#      x y z
#    x 1.853440 -0.013080 0.002380 
#    y -0.013080 1.823360 -0.027730 
#    z 0.002380 -0.027730 1.832590 
# 
# From -- ./inp_files/74914.got.cif
#   From: 2010.06.25/outbox.cif.g09.slc.cpg/sg2_38_cif.got.tgz:74914.got - 2010.06.27 13:26:56.
