data_PCOD8012666
_publ_section_title
;
Structure prediction by ZEFSAII (Michael W. Deem and Ramdas Pophale) SiO2 
 PCOD8012666
Probable space group: P -1
;
_chemical_formula_sum "Si O2"
_cell_formula_units_Z 16
_cell_length_a 16.620313
_cell_length_b 13.350278
_cell_length_c 17.158052
_cell_angle_alpha 146.795819
_cell_angle_beta 25.813851
_cell_angle_gamma 129.396099
_cell_volume 787.712463
_symmetry_space_group_name_H-M "P -1"
_symmetry_group_IT_number 2
_symmetry_cell_setting 'triclinic'
loop_
_space_group_symop_operation_xyz
x,y,z
-x,-y,-z
loop_
_atom_site_type_symbol
_atom_site_label
_atom_site_fract_x
_atom_site_fract_y
_atom_site_fract_z
Si Si1 0.032322 0.424183 0.678470
Si Si2 0.476572 0.987586 0.811960
Si Si3 0.138754 0.450986 0.770020
Si Si4 0.171505 0.957074 0.256482
Si Si5 0.138445 0.855625 0.047133
Si Si6 0.417323 0.348537 0.211773
Si Si7 0.666512 0.153615 0.634997
Si Si8 0.602150 0.520820 0.043664
O O1 0.992928 0.483789 0.842802
O O2 0.189922 0.495576 0.547882
O O3 0.807290 0.530317 0.900568
O O4 0.168201 0.172988 0.383798
O O5 0.671431 0.788153 0.553269
O O6 0.546909 0.037134 0.700197
O O7 0.285536 0.938485 0.934521
O O8 0.397667 0.189453 0.066379
O O9 0.234591 0.608508 0.783811
O O10 0.000000 0.500000 0.000000
O O11 0.109349 0.883894 0.184097
O O12 0.403965 0.776667 0.960854
O O13 0.000000 0.000000 0.500000
O O14 0.906514 0.982169 0.292088
O O15 0.472469 0.506768 0.220865
O O16 0.678006 0.317240 0.790929
O O17 0.545142 0.265398 0.734822
#
# Coordination Sequence:
#
# PCOD8012666 Si02
#       8
#     2   2   2   2   2   2   2   2
#     4  12  22  40  61  91 124 160 200 248 305 357
#     4  11  21  39  63  90 123 162 196 247 309 357
#     4  12  25  40  60  93 128 160 199 244 306 376
#     4  12  19  35  62  87 120 158 191 247 312 354
#     4  12  23  39  60  90 125 160 197 250 304 361
#     4  11  21  36  64  95 123 152 200 256 299 361
#     4  10  21  40  62  92 122 155 208 252 296 352
#     4  10  22  38  64  92 119 159 205 254 297 349
#
# _framework density 20.311980999999999
#
# number of rings (size 3 to 8) (size 9 to 14) (size 15 to 20)
#    0.000    0.750    6.250    3.000    0.000    1.000 
#    0.000    4.375    0.000    1.500    0.000    0.000 
#    0.000    0.000    0.000    0.000    0.000    0.000 
#
# Total GULP energy -198456.789511 kJ/mol
# GULP energy per Si atom -12403.549344 kJ/mol
# Density = 2.026575 g / cm^3
# Si number density = 20.311981 Si / 1000 Ang^3
#
#
#
# Elastic Constant Matrix: (Units=GPa)
#
#
# Indices 1 2 3 4 5 6 
#
# 1 116.1166 41.2559 41.1352 -5.1490 -24.9430 -8.4424
# 2 41.2559 99.6445 41.9410 -15.0236 -31.1793 -4.3640
# 3 41.1352 41.9410 59.6638 -25.1179 -20.1747 -5.4326
# 4 -5.1490 -15.0236 -25.1179 38.3000 7.8578 -2.0768
# 5 -24.9430 -31.1793 -20.1747 7.8578 29.1299 4.5802
# 6 -8.4424 -4.3640 -5.4326 -2.0768 4.5802 26.6041
#
#
#
# Elastic Compliance Matrix: (Units=1/GPa)
#
#
# Indices 1 2 3 4 5 6 
#
# 1 0.012993 -0.000714 -0.008740 -0.005375 0.005627 0.000833
# 2 -0.000714 0.017613 -0.008085 -0.001271 0.013198 -0.001360
# 3 -0.008740 -0.008085 0.039170 0.020636 0.004684 0.004703
# 4 -0.005375 -0.001271 0.020636 0.039407 -0.003234 0.005933
# 5 0.005627 0.013198 0.004684 -0.003234 0.058234 -0.005371
# 6 0.000833 -0.001360 0.004703 0.005933 -0.005371 0.039978
#
#
# Mechanical properties :
#
#
# Convention : Reuss Voigt Hill
#
# Bulk Modulus (GPa) = 28.82097 58.23210 43.52654
# Shear Modulus (GPa) = 19.68208 28.87965 24.28086
#
# Velocity S-wave (km/s) = 3.11624 3.77477 3.46120
# Velocity P-wave (km/s) = 5.21228 6.90866 6.11954
#
# Compressibility (1/GPa) = 0.03469696
#
# Stress axis : x y z
#
# Youngs Moduli (GPa) = 76.96492 56.77706 25.53000
#
# Poissons Ratio (x) = 0.04052 0.22314
# Poissons Ratio (y) = 0.05493 0.20641
# Poissons Ratio (z) = 0.67270 0.45904
#
# Static dielectric constant tensor:
#      x y z
#    x 3.607430 -0.030170 -0.044480 
#    y -0.030170 3.931440 -0.075760 
#    z -0.044480 -0.075760 3.558190 
# 
# 
# High freq. dielectric constant tensor:
#      x y z
#    x 1.783380 0.000750 -0.005880 
#    y 0.000750 1.799760 -0.016740 
#    z -0.005880 -0.016740 1.778310 
# 
# From -- ./inp_files/273809.got.cif
#   From: 2010.06.25/outbox.cif.g09.slc.cpg/sg2_137_cif.got.tgz:273809.got - 2010.06.27 13:26:56.
