data_PCOD8012279
_publ_section_title
;
Structure prediction by ZEFSAII (Michael W. Deem and Ramdas Pophale) SiO2 
 PCOD8012279
Probable space group: P -1
;
_chemical_formula_sum "Si O2"
_cell_formula_units_Z 16
_cell_length_a 16.317247
_cell_length_b 9.086552
_cell_length_c 10.494343
_cell_angle_alpha 68.917071
_cell_angle_beta 41.124278
_cell_angle_gamma 95.511454
_cell_volume 765.260856
_symmetry_space_group_name_H-M "P -1"
_symmetry_group_IT_number 2
_symmetry_cell_setting 'triclinic'
loop_
_space_group_symop_operation_xyz
x,y,z
-x,-y,-z
loop_
_atom_site_type_symbol
_atom_site_label
_atom_site_fract_x
_atom_site_fract_y
_atom_site_fract_z
Si Si1 0.746254 0.113443 0.010788
Si Si2 0.137707 0.133270 0.134731
Si Si3 0.794817 0.440858 0.675047
Si Si4 0.194617 0.216993 0.321356
Si Si5 0.954963 0.382366 0.889349
Si Si6 0.156170 0.437933 0.859291
Si Si7 0.553916 0.833095 0.921706
Si Si8 0.447871 0.856787 0.302130
O O1 0.811950 0.312780 0.794652
O O2 0.803503 0.180916 0.068734
O O3 0.820749 0.012653 0.901044
O O4 0.558559 0.961674 0.264490
O O5 0.223659 0.254542 0.124616
O O6 0.193056 0.288605 0.906914
O O7 0.952284 0.006969 0.409894
O O8 0.839295 0.638282 0.626558
O O9 0.910767 0.489452 0.410309
O O10 0.622772 0.330577 0.857502
O O11 0.344362 0.245457 0.199951
O O12 0.022657 0.328454 0.942174
O O13 0.903515 0.512130 0.963487
O O14 0.311905 0.632214 0.559875
O O15 0.623821 0.029539 0.693573
O O16 0.560918 0.882136 0.048121
#
# Coordination Sequence:
#
# PCOD8012279 Si02
#       8
#     2   2   2   2   2   2   2   2
#     4  11  23  43  68  94 126 167 214 263 314 369
#     4  11  25  38  65  96 127 166 211 261 316 375
#     4  11  22  41  68  94 127 163 213 265 312 371
#     4  11  23  40  65  98 126 160 214 268 309 369
#     4  11  24  41  65  92 127 171 208 257 316 378
#     4  11  26  42  63  91 132 172 209 254 321 377
#     4  10  21  39  68  95 124 163 214 257 318 371
#     4  10  22  42  66  94 127 167 208 262 313 378
#
# _framework density 20.907900999999999
#
# number of rings (size 3 to 8) (size 9 to 14) (size 15 to 20)
#    0.000    1.250    3.750    1.500    7.000    1.500 
#    0.000    0.000    0.000    0.000    0.000    0.000 
#    0.000    0.000    0.000    0.000    0.000    0.000 
#
# Total GULP energy -198427.215930 kJ/mol
# GULP energy per Si atom -12401.700996 kJ/mol
# Density = 2.086031 g / cm^3
# Si number density = 20.907901 Si / 1000 Ang^3
#
#
#
# Elastic Constant Matrix: (Units=GPa)
#
#
# Indices 1 2 3 4 5 6 
#
# 1 119.5470 44.9192 59.0591 -9.5150 1.4379 3.1549
# 2 44.9192 81.1332 41.9741 -2.4489 6.9043 1.0809
# 3 59.0591 41.9741 66.5276 -9.8642 -0.8071 -6.7752
# 4 -9.5150 -2.4489 -9.8642 32.5204 -2.7317 0.3086
# 5 1.4379 6.9043 -0.8071 -2.7317 20.5536 1.3361
# 6 3.1549 1.0809 -6.7752 0.3086 1.3361 45.1799
#
#
#
# Elastic Compliance Matrix: (Units=1/GPa)
#
#
# Indices 1 2 3 4 5 6 
#
# 1 0.015539 -0.001821 -0.012886 0.000468 -0.000727 -0.002956
# 2 -0.001821 0.019952 -0.011723 -0.003185 -0.007337 -0.001869
# 3 -0.012886 -0.011723 0.035572 0.006641 0.006711 0.006271
# 4 0.000468 -0.003185 0.006641 0.033131 0.005659 0.000646
# 5 -0.000727 -0.007337 0.006711 0.005659 0.052207 -0.000350
# 6 -0.002956 -0.001869 0.006271 0.000646 -0.000350 0.023331
#
#
# Mechanical properties :
#
#
# Convention : Reuss Voigt Hill
#
# Bulk Modulus (GPa) = 54.93839 62.12362 58.53101
# Shear Modulus (GPa) = 20.95033 27.73448 24.34241
#
# Velocity S-wave (km/s) = 3.16892 3.64608 3.41584
# Velocity P-wave (km/s) = 6.30260 6.89222 6.60399
#
# Compressibility (1/GPa) = 0.01820221
#
# Stress axis : x y z
#
# Youngs Moduli (GPa) = 64.35290 50.12113 28.11210
#
# Poissons Ratio (x) = 0.09129 0.36226
# Poissons Ratio (y) = 0.11721 0.32955
# Poissons Ratio (z) = 0.82926 0.58756
#
# Static dielectric constant tensor:
#      x y z
#    x 4.042600 0.179570 -0.065620 
#    y 0.179570 3.807290 -0.036970 
#    z -0.065620 -0.036970 3.494090 
# 
# 
# High freq. dielectric constant tensor:
#      x y z
#    x 1.836610 0.005440 -0.009380 
#    y 0.005440 1.817980 -0.003410 
#    z -0.009380 -0.003410 1.798550 
# 
# From -- ./inp_files/209550.got.cif
#   From: 2010.06.25/outbox.cif.g09.slc.cpg/sg2_105_cif.got.tgz:209550.got - 2010.06.27 13:26:56.
