data_PCOD8012703
_publ_section_title
;
Structure prediction by ZEFSAII (Michael W. Deem and Ramdas Pophale) SiO2 
 PCOD8012703
Probable space group: P -1
;
_chemical_formula_sum "Si O2"
_cell_formula_units_Z 14
_cell_length_a 8.068170
_cell_length_b 7.574944
_cell_length_c 15.165295
_cell_angle_alpha 49.749365
_cell_angle_beta 118.734876
_cell_angle_gamma 93.611145
_cell_volume 576.245138
_symmetry_space_group_name_H-M "P -1"
_symmetry_group_IT_number 2
_symmetry_cell_setting 'triclinic'
loop_
_space_group_symop_operation_xyz
x,y,z
-x,-y,-z
loop_
_atom_site_type_symbol
_atom_site_label
_atom_site_fract_x
_atom_site_fract_y
_atom_site_fract_z
Si Si1 0.355048 0.041394 0.132040
Si Si2 0.764358 0.624789 0.568359
Si Si3 0.858145 0.342103 0.518967
Si Si4 0.824215 0.685279 0.837491
Si Si5 0.250877 0.954881 0.698277
Si Si6 0.554016 0.509257 0.712533
Si Si7 0.887285 0.460780 0.194205
O O1 0.280121 0.072886 0.205387
O O2 0.587285 0.028309 0.193667
O O3 0.340055 0.789429 0.172882
O O4 0.222314 0.267958 0.963405
O O5 0.736849 0.431826 0.551160
O O6 0.725251 0.901009 0.430445
O O7 0.606924 0.651099 0.597819
O O8 0.998982 0.507423 0.698871
O O9 0.691369 0.399246 0.379172
O O10 0.000000 0.500000 0.500000
O O11 0.019888 0.062988 0.643300
O O12 0.643474 0.583172 0.800682
O O13 0.933423 0.722427 0.764855
O O14 0.000000 0.500000 0.000000
O O15 0.276629 0.666333 0.782930
#
# Coordination Sequence:
#
# PCOD8012703 Si02
#       7
#     2   2   2   2   2   2   2
#     4  11  23  43  67  97 133 172 218 271 332 390
#     4  10  22  39  65  95 124 175 218 269 330 376
#     4  10  21  40  62  96 132 167 219 267 323 383
#     4   9  23  42  64  97 130 171 216 265 330 387
#     4  11  23  41  65  91 138 174 220 270 319 396
#     4  11  22  42  71  99 130 168 224 274 326 392
#     4  10  23  42  62  96 129 174 220 268 332 386
#
# _framework density 24.295214000000001
#
# number of rings (size 3 to 8) (size 9 to 14) (size 15 to 20)
#    0.000    1.714    2.857    1.286    2.000    8.571 
#    2.571    3.571    0.000    0.000    0.000    0.000 
#    0.000    0.000    0.000    0.000    0.000    0.000 
#
# Total GULP energy -173462.932905 kJ/mol
# GULP energy per Si atom -12390.209493 kJ/mol
# Density = 2.423992 g / cm^3
# Si number density = 24.295214 Si / 1000 Ang^3
#
#
#
# Elastic Constant Matrix: (Units=GPa)
#
#
# Indices 1 2 3 4 5 6 
#
# 1 57.8743 -4.0910 20.8662 -2.1668 11.5704 21.1957
# 2 -4.0910 64.8331 26.2357 12.4538 -2.7070 24.4205
# 3 20.8662 26.2357 98.5000 8.0545 2.2885 24.3118
# 4 -2.1668 12.4538 8.0545 44.4212 15.4746 9.1086
# 5 11.5704 -2.7070 2.2885 15.4746 37.9573 0.6169
# 6 21.1957 24.4205 24.3118 9.1086 0.6169 38.9191
#
#
#
# Elastic Compliance Matrix: (Units=1/GPa)
#
#
# Indices 1 2 3 4 5 6 
#
# 1 0.029636 0.009565 -0.003941 0.007635 -0.010881 -0.021294
# 2 0.009565 0.024783 -0.004086 -0.002213 0.000288 -0.017694
# 3 -0.003941 -0.004086 0.012916 -0.000941 0.000566 -0.003147
# 4 0.007635 -0.002213 -0.000941 0.030703 -0.014797 -0.009133
# 5 -0.010881 0.000288 0.000566 -0.014797 0.035546 0.008291
# 6 -0.021294 -0.017694 -0.003147 -0.009133 0.008291 0.052365
#
#
# Mechanical properties :
#
#
# Convention : Reuss Voigt Hill
#
# Bulk Modulus (GPa) = 14.20259 34.13655 24.16957
# Shear Modulus (GPa) = 24.23143 36.13929 30.18536
#
# Velocity S-wave (km/s) = 3.16155 3.86100 3.52865
# Velocity P-wave (km/s) = 4.38015 5.82732 5.15478
#
# Compressibility (1/GPa) = 0.07040970
#
# Stress axis : x y z
#
# Youngs Moduli (GPa) = 33.74315 40.35040 77.42359
#
# Poissons Ratio (x) = -0.38594 0.30516
# Poissons Ratio (y) = -0.32274 0.31633
# Poissons Ratio (z) = 0.13299 0.16486
#
# Static dielectric constant tensor:
#      x y z
#    x 5.194540 -0.836180 0.224980 
#    y -0.836180 5.467920 0.078620 
#    z 0.224980 0.078620 4.457490 
# 
# 
# High freq. dielectric constant tensor:
#      x y z
#    x 1.966750 0.012900 0.013230 
#    y 0.012900 1.965860 0.008730 
#    z 0.013230 0.008730 1.958020 
# 
# From -- ./inp_files/556811.got.cif
#   From: 2010.06.25/outbox.cif.g09.slc.cpg/sg2_279_cif.got.tgz:556811.got - 2010.06.27 13:26:56.
