data_PCOD8012376
_publ_section_title
;
Structure prediction by ZEFSAII (Michael W. Deem and Ramdas Pophale) SiO2 
 PCOD8012376
Probable space group: P -1
;
_chemical_formula_sum "Si O2"
_cell_formula_units_Z 16
_cell_length_a 11.904620
_cell_length_b 12.486923
_cell_length_c 9.424622
_cell_angle_alpha 125.990849
_cell_angle_beta 44.416243
_cell_angle_gamma 131.508847
_cell_volume 716.585913
_symmetry_space_group_name_H-M "P -1"
_symmetry_group_IT_number 2
_symmetry_cell_setting 'triclinic'
loop_
_space_group_symop_operation_xyz
x,y,z
-x,-y,-z
loop_
_atom_site_type_symbol
_atom_site_label
_atom_site_fract_x
_atom_site_fract_y
_atom_site_fract_z
Si Si1 0.236111 0.078865 0.944838
Si Si2 0.810673 0.886348 0.524138
Si Si3 0.711497 0.573899 0.383643
Si Si4 0.118717 0.939716 0.658923
Si Si5 0.787954 0.433153 0.959532
Si Si6 0.524652 0.878557 0.980227
Si Si7 0.920988 0.612498 0.495119
Si Si8 0.301565 0.407505 0.068271
O O1 0.387338 0.069902 0.902920
O O2 0.263921 0.238160 0.985076
O O3 0.048264 0.017469 0.148481
O O4 0.223028 0.974029 0.741200
O O5 0.810329 0.735935 0.352371
O O6 0.660822 0.833146 0.739040
O O7 0.752840 0.958788 0.501206
O O8 0.000000 0.000000 0.500000
O O9 0.500000 0.500000 0.500000
O O10 0.760451 0.595097 0.522113
O O11 0.799660 0.478481 0.149959
O O12 0.061473 0.776330 0.530855
O O13 0.716818 0.541566 0.033296
O O14 0.974130 0.467076 0.741361
O O15 0.660266 0.260357 0.932401
O O16 0.500000 0.000000 0.000000
O O17 0.825033 0.546168 0.679293
O O18 0.500000 0.500000 0.000000
#
# Coordination Sequence:
#
# PCOD8012376 Si02
#       8
#     2   2   2   2   2   2   2   2
#     4  10  21  42  68 102 131 178 237 284 342 418
#     4  12  21  42  70  99 134 184 240 286 341 414
#     4  12  24  43  71  99 137 187 241 288 337 423
#     4  10  21  39  70  97 132 178 236 287 338 411
#     4  12  25  44  66 101 143 183 230 291 362 411
#     4  12  25  43  67 101 144 181 226 297 355 411
#     4  11  24  43  64 101 141 180 229 291 357 412
#     4  11  21  42  73  97 133 182 232 287 340 420
#
# _framework density 22.328095000000001
#
# number of rings (size 3 to 8) (size 9 to 14) (size 15 to 20)
#    0.000    0.750    5.000    3.750    0.000    0.000 
#    0.000    3.750    0.000    0.000    0.000    0.000 
#    0.000    0.000    0.000    0.000    0.000    0.000 
#
# Total GULP energy -198289.419765 kJ/mol
# GULP energy per Si atom -12393.088735 kJ/mol
# Density = 2.227728 g / cm^3
# Si number density = 22.328095 Si / 1000 Ang^3
#
#
#
# Elastic Constant Matrix: (Units=GPa)
#
#
# Indices 1 2 3 4 5 6 
#
# 1 95.9346 52.6122 18.6661 13.4560 18.5794 -3.5241
# 2 52.6122 102.8226 19.1784 -3.8322 9.1949 7.5395
# 3 18.6661 19.1784 92.6834 3.5028 8.0555 17.4713
# 4 13.4560 -3.8322 3.5028 36.0859 5.1668 6.4226
# 5 18.5794 9.1949 8.0555 5.1668 37.8786 -2.8919
# 6 -3.5241 7.5395 17.4713 6.4226 -2.8919 37.9230
#
#
#
# Elastic Compliance Matrix: (Units=1/GPa)
#
#
# Indices 1 2 3 4 5 6 
#
# 1 0.018013 -0.009096 -0.002057 -0.007766 -0.004720 0.005385
# 2 -0.009096 0.015071 -0.000630 0.005897 -0.000216 -0.004566
# 3 -0.002057 -0.000630 0.012655 0.000881 -0.002123 -0.006207
# 4 -0.007766 0.005897 0.000881 0.033012 -0.002932 -0.008114
# 5 -0.004720 -0.000216 -0.002123 -0.002932 0.029875 0.003357
# 6 0.005385 -0.004566 -0.006207 -0.008114 0.003357 0.032268
#
#
# Mechanical properties :
#
#
# Convention : Reuss Voigt Hill
#
# Bulk Modulus (GPa) = 45.09746 52.48380 48.79063
# Shear Modulus (GPa) = 29.09478 35.77641 32.43559
#
# Velocity S-wave (km/s) = 3.61370 4.00722 3.81554
# Velocity P-wave (km/s) = 6.13623 6.70576 6.42730
#
# Compressibility (1/GPa) = 0.02217420
#
# Stress axis : x y z
#
# Youngs Moduli (GPa) = 55.51423 66.35265 79.01704
#
# Poissons Ratio (x) = 0.60352 0.16255
# Poissons Ratio (y) = 0.50494 0.04978
# Poissons Ratio (z) = 0.11420 0.04180
#
# Static dielectric constant tensor:
#      x y z
#    x 4.041200 0.222800 0.338610 
#    y 0.222800 3.714620 -0.127820 
#    z 0.338610 -0.127820 4.246420 
# 
# 
# High freq. dielectric constant tensor:
#      x y z
#    x 1.872940 0.007020 0.018600 
#    y 0.007020 1.876160 -0.009460 
#    z 0.018600 -0.009460 1.886120 
# 
# From -- ./inp_files/262967.got.cif
#   From: 2010.06.25/outbox.cif.g09.slc.cpg/sg2_132_cif.got.tgz:262967.got - 2010.06.27 13:26:56.
