data_PCOD8012760
_publ_section_title
;
Structure prediction by ZEFSAII (Michael W. Deem and Ramdas Pophale) SiO2 
 PCOD8012760
Probable space group: P -1
;
_chemical_formula_sum "Si O2"
_cell_formula_units_Z 16
_cell_length_a 13.264978
_cell_length_b 15.480327
_cell_length_c 21.203953
_cell_angle_alpha 26.726643
_cell_angle_beta 26.952341
_cell_angle_gamma 27.315952
_cell_volume 791.269960
_symmetry_space_group_name_H-M "P -1"
_symmetry_group_IT_number 2
_symmetry_cell_setting 'triclinic'
loop_
_space_group_symop_operation_xyz
x,y,z
-x,-y,-z
loop_
_atom_site_type_symbol
_atom_site_label
_atom_site_fract_x
_atom_site_fract_y
_atom_site_fract_z
Si Si1 0.579245 0.156260 0.317744
Si Si2 0.100020 0.679784 0.895241
Si Si3 0.163937 0.747089 0.578699
Si Si4 0.736130 0.594629 0.358596
Si Si5 0.156170 0.229048 0.145018
Si Si6 0.944684 0.212952 0.730665
Si Si7 0.297697 0.076912 0.936421
Si Si8 0.950430 0.570643 0.583598
O O1 0.662485 0.289666 0.233762
O O2 0.337897 0.304081 0.314069
O O3 0.500000 0.000000 0.500000
O O4 0.814043 0.010365 0.239043
O O5 0.975192 0.816968 0.812341
O O6 0.216409 0.430752 0.971545
O O7 0.876053 0.764303 0.016127
O O8 0.448174 0.680999 0.479975
O O9 0.154246 0.623153 0.601733
O O10 0.040267 0.681789 0.746993
O O11 0.000000 0.000000 0.500000
O O12 0.773324 0.784177 0.179037
O O13 0.878541 0.536862 0.382613
O O14 0.406327 0.004850 0.163301
O O15 0.956820 0.280926 0.606154
O O16 0.941658 0.391843 0.660558
O O17 0.724032 0.146912 0.908937
#
# Coordination Sequence:
#
# PCOD8012760 Si02
#       8
#     2   2   2   2   2   2   2   2
#     4   9  19  38  58  88 121 154 202 255 297 361
#     4  10  22  38  62  94 124 157 209 256 310 365
#     4  11  24  43  60  86 124 165 206 250 304 380
#     4  11  25  41  63  90 129 162 205 256 313 372
#     4  11  22  38  65  90 121 167 203 254 313 367
#     4   9  21  38  63  90 124 157 209 256 299 364
#     4  11  21  41  61  93 132 157 201 260 311 368
#     4  10  21  40  63  90 120 165 207 250 305 365
#
# _framework density 20.220659000000001
#
# number of rings (size 3 to 8) (size 9 to 14) (size 15 to 20)
#    0.000    1.750    2.500    1.125    0.000    9.500 
#    0.000    2.500    0.000    0.000    0.000    0.000 
#    0.000    0.000    0.000    0.000    0.000    0.000 
#
# Total GULP energy -198249.508777 kJ/mol
# GULP energy per Si atom -12390.594299 kJ/mol
# Density = 2.017464 g / cm^3
# Si number density = 20.220659 Si / 1000 Ang^3
#
#
#
# Elastic Constant Matrix: (Units=GPa)
#
#
# Indices 1 2 3 4 5 6 
#
# 1 -104.5352 5.7031 -3.0474 33.4639 79.2883 -39.5474
# 2 5.7031 83.3007 19.0326 5.9885 18.2317 -19.0857
# 3 -3.0474 19.0326 78.1681 2.4542 12.4460 -14.5221
# 4 33.4639 5.9885 2.4542 29.9362 -7.3092 1.2905
# 5 79.2883 18.2317 12.4460 -7.3092 2.9294 1.1722
# 6 -39.5474 -19.0857 -14.5221 1.2905 1.1722 28.6978
#
#
#
# Elastic Compliance Matrix: (Units=1/GPa)
#
#
# Indices 1 2 3 4 5 6 
#
# 1 0.000784 -0.002924 -0.001597 0.002746 0.011507 -0.002265
# 2 -0.002924 0.014361 -0.002354 -0.000251 -0.002652 0.004450
# 3 -0.001597 -0.002354 0.013904 0.000932 -0.000181 0.003236
# 4 0.002746 -0.000251 0.000932 0.028510 -0.006820 0.003085
# 5 0.011507 -0.002652 -0.000181 -0.006820 0.024863 0.013293
# 6 -0.002265 0.004450 0.003236 0.003085 0.013293 0.035640
#
#
# Mechanical properties :
#
#
# Convention : Reuss Voigt Hill
#
# Bulk Modulus (GPa) = 65.35159 11.14559 38.24859
# Shear Modulus (GPa) = 36.51989 14.66236 25.59113
#
# Velocity S-wave (km/s) = 4.25440 2.69572 3.56138
# Velocity P-wave (km/s) = 7.51815 3.90041 5.98898
#
# Compressibility (1/GPa) = 0.01530185
#
# Stress axis : x y z
#
# Youngs Moduli (GPa) = 1274.85036 69.63383 71.91944
#
# Poissons Ratio (x) = 0.20359 0.11483
# Poissons Ratio (y) = 3.72722 0.16927
# Poissons Ratio (z) = 2.03550 0.16389
#
# Static dielectric constant tensor:
#      x y z
#    x 3.532720 -0.096100 0.094660 
#    y -0.096100 3.739290 -0.137870 
#    z 0.094660 -0.137870 3.820020 
# 
# 
# High freq. dielectric constant tensor:
#      x y z
#    x 1.764940 -0.003560 -0.009220 
#    y -0.003560 1.812730 -0.001450 
#    z -0.009220 -0.001450 1.792590 
# 
# From -- ./inp_files/464296.got.cif
#   From: 2010.06.25/outbox.cif.g09.slc.cpg/sg2_233_cif.got.tgz:464296.got - 2010.06.27 13:26:56.
