data_PCOD8012680
_publ_section_title
;
Structure prediction by ZEFSAII (Michael W. Deem and Ramdas Pophale) SiO2 
 PCOD8012680
Probable space group: P -1
;
_chemical_formula_sum "Si O2"
_cell_formula_units_Z 12
_cell_length_a 13.771553
_cell_length_b 12.805355
_cell_length_c 6.882553
_cell_angle_alpha 43.391442
_cell_angle_beta 75.495338
_cell_angle_gamma 49.272678
_cell_volume 570.592055
_symmetry_space_group_name_H-M "P -1"
_symmetry_group_IT_number 2
_symmetry_cell_setting 'triclinic'
loop_
_space_group_symop_operation_xyz
x,y,z
-x,-y,-z
loop_
_atom_site_type_symbol
_atom_site_label
_atom_site_fract_x
_atom_site_fract_y
_atom_site_fract_z
Si Si1 0.794300 0.300744 0.719889
Si Si2 0.953063 0.972172 0.757823
Si Si3 0.410841 0.726435 0.144822
Si Si4 0.355572 0.253850 0.691707
Si Si5 0.731925 0.948080 0.884038
Si Si6 0.507147 0.152679 0.393439
O O1 0.728289 0.212134 0.950589
O O2 0.678245 0.562845 0.403038
O O3 0.859662 0.197394 0.614599
O O4 0.913151 0.224540 0.916048
O O5 0.867506 0.909104 0.842402
O O6 0.000000 0.000000 0.500000
O O7 0.500000 0.500000 0.500000
O O8 0.373956 0.882488 0.122617
O O9 0.498409 0.709868 0.950099
O O10 0.369108 0.307881 0.393803
O O11 0.228898 0.266738 0.774512
O O12 0.500000 0.000000 0.000000
O O13 0.651742 0.023181 0.616663
O O14 0.500000 0.000000 0.500000
#
# Coordination Sequence:
#
# PCOD8012680 Si02
#       6
#     2   2   2   2   2   2
#     4  10  23  40  64  90 127 159 212 260 315 362
#     4  10  22  44  64  87 119 169 218 261 302 369
#     4  11  22  37  62  94 124 165 205 260 315 375
#     4  10  21  40  62  93 132 160 198 262 321 376
#     4  10  22  39  61  87 127 162 209 259 313 369
#     4  11  22  37  62  91 128 168 204 251 320 381
#
# _framework density 21.030788000000001
#
# number of rings (size 3 to 8) (size 9 to 14) (size 15 to 20)
#    0.000    1.667    1.667    3.000    2.333    6.000 
#    0.000    0.833    0.000    0.000    0.000    0.000 
#    0.000    0.000    0.000    0.000    0.000    0.000 
#
# Total GULP energy -148681.271466 kJ/mol
# GULP energy per Si atom -12390.105956 kJ/mol
# Density = 2.098292 g / cm^3
# Si number density = 21.030788 Si / 1000 Ang^3
#
#
#
# Elastic Constant Matrix: (Units=GPa)
#
#
# Indices 1 2 3 4 5 6 
#
# 1 151.3186 49.4241 64.2290 21.9880 -18.7577 12.9132
# 2 49.4241 110.4769 55.8338 8.0762 -26.4399 8.2010
# 3 64.2290 55.8338 112.7406 22.7541 -32.5109 -3.2739
# 4 21.9880 8.0762 22.7541 41.0345 -7.1277 -9.7439
# 5 -18.7577 -26.4399 -32.5109 -7.1277 45.9050 6.5826
# 6 12.9132 8.2010 -3.2739 -9.7439 6.5826 37.4537
#
#
#
# Elastic Compliance Matrix: (Units=1/GPa)
#
#
# Indices 1 2 3 4 5 6 
#
# 1 0.009827 -0.001688 -0.004091 -0.003666 0.000203 -0.004365
# 2 -0.001688 0.013393 -0.004695 0.000836 0.004302 -0.003300
# 3 -0.004091 -0.004695 0.016262 -0.004438 0.006221 0.001612
# 4 -0.003666 0.000836 -0.004438 0.030598 -0.000667 0.008771
# 5 0.000203 0.004302 0.006221 -0.000667 0.029482 -0.005823
# 6 -0.004365 -0.003300 0.001612 0.008771 -0.005823 0.032373
#
#
# Mechanical properties :
#
#
# Convention : Reuss Voigt Hill
#
# Bulk Modulus (GPa) = 53.95413 79.27889 66.61651
# Shear Modulus (GPa) = 31.43450 38.54859 34.99154
#
# Velocity S-wave (km/s) = 3.87032 4.28595 4.08343
# Velocity P-wave (km/s) = 6.75892 7.89119 7.34690
#
# Compressibility (1/GPa) = 0.01853426
#
# Stress axis : x y z
#
# Youngs Moduli (GPa) = 101.76338 74.66506 61.49275
#
# Poissons Ratio (x) = 0.12605 0.25154
# Poissons Ratio (y) = 0.17180 0.28871
# Poissons Ratio (z) = 0.41627 0.35055
#
# Static dielectric constant tensor:
#      x y z
#    x 5.184310 -0.032960 -0.488080 
#    y -0.032960 3.731550 0.222290 
#    z -0.488080 0.222290 3.733040 
# 
# 
# High freq. dielectric constant tensor:
#      x y z
#    x 1.852180 0.013840 -0.020330 
#    y 0.013840 1.818300 0.014780 
#    z -0.020330 0.014780 1.803210 
# 
# From -- ./inp_files/34496.got.cif
#   From: 2010.06.25/outbox.cif.g09.slc.cpg/sg2_18_cif.got.tgz:34496.got - 2010.06.27 13:26:56.
