data_PCOD8012489
_publ_section_title
;
Structure prediction by ZEFSAII (Michael W. Deem and Ramdas Pophale) SiO2 
 PCOD8012489
Probable space group: P -1
;
_chemical_formula_sum "Si O2"
_cell_formula_units_Z 12
_cell_length_a 5.120649
_cell_length_b 5.119795
_cell_length_c 22.790362
_cell_angle_alpha 72.676338
_cell_angle_beta 93.338191
_cell_angle_gamma 61.837256
_cell_volume 488.631093
_symmetry_space_group_name_H-M "P -1"
_symmetry_group_IT_number 2
_symmetry_cell_setting 'triclinic'
loop_
_space_group_symop_operation_xyz
x,y,z
-x,-y,-z
loop_
_atom_site_type_symbol
_atom_site_label
_atom_site_fract_x
_atom_site_fract_y
_atom_site_fract_z
Si Si1 0.006367 0.210208 0.765534
Si Si2 0.725615 0.790298 0.811920
Si Si3 0.159238 0.515961 0.380425
Si Si4 0.067753 0.724048 0.947919
Si Si5 0.650841 0.372641 0.926111
Si Si6 0.877182 0.094127 0.427030
O O1 0.868215 0.530912 0.780024
O O2 0.877047 0.299836 0.692474
O O3 0.898418 0.981679 0.805817
O O4 0.370506 0.028348 0.780063
O O5 0.774293 0.607801 0.888895
O O6 0.513272 0.268715 0.413042
O O7 0.981175 0.325262 0.385178
O O8 0.013391 0.770804 0.413463
O O9 0.282787 0.571317 0.903540
O O10 0.268508 0.777542 0.996987
O O11 0.781847 0.072275 0.903539
O O12 0.000000 0.500000 0.000000
O O13 0.000000 0.000000 0.500000
#
# Coordination Sequence:
#
# PCOD8012489 Si02
#       6
#     2   2   2   2   2   2
#     4  12  26  47  68 100 132 182 227 274 334 391
#     4  12  26  44  69  98 132 172 229 280 328 397
#     4  12  24  44  69  96 141 181 223 278 330 395
#     4  10  21  40  60  87 119 158 205 255 340 396
#     4  10  23  37  60  89 118 161 206 268 324 395
#     4  12  24  42  69 105 138 179 225 276 332 393
#
# _framework density 24.558409000000001
#
# number of rings (size 3 to 8) (size 9 to 14) (size 15 to 20)
#    0.000    0.667    0.000    8.000    4.667    0.000 
#    0.000    0.000    0.000    0.000    0.000    0.000 
#    0.000    0.000    0.000    0.000    0.000    0.000 
#
# Total GULP energy -148789.668146 kJ/mol
# GULP energy per Si atom -12399.139012 kJ/mol
# Density = 2.450251 g / cm^3
# Si number density = 24.558409 Si / 1000 Ang^3
#
#
#
# Elastic Constant Matrix: (Units=GPa)
#
#
# Indices 1 2 3 4 5 6 
#
# 1 107.8826 70.7202 -10.5140 -5.9713 -13.5842 -3.0279
# 2 70.7202 214.9141 16.9746 4.5827 1.2506 -45.2367
# 3 -10.5140 16.9746 122.2453 4.7888 14.4581 -11.9122
# 4 -5.9713 4.5827 4.7888 32.9802 5.4903 -1.5101
# 5 -13.5842 1.2506 14.4581 5.4903 45.2152 -8.7741
# 6 -3.0279 -45.2367 -11.9122 -1.5101 -8.7741 40.7901
#
#
#
# Elastic Compliance Matrix: (Units=1/GPa)
#
#
# Indices 1 2 3 4 5 6 
#
# 1 0.013236 -0.005338 0.001080 0.002346 0.002728 -0.003948
# 2 -0.005338 0.008313 -0.000742 -0.001666 0.000276 0.008604
# 3 0.001080 -0.000742 0.008781 -0.000560 -0.002135 0.001342
# 4 0.002346 -0.001666 -0.000560 0.031523 -0.003160 -0.001349
# 5 0.002728 0.000276 -0.002135 -0.003160 0.024993 0.005144
# 6 -0.003948 0.008604 0.001342 -0.001349 0.005144 0.035213
#
#
# Mechanical properties :
#
#
# Convention : Reuss Voigt Hill
#
# Bulk Modulus (GPa) = 49.18583 66.60041 57.89312
# Shear Modulus (GPa) = 36.01382 48.32121 42.16751
#
# Velocity S-wave (km/s) = 3.83359 4.44058 4.14820
# Velocity P-wave (km/s) = 6.29816 7.31230 6.82409
#
# Compressibility (1/GPa) = 0.02033106
#
# Stress axis : x y z
#
# Youngs Moduli (GPa) = 75.55016 120.29299 113.87740
#
# Poissons Ratio (x) = 0.64210 -0.12303
# Poissons Ratio (y) = 0.40327 0.08454
# Poissons Ratio (z) = -0.08162 0.08930
#
# Static dielectric constant tensor:
#      x y z
#    x 5.475830 0.033420 2.168820 
#    y 0.033420 5.368220 0.778270 
#    z 2.168820 0.778270 9.616160 
# 
# 
# High freq. dielectric constant tensor:
#      x y z
#    x 1.993080 -0.006140 0.001800 
#    y -0.006140 2.007620 0.000900 
#    z 0.001800 0.000900 1.985620 
# 
# From -- ./inp_files/8427.got.cif
#   From: 2010.06.25/outbox.cif.g09.slc.cpg/sg2_5_cif.got.tgz:8427.got - 2010.06.27 13:26:56.
