data_PCOD8012467
_publ_section_title
;
Structure prediction by ZEFSAII (Michael W. Deem and Ramdas Pophale) SiO2 
 PCOD8012467
Probable space group: P -1
;
_chemical_formula_sum "Si O2"
_cell_formula_units_Z 16
_cell_length_a 11.582625
_cell_length_b 14.644196
_cell_length_c 8.923679
_cell_angle_alpha 51.112120
_cell_angle_beta 125.973202
_cell_angle_gamma 135.290712
_cell_volume 800.805676
_symmetry_space_group_name_H-M "P -1"
_symmetry_group_IT_number 2
_symmetry_cell_setting 'triclinic'
loop_
_space_group_symop_operation_xyz
x,y,z
-x,-y,-z
loop_
_atom_site_type_symbol
_atom_site_label
_atom_site_fract_x
_atom_site_fract_y
_atom_site_fract_z
Si Si1 0.004529 0.035653 0.795630
Si Si2 0.064543 0.215500 0.195005
Si Si3 0.363125 0.090068 0.332169
Si Si4 0.394041 0.599660 0.405944
Si Si5 0.731271 0.202335 0.966458
Si Si6 0.419260 0.370285 0.178716
Si Si7 0.484805 0.017444 0.215791
Si Si8 0.251415 0.291678 0.555238
O O1 0.163204 0.194603 0.732546
O O2 0.021299 0.929949 0.809977
O O3 0.828270 0.025615 0.642902
O O4 0.000000 0.000000 0.000000
O O5 0.236366 0.339731 0.120214
O O6 0.124704 0.197318 0.422181
O O7 0.931421 0.262729 0.061531
O O8 0.392620 0.241029 0.198837
O O9 0.402160 0.073508 0.207875
O O10 0.478031 0.080111 0.555202
O O11 0.292797 0.675574 0.234163
O O12 0.454269 0.599239 0.619759
O O13 0.266613 0.439313 0.424010
O O14 0.561093 0.680491 0.345393
O O15 0.649188 0.075516 0.917495
O O16 0.650625 0.145956 0.128172
O O17 0.500000 0.500000 0.000000
#
# Coordination Sequence:
#
# PCOD8012467 Si02
#       8
#     2   2   2   2   2   2   2   2
#     4  11  23  36  64  92 124 156 209 260 303 353
#     4  10  23  40  62  94 119 159 207 254 310 355
#     4  10  21  40  59  93 120 163 205 247 313 362
#     4  10  23  40  64  90 121 168 210 243 306 375
#     4  11  22  39  63  91 123 158 205 253 305 360
#     4  10  22  42  65  87 127 164 205 252 308 371
#     4  10  22  36  63  88 128 159 198 255 309 364
#     4  10  23  41  61  88 126 162 208 251 301 369
#
# _framework density 19.979877999999999
#
# number of rings (size 3 to 8) (size 9 to 14) (size 15 to 20)
#    0.000    1.750    1.250    1.875    8.750    2.500 
#    0.000    3.125    0.000    0.000    0.000    0.000 
#    0.000    0.000    0.000    0.000    0.000    0.000 
#
# Total GULP energy -198398.264280 kJ/mol
# GULP energy per Si atom -12399.891517 kJ/mol
# Density = 1.993440 g / cm^3
# Si number density = 19.979878 Si / 1000 Ang^3
#
#
#
# Elastic Constant Matrix: (Units=GPa)
#
#
# Indices 1 2 3 4 5 6 
#
# 1 134.8664 50.7919 57.8349 -16.5468 4.4373 6.8309
# 2 50.7919 94.5098 47.1821 -9.8710 -6.2198 7.8878
# 3 57.8349 47.1821 82.6987 -20.7722 -4.9838 7.2766
# 4 -16.5468 -9.8710 -20.7722 26.9458 4.0107 -9.2854
# 5 4.4373 -6.2198 -4.9838 4.0107 39.3900 0.9930
# 6 6.8309 7.8878 7.2766 -9.2854 0.9930 28.3138
#
#
#
# Elastic Compliance Matrix: (Units=1/GPa)
#
#
# Indices 1 2 3 4 5 6 
#
# 1 0.011462 -0.003228 -0.005912 0.001828 -0.002744 0.000349
# 2 -0.003228 0.016013 -0.007248 -0.003056 0.002359 -0.002904
# 3 -0.005912 -0.007248 0.023325 0.011974 0.001220 0.001335
# 4 0.001828 -0.003056 0.011974 0.052093 -0.004845 0.014587
# 5 -0.002744 0.002359 0.001220 -0.004845 0.026788 -0.002837
# 6 0.000349 -0.002904 0.001335 0.014587 -0.002837 0.040583
#
#
# Mechanical properties :
#
#
# Convention : Reuss Voigt Hill
#
# Bulk Modulus (GPa) = 55.47729 69.29918 62.38823
# Shear Modulus (GPa) = 23.91798 29.34767 26.63282
#
# Velocity S-wave (km/s) = 3.46367 3.83673 3.65496
# Velocity P-wave (km/s) = 6.61989 7.37476 7.00750
#
# Compressibility (1/GPa) = 0.01802539
#
# Stress axis : x y z
#
# Youngs Moduli (GPa) = 87.24336 62.45101 42.87180
#
# Poissons Ratio (x) = 0.20157 0.25344
# Poissons Ratio (y) = 0.28159 0.31074
# Poissons Ratio (z) = 0.51574 0.45266
#
# Static dielectric constant tensor:
#      x y z
#    x 4.045690 0.154400 -0.038060 
#    y 0.154400 3.671670 0.171030 
#    z -0.038060 0.171030 3.501870 
# 
# 
# High freq. dielectric constant tensor:
#      x y z
#    x 1.786910 -0.000550 -0.005380 
#    y -0.000550 1.773020 0.008690 
#    z -0.005380 0.008690 1.781210 
# 
# From -- ./inp_files/185985.got.cif
#   From: 2010.06.25/outbox.cif.g09.slc.cpg/sg2_93_cif.got.tgz:185985.got - 2010.06.27 13:26:56.
