data_PCOD8012260
_publ_section_title
;
Structure prediction by ZEFSAII (Michael W. Deem and Ramdas Pophale) SiO2 
 PCOD8012260
Probable space group: P -1
;
_chemical_formula_sum "Si O2"
_cell_formula_units_Z 16
_cell_length_a 11.923830
_cell_length_b 10.035411
_cell_length_c 14.229247
_cell_angle_alpha 68.311650
_cell_angle_beta 149.282716
_cell_angle_gamma 103.780707
_cell_volume 796.744678
_symmetry_space_group_name_H-M "P -1"
_symmetry_group_IT_number 2
_symmetry_cell_setting 'triclinic'
loop_
_space_group_symop_operation_xyz
x,y,z
-x,-y,-z
loop_
_atom_site_type_symbol
_atom_site_label
_atom_site_fract_x
_atom_site_fract_y
_atom_site_fract_z
Si Si1 0.373945 0.661752 0.095191
Si Si2 0.647939 0.860167 0.881657
Si Si3 0.342031 0.657378 0.623076
Si Si4 0.441242 0.801739 0.303202
Si Si5 0.834471 0.416868 0.300733
Si Si6 0.135971 0.692522 0.265048
Si Si7 0.429498 0.287223 0.957563
Si Si8 0.087079 0.368330 0.317950
O O1 0.490587 0.494280 0.226710
O O2 0.366360 0.733202 0.172151
O O3 0.510988 0.751634 0.098530
O O4 0.120203 0.672427 0.876926
O O5 0.480870 0.779323 0.724039
O O6 0.607054 0.026013 0.780304
O O7 0.602385 0.848544 0.964519
O O8 0.897465 0.790433 0.053241
O O9 0.148605 0.641085 0.564876
O O10 0.220506 0.709556 0.426566
O O11 0.308673 0.749471 0.306751
O O12 0.702318 0.751641 0.523942
O O13 0.793276 0.592684 0.223981
O O14 0.054193 0.366007 0.409177
O O15 0.631566 0.361519 0.119073
O O16 0.128430 0.526695 0.275340
#
# Coordination Sequence:
#
# PCOD8012260 Si02
#       8
#     2   2   2   2   2   2   2   2
#     4  10  21  40  65  93 120 155 196 252 303 353
#     4  11  23  44  62  87 124 161 192 256 304 343
#     4  10  21  39  68  92 115 156 207 245 295 361
#     4  12  28  39  57  93 128 155 206 247 292 356
#     4   8  15  33  62  94 112 146 201 250 289 357
#     4  12  24  41  63  88 117 166 214 235 284 370
#     4   8  15  34  63  88 116 151 199 238 299 367
#     4  11  21  40  64  90 122 155 199 255 298 344
#
# _framework density 20.081714999999999
#
# number of rings (size 3 to 8) (size 9 to 14) (size 15 to 20)
#    0.000    1.750    3.750    2.250    0.000    5.000 
#    0.000    5.625    0.000    0.000    0.000    0.000 
#    0.000    0.000    0.000    0.000    0.000    0.000 
#
# Total GULP energy -198370.317687 kJ/mol
# GULP energy per Si atom -12398.144855 kJ/mol
# Density = 2.003601 g / cm^3
# Si number density = 20.081715 Si / 1000 Ang^3
#
#
#
# Elastic Constant Matrix: (Units=GPa)
#
#
# Indices 1 2 3 4 5 6 
#
# 1 102.0095 9.7520 3.1058 -1.0739 -9.6446 17.7285
# 2 9.7520 323.7852 100.4086 -132.7147 50.4883 95.6883
# 3 3.1058 100.4086 92.1372 -56.2368 32.5382 31.0418
# 4 -1.0739 -132.7147 -56.2368 84.1733 -36.0140 -40.8975
# 5 -9.6446 50.4883 32.5382 -36.0140 44.0427 25.6517
# 6 17.7285 95.6883 31.0418 -40.8975 25.6517 52.2810
#
#
#
# Elastic Compliance Matrix: (Units=1/GPa)
#
#
# Indices 1 2 3 4 5 6 
#
# 1 0.012404 0.002886 -0.001751 0.001766 0.008767 -0.011369
# 2 0.002886 0.014164 -0.003567 0.015906 0.010116 -0.017306
# 3 -0.001751 -0.003567 0.020218 0.006232 -0.008585 0.004204
# 4 0.001766 0.015906 0.006232 0.046039 0.019152 -0.006794
# 5 0.008767 0.010116 -0.008585 0.019152 0.050197 -0.026038
# 6 -0.011369 -0.017306 0.004204 -0.006794 -0.026038 0.059622
#
#
# Mechanical properties :
#
#
# Convention : Reuss Voigt Hill
#
# Bulk Modulus (GPa) = 23.85344 82.71830 53.28587
# Shear Modulus (GPa) = 22.57526 63.07710 42.82618
#
# Velocity S-wave (km/s) = 3.35650 5.61056 4.62301
# Velocity P-wave (km/s) = 5.18897 9.12422 7.42216
#
# Compressibility (1/GPa) = 0.04192268
#
# Stress axis : x y z
#
# Youngs Moduli (GPa) = 80.62108 70.59920 49.46066
#
# Poissons Ratio (x) = -0.20375 0.08662
# Poissons Ratio (y) = -0.23268 0.17640
# Poissons Ratio (z) = 0.14119 0.25179
#
# Static dielectric constant tensor:
#      x y z
#    x 4.070480 -0.302890 -0.229340 
#    y -0.302890 5.130360 1.082850 
#    z -0.229340 1.082850 4.235360 
# 
# 
# High freq. dielectric constant tensor:
#      x y z
#    x 1.797230 0.007040 0.000740 
#    y 0.007040 1.758470 0.013450 
#    z 0.000740 0.013450 1.789060 
# 
# From -- ./inp_files/273183.got.cif
#   From: 2010.06.25/outbox.cif.g09.slc.cpg/sg2_137_cif.got.tgz:273183.got - 2010.06.27 13:26:56.
