data_PCOD8012233
_publ_section_title
;
Structure prediction by ZEFSAII (Michael W. Deem and Ramdas Pophale) SiO2 
 PCOD8012233
Probable space group: P -1
;
_chemical_formula_sum "Si O2"
_cell_formula_units_Z 16
_cell_length_a 22.730837
_cell_length_b 20.022762
_cell_length_c 8.953320
_cell_angle_alpha 29.949863
_cell_angle_beta 149.284541
_cell_angle_gamma 157.682844
_cell_volume 735.282621
_symmetry_space_group_name_H-M "P -1"
_symmetry_group_IT_number 2
_symmetry_cell_setting 'triclinic'
loop_
_space_group_symop_operation_xyz
x,y,z
-x,-y,-z
loop_
_atom_site_type_symbol
_atom_site_label
_atom_site_fract_x
_atom_site_fract_y
_atom_site_fract_z
Si Si1 0.819051 0.834758 0.481640
Si Si2 0.501119 0.704130 0.499633
Si Si3 0.650200 0.163197 0.615728
Si Si4 0.018282 0.708714 0.557296
Si Si5 0.552167 0.630863 0.065479
Si Si6 0.787110 0.017142 0.308167
Si Si7 0.762317 0.542914 0.101664
Si Si8 0.271746 0.707322 0.149369
O O1 0.693070 0.794958 0.166794
O O2 0.804224 0.898126 0.482451
O O3 0.764807 0.636584 0.777603
O O4 0.000000 0.000000 0.500000
O O5 0.427868 0.511376 0.638531
O O6 0.626189 0.876547 0.328868
O O7 0.360666 0.698704 0.230610
O O8 0.583494 0.732803 0.781302
O O9 0.733218 0.364389 0.335834
O O10 0.606522 0.158099 0.705873
O O11 0.500000 0.000000 0.500000
O O12 0.775152 0.139722 0.938989
O O13 0.942587 0.716293 0.230944
O O14 0.875062 0.493438 0.710015
O O15 0.054846 0.843334 0.509701
O O16 0.189011 0.772207 0.772011
O O17 0.375819 0.523261 0.954477
#
# Coordination Sequence:
#
# PCOD8012233 Si02
#       8
#     2   2   2   2   2   2   2   2
#     4  12  29  46  68 101 142 182 232 286 354 412
#     4  11  23  40  71 104 132 185 230 281 340 405
#     4  10  21  39  68 100 135 176 226 275 346 403
#     4   9  20  38  66  97 137 174 227 275 339 400
#     4  11  24  44  68 101 137 181 234 277 344 421
#     4  11  25  41  68 104 137 179 231 289 339 407
#     4  11  22  47  72  97 138 191 220 290 348 402
#     4   9  19  40  63  98 137 180 222 280 335 404
#
# _framework density 21.760339999999999
#
# number of rings (size 3 to 8) (size 9 to 14) (size 15 to 20)
#    0.000    1.500    3.750    1.875    5.250    2.500 
#    0.000    1.875    0.000    0.000    0.000    0.000 
#    0.000    0.000    0.000    0.000    0.000    0.000 
#
# Total GULP energy -198322.267965 kJ/mol
# GULP energy per Si atom -12395.141748 kJ/mol
# Density = 2.171081 g / cm^3
# Si number density = 21.760340 Si / 1000 Ang^3
#
#
#
# Elastic Constant Matrix: (Units=GPa)
#
#
# Indices 1 2 3 4 5 6 
#
# 1 85.7206 50.8862 40.0876 4.6305 8.4193 2.6241
# 2 50.8862 102.9326 47.2786 18.4274 6.3739 -22.2701
# 3 40.0876 47.2786 96.3951 0.6272 5.9353 0.3410
# 4 4.6305 18.4274 0.6272 45.2482 -1.8812 -6.9219
# 5 8.4193 6.3739 5.9353 -1.8812 21.2432 1.5831
# 6 2.6241 -22.2701 0.3410 -6.9219 1.5831 33.5686
#
#
#
# Elastic Compliance Matrix: (Units=1/GPa)
#
#
# Indices 1 2 3 4 5 6 
#
# 1 0.019420 -0.009788 -0.003052 0.000731 -0.003271 -0.007676
# 2 -0.009788 0.021772 -0.006473 -0.005701 -0.002409 0.014213
# 3 -0.003052 -0.006473 0.014850 0.002149 -0.000528 -0.003738
# 4 0.000731 -0.005701 0.002149 0.024603 0.002919 0.001074
# 5 -0.003271 -0.002409 -0.000528 0.002919 0.049728 -0.003080
# 6 -0.007676 0.014213 -0.003738 0.001074 -0.003080 0.040223
#
#
# Mechanical properties :
#
#
# Convention : Reuss Voigt Hill
#
# Bulk Modulus (GPa) = 57.41647 62.39479 59.90563
# Shear Modulus (GPa) = 23.25293 29.79840 26.52567
#
# Velocity S-wave (km/s) = 3.27248 3.70454 3.49519
# Velocity P-wave (km/s) = 6.38137 6.85814 6.62405
#
# Compressibility (1/GPa) = 0.01741660
#
# Stress axis : x y z
#
# Youngs Moduli (GPa) = 51.49322 45.93124 67.34214
#
# Poissons Ratio (x) = 0.44957 0.20551
# Poissons Ratio (y) = 0.50401 0.43589
# Poissons Ratio (z) = 0.15715 0.29730
#
# Static dielectric constant tensor:
#      x y z
#    x 3.861490 -0.292550 0.165400 
#    y -0.292550 3.976170 0.114910 
#    z 0.165400 0.114910 4.345970 
# 
# 
# High freq. dielectric constant tensor:
#      x y z
#    x 1.832610 -0.022060 0.008520 
#    y -0.022060 1.852680 0.001000 
#    z 0.008520 0.001000 1.867760 
# 
# From -- ./inp_files/355268.got.cif
#   From: 2010.06.25/outbox.cif.g09.slc.cpg/sg2_178_cif.got.tgz:355268.got - 2010.06.27 13:26:56.
