data_PCOD8012254
_publ_section_title
;
Structure prediction by ZEFSAII (Michael W. Deem and Ramdas Pophale) SiO2 
 PCOD8012254
Probable space group: P -1
;
_chemical_formula_sum "Si O2"
_cell_formula_units_Z 16
_cell_length_a 12.054488
_cell_length_b 18.379436
_cell_length_c 9.351791
_cell_angle_alpha 47.183970
_cell_angle_beta 121.686188
_cell_angle_gamma 148.725405
_cell_volume 780.551557
_symmetry_space_group_name_H-M "P -1"
_symmetry_group_IT_number 2
_symmetry_cell_setting 'triclinic'
loop_
_space_group_symop_operation_xyz
x,y,z
-x,-y,-z
loop_
_atom_site_type_symbol
_atom_site_label
_atom_site_fract_x
_atom_site_fract_y
_atom_site_fract_z
Si Si1 0.743247 0.861057 0.488225
Si Si2 0.323838 0.323839 0.543304
Si Si3 0.772725 0.902676 0.012120
Si Si4 0.307950 0.994861 0.963299
Si Si5 0.202983 0.760745 0.020540
Si Si6 0.908093 0.204897 0.392293
Si Si7 0.070815 0.574129 0.788539
Si Si8 0.558249 0.833403 0.684553
O O1 0.639771 0.698636 0.562153
O O2 0.705576 0.936282 0.268226
O O3 0.613724 0.800896 0.627092
O O4 0.000000 0.000000 0.500000
O O5 0.500000 0.500000 0.500000
O O6 0.339442 0.235282 0.765863
O O7 0.091671 0.235012 0.503184
O O8 0.798166 0.026950 0.934729
O O9 0.633457 0.815240 0.893505
O O10 0.000000 0.000000 0.000000
O O11 0.549949 0.113322 0.013796
O O12 0.183009 0.818789 0.068649
O O13 0.085754 0.584570 0.208614
O O14 0.091229 0.750408 0.826531
O O15 0.952570 0.321187 0.379072
O O16 0.678401 0.012634 0.521260
O O17 0.307382 0.693555 0.731451
O O18 0.000000 0.500000 0.000000
#
# Coordination Sequence:
#
# PCOD8012254 Si02
#       8
#     2   2   2   2   2   2   2   2
#     4  11  21  44  70  95 128 175 218 265 321 405
#     4  11  25  41  69  97 133 172 214 272 332 385
#     4  11  22  40  62  96 126 163 214 264 322 391
#     4  10  21  39  68  88 129 167 214 264 331 382
#     4  10  21  41  64  92 122 174 215 266 325 383
#     4  11  21  41  66  94 129 173 221 258 336 394
#     4  10  24  38  63  92 129 166 215 275 320 379
#     4  12  22  42  67  95 127 173 222 268 325 397
#
# _framework density 20.498324
#
# number of rings (size 3 to 8) (size 9 to 14) (size 15 to 20)
#    0.000    1.250    3.750    2.625    7.000    0.000 
#    2.250    1.250    0.000    0.000    0.000    0.000 
#    0.000    0.000    0.000    0.000    0.000    0.000 
#
# Total GULP energy -198243.569768 kJ/mol
# GULP energy per Si atom -12390.223111 kJ/mol
# Density = 2.045167 g / cm^3
# Si number density = 20.498324 Si / 1000 Ang^3
#
#
#
# Elastic Constant Matrix: (Units=GPa)
#
#
# Indices 1 2 3 4 5 6 
#
# 1 167.1835 67.4725 35.2270 -11.4392 -11.5548 -36.0727
# 2 67.4725 130.6847 26.4988 -19.6299 1.3209 -39.6312
# 3 35.2270 26.4988 53.0968 4.8750 -3.6998 -12.9512
# 4 -11.4392 -19.6299 4.8750 38.5453 -0.5460 6.8700
# 5 -11.5548 1.3209 -3.6998 -0.5460 32.5201 -3.6436
# 6 -36.0727 -39.6312 -12.9512 6.8700 -3.6436 39.0882
#
#
#
# Elastic Compliance Matrix: (Units=1/GPa)
#
#
# Indices 1 2 3 4 5 6 
#
# 1 0.009042 -0.002326 -0.003486 0.001105 0.003485 0.004961
# 2 -0.002326 0.012954 -0.003188 0.004688 -0.000623 0.009049
# 3 -0.003486 -0.003188 0.024116 -0.006181 0.001844 0.002799
# 4 0.001105 0.004688 -0.006181 0.029708 -0.000172 -0.001512
# 5 0.003485 -0.000623 0.001844 -0.000172 0.032926 0.006295
# 6 0.004961 0.009049 0.002799 -0.001512 0.006295 0.041117
#
#
# Mechanical properties :
#
#
# Convention : Reuss Voigt Hill
#
# Bulk Modulus (GPa) = 35.57347 67.70686 51.64016
# Shear Modulus (GPa) = 28.21116 36.81516 32.51316
#
# Velocity S-wave (km/s) = 3.71383 4.24253 3.98695
# Velocity P-wave (km/s) = 5.98181 7.55651 6.81480
#
# Compressibility (1/GPa) = 0.02811084
#
# Stress axis : x y z
#
# Youngs Moduli (GPa) = 110.59787 77.19512 41.46540
#
# Poissons Ratio (x) = 0.17956 0.14456
# Poissons Ratio (y) = 0.25725 0.13221
# Poissons Ratio (z) = 0.38558 0.24613
#
# Static dielectric constant tensor:
#      x y z
#    x 4.069250 -0.394000 0.078540 
#    y -0.394000 3.988880 0.069980 
#    z 0.078540 0.069980 3.518380 
# 
# 
# High freq. dielectric constant tensor:
#      x y z
#    x 1.822500 -0.014050 0.015860 
#    y -0.014050 1.804340 0.010990 
#    z 0.015860 0.010990 1.781070 
# 
# From -- ./inp_files/279110.got.cif
#   From: 2010.06.25/outbox.cif.g09.slc.cpg/sg2_140_cif.got.tgz:279110.got - 2010.06.27 13:26:56.
