data_PCOD8012156
_publ_section_title
;
Structure prediction by ZEFSAII (Michael W. Deem and Ramdas Pophale) SiO2 
 PCOD8012156
Probable space group: P -1
;
_chemical_formula_sum "Si O2"
_cell_formula_units_Z 14
_cell_length_a 22.313319
_cell_length_b 11.111005
_cell_length_c 13.943280
_cell_angle_alpha 150.129398
_cell_angle_beta 24.119841
_cell_angle_gamma 149.418546
_cell_volume 661.307447
_symmetry_space_group_name_H-M "P -1"
_symmetry_group_IT_number 2
_symmetry_cell_setting 'triclinic'
loop_
_space_group_symop_operation_xyz
x,y,z
-x,-y,-z
loop_
_atom_site_type_symbol
_atom_site_label
_atom_site_fract_x
_atom_site_fract_y
_atom_site_fract_z
Si Si1 0.089825 0.816274 0.430841
Si Si2 0.810404 0.631097 0.986053
Si Si3 0.029188 0.097550 0.886966
Si Si4 0.726275 0.802768 0.725430
Si Si5 0.472199 0.352275 0.713267
Si Si6 0.536578 0.868475 0.227730
Si Si7 0.179427 0.565862 0.546947
O O1 0.195559 0.663117 0.216828
O O2 0.919267 0.604248 0.514146
O O3 0.084693 0.048166 0.666502
O O4 0.162923 0.940513 0.309108
O O5 0.823942 0.718141 0.138724
O O6 0.660763 0.663243 0.178756
O O7 0.965034 0.818424 0.837711
O O8 0.894774 0.224668 0.163569
O O9 0.591449 0.643551 0.738714
O O10 0.824018 0.621430 0.488445
O O11 0.651605 0.879803 0.981350
O O12 0.411732 0.272384 0.855447
O O13 0.562149 0.161569 0.418534
O O14 0.356433 0.712962 0.355470
#
# Coordination Sequence:
#
# PCOD8012156 Si02
#       7
#     2   2   2   2   2   2   2
#     4  11  25  40  63  92 131 165 193 251 318 366
#     4  10  22  41  62  93 117 163 213 254 293 361
#     4  10  22  40  64  91 121 158 217 252 297 355
#     4  11  25  40  60  99 129 159 198 248 320 376
#     4  10  21  39  67  89 122 162 207 255 305 350
#     4  10  22  40  66  95 120 157 212 256 300 361
#     4  10  21  40  66  93 120 159 211 255 297 358
#
# _framework density 21.170183999999999
#
# number of rings (size 3 to 8) (size 9 to 14) (size 15 to 20)
#    0.000    1.714    1.429    2.571    4.000    4.571 
#    0.000    1.429    0.000    0.000    0.000    0.000 
#    0.000    0.000    0.000    0.000    0.000    0.000 
#
# Total GULP energy -173603.772748 kJ/mol
# GULP energy per Si atom -12400.269482 kJ/mol
# Density = 2.112200 g / cm^3
# Si number density = 21.170184 Si / 1000 Ang^3
#
#
#
# Elastic Constant Matrix: (Units=GPa)
#
#
# Indices 1 2 3 4 5 6 
#
# 1 103.0478 27.2865 63.6245 1.0141 -1.4815 2.3219
# 2 27.2865 60.3179 37.0242 6.6106 13.8114 -9.1640
# 3 63.6245 37.0242 107.4780 14.2754 14.3673 -9.8098
# 4 1.0141 6.6106 14.2754 19.3804 0.2343 2.1768
# 5 -1.4815 13.8114 14.3673 0.2343 35.5160 5.0870
# 6 2.3219 -9.1640 -9.8098 2.1768 5.0870 32.3901
#
#
#
# Elastic Compliance Matrix: (Units=1/GPa)
#
#
# Indices 1 2 3 4 5 6 
#
# 1 0.019743 -0.005600 -0.013474 0.011740 0.009721 -0.009396
# 2 -0.005600 0.024940 -0.002072 -0.007569 -0.010327 0.008961
# 3 -0.013474 -0.002072 0.022374 -0.016050 -0.010108 0.009822
# 4 0.011740 -0.007569 -0.016050 0.066837 0.011511 -0.014144
# 5 0.009721 -0.010327 -0.010108 0.011511 0.038525 -0.013504
# 6 -0.009396 0.008961 0.009822 -0.014144 -0.013504 0.040129
#
#
# Mechanical properties :
#
#
# Convention : Reuss Voigt Hill
#
# Bulk Modulus (GPa) = 40.38354 58.52379 49.45367
# Shear Modulus (GPa) = 19.00447 26.98453 22.99450
#
# Velocity S-wave (km/s) = 2.99941 3.57409 3.29929
# Velocity P-wave (km/s) = 5.57785 6.68855 6.15829
#
# Compressibility (1/GPa) = 0.02476256
#
# Stress axis : x y z
#
# Youngs Moduli (GPa) = 50.65213 40.09624 44.69467
#
# Poissons Ratio (x) = 0.22455 0.60223
# Poissons Ratio (y) = 0.28367 0.09262
# Poissons Ratio (z) = 0.68250 0.08309
#
# Static dielectric constant tensor:
#      x y z
#    x 3.873300 0.133130 -0.099260 
#    y 0.133130 3.863200 0.271000 
#    z -0.099260 0.271000 3.638620 
# 
# 
# High freq. dielectric constant tensor:
#      x y z
#    x 1.831450 0.012490 -0.009380 
#    y 0.012490 1.825540 0.026440 
#    z -0.009380 0.026440 1.816130 
# 
# From -- ./inp_files/345187.got.cif
#   From: 2010.06.25/outbox.cif.g09.slc.cpg/sg2_173_cif.got.tgz:345187.got - 2010.06.27 13:26:56.
