data_PCOD8012752
_publ_section_title
;
Structure prediction by ZEFSAII (Michael W. Deem and Ramdas Pophale) SiO2 
 PCOD8012752
Probable space group: P -1
;
_chemical_formula_sum "Si O2"
_cell_formula_units_Z 16
_cell_length_a 17.428371
_cell_length_b 9.614190
_cell_length_c 14.549016
_cell_angle_alpha 85.910663
_cell_angle_beta 149.784164
_cell_angle_gamma 115.277686
_cell_volume 839.112325
_symmetry_space_group_name_H-M "P -1"
_symmetry_group_IT_number 2
_symmetry_cell_setting 'triclinic'
loop_
_space_group_symop_operation_xyz
x,y,z
-x,-y,-z
loop_
_atom_site_type_symbol
_atom_site_label
_atom_site_fract_x
_atom_site_fract_y
_atom_site_fract_z
Si Si1 0.052501 0.392319 0.916057
Si Si2 0.933040 0.630258 0.785599
Si Si3 0.548645 0.125512 0.131905
Si Si4 0.971432 0.602193 0.317011
Si Si5 0.859568 0.048489 0.859959
Si Si6 0.074285 0.751367 0.723406
Si Si7 0.575972 0.398412 0.563467
Si Si8 0.705135 0.530167 0.212734
O O1 0.098086 0.391985 0.856241
O O2 0.956263 0.480925 0.824234
O O3 0.889739 0.162317 0.794778
O O4 0.270450 0.539978 0.195813
O O5 0.682986 0.483537 0.569124
O O6 0.971572 0.709401 0.719279
O O7 0.089290 0.823924 0.004617
O O8 0.603732 0.317940 0.150935
O O9 0.761495 0.201706 0.402024
O O10 0.500000 0.000000 0.000000
O O11 0.324191 0.980099 0.968131
O O12 0.907096 0.398685 0.276380
O O13 0.823994 0.596373 0.233714
O O14 0.605191 0.841324 0.615976
O O15 0.000000 0.000000 0.000000
O O16 0.901854 0.711137 0.476989
O O17 0.500000 0.500000 0.500000
O O18 0.500000 0.500000 0.000000
#
# Coordination Sequence:
#
# PCOD8012752 Si02
#       8
#     2   2   2   2   2   2   2   2
#     4  10  23  39  59  94 119 152 209 255 292 356
#     4  10  23  39  61  93 119 150 209 258 292 356
#     4  11  19  40  69  82 118 169 206 244 297 360
#     4  10  21  40  63  89 124 159 206 249 302 358
#     4  11  21  40  61  86 119 158 199 240 305 364
#     4  10  21  41  64  90 120 161 209 246 302 361
#     4  11  21  39  63  81 124 165 190 247 312 357
#     4  11  23  39  58  94 128 159 194 254 306 358
#
# _framework density 19.067769999999999
#
# number of rings (size 3 to 8) (size 9 to 14) (size 15 to 20)
#    0.000    1.500    5.000    2.250    0.000    8.500 
#    2.250    0.000    0.000    0.000    0.000    0.000 
#    0.000    0.000    0.000    0.000    0.000    0.000 
#
# Total GULP energy -198307.911808 kJ/mol
# GULP energy per Si atom -12394.244488 kJ/mol
# Density = 1.902437 g / cm^3
# Si number density = 19.067770 Si / 1000 Ang^3
#
#
#
# Elastic Constant Matrix: (Units=GPa)
#
#
# Indices 1 2 3 4 5 6 
#
# 1 163.6296 55.6561 64.0749 -6.7076 11.3799 20.3888
# 2 55.6561 75.7660 27.1845 18.6667 9.0286 9.1099
# 3 64.0749 27.1845 95.5445 26.6455 24.0867 21.7301
# 4 -6.7076 18.6667 26.6455 37.8090 0.5980 4.5770
# 5 11.3799 9.0286 24.0867 0.5980 29.1203 0.3315
# 6 20.3888 9.1099 21.7301 4.5770 0.3315 25.8255
#
#
#
# Elastic Compliance Matrix: (Units=1/GPa)
#
#
# Indices 1 2 3 4 5 6 
#
# 1 0.016867 -0.013012 -0.016236 0.020553 0.010437 0.001158
# 2 -0.013012 0.026161 0.011787 -0.022770 -0.012255 -0.004681
# 3 -0.016236 0.011787 0.038244 -0.033115 -0.028066 -0.017290
# 4 0.020553 -0.022770 -0.033115 0.063294 0.025026 0.008131
# 5 0.010437 -0.012255 -0.028066 0.025026 0.056596 0.014536
# 6 0.001158 -0.004681 -0.017290 0.008131 0.014536 0.052378
#
#
# Mechanical properties :
#
#
# Convention : Reuss Voigt Hill
#
# Bulk Modulus (GPa) = 21.57498 69.86345 45.71921
# Shear Modulus (GPa) = 16.45214 31.08594 23.76904
#
# Velocity S-wave (km/s) = 2.94057 4.04206 3.53449
# Velocity P-wave (km/s) = 4.78213 7.64875 6.37857
#
# Compressibility (1/GPa) = 0.04634999
#
# Stress axis : x y z
#
# Youngs Moduli (GPa) = 59.28681 38.22544 26.14807
#
# Poissons Ratio (x) = 0.49737 0.42454
# Poissons Ratio (y) = 0.77142 -0.30820
# Poissons Ratio (z) = 0.96258 -0.45055
#
# Static dielectric constant tensor:
#      x y z
#    x 3.744550 0.115800 -0.039170 
#    y 0.115800 3.551230 0.208880 
#    z -0.039170 0.208880 3.716770 
# 
# 
# High freq. dielectric constant tensor:
#      x y z
#    x 1.751240 0.004340 0.001300 
#    y 0.004340 1.737670 0.011350 
#    z 0.001300 0.011350 1.745130 
# 
# From -- ./inp_files/537625.got.cif
#   From: 2010.06.25/outbox.cif.g09.slc.cpg/sg2_269_cif.got.tgz:537625.got - 2010.06.27 13:26:56.
