data_PCOD8012129
_publ_section_title
;
Structure prediction by ZEFSAII (Michael W. Deem and Ramdas Pophale) SiO2 
 PCOD8012129
Probable space group: P -1
;
_chemical_formula_sum "Si O2"
_cell_formula_units_Z 16
_cell_length_a 8.433608
_cell_length_b 22.707289
_cell_length_c 14.520743
_cell_angle_alpha 158.284501
_cell_angle_beta 47.855228
_cell_angle_gamma 129.084136
_cell_volume 762.615183
_symmetry_space_group_name_H-M "P -1"
_symmetry_group_IT_number 2
_symmetry_cell_setting 'triclinic'
loop_
_space_group_symop_operation_xyz
x,y,z
-x,-y,-z
loop_
_atom_site_type_symbol
_atom_site_label
_atom_site_fract_x
_atom_site_fract_y
_atom_site_fract_z
Si Si1 0.941262 0.288584 0.133923
Si Si2 0.282677 0.557645 0.387398
Si Si3 0.519972 0.665181 0.281690
Si Si4 0.483385 0.728650 0.833641
Si Si5 0.173375 0.976452 0.587610
Si Si6 0.496587 0.973809 0.622122
Si Si7 0.990923 0.638401 0.130996
Si Si8 0.631404 0.504097 0.314275
O O1 0.858929 0.338230 0.338602
O O2 0.759064 0.306943 0.155901
O O3 0.150587 0.394682 0.177018
O O4 0.987283 0.102224 0.850106
O O5 0.339730 0.664162 0.430423
O O6 0.514110 0.515403 0.278165
O O7 0.470393 0.798979 0.420521
O O8 0.758736 0.685685 0.256773
O O9 0.500000 0.500000 0.000000
O O10 0.643456 0.676734 0.612691
O O11 0.524271 0.613600 0.737028
O O12 0.526157 0.908857 0.110932
O O13 0.323498 0.010382 0.665500
O O14 0.087801 0.797078 0.369774
O O15 0.278464 0.000723 0.480860
O O16 0.136982 0.573860 0.897116
O O17 0.000000 0.500000 0.000000
#
# Coordination Sequence:
#
# PCOD8012129 Si02
#       8
#     2   2   2   2   2   2   2   2
#     4  10  22  40  69  93 122 169 209 255 311 371
#     4  10  22  43  62  93 131 164 208 254 313 374
#     4  12  26  41  63  95 129 164 207 262 313 368
#     4  10  21  39  66  98 121 160 212 261 302 365
#     4  11  24  42  65  91 125 168 209 256 312 374
#     4  11  24  42  65  92 128 163 209 263 310 365
#     4  12  24  42  65  93 127 167 208 249 317 377
#     4  10  21  40  64  93 125 164 204 255 309 366
#
# _framework density 20.980436000000001
#
# number of rings (size 3 to 8) (size 9 to 14) (size 15 to 20)
#    0.000    1.250    2.500    3.000    5.250    2.000 
#    2.250    2.500    0.000    0.000    0.000    0.000 
#    0.000    0.000    0.000    0.000    0.000    0.000 
#
# Total GULP energy -198386.712465 kJ/mol
# GULP energy per Si atom -12399.169529 kJ/mol
# Density = 2.093268 g / cm^3
# Si number density = 20.980436 Si / 1000 Ang^3
#
#
#
# Elastic Constant Matrix: (Units=GPa)
#
#
# Indices 1 2 3 4 5 6 
#
# 1 47.1508 23.7387 26.4968 -6.5708 3.8789 -5.2535
# 2 23.7387 97.7066 39.4822 7.5283 1.0022 -4.7872
# 3 26.4968 39.4822 149.5500 7.2046 5.9559 4.1732
# 4 -6.5708 7.5283 7.2046 31.9927 0.0711 -9.4354
# 5 3.8789 1.0022 5.9559 0.0711 37.8194 2.8955
# 6 -5.2535 -4.7872 4.1732 -9.4354 2.8955 30.2145
#
#
#
# Elastic Compliance Matrix: (Units=1/GPa)
#
#
# Indices 1 2 3 4 5 6 
#
# 1 0.029190 -0.005747 -0.004297 0.010799 -0.002829 0.008402
# 2 -0.005747 0.012808 -0.002215 -0.003657 0.000595 0.000137
# 3 -0.004297 -0.002215 0.008296 -0.003166 -0.000558 -0.003179
# 4 0.010799 -0.003657 -0.003166 0.039224 -0.001669 0.014144
# 5 -0.002829 0.000595 -0.000558 -0.001669 0.027070 -0.003436
# 6 0.008402 0.000137 -0.003179 0.014144 -0.003436 0.039765
#
#
# Mechanical properties :
#
#
# Convention : Reuss Voigt Hill
#
# Bulk Modulus (GPa) = 38.79297 52.64920 45.72109
# Shear Modulus (GPa) = 26.39042 33.65129 30.02086
#
# Velocity S-wave (km/s) = 3.55048 4.00926 3.78682
# Velocity P-wave (km/s) = 5.94458 6.82504 6.39997
#
# Compressibility (1/GPa) = 0.02577787
#
# Stress axis : x y z
#
# Youngs Moduli (GPa) = 34.25779 78.07425 120.53863
#
# Poissons Ratio (x) = 0.44872 0.51791
# Poissons Ratio (y) = 0.19689 0.26694
# Poissons Ratio (z) = 0.14719 0.17290
#
# Static dielectric constant tensor:
#      x y z
#    x 3.279040 -0.116610 -0.149330 
#    y -0.116610 4.021510 -0.289960 
#    z -0.149330 -0.289960 3.986310 
# 
# 
# High freq. dielectric constant tensor:
#      x y z
#    x 1.824560 -0.008620 0.000690 
#    y -0.008620 1.809050 -0.007450 
#    z 0.000690 -0.007450 1.834200 
# 
# From -- ./inp_files/508749.got.cif
#   From: 2010.06.25/outbox.cif.g09.slc.cpg/sg2_255_cif.got.tgz:508749.got - 2010.06.27 13:26:56.
