data_PCOD8012160
_publ_section_title
;
Structure prediction by ZEFSAII (Michael W. Deem and Ramdas Pophale) SiO2 
 PCOD8012160
Probable space group: P -1
;
_chemical_formula_sum "Si O2"
_cell_formula_units_Z 16
_cell_length_a 9.537232
_cell_length_b 8.655157
_cell_length_c 15.993936
_cell_angle_alpha 98.226827
_cell_angle_beta 60.919287
_cell_angle_gamma 55.842774
_cell_volume 781.004043
_symmetry_space_group_name_H-M "P -1"
_symmetry_group_IT_number 2
_symmetry_cell_setting 'triclinic'
loop_
_space_group_symop_operation_xyz
x,y,z
-x,-y,-z
loop_
_atom_site_type_symbol
_atom_site_label
_atom_site_fract_x
_atom_site_fract_y
_atom_site_fract_z
Si Si1 0.485382 0.369836 0.839490
Si Si2 0.274170 0.803347 0.411543
Si Si3 0.464104 0.617555 0.604157
Si Si4 0.059894 0.186326 0.004170
Si Si5 0.170064 0.641232 0.188723
Si Si6 0.970677 0.003508 0.144936
Si Si7 0.657535 0.032974 0.439213
Si Si8 0.637824 0.776333 0.998347
O O1 0.608961 0.214864 0.708411
O O2 0.615997 0.442173 0.825181
O O3 0.215678 0.594341 0.915377
O O4 0.519292 0.220311 0.893819
O O5 0.350008 0.570335 0.394292
O O6 0.363246 0.846789 0.463866
O O7 0.000000 0.000000 0.500000
O O8 0.500000 0.500000 0.500000
O O9 0.205611 0.772886 0.728848
O O10 0.467318 0.797987 0.592287
O O11 0.182602 0.263094 0.994196
O O12 0.111492 0.033075 0.054274
O O13 0.163612 0.025812 0.879444
O O14 0.222773 0.431309 0.123210
O O15 0.154773 0.773974 0.127254
O O16 0.929317 0.801492 0.323572
O O17 0.500000 0.000000 0.500000
O O18 0.500000 0.000000 0.000000
#
# Coordination Sequence:
#
# PCOD8012160 Si02
#       8
#     2   2   2   2   2   2   2   2
#     4  12  24  43  69  92 131 172 217 266 327 384
#     4  11  22  43  65  94 126 167 221 263 311 388
#     4   9  20  38  64  92 121 167 212 256 311 381
#     4  11  24  40  67  98 124 166 215 268 322 377
#     4  11  24  43  64  91 130 173 213 264 328 386
#     4  10  21  39  67  90 127 166 217 258 321 387
#     4  10  23  42  66  94 127 168 214 267 325 374
#     4  12  28  43  62  98 137 166 215 268 327 384
#
# _framework density 20.486450000000001
#
# number of rings (size 3 to 8) (size 9 to 14) (size 15 to 20)
#    0.000    1.250    3.750    1.500    5.250    1.000 
#    2.250    0.625    0.000    0.000    0.000    0.000 
#    0.000    0.000    0.000    0.000    0.000    0.000 
#
# Total GULP energy -198295.725059 kJ/mol
# GULP energy per Si atom -12393.482816 kJ/mol
# Density = 2.043982 g / cm^3
# Si number density = 20.486450 Si / 1000 Ang^3
#
#
#
# Elastic Constant Matrix: (Units=GPa)
#
#
# Indices 1 2 3 4 5 6 
#
# 1 115.4843 22.1776 36.1250 2.8897 -6.1879 8.3723
# 2 22.1776 120.5723 39.3700 5.0510 -8.8392 -0.9272
# 3 36.1250 39.3700 130.7649 -3.0923 10.7571 7.5083
# 4 2.8897 5.0510 -3.0923 34.5046 1.0838 0.9535
# 5 -6.1879 -8.8392 10.7571 1.0838 34.0518 0.8984
# 6 8.3723 -0.9272 7.5083 0.9535 0.8984 24.1853
#
#
#
# Elastic Compliance Matrix: (Units=1/GPa)
#
#
# Indices 1 2 3 4 5 6 
#
# 1 0.009979 -0.000784 -0.002595 -0.000958 0.002532 -0.002735
# 2 -0.000784 0.009804 -0.003149 -0.001802 0.003413 0.001569
# 3 -0.002595 -0.003149 0.009841 0.001759 -0.004396 -0.002184
# 4 -0.000958 -0.001802 0.001759 0.029587 -0.002103 -0.001372
# 5 0.002532 0.003413 -0.004396 -0.002103 0.032182 -0.000494
# 6 -0.002735 0.001569 -0.002184 -0.001372 -0.000494 0.043105
#
#
# Mechanical properties :
#
#
# Convention : Reuss Voigt Hill
#
# Bulk Modulus (GPa) = 60.35127 62.46297 61.40712
# Shear Modulus (GPa) = 32.66364 36.49157 34.57761
#
# Velocity S-wave (km/s) = 3.99733 4.22507 4.11278
# Velocity P-wave (km/s) = 7.12937 7.37277 7.25209
#
# Compressibility (1/GPa) = 0.01656966
#
# Stress axis : x y z
#
# Youngs Moduli (GPa) = 100.20706 102.00107 101.61813
#
# Poissons Ratio (x) = 0.07992 0.26369
# Poissons Ratio (y) = 0.07851 0.31997
# Poissons Ratio (z) = 0.26003 0.32117
#
# Static dielectric constant tensor:
#      x y z
#    x 3.580380 -0.012260 0.273200 
#    y -0.012260 4.123140 -0.202060 
#    z 0.273200 -0.202060 3.964740 
# 
# 
# High freq. dielectric constant tensor:
#      x y z
#    x 1.778660 -0.003750 0.015630 
#    y -0.003750 1.815120 -0.004670 
#    z 0.015630 -0.004670 1.813670 
# 
# From -- ./inp_files/205820.got.cif
#   From: 2010.06.25/outbox.cif.g09.slc.cpg/sg2_103_cif.got.tgz:205820.got - 2010.06.27 13:26:56.
