data_PCOD8012794
_publ_section_title
;
Structure prediction by ZEFSAII (Michael W. Deem and Ramdas Pophale) SiO2 
 PCOD8012794
Probable space group: P -1
;
_chemical_formula_sum "Si O2"
_cell_formula_units_Z 14
_cell_length_a 5.482307
_cell_length_b 12.274832
_cell_length_c 8.747452
_cell_angle_alpha 83.246562
_cell_angle_beta 94.266048
_cell_angle_gamma 80.112221
_cell_volume 573.189216
_symmetry_space_group_name_H-M "P -1"
_symmetry_group_IT_number 2
_symmetry_cell_setting 'triclinic'
loop_
_space_group_symop_operation_xyz
x,y,z
-x,-y,-z
loop_
_atom_site_type_symbol
_atom_site_label
_atom_site_fract_x
_atom_site_fract_y
_atom_site_fract_z
Si Si1 0.074299 0.569894 0.129753
Si Si2 0.638915 0.151300 0.337162
Si Si3 0.665891 0.958498 0.870144
Si Si4 0.951952 0.245141 0.109608
Si Si5 0.785671 0.154121 0.675876
Si Si6 0.243523 0.362069 0.336303
Si Si7 0.769109 0.709204 0.323332
O O1 0.266898 0.488252 0.261942
O O2 0.821293 0.621499 0.201112
O O3 0.000000 0.500000 0.000000
O O4 0.187893 0.673770 0.044549
O O5 0.478783 0.059443 0.292656
O O6 0.783970 0.111685 0.506523
O O7 0.498452 0.277410 0.337658
O O8 0.799870 0.159647 0.192143
O O9 0.817851 0.837227 0.945096
O O10 0.831951 0.049583 0.812420
O O11 0.500000 0.000000 0.000000
O O12 0.029229 0.322080 0.234207
O O13 0.516548 0.227417 0.697964
O O14 0.024284 0.211782 0.695014
O O15 0.168015 0.363800 0.508846
#
# Coordination Sequence:
#
# PCOD8012794 Si02
#       7
#     2   2   2   2   2   2   2
#     4  10  22  42  67  94 133 174 215 270 335 389
#     4  10  22  41  63  94 129 170 221 272 323 391
#     4  11  25  40  64  93 133 175 217 269 329 393
#     4  10  21  40  63  92 129 168 222 267 325 391
#     4  11  25  44  70  97 133 174 219 275 326 383
#     4   9  20  42  63  93 127 167 219 273 324 384
#     4  11  23  45  68 101 131 169 225 270 323 396
#
# _framework density 24.424742999999999
#
# number of rings (size 3 to 8) (size 9 to 14) (size 15 to 20)
#    0.000    1.714    1.429    1.714    4.000    1.714 
#    5.143    2.143    0.000    0.000    0.000    0.000 
#    0.000    0.000    0.000    0.000    0.000    0.000 
#
# Total GULP energy -173457.928715 kJ/mol
# GULP energy per Si atom -12389.852051 kJ/mol
# Density = 2.436915 g / cm^3
# Si number density = 24.424743 Si / 1000 Ang^3
#
#
#
# Elastic Constant Matrix: (Units=GPa)
#
#
# Indices 1 2 3 4 5 6 
#
# 1 63.8328 14.1037 10.2287 4.5124 -12.4377 5.2838
# 2 14.1037 105.9072 66.9237 -5.1092 -6.7835 -7.8817
# 3 10.2287 66.9237 133.1832 -9.2602 -23.0280 -1.6475
# 4 4.5124 -5.1092 -9.2602 55.8075 -2.2127 -7.3708
# 5 -12.4377 -6.7835 -23.0280 -2.2127 30.7818 0.3399
# 6 5.2838 -7.8817 -1.6475 -7.3708 0.3399 18.4419
#
#
#
# Elastic Compliance Matrix: (Units=1/GPa)
#
#
# Indices 1 2 3 4 5 6 
#
# 1 0.018533 -0.003582 0.001452 -0.002307 0.007706 -0.007775
# 2 -0.003582 0.015274 -0.007917 0.001193 -0.004000 0.007397
# 3 0.001452 -0.007917 0.012935 0.001347 0.008641 -0.002265
# 4 -0.002307 0.001193 0.001347 0.019711 0.001655 0.009138
# 5 0.007706 -0.004000 0.008641 0.001655 0.041338 -0.003246
# 6 -0.007775 0.007397 -0.002265 0.009138 -0.003246 0.063123
#
#
# Mechanical properties :
#
#
# Convention : Reuss Voigt Hill
#
# Bulk Modulus (GPa) = 37.52662 53.93728 45.73195
# Shear Modulus (GPa) = 25.01379 35.11737 30.06558
#
# Velocity S-wave (km/s) = 3.20365 3.79592 3.51229
# Velocity P-wave (km/s) = 5.39278 6.42985 5.93401
#
# Compressibility (1/GPa) = 0.02664775
#
# Stress axis : x y z
#
# Youngs Moduli (GPa) = 53.95868 65.47050 77.30992
#
# Poissons Ratio (x) = 0.23453 -0.11229
# Poissons Ratio (y) = 0.19329 0.61208
# Poissons Ratio (z) = -0.07837 0.51835
#
# Static dielectric constant tensor:
#      x y z
#    x 4.022300 -0.094790 -0.138650 
#    y -0.094790 4.691690 -0.179880 
#    z -0.138650 -0.179880 4.878410 
# 
# 
# High freq. dielectric constant tensor:
#      x y z
#    x 1.931300 -0.007110 -0.009110 
#    y -0.007110 1.980030 -0.000420 
#    z -0.009110 -0.000420 1.997290 
# 
# From -- ./inp_files/27016.got.cif
#   From: 2010.06.25/outbox.cif.g09.slc.cpg/sg2_14_cif.got.tgz:27016.got - 2010.06.27 13:26:56.
