data_PCOD8012105
_publ_section_title
;
Structure prediction by ZEFSAII (Michael W. Deem and Ramdas Pophale) SiO2 
 PCOD8012105
Probable space group: P -1
;
_chemical_formula_sum "Si O2"
_cell_formula_units_Z 16
_cell_length_a 8.539660
_cell_length_b 12.046540
_cell_length_c 29.109600
_cell_angle_alpha 32.201026
_cell_angle_beta 147.321466
_cell_angle_gamma 124.714343
_cell_volume 748.073016
_symmetry_space_group_name_H-M "P -1"
_symmetry_group_IT_number 2
_symmetry_cell_setting 'triclinic'
loop_
_space_group_symop_operation_xyz
x,y,z
-x,-y,-z
loop_
_atom_site_type_symbol
_atom_site_label
_atom_site_fract_x
_atom_site_fract_y
_atom_site_fract_z
Si Si1 0.370102 0.913000 0.065449
Si Si2 0.924671 0.880188 0.435642
Si Si3 0.221063 0.249584 0.165912
Si Si4 0.045257 0.046885 0.843325
Si Si5 0.399673 0.200779 0.330516
Si Si6 0.637858 0.547001 0.471757
Si Si7 0.809637 0.382901 0.805723
Si Si8 0.705344 0.229530 0.522078
O O1 0.358339 0.724055 0.163439
O O2 0.747429 0.856571 0.169030
O O3 0.238426 0.891226 0.990159
O O4 0.157371 0.179110 0.941892
O O5 0.887237 0.644207 0.511833
O O6 0.231229 0.831413 0.561689
O O7 0.985918 0.917342 0.384491
O O8 0.596525 0.121360 0.284357
O O9 0.242824 0.284920 0.212632
O O10 0.038516 0.098497 0.163781
O O11 0.000000 0.500000 0.000000
O O12 0.699710 0.255926 0.706051
O O13 0.143925 0.415227 0.225935
O O14 0.446488 0.941420 0.444478
O O15 0.500000 0.500000 0.500000
O O16 0.822752 0.307850 0.569734
O O17 0.558671 0.522328 0.653792
#
# Coordination Sequence:
#
# PCOD8012105 Si02
#       8
#     2   2   2   2   2   2   2   2
#     4  10  21  41  65  94 130 169 221 262 331 390
#     4  10  23  42  66  94 127 174 221 266 327 386
#     4  11  24  44  64  95 135 174 218 269 328 395
#     4  10  22  40  61  93 127 169 216 269 321 385
#     4  11  24  44  66  97 135 173 219 267 332 397
#     4  11  23  40  62  95 127 167 218 276 316 382
#     4  10  21  39  66  95 128 173 216 270 319 390
#     4  11  22  42  65  97 134 167 224 272 328 386
#
# _framework density 21.388287999999999
#
# number of rings (size 3 to 8) (size 9 to 14) (size 15 to 20)
#    0.000    1.500    1.250    4.500    3.500    2.000 
#    2.250    1.250    0.000    0.000    0.000    0.000 
#    0.000    0.000    0.000    0.000    0.000    0.000 
#
# Total GULP energy -198331.984667 kJ/mol
# GULP energy per Si atom -12395.749042 kJ/mol
# Density = 2.133961 g / cm^3
# Si number density = 21.388288 Si / 1000 Ang^3
#
#
#
# Elastic Constant Matrix: (Units=GPa)
#
#
# Indices 1 2 3 4 5 6 
#
# 1 87.9347 48.5447 18.0724 6.3814 -17.8328 -5.7399
# 2 48.5447 139.3083 39.7005 5.5827 -7.0940 -3.4579
# 3 18.0724 39.7005 66.4736 -6.0176 -13.2295 1.9797
# 4 6.3814 5.5827 -6.0176 32.5419 -0.7108 0.7562
# 5 -17.8328 -7.0940 -13.2295 -0.7108 36.4172 -3.2450
# 6 -5.7399 -3.4579 1.9797 0.7562 -3.2450 46.5675
#
#
#
# Elastic Compliance Matrix: (Units=1/GPa)
#
#
# Indices 1 2 3 4 5 6 
#
# 1 0.015849 -0.004964 -0.000243 -0.002201 0.006851 0.002108
# 2 -0.004964 0.010451 -0.005555 -0.001906 -0.002427 0.000262
# 3 -0.000243 -0.005555 0.020114 0.004876 0.006117 -0.000950
# 4 -0.002201 -0.001906 0.004876 0.032434 0.000859 -0.001087
# 5 0.006851 -0.002427 0.006117 0.000859 0.032819 0.002677
# 6 0.002108 0.000262 -0.000950 -0.001087 0.002677 0.021998
#
#
# Mechanical properties :
#
#
# Convention : Reuss Voigt Hill
#
# Bulk Modulus (GPa) = 40.17727 56.26133 48.21930
# Shear Modulus (GPa) = 30.58368 35.59859 33.09114
#
# Velocity S-wave (km/s) = 3.78554 4.08413 3.93766
# Velocity P-wave (km/s) = 6.15894 6.97151 6.57779
#
# Compressibility (1/GPa) = 0.02488970
#
# Stress axis : x y z
#
# Youngs Moduli (GPa) = 63.09467 95.68730 49.71587
#
# Poissons Ratio (x) = 0.47503 0.01206
# Poissons Ratio (y) = 0.31323 0.27618
# Poissons Ratio (z) = 0.01531 0.53156
#
# Static dielectric constant tensor:
#      x y z
#    x 3.550440 0.182500 -1.322120 
#    y 0.182500 4.037540 0.322310 
#    z -1.322120 0.322310 0.759190 
# 
# 
# High freq. dielectric constant tensor:
#      x y z
#    x 1.846250 -0.011590 -0.004530 
#    y -0.011590 1.846870 -0.004390 
#    z -0.004530 -0.004390 1.834930 
# 
# From -- ./inp_files/622497.got.cif
#   From: 2010.06.25/outbox.cif.g09.slc.cpg/sg2_312_cif.got.tgz:622497.got - 2010.06.27 13:26:56.
