data_PCOD8012204
_publ_section_title
;
Structure prediction by ZEFSAII (Michael W. Deem and Ramdas Pophale) SiO2 
 PCOD8012204
Probable space group: P -1
;
_chemical_formula_sum "Si O2"
_cell_formula_units_Z 14
_cell_length_a 12.073000
_cell_length_b 21.647335
_cell_length_c 20.846850
_cell_angle_alpha 160.240141
_cell_angle_beta 20.951130
_cell_angle_gamma 148.663474
_cell_volume 644.655514
_symmetry_space_group_name_H-M "P -1"
_symmetry_group_IT_number 2
_symmetry_cell_setting 'triclinic'
loop_
_space_group_symop_operation_xyz
x,y,z
-x,-y,-z
loop_
_atom_site_type_symbol
_atom_site_label
_atom_site_fract_x
_atom_site_fract_y
_atom_site_fract_z
Si Si1 0.095205 0.979638 0.787966
Si Si2 0.787510 0.793768 0.276775
Si Si3 0.871728 0.951569 0.741099
Si Si4 0.032442 0.709797 0.191253
Si Si5 0.152603 0.345202 0.179961
Si Si6 0.871541 0.364578 0.795719
Si Si7 0.741748 0.724595 0.800724
O O1 0.432542 0.860047 0.509903
O O2 0.066302 0.963099 0.711557
O O3 0.815928 0.904082 0.900153
O O4 0.057669 0.196089 0.037253
O O5 0.785424 0.827620 0.389001
O O6 0.923979 0.575895 0.974699
O O7 0.024482 0.907886 0.228194
O O8 0.962745 0.740068 0.458538
O O9 0.500000 0.000000 0.000000
O O10 0.979116 0.759539 0.343962
O O11 0.371543 0.736754 0.010652
O O12 0.000000 0.500000 0.000000
O O13 0.124634 0.277451 0.201578
O O14 0.909832 0.539770 0.490631
O O15 0.499668 0.373289 0.003297
#
# Coordination Sequence:
#
# PCOD8012204 Si02
#       7
#     2   2   2   2   2   2   2
#     4  12  24  41  66  96 128 170 215 258 310 381
#     4  11  23  43  68  95 126 168 213 262 321 375
#     4  12  28  45  62  93 129 171 221 257 310 385
#     4   9  21  41  68  96 130 164 206 262 322 377
#     4  10  21  39  67  96 130 161 209 265 314 375
#     4  10  22  44  67  92 129 170 207 265 321 369
#     4  10  21  41  64  98 129 164 209 258 319 376
#
# _framework density 21.717025
#
# number of rings (size 3 to 8) (size 9 to 14) (size 15 to 20)
#    0.000    1.429    2.857    1.714    2.000    5.143 
#    2.571    0.000    0.000    0.000    0.000    0.000 
#    0.000    0.000    0.000    0.000    0.000    0.000 
#
# Total GULP energy -173604.087883 kJ/mol
# GULP energy per Si atom -12400.291992 kJ/mol
# Density = 2.166760 g / cm^3
# Si number density = 21.717025 Si / 1000 Ang^3
#
#
#
# Elastic Constant Matrix: (Units=GPa)
#
#
# Indices 1 2 3 4 5 6 
#
# 1 117.1052 -2.6571 30.6219 -3.2026 -7.4327 15.1324
# 2 -2.6571 87.9488 -7.6246 1.1201 -4.0044 5.8924
# 3 30.6219 -7.6246 70.4528 3.1946 9.4541 10.9814
# 4 -3.2026 1.1201 3.1946 25.1625 3.0586 5.5741
# 5 -7.4327 -4.0044 9.4541 3.0586 35.5265 3.8500
# 6 15.1324 5.8924 10.9814 5.5741 3.8500 26.2234
#
#
#
# Elastic Compliance Matrix: (Units=1/GPa)
#
#
# Indices 1 2 3 4 5 6 
#
# 1 0.010735 0.000460 -0.004380 0.002675 0.003840 -0.005596
# 2 0.000460 0.011829 0.001471 0.000001 0.001445 -0.003752
# 3 -0.004380 0.001471 0.017624 -0.001342 -0.004872 -0.004182
# 4 0.002675 0.000001 -0.001342 0.042628 -0.001692 -0.009795
# 5 0.003840 0.001445 -0.004872 -0.001692 0.031066 -0.004702
# 6 -0.005596 -0.003752 -0.004182 -0.009795 -0.004702 0.046730
#
#
# Mechanical properties :
#
#
# Convention : Reuss Voigt Hill
#
# Bulk Modulus (GPa) = 28.33731 35.13190 31.73460
# Shear Modulus (GPa) = 28.20517 34.39359 31.29938
#
# Velocity S-wave (km/s) = 3.60774 3.98391 3.80048
# Velocity P-wave (km/s) = 5.51644 6.11345 5.82260
#
# Compressibility (1/GPa) = 0.03528917
#
# Stress axis : x y z
#
# Youngs Moduli (GPa) = 93.15125 84.53938 56.74230
#
# Poissons Ratio (x) = -0.03891 0.24856
# Poissons Ratio (y) = -0.04287 -0.08347
# Poissons Ratio (z) = 0.40805 -0.12436
#
# Static dielectric constant tensor:
#      x y z
#    x 4.388860 -0.005530 0.058570 
#    y -0.005530 3.997410 0.077570 
#    z 0.058570 0.077570 3.771990 
# 
# 
# High freq. dielectric constant tensor:
#      x y z
#    x 1.859570 0.007870 0.001970 
#    y 0.007870 1.866880 0.004640 
#    z 0.001970 0.004640 1.841120 
# 
# From -- ./inp_files/183830.got.cif
#   From: 2010.06.25/outbox.cif.g09.slc.cpg/sg2_92_cif.got.tgz:183830.got - 2010.06.27 13:26:56.
