data_PCOD8012391
_publ_section_title
;
Structure prediction by ZEFSAII (Michael W. Deem and Ramdas Pophale) SiO2 
 PCOD8012391
Probable space group: P -1
;
_chemical_formula_sum "Si O2"
_cell_formula_units_Z 12
_cell_length_a 14.019932
_cell_length_b 8.434446
_cell_length_c 14.662127
_cell_angle_alpha 80.713760
_cell_angle_beta 160.104900
_cell_angle_gamma 99.053593
_cell_volume 582.197254
_symmetry_space_group_name_H-M "P -1"
_symmetry_group_IT_number 2
_symmetry_cell_setting 'triclinic'
loop_
_space_group_symop_operation_xyz
x,y,z
-x,-y,-z
loop_
_atom_site_type_symbol
_atom_site_label
_atom_site_fract_x
_atom_site_fract_y
_atom_site_fract_z
Si Si1 0.306207 0.047783 0.239871
Si Si2 0.889312 0.106521 0.093364
Si Si3 0.016588 0.541591 0.904948
Si Si4 0.129218 0.841149 0.438702
Si Si5 0.443581 0.622622 0.615673
Si Si6 0.431886 0.042568 0.037239
O O1 0.351488 0.236800 0.249772
O O2 0.500000 0.000000 0.500000
O O3 0.337310 0.957136 0.179408
O O4 0.000000 0.000000 0.000000
O O5 0.705261 0.115672 0.020755
O O6 0.041906 0.271233 0.185295
O O7 0.131141 0.971798 0.343460
O O8 0.776380 0.434884 0.652186
O O9 0.328323 0.513994 0.145847
O O10 0.000000 0.500000 0.000000
O O11 0.268757 0.678073 0.542249
O O12 0.287360 0.900974 0.665476
O O13 0.803497 0.816653 0.179456
O O14 0.500000 0.000000 0.000000
#
# Coordination Sequence:
#
# PCOD8012391 Si02
#       6
#     2   2   2   2   2   2
#     4  12  23  37  61  87 120 167 218 257 298 363
#     4  10  24  39  65  91 128 161 220 255 313 371
#     4  12  26  39  58  91 134 172 209 254 313 371
#     4  10  21  40  67  91 120 162 214 258 318 371
#     4  12  23  41  59  88 127 170 203 261 312 366
#     4  10  21  39  71  97 118 151 215 275 318 370
#
# _framework density 20.611571000000001
#
# number of rings (size 3 to 8) (size 9 to 14) (size 15 to 20)
#    1.000    0.000    1.667    7.000    2.333    0.000 
#    0.000    0.000    0.000    6.000    0.000    0.000 
#    0.000    0.000    0.000    0.000    0.000    0.000 
#
# Total GULP energy -148662.298862 kJ/mol
# GULP energy per Si atom -12388.524905 kJ/mol
# Density = 2.056466 g / cm^3
# Si number density = 20.611571 Si / 1000 Ang^3
#
#
#
# Elastic Constant Matrix: (Units=GPa)
#
#
# Indices 1 2 3 4 5 6 
#
# 1 110.0122 30.8859 36.1908 9.8198 -14.6514 -9.0453
# 2 30.8859 72.8525 27.9245 13.3185 -7.8830 -12.6689
# 3 36.1908 27.9245 146.7055 14.6424 -7.6460 -17.0214
# 4 9.8198 13.3185 14.6424 39.7805 -11.9728 4.7296
# 5 -14.6514 -7.8830 -7.6460 -11.9728 36.1460 1.7125
# 6 -9.0453 -12.6689 -17.0214 4.7296 1.7125 23.9951
#
#
#
# Elastic Compliance Matrix: (Units=1/GPa)
#
#
# Indices 1 2 3 4 5 6 
#
# 1 0.011196 -0.003546 -0.001818 0.000001 0.003342 0.000820
# 2 -0.003546 0.018204 -0.000989 -0.005909 -0.000048 0.008741
# 3 -0.001818 -0.000989 0.008358 -0.003071 -0.000456 0.005359
# 4 0.000001 -0.005909 -0.003071 0.032559 0.009433 -0.012389
# 5 0.003342 -0.000048 -0.000456 0.009433 0.032192 -0.003246
# 6 0.000820 0.008741 0.005359 -0.012389 -0.003246 0.053075
#
#
# Mechanical properties :
#
#
# Convention : Reuss Voigt Hill
#
# Bulk Modulus (GPa) = 39.91581 57.73033 48.82307
# Shear Modulus (GPa) = 28.30657 35.62225 31.96441
#
# Velocity S-wave (km/s) = 3.70987 4.16175 3.94229
# Velocity P-wave (km/s) = 6.14481 7.15284 6.66790
#
# Compressibility (1/GPa) = 0.02505273
#
# Stress axis : x y z
#
# Youngs Moduli (GPa) = 89.31972 54.93374 119.65259
#
# Poissons Ratio (x) = 0.19477 0.21750
# Poissons Ratio (y) = 0.31669 0.11831
# Poissons Ratio (z) = 0.16236 0.05432
#
# Static dielectric constant tensor:
#      x y z
#    x 3.733240 -0.071230 -0.131520 
#    y -0.071230 4.059790 -0.475510 
#    z -0.131520 -0.475510 4.422810 
# 
# 
# High freq. dielectric constant tensor:
#      x y z
#    x 1.791930 -0.019830 0.004440 
#    y -0.019830 1.772850 0.005560 
#    z 0.004440 0.005560 1.837240 
# 
# From -- ./inp_files/528680.got.cif
#   From: 2010.06.25/outbox.cif.g09.slc.cpg/sg2_265_cif.got.tgz:528680.got - 2010.06.27 13:26:56.
