data_PCOD8012604
_publ_section_title
;
Structure prediction by ZEFSAII (Michael W. Deem and Ramdas Pophale) SiO2 
 PCOD8012604
Probable space group: P -1
;
_chemical_formula_sum "Si O2"
_cell_formula_units_Z 16
_cell_length_a 4.919365
_cell_length_b 13.737596
_cell_length_c 9.804518
_cell_angle_alpha 93.969846
_cell_angle_beta 97.303547
_cell_angle_gamma 104.922052
_cell_volume 631.448440
_symmetry_space_group_name_H-M "P -1"
_symmetry_group_IT_number 2
_symmetry_cell_setting 'triclinic'
loop_
_space_group_symop_operation_xyz
x,y,z
-x,-y,-z
loop_
_atom_site_type_symbol
_atom_site_label
_atom_site_fract_x
_atom_site_fract_y
_atom_site_fract_z
Si Si1 0.413263 0.373125 0.287879
Si Si2 0.292352 0.224595 0.042043
Si Si3 0.755128 0.074688 0.365569
Si Si4 0.288044 0.894179 0.944397
Si Si5 0.359342 0.134334 0.547331
Si Si6 0.792324 0.572386 0.984458
Si Si7 0.013054 0.468099 0.730721
Si Si8 0.602885 0.642905 0.400954
O O1 0.359440 0.261958 0.207318
O O2 0.747933 0.430830 0.294589
O O3 0.310645 0.361504 0.435087
O O4 0.193863 0.424630 0.185419
O O5 0.566619 0.192602 0.003180
O O6 0.017382 0.126793 0.003688
O O7 0.230562 0.316189 0.960148
O O8 0.774444 0.114585 0.219201
O O9 0.577272 0.138201 0.440203
O O10 0.054032 0.102271 0.458942
O O11 0.615393 0.951933 0.349575
O O12 0.500000 0.000000 0.000000
O O13 0.425485 0.245726 0.630743
O O14 0.021737 0.542869 0.101406
O O15 0.500000 0.500000 0.000000
O O16 0.149488 0.378701 0.678620
O O17 0.695791 0.444886 0.642919
#
# Coordination Sequence:
#
# PCOD8012604 Si02
#       8
#     2   2   2   2   2   2   2   2
#     4   9  21  44  64  92 124 173 215 252 316 391
#     4  10  24  41  68  88 123 175 218 253 321 394
#     4  10  21  40  62  85 123 160 216 248 321 375
#     4  12  24  40  62  96 127 161 209 274 316 373
#     4  10  22  39  62  88 118 170 202 262 310 393
#     4   8  20  46  64  94 126 174 217 264 317 396
#     4  11  24  40  61  95 131 163 203 274 319 371
#     4  12  23  38  64  96 128 159 213 265 324 369
#
# _framework density 25.338567000000001
#
# number of rings (size 3 to 8) (size 9 to 14) (size 15 to 20)
#    0.750    1.000    0.000    4.125    0.000    5.000 
#    0.000    2.500    0.000    0.000    0.000    0.000 
#    0.000    0.000    0.000    0.000    0.000    0.000 
#
# Total GULP energy -198270.506100 kJ/mol
# GULP energy per Si atom -12391.906631 kJ/mol
# Density = 2.528089 g / cm^3
# Si number density = 25.338567 Si / 1000 Ang^3
#
#
#
# Elastic Constant Matrix: (Units=GPa)
#
#
# Indices 1 2 3 4 5 6 
#
# 1 103.1917 -6.4909 25.9207 -7.5470 4.6781 -6.2049
# 2 -6.4909 96.4384 0.3795 7.4158 5.5125 -0.7415
# 3 25.9207 0.3795 72.7860 -0.7804 0.5429 -5.4332
# 4 -7.5470 7.4158 -0.7804 37.4712 -0.8091 0.1560
# 5 4.6781 5.5125 0.5429 -0.8091 38.1638 -0.3983
# 6 -6.2049 -0.7415 -5.4332 0.1560 -0.3983 37.3085
#
#
#
# Elastic Compliance Matrix: (Units=1/GPa)
#
#
# Indices 1 2 3 4 5 6 
#
# 1 0.010964 0.000688 -0.003783 0.001959 -0.001335 0.001264
# 2 0.000688 0.010669 -0.000289 -0.002016 -0.001661 0.000275
# 3 -0.003783 -0.000289 0.015199 -0.000388 0.000298 0.001583
# 4 0.001959 -0.002016 -0.000388 0.027486 0.000640 0.000121
# 5 -0.001335 -0.001661 0.000298 0.000640 0.026616 0.000070
# 6 0.001264 0.000275 0.001583 0.000121 0.000070 0.027250
#
#
# Mechanical properties :
#
#
# Convention : Reuss Voigt Hill
#
# Bulk Modulus (GPa) = 33.26216 34.67052 33.96634
# Shear Modulus (GPa) = 37.04415 39.42916 38.23666
#
# Velocity S-wave (km/s) = 3.82772 3.94901 3.88884
# Velocity P-wave (km/s) = 5.71759 5.87414 5.79639
#
# Compressibility (1/GPa) = 0.03006419
#
# Stress axis : x y z
#
# Youngs Moduli (GPa) = 91.20770 93.73080 65.79217
#
# Poissons Ratio (x) = -0.06450 0.24888
# Poissons Ratio (y) = -0.06277 0.01904
# Poissons Ratio (z) = 0.34502 0.02712
#
# Static dielectric constant tensor:
#      x y z
#    x 4.647390 -0.263630 -0.001270 
#    y -0.263630 5.033290 -0.196190 
#    z -0.001270 -0.196190 5.303510 
# 
# 
# High freq. dielectric constant tensor:
#      x y z
#    x 2.024500 -0.019170 0.005890 
#    y -0.019170 2.028500 0.004170 
#    z 0.005890 0.004170 2.005430 
# 
# From -- ./inp_files/366948.got.cif
#   From: 2010.06.25/outbox.cif.g09.slc.cpg/sg2_184_cif.got.tgz:366948.got - 2010.06.27 13:26:56.
