data_PCOD8012141
_publ_section_title
;
Structure prediction by ZEFSAII (Michael W. Deem and Ramdas Pophale) SiO2 
 PCOD8012141
Probable space group: P -1
;
_chemical_formula_sum "Si O2"
_cell_formula_units_Z 12
_cell_length_a 9.113434
_cell_length_b 8.806334
_cell_length_c 7.075720
_cell_angle_alpha 116.513435
_cell_angle_beta 69.990561
_cell_angle_gamma 83.892326
_cell_volume 454.228099
_symmetry_space_group_name_H-M "P -1"
_symmetry_group_IT_number 2
_symmetry_cell_setting 'triclinic'
loop_
_space_group_symop_operation_xyz
x,y,z
-x,-y,-z
loop_
_atom_site_type_symbol
_atom_site_label
_atom_site_fract_x
_atom_site_fract_y
_atom_site_fract_z
Si Si1 0.424849 0.785623 0.454666
Si Si2 0.447648 0.828085 0.894275
Si Si3 0.884578 0.934616 0.873066
Si Si4 0.269041 0.482609 0.310409
Si Si5 0.254760 0.188307 0.786792
Si Si6 0.946603 0.644262 0.379395
O O1 0.487985 0.761951 0.627525
O O2 0.307605 0.667558 0.405396
O O3 0.593983 0.729029 0.228602
O O4 0.318632 0.987524 0.562844
O O5 0.556246 0.668585 0.889758
O O6 0.500000 0.000000 0.000000
O O7 0.250984 0.886696 0.050579
O O8 0.965467 0.808183 0.592931
O O9 0.798468 0.818315 0.975455
O O10 0.000000 0.000000 0.000000
O O11 0.182563 0.444652 0.521050
O O12 0.132476 0.503223 0.213585
O O13 0.104899 0.295535 0.777544
#
# Coordination Sequence:
#
# PCOD8012141 Si02
#       6
#     2   2   2   2   2   2
#     4  10  21  39  67 100 132 175 229 268 333 400
#     4  11  20  40  69  95 133 179 218 270 334 396
#     4  11  24  42  70 100 128 176 227 271 332 402
#     4  11  23  40  70  99 133 182 217 274 338 391
#     4  10  22  42  70  95 134 177 221 274 333 397
#     4  11  23  44  70  96 140 173 220 277 334 391
#
# _framework density 26.418444999999998
#
# number of rings (size 3 to 8) (size 9 to 14) (size 15 to 20)
#    0.000    1.333    3.333    2.500    0.000    2.667 
#    0.000    4.167    0.000    0.000    0.000    0.000 
#    0.000    0.000    0.000    0.000    0.000    0.000 
#
# Total GULP energy -148728.949615 kJ/mol
# GULP energy per Si atom -12394.079135 kJ/mol
# Density = 2.635832 g / cm^3
# Si number density = 26.418445 Si / 1000 Ang^3
#
#
#
# Elastic Constant Matrix: (Units=GPa)
#
#
# Indices 1 2 3 4 5 6 
#
# 1 156.6928 61.8637 26.0461 18.2303 -20.3449 -21.7268
# 2 61.8637 101.5554 6.4438 13.2049 -10.8463 -19.6544
# 3 26.0461 6.4438 32.2436 -7.0075 -4.5454 -16.9972
# 4 18.2303 13.2049 -7.0075 26.8816 -17.5561 -3.6632
# 5 -20.3449 -10.8463 -4.5454 -17.5561 45.7342 12.4458
# 6 -21.7268 -19.6544 -16.9972 -3.6632 12.4458 68.2063
#
#
#
# Elastic Compliance Matrix: (Units=1/GPa)
#
#
# Indices 1 2 3 4 5 6 
#
# 1 0.010783 -0.005151 -0.009771 -0.007463 -0.000021 -0.000881
# 2 -0.005151 0.013668 0.002261 -0.002644 -0.000611 0.002830
# 3 -0.009771 0.002261 0.050378 0.025380 0.008230 0.009955
# 4 -0.007463 -0.002644 0.025380 0.065585 0.023072 0.002498
# 5 -0.000021 -0.000611 0.008230 0.023072 0.032136 -0.002756
# 6 -0.000881 0.002830 0.009955 0.002498 -0.002756 0.018314
#
#
# Mechanical properties :
#
#
# Convention : Reuss Voigt Hill
#
# Bulk Modulus (GPa) = 20.19898 53.24432 36.72165
# Shear Modulus (GPa) = 21.48801 41.24028 31.36414
#
# Velocity S-wave (km/s) = 2.85506 3.95529 3.44932
# Velocity P-wave (km/s) = 4.30475 6.40758 5.45838
#
# Compressibility (1/GPa) = 0.04950746
#
# Stress axis : x y z
#
# Youngs Moduli (GPa) = 92.73789 73.16559 19.84983
#
# Poissons Ratio (x) = 0.37688 0.19394
# Poissons Ratio (y) = 0.47770 -0.04488
# Poissons Ratio (z) = 0.90610 -0.16542
#
# Static dielectric constant tensor:
#      x y z
#    x 5.307050 -0.337840 -0.396290 
#    y -0.337840 4.906050 0.229330 
#    z -0.396290 0.229330 4.583610 
# 
# 
# High freq. dielectric constant tensor:
#      x y z
#    x 2.083400 -0.013050 -0.003140 
#    y -0.013050 2.050300 0.021190 
#    z -0.003140 0.021190 2.047650 
# 
# From -- ./inp_files/155767.got.cif
#   From: 2010.06.25/outbox.cif.g09.slc.cpg/sg2_78_cif.got.tgz:155767.got - 2010.06.27 13:26:56.
