data_PCOD8012154
_publ_section_title
;
Structure prediction by ZEFSAII (Michael W. Deem and Ramdas Pophale) SiO2 
 PCOD8012154
Probable space group: P -1
;
_chemical_formula_sum "Si O2"
_cell_formula_units_Z 16
_cell_length_a 9.760160
_cell_length_b 13.746835
_cell_length_c 11.477723
_cell_angle_alpha 30.917278
_cell_angle_beta 101.796596
_cell_angle_gamma 105.964468
_cell_volume 759.175535
_symmetry_space_group_name_H-M "P -1"
_symmetry_group_IT_number 2
_symmetry_cell_setting 'triclinic'
loop_
_space_group_symop_operation_xyz
x,y,z
-x,-y,-z
loop_
_atom_site_type_symbol
_atom_site_label
_atom_site_fract_x
_atom_site_fract_y
_atom_site_fract_z
Si Si1 0.916283 0.170949 0.318270
Si Si2 0.291166 0.969469 0.188473
Si Si3 0.378386 0.521597 0.864646
Si Si4 0.449369 0.637452 0.510985
Si Si5 0.931763 0.525738 0.122566
Si Si6 0.348115 0.936482 0.483201
Si Si7 0.014525 0.646735 0.456862
Si Si8 0.704649 0.685015 0.341344
O O1 0.957642 0.329856 0.264755
O O2 0.754979 0.060209 0.427601
O O3 0.000000 0.000000 0.500000
O O4 0.942372 0.295521 0.076276
O O5 0.411289 0.845178 0.312416
O O6 0.311273 0.052918 0.241590
O O7 0.135026 0.840400 0.269383
O O8 0.319028 0.148931 0.922096
O O9 0.439062 0.503353 0.763982
O O10 0.220925 0.399185 0.998477
O O11 0.332807 0.726025 0.645858
O O12 0.500000 0.500000 0.000000
O O13 0.610162 0.680909 0.445540
O O14 0.339637 0.521766 0.517101
O O15 0.946869 0.491124 0.295405
O O16 0.500000 0.000000 0.500000
O O17 0.000000 0.500000 0.500000
O O18 0.867103 0.718351 0.378230
#
# Coordination Sequence:
#
# PCOD8012154 Si02
#       8
#     2   2   2   2   2   2   2   2
#     4  10  22  41  66  92 127 168 208 261 329 373
#     4  11  22  46  64  90 131 168 215 269 317 386
#     4  10  21  39  67  88 124 172 204 257 330 377
#     4  10  22  44  59  99 128 160 219 265 316 380
#     4  10  22  44  62  93 135 160 212 279 306 389
#     4  10  23  42  61  96 129 160 214 261 316 395
#     4  12  22  45  67  91 130 174 220 263 327 381
#     4  11  24  38  70  91 127 171 214 265 317 382
#
# _framework density 21.075493999999999
#
# number of rings (size 3 to 8) (size 9 to 14) (size 15 to 20)
#    0.000    1.500    5.000    0.750    3.500    4.000 
#    6.750    0.000    0.000    0.000    0.000    0.000 
#    0.000    0.000    0.000    0.000    0.000    0.000 
#
# Total GULP energy -198227.466161 kJ/mol
# GULP energy per Si atom -12389.216635 kJ/mol
# Density = 2.102753 g / cm^3
# Si number density = 21.075494 Si / 1000 Ang^3
#
#
#
# Elastic Constant Matrix: (Units=GPa)
#
#
# Indices 1 2 3 4 5 6 
#
# 1 159.0696 49.6950 45.6718 11.0113 -11.1506 -3.6166
# 2 49.6950 65.9131 21.2649 13.1209 -6.4406 4.1475
# 3 45.6718 21.2649 93.0521 7.5824 -9.9693 -7.6943
# 4 11.0113 13.1209 7.5824 27.6583 -0.3804 2.3142
# 5 -11.1506 -6.4406 -9.9693 -0.3804 36.2702 5.9961
# 6 -3.6166 4.1475 -7.6943 2.3142 5.9961 27.6771
#
#
#
# Elastic Compliance Matrix: (Units=1/GPa)
#
#
# Indices 1 2 3 4 5 6 
#
# 1 0.009036 -0.005844 -0.002920 -0.000105 0.000756 0.001090
# 2 -0.005844 0.022082 -0.001704 -0.007278 0.002314 -0.004439
# 3 -0.002920 -0.001704 0.013196 -0.001897 0.001862 0.003298
# 4 -0.000105 -0.007278 -0.001897 0.040375 -0.000991 -0.002612
# 5 0.000756 0.002314 0.001862 -0.000991 0.029722 -0.006086
# 6 0.001090 -0.004439 0.003298 -0.002612 -0.006086 0.039392
#
#
# Mechanical properties :
#
#
# Convention : Reuss Voigt Hill
#
# Bulk Modulus (GPa) = 42.77589 61.25537 52.01563
# Shear Modulus (GPa) = 27.39270 31.74800 29.57035
#
# Velocity S-wave (km/s) = 3.60910 3.88544 3.74982
# Velocity P-wave (km/s) = 6.14069 7.01831 6.59412
#
# Compressibility (1/GPa) = 0.02337766
#
# Stress axis : x y z
#
# Youngs Moduli (GPa) = 110.67194 45.28635 75.78177
#
# Poissons Ratio (x) = 0.26466 0.22125
# Poissons Ratio (y) = 0.64679 0.12913
# Poissons Ratio (z) = 0.32312 0.07716
#
# Static dielectric constant tensor:
#      x y z
#    x 3.741580 -0.425060 0.234540 
#    y -0.425060 3.595720 0.291800 
#    z 0.234540 0.291800 3.372680 
# 
# 
# High freq. dielectric constant tensor:
#      x y z
#    x 1.841790 -0.010830 -0.011430 
#    y -0.010830 1.814690 -0.001030 
#    z -0.011430 -0.001030 1.826050 
# 
# From -- ./inp_files/398276.got.cif
#   From: 2010.06.25/outbox.cif.g09.slc.cpg/sg2_200_cif.got.tgz:398276.got - 2010.06.27 13:26:56.
