data_PCOD8012919
_publ_section_title
;
Structure prediction by ZEFSAII (Michael W. Deem and Ramdas Pophale) SiO2 
 PCOD8012919
Probable space group: P -1
;
_chemical_formula_sum "Si O2"
_cell_formula_units_Z 16
_cell_length_a 19.681121
_cell_length_b 8.502863
_cell_length_c 7.108887
_cell_angle_alpha 79.738336
_cell_angle_beta 93.958533
_cell_angle_gamma 141.224997
_cell_volume 728.388647
_symmetry_space_group_name_H-M "P -1"
_symmetry_group_IT_number 2
_symmetry_cell_setting 'triclinic'
loop_
_space_group_symop_operation_xyz
x,y,z
-x,-y,-z
loop_
_atom_site_type_symbol
_atom_site_label
_atom_site_fract_x
_atom_site_fract_y
_atom_site_fract_z
Si Si1 0.750413 0.141670 0.370784
Si Si2 0.592479 0.625520 0.273564
Si Si3 0.582113 0.084419 0.341467
Si Si4 0.415698 0.540548 0.314536
Si Si5 0.087598 0.009206 0.808059
Si Si6 0.686426 0.568594 0.044641
Si Si7 0.044782 0.278555 0.803172
Si Si8 0.091062 0.800418 0.480393
O O1 0.673917 0.138859 0.449418
O O2 0.860706 0.415763 0.246976
O O3 0.790478 0.072395 0.536296
O O4 0.680424 0.929887 0.237852
O O5 0.468242 0.461643 0.298425
O O6 0.621523 0.543551 0.457338
O O7 0.601196 0.548903 0.096288
O O8 0.645855 0.325120 0.169582
O O9 0.500000 0.000000 0.500000
O O10 0.509103 0.844861 0.239130
O O11 0.317117 0.419490 0.186227
O O12 0.195940 0.168368 0.911863
O O13 0.088349 0.199695 0.720800
O O14 0.078720 0.877244 0.655959
O O15 0.981571 0.791463 0.967013
O O16 0.931503 0.120422 0.711970
O O17 0.000000 0.500000 0.500000
#
# Coordination Sequence:
#
# PCOD8012919 Si02
#       8
#     2   2   2   2   2   2   2   2
#     4  10  21  40  64  91 128 169 207 264 321 374
#     4  10  21  41  61  90 130 160 210 267 311 380
#     4  11  22  42  65  91 132 169 210 269 319 376
#     4  10  23  39  64  91 125 167 213 259 321 378
#     4  11  23  41  66  96 129 166 215 271 320 382
#     4  12  22  39  66  91 123 170 210 260 323 379
#     4  10  23  43  65  94 130 166 216 267 325 382
#     4  10  22  41  66  91 129 170 214 263 319 387
#
# _framework density 21.966294000000001
#
# number of rings (size 3 to 8) (size 9 to 14) (size 15 to 20)
#    0.000    1.500    3.750    1.125    1.750    2.000 
#    0.000    2.500    2.750    0.000    0.000    0.000 
#    0.000    0.000    0.000    0.000    0.000    0.000 
#
# Total GULP energy -198208.798383 kJ/mol
# GULP energy per Si atom -12388.049899 kJ/mol
# Density = 2.191630 g / cm^3
# Si number density = 21.966294 Si / 1000 Ang^3
#
#
#
# Elastic Constant Matrix: (Units=GPa)
#
#
# Indices 1 2 3 4 5 6 
#
# 1 121.9017 3.2212 25.5344 10.0377 9.5819 -2.9267
# 2 3.2212 76.9694 14.0174 8.8233 4.5612 -8.1465
# 3 25.5344 14.0174 72.9901 6.5710 13.3077 -6.8225
# 4 10.0377 8.8233 6.5710 25.6401 3.6218 1.3750
# 5 9.5819 4.5612 13.3077 3.6218 30.0225 3.2402
# 6 -2.9267 -8.1465 -6.8225 1.3750 3.2402 30.4827
#
#
#
# Elastic Compliance Matrix: (Units=1/GPa)
#
#
# Indices 1 2 3 4 5 6 
#
# 1 0.009131 0.000612 -0.002701 -0.002915 -0.001537 0.000731
# 2 0.000612 0.014342 -0.001942 -0.004690 -0.001359 0.003813
# 3 -0.002701 -0.001942 0.016705 -0.001847 -0.006427 0.003727
# 4 -0.002915 -0.004690 -0.001847 0.042750 -0.002304 -0.003630
# 5 -0.001537 -0.001359 -0.006427 -0.002304 0.037765 -0.005860
# 6 0.000731 0.003813 0.003727 -0.003630 -0.005860 0.035515
#
#
# Mechanical properties :
#
#
# Convention : Reuss Voigt Hill
#
# Bulk Modulus (GPa) = 31.13647 39.71191 35.42419
# Shear Modulus (GPa) = 28.57550 32.50163 30.53857
#
# Velocity S-wave (km/s) = 3.61068 3.85075 3.73265
# Velocity P-wave (km/s) = 5.62033 6.15539 5.89394
#
# Compressibility (1/GPa) = 0.03211668
#
# Stress axis : x y z
#
# Youngs Moduli (GPa) = 109.51273 69.72540 59.86311
#
# Poissons Ratio (x) = -0.04270 0.16169
# Poissons Ratio (y) = -0.06707 0.11626
# Poissons Ratio (z) = 0.29580 0.13541
#
# Static dielectric constant tensor:
#      x y z
#    x 4.460600 -0.091890 0.274800 
#    y -0.091890 4.037020 0.056570 
#    z 0.274800 0.056570 3.686510 
# 
# 
# High freq. dielectric constant tensor:
#      x y z
#    x 1.881480 -0.004990 0.011720 
#    y -0.004990 1.874580 0.000550 
#    z 0.011720 0.000550 1.826610 
# 
# From -- ./inp_files/99672.got.cif
#   From: 2010.06.25/outbox.cif.g09.slc.cpg/sg2_50_cif.got.tgz:99672.got - 2010.06.27 13:26:56.
