data_PCOD8012637
_publ_section_title
;
Structure prediction by ZEFSAII (Michael W. Deem and Ramdas Pophale) SiO2 
 PCOD8012637
Probable space group: P -1
;
_chemical_formula_sum "Si O2"
_cell_formula_units_Z 16
_cell_length_a 11.579827
_cell_length_b 17.581575
_cell_length_c 19.648806
_cell_angle_alpha 30.450726
_cell_angle_beta 21.643251
_cell_angle_gamma 32.467968
_cell_volume 728.248141
_symmetry_space_group_name_H-M "P -1"
_symmetry_group_IT_number 2
_symmetry_cell_setting 'triclinic'
loop_
_space_group_symop_operation_xyz
x,y,z
-x,-y,-z
loop_
_atom_site_type_symbol
_atom_site_label
_atom_site_fract_x
_atom_site_fract_y
_atom_site_fract_z
Si Si1 0.950235 0.050836 0.329382
Si Si2 0.163217 0.252063 0.940965
Si Si3 0.321061 0.758649 0.058384
Si Si4 0.247374 0.556488 0.369164
Si Si5 0.477798 0.054992 0.801835
Si Si6 0.260069 0.450481 0.117142
Si Si7 0.129661 0.714717 0.446879
Si Si8 0.583231 0.765772 0.432020
O O1 0.597920 0.123788 0.494717
O O2 0.193957 0.023342 0.280360
O O3 0.935551 0.890849 0.424872
O O4 0.060276 0.164375 0.128788
O O5 0.491970 0.301251 0.739918
O O6 0.888566 0.403215 0.960931
O O7 0.210684 0.138362 0.937758
O O8 0.433342 0.657967 0.142917
O O9 0.959683 0.759471 0.234665
O O10 0.342278 0.932269 0.927035
O O11 0.554937 0.689782 0.922120
O O12 0.054952 0.661399 0.453697
O O13 0.483389 0.405266 0.388851
O O14 0.000000 0.500000 0.500000
O O15 0.547514 0.180239 0.613055
O O16 0.979347 0.394310 0.353742
O O17 0.500000 0.500000 0.000000
#
# Coordination Sequence:
#
# PCOD8012637 Si02
#       8
#     2   2   2   2   2   2   2   2
#     4  11  24  42  65  95 127 167 213 260 313 377
#     4  11  24  44  66  94 128 168 212 263 317 376
#     4  11  23  41  62  91 127 166 209 260 314 373
#     4  10  21  40  62  89 124 163 205 257 309 367
#     4  11  22  41  63  91 127 164 209 263 312 373
#     4  12  25  43  66  97 129 167 213 262 316 380
#     4  11  23  43  67  94 128 168 211 262 318 374
#     4  11  23  40  62  91 126 167 208 259 315 370
#
# _framework density 21.970533
#
# number of rings (size 3 to 8) (size 9 to 14) (size 15 to 20)
#    0.000    1.000    0.000    8.625    0.000    5.000 
#    0.000    6.250    0.000    0.000    0.000    0.000 
#    0.000    0.000    0.000    0.000    0.000    0.000 
#
# Total GULP energy -198470.511333 kJ/mol
# GULP energy per Si atom -12404.406958 kJ/mol
# Density = 2.192053 g / cm^3
# Si number density = 21.970533 Si / 1000 Ang^3
#
#
#
# Elastic Constant Matrix: (Units=GPa)
#
#
# Indices 1 2 3 4 5 6 
#
# 1 129.7733 59.1683 50.9313 -5.9982 30.0179 6.9572
# 2 59.1683 105.3267 32.8956 2.3326 4.0055 3.4297
# 3 50.9313 32.8956 67.5855 -6.1116 20.8741 -7.8387
# 4 -5.9982 2.3326 -6.1116 37.8396 -0.8486 14.8834
# 5 30.0179 4.0055 20.8741 -0.8486 35.1096 -10.2855
# 6 6.9572 3.4297 -7.8387 14.8834 -10.2855 48.3991
#
#
#
# Elastic Compliance Matrix: (Units=1/GPa)
#
#
# Indices 1 2 3 4 5 6 
#
# 1 0.016304 -0.006798 -0.005775 0.004412 -0.011561 -0.006611
# 2 -0.006798 0.014345 -0.004123 -0.003165 0.007069 0.001768
# 3 -0.005775 -0.004123 0.024154 0.001998 -0.008115 0.002695
# 4 0.004412 -0.003165 0.001998 0.031986 -0.007179 -0.011448
# 5 -0.011561 0.007069 -0.008115 -0.007179 0.045655 0.011757
# 6 -0.006611 0.001768 0.002695 -0.011448 0.011757 0.027942
#
#
# Mechanical properties :
#
#
# Convention : Reuss Voigt Hill
#
# Bulk Modulus (GPa) = 46.70571 65.40844 56.05707
# Shear Modulus (GPa) = 24.88599 34.91569 29.90084
#
# Velocity S-wave (km/s) = 3.36921 3.99081 3.69311
# Velocity P-wave (km/s) = 6.03655 7.14640 6.61479
#
# Compressibility (1/GPa) = 0.02141066
#
# Stress axis : x y z
#
# Youngs Moduli (GPa) = 61.33425 69.71235 41.40022
#
# Poissons Ratio (x) = 0.47392 0.23908
# Poissons Ratio (y) = 0.41696 0.17070
# Poissons Ratio (z) = 0.35420 0.28744
#
# Static dielectric constant tensor:
#      x y z
#    x 4.199090 -0.148330 0.419560 
#    y -0.148330 4.403350 -0.348930 
#    z 0.419560 -0.348930 4.059180 
# 
# 
# High freq. dielectric constant tensor:
#      x y z
#    x 1.873240 0.003490 0.020510 
#    y 0.003490 1.880480 -0.011430 
#    z 0.020510 -0.011430 1.858680 
# 
# From -- ./inp_files/595990.got.cif
#   From: 2010.06.25/outbox.cif.g09.slc.cpg/sg2_298_cif.got.tgz:595990.got - 2010.06.27 13:26:56.
