data_PCOD8012326
_publ_section_title
;
Structure prediction by ZEFSAII (Michael W. Deem and Ramdas Pophale) SiO2 
 PCOD8012326
Probable space group: P -1
;
_chemical_formula_sum "Si O2"
_cell_formula_units_Z 16
_cell_length_a 9.217622
_cell_length_b 11.836124
_cell_length_c 16.224333
_cell_angle_alpha 124.706389
_cell_angle_beta 134.589726
_cell_angle_gamma 91.352507
_cell_volume 715.848493
_symmetry_space_group_name_H-M "P -1"
_symmetry_group_IT_number 2
_symmetry_cell_setting 'triclinic'
loop_
_space_group_symop_operation_xyz
x,y,z
-x,-y,-z
loop_
_atom_site_type_symbol
_atom_site_label
_atom_site_fract_x
_atom_site_fract_y
_atom_site_fract_z
Si Si1 0.724680 0.051642 0.785447
Si Si2 0.086736 0.976846 0.918274
Si Si3 0.693661 0.324500 0.264084
Si Si4 0.108902 0.409640 0.969353
Si Si5 0.213246 0.761234 0.952786
Si Si6 0.746626 0.618045 0.321139
Si Si7 0.195849 0.916473 0.768234
Si Si8 0.068836 0.665961 0.319584
O O1 0.851886 0.977395 0.852447
O O2 0.416392 0.860417 0.542858
O O3 0.692977 0.159813 0.882906
O O4 0.952009 0.208485 0.870768
O O5 0.022077 0.797847 0.858905
O O6 0.072733 0.961582 0.805783
O O7 0.418509 0.192028 0.163546
O O8 0.644144 0.410619 0.208427
O O9 0.715769 0.177096 0.181565
O O10 0.000000 0.500000 0.500000
O O11 0.462311 0.576961 0.189743
O O12 0.000000 0.500000 0.000000
O O13 0.038699 0.354895 0.823172
O O14 0.002213 0.526387 0.765293
O O15 0.514348 0.878153 0.072746
O O16 0.954869 0.770659 0.541404
O O17 0.912887 0.698107 0.332914
#
# Coordination Sequence:
#
# PCOD8012326 Si02
#       8
#     2   2   2   2   2   2   2   2
#     4  12  26  47  69 101 144 182 229 284 354 409
#     4  11  22  40  68 104 142 184 216 284 348 409
#     4   9  18  36  66  99 136 176 222 271 338 412
#     4  12  27  49  71  97 138 183 235 294 341 402
#     4  11  23  45  68 104 146 174 228 285 338 421
#     4  11  22  44  73 102 132 184 236 279 342 409
#     4  10  21  39  69 107 141 175 228 277 341 419
#     4  12  26  47  72  99 136 186 232 288 343 400
#
# _framework density 22.351099000000001
#
# number of rings (size 3 to 8) (size 9 to 14) (size 15 to 20)
#    0.000    1.000    3.750    4.125    1.750    0.500 
#    0.000    1.250    0.000    0.000    0.000    0.000 
#    0.000    0.000    0.000    0.000    0.000    0.000 
#
# Total GULP energy -198342.292003 kJ/mol
# GULP energy per Si atom -12396.393250 kJ/mol
# Density = 2.230023 g / cm^3
# Si number density = 22.351099 Si / 1000 Ang^3
#
#
#
# Elastic Constant Matrix: (Units=GPa)
#
#
# Indices 1 2 3 4 5 6 
#
# 1 99.2099 15.1145 39.9717 -2.7802 -5.1402 -1.2778
# 2 15.1145 70.5182 32.0959 -1.5287 6.7851 0.6282
# 3 39.9717 32.0959 127.7268 0.9590 5.6562 -7.3728
# 4 -2.7802 -1.5287 0.9590 34.9667 -3.5731 3.9183
# 5 -5.1402 6.7851 5.6562 -3.5731 34.6268 -4.3933
# 6 -1.2778 0.6282 -7.3728 3.9183 -4.3933 32.0256
#
#
#
# Elastic Compliance Matrix: (Units=1/GPa)
#
#
# Indices 1 2 3 4 5 6 
#
# 1 0.011862 -0.001153 -0.003557 0.001277 0.002686 -0.000111
# 2 -0.001153 0.016443 -0.003744 0.000622 -0.002934 -0.001709
# 3 -0.003557 -0.003744 0.010076 -0.001101 -0.001273 0.002211
# 4 0.001277 0.000622 -0.001101 0.029433 0.002850 -0.003425
# 5 0.002686 -0.002934 -0.001273 0.002850 0.030831 0.003752
# 6 -0.000111 -0.001709 0.002211 -0.003425 0.003752 0.032697
#
#
# Mechanical properties :
#
#
# Convention : Reuss Voigt Hill
#
# Bulk Modulus (GPa) = 46.57417 52.42435 49.49926
# Shear Modulus (GPa) = 32.17327 34.34201 33.25764
#
# Velocity S-wave (km/s) = 3.79812 3.92405 3.86160
# Velocity P-wave (km/s) = 6.33381 6.63602 6.48667
#
# Compressibility (1/GPa) = 0.02147113
#
# Stress axis : x y z
#
# Youngs Moduli (GPa) = 84.30223 60.81546 99.24873
#
# Poissons Ratio (x) = 0.07012 0.35306
# Poissons Ratio (y) = 0.09721 0.37163
# Poissons Ratio (z) = 0.29989 0.22772
#
# Static dielectric constant tensor:
#      x y z
#    x 4.108050 -0.060350 -0.132300 
#    y -0.060350 4.499940 0.389470 
#    z -0.132300 0.389470 4.286030 
# 
# 
# High freq. dielectric constant tensor:
#      x y z
#    x 1.888140 0.005920 -0.007560 
#    y 0.005920 1.874100 0.007250 
#    z -0.007560 0.007250 1.886680 
# 
# From -- ./inp_files/559967.got.cif
#   From: 2010.06.25/outbox.cif.g09.slc.cpg/sg2_280_cif.got.tgz:559967.got - 2010.06.27 13:26:56.
