data_PCOD8012134
_publ_section_title
;
Structure prediction by ZEFSAII (Michael W. Deem and Ramdas Pophale) SiO2 
 PCOD8012134
Probable space group: P -1
;
_chemical_formula_sum "Si O2"
_cell_formula_units_Z 16
_cell_length_a 9.838492
_cell_length_b 9.822984
_cell_length_c 18.868396
_cell_angle_alpha 25.710414
_cell_angle_beta 88.643621
_cell_angle_gamma 83.272998
_cell_volume 771.316815
_symmetry_space_group_name_H-M "P -1"
_symmetry_group_IT_number 2
_symmetry_cell_setting 'triclinic'
loop_
_space_group_symop_operation_xyz
x,y,z
-x,-y,-z
loop_
_atom_site_type_symbol
_atom_site_label
_atom_site_fract_x
_atom_site_fract_y
_atom_site_fract_z
Si Si1 0.410879 0.308400 0.995285
Si Si2 0.886357 0.197023 0.460501
Si Si3 0.249903 0.807250 0.283171
Si Si4 0.036651 0.319003 0.657813
Si Si5 0.379359 0.625928 0.700173
Si Si6 0.301565 0.745275 0.916895
Si Si7 0.717315 0.899405 0.708983
Si Si8 0.562166 0.779454 0.510521
O O1 0.564210 0.158814 0.094308
O O2 0.315153 0.052619 0.121838
O O3 0.423509 0.380543 0.878796
O O4 0.339779 0.627302 0.891224
O O5 0.953289 0.428740 0.399542
O O6 0.764462 0.419186 0.311288
O O7 0.824728 0.937939 0.628148
O O8 0.000000 0.000000 0.500000
O O9 0.330823 0.442542 0.439032
O O10 0.088666 0.855185 0.239730
O O11 0.262912 0.859832 0.341832
O O12 0.000000 0.500000 0.500000
O O13 0.179433 0.058016 0.770227
O O14 0.499852 0.557478 0.670988
O O15 0.355871 0.995375 0.553061
O O16 0.252584 0.466859 0.092853
O O17 0.558828 0.992188 0.640548
#
# Coordination Sequence:
#
# PCOD8012134 Si02
#       8
#     2   2   2   2   2   2   2   2
#     4  10  23  42  69 101 130 179 214 284 330 391
#     4  11  25  43  67  99 135 181 221 268 340 399
#     4  11  24  39  67  98 131 173 227 271 333 386
#     4  12  27  46  66 100 133 178 224 278 325 400
#     4  10  22  40  64  95 133 178 218 269 337 390
#     4  10  24  43  69  99 134 167 229 272 336 390
#     4  10  21  42  68  99 128 173 218 284 327 390
#     4  10  21  39  66  98 130 171 225 270 332 392
#
# _framework density 20.743745000000001
#
# number of rings (size 3 to 8) (size 9 to 14) (size 15 to 20)
#    0.000    1.500    2.500    1.125    7.000    3.500 
#    0.000    1.250    0.000    0.000    0.000    0.000 
#    0.000    0.000    0.000    0.000    0.000    0.000 
#
# Total GULP energy -198475.018486 kJ/mol
# GULP energy per Si atom -12404.688655 kJ/mol
# Density = 2.069653 g / cm^3
# Si number density = 20.743745 Si / 1000 Ang^3
#
#
#
# Elastic Constant Matrix: (Units=GPa)
#
#
# Indices 1 2 3 4 5 6 
#
# 1 133.2286 59.4955 48.3637 -6.8963 -1.8719 3.0342
# 2 59.4955 111.5021 31.9075 -1.8887 13.4393 6.2428
# 3 48.3637 31.9075 77.0507 9.2761 11.0916 -2.8938
# 4 -6.8963 -1.8887 9.2761 33.6329 1.4503 1.6428
# 5 -1.8719 13.4393 11.0916 1.4503 29.1639 -7.7136
# 6 3.0342 6.2428 -2.8938 1.6428 -7.7136 42.1623
#
#
#
# Elastic Compliance Matrix: (Units=1/GPa)
#
#
# Indices 1 2 3 4 5 6 
#
# 1 0.012807 -0.005468 -0.007098 0.004005 0.005929 0.000329
# 2 -0.005468 0.013221 -0.001225 0.000393 -0.006764 -0.002901
# 3 -0.007098 -0.001225 0.019770 -0.006736 -0.006792 0.001069
# 4 0.004005 0.000393 -0.006736 0.032510 0.000496 -0.001985
# 5 0.005929 -0.006764 -0.006792 0.000496 0.042421 0.007850
# 6 0.000329 -0.002901 0.001069 -0.001985 0.007850 0.025711
#
#
# Mechanical properties :
#
#
# Convention : Reuss Voigt Hill
#
# Bulk Modulus (GPa) = 54.89678 66.81274 60.85476
# Shear Modulus (GPa) = 27.76315 33.12614 30.44464
#
# Velocity S-wave (km/s) = 3.66237 4.00049 3.83515
# Velocity P-wave (km/s) = 6.66375 7.32237 7.00081
#
# Compressibility (1/GPa) = 0.01821601
#
# Stress axis : x y z
#
# Youngs Moduli (GPa) = 78.07930 75.63720 50.58134
#
# Poissons Ratio (x) = 0.41358 0.35903
# Poissons Ratio (y) = 0.42693 0.06198
# Poissons Ratio (z) = 0.55421 0.09268
#
# Static dielectric constant tensor:
#      x y z
#    x 3.950970 0.121280 -0.220060 
#    y 0.121280 3.911680 0.075260 
#    z -0.220060 0.075260 3.534340 
# 
# 
# High freq. dielectric constant tensor:
#      x y z
#    x 1.817940 0.006350 -0.014580 
#    y 0.006350 1.823020 0.006710 
#    z -0.014580 0.006710 1.800120 
# 
# From -- ./inp_files/407247.got.cif
#   From: 2010.06.25/outbox.cif.g09.slc.cpg/sg2_204_cif.got.tgz:407247.got - 2010.06.27 13:26:56.
