data_PCOD8012522
_publ_section_title
;
Structure prediction by ZEFSAII (Michael W. Deem and Ramdas Pophale) SiO2 
 PCOD8012522
Probable space group: P -1
;
_chemical_formula_sum "Si O2"
_cell_formula_units_Z 16
_cell_length_a 17.758711
_cell_length_b 8.061763
_cell_length_c 16.462479
_cell_angle_alpha 132.660140
_cell_angle_beta 22.024553
_cell_angle_gamma 132.806639
_cell_volume 638.603482
_symmetry_space_group_name_H-M "P -1"
_symmetry_group_IT_number 2
_symmetry_cell_setting 'triclinic'
loop_
_space_group_symop_operation_xyz
x,y,z
-x,-y,-z
loop_
_atom_site_type_symbol
_atom_site_label
_atom_site_fract_x
_atom_site_fract_y
_atom_site_fract_z
Si Si1 0.590314 0.231271 0.897785
Si Si2 0.357648 0.255868 0.294287
Si Si3 0.276469 0.909231 0.541411
Si Si4 0.150624 0.575811 0.688450
Si Si5 0.694771 0.409106 0.125722
Si Si6 0.051861 0.393581 0.328651
Si Si7 0.635851 0.907780 0.069251
Si Si8 0.213160 0.416085 0.743865
O O1 0.770577 0.409760 0.819345
O O2 0.506729 0.282532 0.909099
O O3 0.674154 0.996374 0.719140
O O4 0.400381 0.218802 0.144759
O O5 0.160936 0.372627 0.544305
O O6 0.535392 0.438070 0.223962
O O7 0.251357 0.829137 0.635107
O O8 0.512087 0.936315 0.285555
O O9 0.149107 0.683196 0.548916
O O10 0.191211 0.139826 0.681739
O O11 0.275254 0.513713 0.623595
O O12 0.911962 0.570396 0.942094
O O13 0.629583 0.474427 0.304941
O O14 0.705408 0.141875 0.028047
O O15 0.000000 0.500000 0.500000
O O16 0.149886 0.166478 0.155898
O O17 0.000000 0.500000 0.000000
#
# Coordination Sequence:
#
# PCOD8012522 Si02
#       8
#     2   2   2   2   2   2   2   2
#     4  10  21  40  60  94 135 180 221 276 331 399
#     4  10  22  40  63  94 136 170 226 280 327 399
#     4  12  26  45  70 104 137 178 230 280 337 409
#     4  11  24  42  70  98 134 179 224 280 337 400
#     4  10  23  44  69  95 132 180 224 282 344 404
#     4  12  24  37  64  94 134 183 222 269 333 396
#     4  11  24  42  65  99 140 180 228 277 337 404
#     4  10  23  46  73  99 136 177 224 286 346 400
#
# _framework density 25.054672
#
# number of rings (size 3 to 8) (size 9 to 14) (size 15 to 20)
#    0.000    1.250    1.250    4.875    3.500    4.000 
#    0.000    6.250    0.000    0.000    0.000    0.000 
#    0.000    0.000    0.000    0.000    0.000    0.000 
#
# Total GULP energy -198220.672052 kJ/mol
# GULP energy per Si atom -12388.792003 kJ/mol
# Density = 2.499765 g / cm^3
# Si number density = 25.054672 Si / 1000 Ang^3
#
#
#
# Elastic Constant Matrix: (Units=GPa)
#
#
# Indices 1 2 3 4 5 6 
#
# 1 89.8291 31.6640 11.1247 -1.7092 18.6566 -7.6399
# 2 31.6640 69.0545 9.0481 7.3026 10.9424 -11.1174
# 3 11.1247 9.0481 90.9437 15.4801 20.4591 -17.7224
# 4 -1.7092 7.3026 15.4801 39.6184 2.0985 4.2746
# 5 18.6566 10.9424 20.4591 2.0985 26.3040 -7.1231
# 6 -7.6399 -11.1174 -17.7224 4.2746 -7.1231 43.3840
#
#
#
# Elastic Compliance Matrix: (Units=1/GPa)
#
#
# Indices 1 2 3 4 5 6 
#
# 1 0.014953 -0.005801 0.000266 0.002110 -0.008669 -0.000376
# 2 -0.005801 0.018604 0.001086 -0.004390 -0.003000 0.004129
# 3 0.000266 0.001086 0.015369 -0.006222 -0.010616 0.005473
# 4 0.002110 -0.004390 -0.006222 0.029151 0.001228 -0.005966
# 5 -0.008669 -0.003000 -0.010616 0.001228 0.054152 0.002138
# 6 -0.000376 0.004129 0.005473 -0.005966 0.002138 0.027217
#
#
# Mechanical properties :
#
#
# Convention : Reuss Voigt Hill
#
# Bulk Modulus (GPa) = 24.98368 39.27787 32.13077
# Shear Modulus (GPa) = 27.51990 35.06064 31.29027
#
# Velocity S-wave (km/s) = 3.31780 3.74487 3.53778
# Velocity P-wave (km/s) = 4.96693 5.86597 5.43507
#
# Compressibility (1/GPa) = 0.04002613
#
# Stress axis : x y z
#
# Youngs Moduli (GPa) = 66.87649 53.75291 65.06536
#
# Poissons Ratio (x) = 0.31184 -0.01730
# Poissons Ratio (y) = 0.38797 -0.07064
# Poissons Ratio (z) = -0.01778 -0.05836
#
# Static dielectric constant tensor:
#      x y z
#    x 4.759460 0.037160 0.203700 
#    y 0.037160 4.560710 -0.096930 
#    z 0.203700 -0.096930 4.662680 
# 
# 
# High freq. dielectric constant tensor:
#      x y z
#    x 1.990620 -0.003610 0.009290 
#    y -0.003610 1.986800 0.009100 
#    z 0.009290 0.009100 2.009680 
# 
# From -- ./inp_files/577622.got.cif
#   From: 2010.06.25/outbox.cif.g09.slc.cpg/sg2_289_cif.got.tgz:577622.got - 2010.06.27 13:26:56.
