data_PCOD8012815
_publ_section_title
;
Structure prediction by ZEFSAII (Michael W. Deem and Ramdas Pophale) SiO2 
 PCOD8012815
Probable space group: P -1
;
_chemical_formula_sum "Si O2"
_cell_formula_units_Z 14
_cell_length_a 8.483872
_cell_length_b 17.708790
_cell_length_c 6.198083
_cell_angle_alpha 56.222307
_cell_angle_beta 116.005446
_cell_angle_gamma 128.108987
_cell_volume 602.515675
_symmetry_space_group_name_H-M "P -1"
_symmetry_group_IT_number 2
_symmetry_cell_setting 'triclinic'
loop_
_space_group_symop_operation_xyz
x,y,z
-x,-y,-z
loop_
_atom_site_type_symbol
_atom_site_label
_atom_site_fract_x
_atom_site_fract_y
_atom_site_fract_z
Si Si1 0.803815 0.831439 0.687345
Si Si2 0.545118 0.977860 0.827778
Si Si3 0.517740 0.236348 0.759497
Si Si4 0.169520 0.970930 0.408325
Si Si5 0.239312 0.467617 0.217370
Si Si6 0.343966 0.346195 0.785286
Si Si7 0.072957 0.579354 0.225015
O O1 0.598156 0.798580 0.484124
O O2 0.987762 0.865902 0.570356
O O3 0.862499 0.930409 0.721954
O O4 0.779729 0.733393 0.968200
O O5 0.394662 0.003058 0.566267
O O6 0.788070 0.043598 0.797879
O O7 0.495174 0.858991 0.962615
O O8 0.500000 0.000000 0.000000
O O9 0.426364 0.292395 0.758084
O O10 0.756964 0.311444 0.744000
O O11 0.201544 0.376213 0.511022
O O12 0.477240 0.543775 0.183670
O O13 0.168724 0.544601 0.148729
O O14 0.114752 0.414081 0.006988
O O15 0.000000 0.500000 0.500000
#
# Coordination Sequence:
#
# PCOD8012815 Si02
#       7
#     2   2   2   2   2   2   2
#     4  11  22  41  63  97 129 174 222 274 328 396
#     4  11  22  43  63  93 131 176 219 280 330 391
#     4  11  23  37  65  93 126 175 219 268 334 389
#     4  10  24  40  64  91 130 173 226 272 332 387
#     4   9  21  40  64  92 130 172 212 272 329 393
#     4  10  21  40  63  94 132 170 221 271 329 396
#     4  10  21  40  63  94 130 166 217 271 329 394
#
# _framework density 23.235908999999999
#
# number of rings (size 3 to 8) (size 9 to 14) (size 15 to 20)
#    0.000    1.714    2.857    0.857    0.000    5.143 
#    0.000    5.714    0.000    0.000    0.000    0.000 
#    0.000    0.000    0.000    0.000    0.000    0.000 
#
# Total GULP energy -173453.673978 kJ/mol
# GULP energy per Si atom -12389.548141 kJ/mol
# Density = 2.318302 g / cm^3
# Si number density = 23.235909 Si / 1000 Ang^3
#
#
#
# Elastic Constant Matrix: (Units=GPa)
#
#
# Indices 1 2 3 4 5 6 
#
# 1 88.7788 36.5703 48.7729 -1.1330 -14.3945 18.3566
# 2 36.5703 75.2048 50.5689 -7.3478 -6.9931 23.6843
# 3 48.7729 50.5689 155.0203 -23.0663 -4.8349 31.4545
# 4 -1.1330 -7.3478 -23.0663 42.7641 2.5846 -1.7731
# 5 -14.3945 -6.9931 -4.8349 2.5846 46.7782 -7.1445
# 6 18.3566 23.6843 31.4545 -1.7731 -7.1445 37.5613
#
#
#
# Elastic Compliance Matrix: (Units=1/GPa)
#
#
# Indices 1 2 3 4 5 6 
#
# 1 0.016046 -0.005013 -0.003432 -0.002566 0.003791 -0.001207
# 2 -0.005013 0.020527 -0.003391 0.001253 -0.000055 -0.007605
# 3 -0.003432 -0.003391 0.010284 0.004763 -0.001505 -0.004858
# 4 -0.002566 0.001253 0.004763 0.026108 -0.001960 -0.002665
# 5 0.003791 -0.000055 -0.001505 -0.001960 0.023059 0.003736
# 6 -0.001207 -0.007605 -0.004858 -0.002665 0.003736 0.036662
#
#
# Mechanical properties :
#
#
# Convention : Reuss Voigt Hill
#
# Bulk Modulus (GPa) = 43.13077 65.64756 54.38916
# Shear Modulus (GPa) = 30.47158 37.62686 34.04922
#
# Velocity S-wave (km/s) = 3.62525 4.02847 3.83217
# Velocity P-wave (km/s) = 6.01047 7.06768 6.56040
#
# Compressibility (1/GPa) = 0.02318530
#
# Stress axis : x y z
#
# Youngs Moduli (GPa) = 62.32150 48.71527 97.23629
#
# Poissons Ratio (x) = 0.24422 0.33369
# Poissons Ratio (y) = 0.31244 0.32973
# Poissons Ratio (z) = 0.21387 0.16520
#
# Static dielectric constant tensor:
#      x y z
#    x 4.509660 -0.033620 0.130900 
#    y -0.033620 4.447990 0.042000 
#    z 0.130900 0.042000 3.543860 
# 
# 
# High freq. dielectric constant tensor:
#      x y z
#    x 1.919950 0.004820 -0.001000 
#    y 0.004820 1.903890 -0.005340 
#    z -0.001000 -0.005340 1.927900 
# 
# From -- ./inp_files/46796.got.cif
#   From: 2010.06.25/outbox.cif.g09.slc.cpg/sg2_24_cif.got.tgz:46796.got - 2010.06.27 13:26:56.
